MODEL 1
REMARK VINA RESULT: -10.926199403      0.000      0.000
REMARK  6 active torsions:
REMARK  status: ('A' for Active; 'I' for Inactive)
REMARK    1  A    between atoms: C2_2  and  N1_3 
REMARK       I    between atoms: N1_3  and  C3_5 
REMARK       I    between atoms: C3_5  and  N2_7 
REMARK    2  A    between atoms: N2_7  and  C4_9 
REMARK    3  A    between atoms: C4_9  and  C5_10 
REMARK    4  A    between atoms: C10_15  and  S1_16 
REMARK    5  A    between atoms: S1_16  and  C11_17 
REMARK    6  A    between atoms: C15_25  and  C16_26 
ROOT
HETATM    1  C5  UNL     1       5.511  13.453  31.067  1.00  0.00    -0.023 A 
HETATM    2  C6  UNL     1       6.874  13.229  31.221  1.00  0.00     0.010 A 
HETATM    3  C7  UNL     1       7.568  12.442  30.326  1.00  0.00     0.001 A 
HETATM    4  C8  UNL     1       6.851  11.877  29.270  1.00  0.00     0.001 A 
HETATM    5  C9  UNL     1       5.467  12.096  29.115  1.00  0.00     0.019 A 
HETATM    6  C10 UNL     1       4.838  12.889  30.038  1.00  0.00     0.013 A 
ENDROOT
BRANCH   6   7
HETATM    7  S1  UNL     1       3.067  13.208  29.906  1.00  0.00    -0.089 SA
BRANCH   7   8
HETATM    8  C11 UNL     1       2.234  11.807  30.630  1.00  0.00     0.021 A 
HETATM    9  C12 UNL     1       2.857  11.018  31.587  1.00  0.00     0.024 A 
HETATM   10  C13 UNL     1       2.230   9.914  32.154  1.00  0.00     0.052 A 
HETATM   11  C14 UNL     1       0.953   9.630  31.729  1.00  0.00     0.127 A 
HETATM   12  N3  UNL     1       0.079   8.657  32.054  1.00  0.00    -0.284 N 
HETATM   13  N5  UNL     1       0.326  10.396  30.793  1.00  0.00    -0.294 N 
HETATM   14  N4  UNL     1      -1.023   8.828  31.352  1.00  0.00    -0.287 N 
ATOM     15  H3  UNL     1       0.243   7.912  32.731  1.00  0.00     0.188 HD
HETATM   16  C15 UNL     1      -0.901   9.923  30.546  1.00  0.00     0.107 A 
ATOM     17  H4  UNL     1      -1.847   8.229  31.403  1.00  0.00     0.188 HD
HETATM   18  C19 UNL     1       0.970  11.463  30.260  1.00  0.00     0.119 A 
BRANCH  16  19
HETATM   19  C16 UNL     1      -1.971  10.471  29.671  1.00  0.00     0.047 C 
HETATM   20  C17 UNL     1      -1.836   9.885  28.296  1.00  0.00     0.017 C 
HETATM   21  C18 UNL     1      -3.308  10.155  30.320  1.00  0.00     0.017 C 
ENDBRANCH  16  19
ENDBRANCH   7   8
ENDBRANCH   6   7
BRANCH   1  22
HETATM   22  C4  UNL     1       4.743  14.322  32.025  1.00  0.00     0.164 C 
BRANCH  22  23
HETATM   23  N2  UNL     1       5.711  15.226  32.654  1.00  0.00    -0.339 N 
HETATM   24  C3  UNL     1       5.878  15.510  33.980  1.00  0.00     0.316 C 
HETATM   25  N1  UNL     1       6.982  16.348  34.472  1.00  0.00    -0.343 N 
HETATM   26  O1  UNL     1       5.162  15.101  34.890  1.00  0.00    -0.247 OA
ATOM     27  H1  UNL     1       7.632  16.799  33.827  1.00  0.00     0.164 HD
ATOM     28  H2  UNL     1       6.345  15.707  32.016  1.00  0.00     0.164 HD
BRANCH  25  29
HETATM   29  C2  UNL     1       7.115  16.510  35.908  1.00  0.00     0.120 C 
HETATM   30  C1  UNL     1       8.413  17.120  36.354  1.00  0.00     0.026 C 
ENDBRANCH  25  29
ENDBRANCH  22  23
ENDBRANCH   1  22
TORSDOF 6
ENDMDL
