MODEL 4
REMARK VINA RESULT: -9.114253012      3.069      9.292
REMARK  6 active torsions:
REMARK  status: ('A' for Active; 'I' for Inactive)
REMARK    1  A    between atoms: C2_2  and  N1_3 
REMARK       I    between atoms: N1_3  and  C3_5 
REMARK       I    between atoms: C3_5  and  N2_7 
REMARK    2  A    between atoms: N2_7  and  C4_9 
REMARK    3  A    between atoms: C4_9  and  C5_10 
REMARK    4  A    between atoms: C10_15  and  S1_16 
REMARK    5  A    between atoms: S1_16  and  C11_17 
REMARK    6  A    between atoms: C15_25  and  C16_26 
ROOT
HETATM    1  C5  UNL     1       0.435  10.112  30.139  1.00  0.00    -0.023 A 
HETATM    2  C6  UNL     1       0.002   9.051  30.925  1.00  0.00     0.010 A 
HETATM    3  C7  UNL     1       0.670   8.708  32.082  1.00  0.00     0.001 A 
HETATM    4  C8  UNL     1       1.793   9.460  32.427  1.00  0.00     0.001 A 
HETATM    5  C9  UNL     1       2.240  10.533  31.630  1.00  0.00     0.019 A 
HETATM    6  C10 UNL     1       1.530  10.823  30.493  1.00  0.00     0.013 A 
ENDROOT
BRANCH   6   7
HETATM    7  S1  UNL     1       2.047  12.178  29.421  1.00  0.00    -0.089 SA
BRANCH   7   8
HETATM    8  C11 UNL     1       3.772  12.480  29.762  1.00  0.00     0.021 A 
HETATM    9  C12 UNL     1       4.767  11.921  28.973  1.00  0.00     0.024 A 
HETATM   10  C13 UNL     1       6.117  12.133  29.230  1.00  0.00     0.052 A 
HETATM   11  C14 UNL     1       6.433  12.928  30.307  1.00  0.00     0.127 A 
HETATM   12  N3  UNL     1       7.610  13.325  30.833  1.00  0.00    -0.284 N 
HETATM   13  N5  UNL     1       5.469  13.486  31.090  1.00  0.00    -0.294 N 
HETATM   14  N4  UNL     1       7.368  14.088  31.879  1.00  0.00    -0.287 N 
ATOM     15  H3  UNL     1       8.534  13.076  30.479  1.00  0.00     0.188 HD
HETATM   16  C15 UNL     1       6.022  14.214  32.067  1.00  0.00     0.107 A 
ATOM     17  H4  UNL     1       8.082  14.522  32.464  1.00  0.00     0.188 HD
HETATM   18  C19 UNL     1       4.163  13.255  30.810  1.00  0.00     0.119 A 
BRANCH  16  19
HETATM   19  C16 UNL     1       5.373  15.063  33.101  1.00  0.00     0.047 C 
HETATM   20  C17 UNL     1       4.377  14.240  33.866  1.00  0.00     0.017 C 
HETATM   21  C18 UNL     1       6.468  15.638  33.984  1.00  0.00     0.017 C 
ENDBRANCH  16  19
ENDBRANCH   7   8
ENDBRANCH   6   7
BRANCH   1  22
HETATM   22  C4  UNL     1      -0.291  10.510  28.882  1.00  0.00     0.164 C 
BRANCH  22  23
HETATM   23  N2  UNL     1      -1.399   9.564  28.711  1.00  0.00    -0.339 N 
HETATM   24  C3  UNL     1      -2.479   9.656  27.880  1.00  0.00     0.316 C 
HETATM   25  N1  UNL     1      -3.449   8.561  27.726  1.00  0.00    -0.343 N 
HETATM   26  O1  UNL     1      -2.751  10.622  27.172  1.00  0.00    -0.247 OA
ATOM     27  H1  UNL     1      -3.380   7.711  28.286  1.00  0.00     0.164 HD
ATOM     28  H2  UNL     1      -1.357   8.725  29.289  1.00  0.00     0.164 HD
BRANCH  25  29
HETATM   29  C2  UNL     1      -4.508   8.733  26.748  1.00  0.00     0.120 C 
HETATM   30  C1  UNL     1      -4.818   7.509  25.936  1.00  0.00     0.026 C 
ENDBRANCH  25  29
ENDBRANCH  22  23
ENDBRANCH   1  22
TORSDOF 6
ENDMDL
