MODEL 7
REMARK VINA RESULT: -8.512303425      3.529      5.740
REMARK  6 active torsions:
REMARK  status: ('A' for Active; 'I' for Inactive)
REMARK    1  A    between atoms: C2_2  and  N1_3 
REMARK       I    between atoms: N1_3  and  C3_5 
REMARK       I    between atoms: C3_5  and  N2_7 
REMARK    2  A    between atoms: N2_7  and  C4_9 
REMARK    3  A    between atoms: C4_9  and  C5_10 
REMARK    4  A    between atoms: C10_15  and  S1_16 
REMARK    5  A    between atoms: S1_16  and  C11_17 
REMARK    6  A    between atoms: C15_25  and  C16_26 
ROOT
HETATM    1  C5  UNL     1       1.733  10.911  30.359  1.00  0.00    -0.023 A 
HETATM    2  C6  UNL     1       2.395  10.716  31.566  1.00  0.00     0.010 A 
HETATM    3  C7  UNL     1       2.053   9.672  32.399  1.00  0.00     0.001 A 
HETATM    4  C8  UNL     1       1.019   8.829  31.990  1.00  0.00     0.001 A 
HETATM    5  C9  UNL     1       0.341   9.028  30.770  1.00  0.00     0.019 A 
HETATM    6  C10 UNL     1       0.731  10.083  29.987  1.00  0.00     0.013 A 
ENDROOT
BRANCH   6   7
HETATM    7  S1  UNL     1      -0.096  10.403  28.416  1.00  0.00    -0.089 SA
BRANCH   7   8
HETATM    8  C11 UNL     1      -1.848  10.236  28.710  1.00  0.00     0.021 A 
HETATM    9  C12 UNL     1      -2.403  10.565  29.938  1.00  0.00     0.024 A 
HETATM   10  C13 UNL     1      -3.763  10.430  30.192  1.00  0.00     0.052 A 
HETATM   11  C14 UNL     1      -4.549   9.956  29.167  1.00  0.00     0.127 A 
HETATM   12  N3  UNL     1      -5.870   9.702  29.073  1.00  0.00    -0.284 N 
HETATM   13  N5  UNL     1      -4.021   9.632  27.955  1.00  0.00    -0.294 N 
HETATM   14  N4  UNL     1      -6.127   9.251  27.863  1.00  0.00    -0.287 N 
ATOM     15  H3  UNL     1      -6.556   9.837  29.816  1.00  0.00     0.188 HD
HETATM   16  C15 UNL     1      -4.978   9.198  27.127  1.00  0.00     0.107 A 
ATOM     17  H4  UNL     1      -7.050   8.980  27.524  1.00  0.00     0.188 HD
HETATM   18  C19 UNL     1      -2.689   9.774  27.745  1.00  0.00     0.119 A 
BRANCH  16  19
HETATM   19  C16 UNL     1      -4.891   8.814  25.693  1.00  0.00     0.047 C 
HETATM   20  C17 UNL     1      -4.971   7.320  25.573  1.00  0.00     0.017 C 
HETATM   21  C18 UNL     1      -6.010   9.527  24.953  1.00  0.00     0.017 C 
ENDBRANCH  16  19
ENDBRANCH   7   8
ENDBRANCH   6   7
BRANCH   1  22
HETATM   22  C4  UNL     1       2.105  12.035  29.430  1.00  0.00     0.164 C 
BRANCH  22  23
HETATM   23  N2  UNL     1       3.321  12.652  29.969  1.00  0.00    -0.339 N 
HETATM   24  C3  UNL     1       4.625  12.350  29.695  1.00  0.00     0.316 C 
HETATM   25  N1  UNL     1       5.744  13.146  30.222  1.00  0.00    -0.343 N 
HETATM   26  O1  UNL     1       5.006  11.422  28.986  1.00  0.00    -0.247 OA
ATOM     27  H1  UNL     1       5.585  13.921  30.866  1.00  0.00     0.164 HD
ATOM     28  H2  UNL     1       3.174  13.408  30.638  1.00  0.00     0.164 HD
BRANCH  25  29
HETATM   29  C2  UNL     1       7.084  12.788  29.794  1.00  0.00     0.120 C 
HETATM   30  C1  UNL     1       7.961  12.228  30.877  1.00  0.00     0.026 C 
ENDBRANCH  25  29
ENDBRANCH  22  23
ENDBRANCH   1  22
TORSDOF 6
ENDMDL
