MODEL 2
REMARK VINA RESULT: -7.430635148      0.772      1.355
REMARK  1 active torsions:
REMARK  status: ('A' for Active; 'I' for Inactive)
REMARK    1  A    between atoms: C5_6  and  C6_7 
ROOT
HETATM    1  C6  UNL     1     -20.988   1.657   0.243  1.00  0.00    -0.010 A 
HETATM    2  C7  UNL     1     -20.408   0.958  -0.793  1.00  0.00     0.012 A 
HETATM    3  C8  UNL     1     -20.258  -0.427  -0.727  1.00  0.00     0.018 A 
HETATM    4  C9  UNL     1     -20.688  -1.129   0.378  1.00  0.00     0.087 A 
HETATM    5  N2  UNL     1     -21.251  -0.427   1.377  1.00  0.00    -0.375 N 
ATOM      6  H2  UNL     1     -21.575  -0.929   2.204  1.00  0.00     0.164 HD
HETATM    7  C10 UNL     1     -21.407   0.927   1.333  1.00  0.00     0.096 A 
ENDROOT
BRANCH   1   8
HETATM    8  C5  UNL     1     -21.131   3.099   0.145  1.00  0.00     0.257 C 
HETATM    9  N1  UNL     1     -21.310   3.591  -1.198  1.00  0.00     0.093 N 
HETATM   10  C1  UNL     1     -20.057   3.683  -1.910  1.00  0.00     0.310 C 
HETATM   11  C2  UNL     1     -21.898   4.912  -1.064  1.00  0.00     0.273 C 
HETATM   12  C3  UNL     1     -22.277   5.079   0.383  1.00  0.00     0.033 C 
HETATM   13  C4  UNL     1     -22.411   3.620   0.810  1.00  0.00     0.042 C 
ENDBRANCH   1   8
TORSDOF 1
ENDMDL
