MODEL 7
REMARK VINA RESULT: -6.953445138      1.086      4.391
REMARK  1 active torsions:
REMARK  status: ('A' for Active; 'I' for Inactive)
REMARK    1  A    between atoms: C5_6  and  C6_7 
ROOT
HETATM    1  C6  UNL     1     -21.755   3.125   0.219  1.00  0.00    -0.010 A 
HETATM    2  C7  UNL     1     -22.884   3.877   0.463  1.00  0.00     0.012 A 
HETATM    3  C8  UNL     1     -22.877   5.260   0.283  1.00  0.00     0.018 A 
HETATM    4  C9  UNL     1     -21.738   5.906  -0.145  1.00  0.00     0.087 A 
HETATM    5  N2  UNL     1     -20.648   5.154  -0.377  1.00  0.00    -0.375 N 
ATOM      6  H2  UNL     1     -19.795   5.615  -0.695  1.00  0.00     0.164 HD
HETATM    7  C10 UNL     1     -20.634   3.801  -0.207  1.00  0.00     0.096 A 
ENDROOT
BRANCH   1   8
HETATM    8  C5  UNL     1     -21.795   1.687   0.415  1.00  0.00     0.257 C 
HETATM    9  N1  UNL     1     -20.893   0.943  -0.428  1.00  0.00     0.093 N 
HETATM   10  C1  UNL     1     -21.425   0.760  -1.757  1.00  0.00     0.310 C 
HETATM   11  C2  UNL     1     -20.717  -0.346   0.215  1.00  0.00     0.273 C 
HETATM   12  C3  UNL     1     -21.352  -0.249   1.577  1.00  0.00     0.033 C 
HETATM   13  C4  UNL     1     -21.302   1.259   1.804  1.00  0.00     0.042 C 
ENDBRANCH   1   8
TORSDOF 1
ENDMDL
