MODEL 5
REMARK VINA RESULT: -7.013560958      1.233      4.789
REMARK  1 active torsions:
REMARK  status: ('A' for Active; 'I' for Inactive)
REMARK    1  A    between atoms: C5_6  and  C6_7 
ROOT
HETATM    1  C6  UNL     1     -21.327   2.858   0.125  1.00  0.00    -0.010 A 
HETATM    2  C7  UNL     1     -21.136   3.473  -1.092  1.00  0.00     0.012 A 
HETATM    3  C8  UNL     1     -21.647   4.748  -1.339  1.00  0.00     0.018 A 
HETATM    4  C9  UNL     1     -22.355   5.420  -0.368  1.00  0.00     0.087 A 
HETATM    5  N2  UNL     1     -22.530   4.801   0.813  1.00  0.00    -0.375 N 
ATOM      6  H2  UNL     1     -23.052   5.284   1.545  1.00  0.00     0.164 HD
HETATM    7  C10 UNL     1     -22.039   3.555   1.074  1.00  0.00     0.096 A 
ENDROOT
BRANCH   1   8
HETATM    8  C5  UNL     1     -20.783   1.530   0.351  1.00  0.00     0.257 C 
HETATM    9  N1  UNL     1     -21.625   0.664   1.138  1.00  0.00     0.093 N 
HETATM   10  C1  UNL     1     -21.507   0.936   2.551  1.00  0.00     0.310 C 
HETATM   11  C2  UNL     1     -21.180  -0.689   0.856  1.00  0.00     0.273 C 
HETATM   12  C3  UNL     1     -20.214  -0.603  -0.295  1.00  0.00     0.033 C 
HETATM   13  C4  UNL     1     -20.656   0.708  -0.938  1.00  0.00     0.042 C 
ENDBRANCH   1   8
TORSDOF 1
ENDMDL
