MODEL 14
REMARK VINA RESULT: -6.273984827      1.348      4.656
REMARK  1 active torsions:
REMARK  status: ('A' for Active; 'I' for Inactive)
REMARK    1  A    between atoms: C5_6  and  C6_7 
ROOT
HETATM    1  C6  UNL     1     -20.721   2.852  -0.291  1.00  0.00    -0.010 A 
HETATM    2  C7  UNL     1     -20.155   2.861  -1.547  1.00  0.00     0.012 A 
HETATM    3  C8  UNL     1     -20.214   3.999  -2.351  1.00  0.00     0.018 A 
HETATM    4  C9  UNL     1     -20.841   5.142  -1.905  1.00  0.00     0.087 A 
HETATM    5  N2  UNL     1     -21.387   5.111  -0.677  1.00  0.00    -0.375 N 
ATOM      6  H2  UNL     1     -21.855   5.948  -0.329  1.00  0.00     0.164 HD
HETATM    7  C10 UNL     1     -21.340   4.008   0.125  1.00  0.00     0.096 A 
ENDROOT
BRANCH   1   8
HETATM    8  C5  UNL     1     -20.642   1.651   0.522  1.00  0.00     0.257 C 
HETATM    9  N1  UNL     1     -21.734   1.483   1.448  1.00  0.00     0.093 N 
HETATM   10  C1  UNL     1     -21.560   2.281   2.638  1.00  0.00     0.310 C 
HETATM   11  C2  UNL     1     -21.749   0.073   1.796  1.00  0.00     0.273 C 
HETATM   12  C3  UNL     1     -20.787  -0.619   0.868  1.00  0.00     0.033 C 
HETATM   13  C4  UNL     1     -20.767   0.362  -0.301  1.00  0.00     0.042 C 
ENDBRANCH   1   8
TORSDOF 1
ENDMDL
