MODEL 1
REMARK VINA RESULT: -7.554490706      0.000      0.000
REMARK  1 active torsions:
REMARK  status: ('A' for Active; 'I' for Inactive)
REMARK    1  A    between atoms: C5_6  and  C6_7 
ROOT
HETATM    1  C6  UNL     1     -21.094   1.760   0.198  1.00  0.00    -0.010 A 
HETATM    2  C7  UNL     1     -21.338   1.153   1.410  1.00  0.00     0.012 A 
HETATM    3  C8  UNL     1     -21.216  -0.229   1.556  1.00  0.00     0.018 A 
HETATM    4  C9  UNL     1     -20.848  -1.018   0.489  1.00  0.00     0.087 A 
HETATM    5  N2  UNL     1     -20.614  -0.406  -0.684  1.00  0.00    -0.375 N 
ATOM      6  H2  UNL     1     -20.341  -0.974  -1.486  1.00  0.00     0.164 HD
HETATM    7  C10 UNL     1     -20.728   0.944  -0.848  1.00  0.00     0.096 A 
ENDROOT
BRANCH   1   8
HETATM    8  C5  UNL     1     -21.229   3.201   0.078  1.00  0.00     0.257 C 
HETATM    9  N1  UNL     1     -21.375   3.677  -1.275  1.00  0.00     0.093 N 
HETATM   10  C1  UNL     1     -20.106   3.755  -1.959  1.00  0.00     0.310 C 
HETATM   11  C2  UNL     1     -21.961   5.001  -1.171  1.00  0.00     0.273 C 
HETATM   12  C3  UNL     1     -22.373   5.188   0.265  1.00  0.00     0.033 C 
HETATM   13  C4  UNL     1     -22.522   3.735   0.707  1.00  0.00     0.042 C 
ENDBRANCH   1   8
TORSDOF 1
ENDMDL
