MODEL 4
REMARK VINA RESULT: -7.139631553      1.208      1.614
REMARK  1 active torsions:
REMARK  status: ('A' for Active; 'I' for Inactive)
REMARK    1  A    between atoms: C5_6  and  C6_7 
ROOT
HETATM    1  C6  UNL     1     -21.334   2.331   0.795  1.00  0.00    -0.010 A 
HETATM    2  C7  UNL     1     -20.926   1.306  -0.031  1.00  0.00     0.012 A 
HETATM    3  C8  UNL     1     -20.936  -0.017   0.411  1.00  0.00     0.018 A 
HETATM    4  C9  UNL     1     -21.353  -0.328   1.686  1.00  0.00     0.087 A 
HETATM    5  N2  UNL     1     -21.747   0.687   2.475  1.00  0.00    -0.375 N 
ATOM      6  H2  UNL     1     -22.060   0.475   3.423  1.00  0.00     0.164 HD
HETATM    7  C10 UNL     1     -21.745   1.987   2.062  1.00  0.00     0.096 A 
ENDROOT
BRANCH   1   8
HETATM    8  C5  UNL     1     -21.313   3.698   0.305  1.00  0.00     0.257 C 
HETATM    9  N1  UNL     1     -21.344   3.819  -1.131  1.00  0.00     0.093 N 
HETATM   10  C1  UNL     1     -20.043   3.607  -1.718  1.00  0.00     0.310 C 
HETATM   11  C2  UNL     1     -21.796   5.171  -1.408  1.00  0.00     0.273 C 
HETATM   12  C3  UNL     1     -22.254   5.758  -0.100  1.00  0.00     0.033 C 
HETATM   13  C4  UNL     1     -22.573   4.488   0.683  1.00  0.00     0.042 C 
ENDBRANCH   1   8
TORSDOF 1
ENDMDL
