MODEL 3
REMARK VINA RESULT: -7.425745768      1.302      4.691
REMARK  1 active torsions:
REMARK  status: ('A' for Active; 'I' for Inactive)
REMARK    1  A    between atoms: C5_6  and  C6_7 
ROOT
HETATM    1  C6  UNL     1     -21.299   3.125   0.433  1.00  0.00    -0.010 A 
HETATM    2  C7  UNL     1     -22.583   3.534   0.720  1.00  0.00     0.012 A 
HETATM    3  C8  UNL     1     -23.005   4.830   0.422  1.00  0.00     0.018 A 
HETATM    4  C9  UNL     1     -22.145   5.730  -0.167  1.00  0.00     0.087 A 
HETATM    5  N2  UNL     1     -20.897   5.310  -0.438  1.00  0.00    -0.375 N 
ATOM      6  H2  UNL     1     -20.246   5.963  -0.875  1.00  0.00     0.164 HD
HETATM    7  C10 UNL     1     -20.465   4.048  -0.155  1.00  0.00     0.096 A 
ENDROOT
BRANCH   1   8
HETATM    8  C5  UNL     1     -20.890   1.769   0.755  1.00  0.00     0.257 C 
HETATM    9  N1  UNL     1     -21.795   1.062   1.628  1.00  0.00     0.093 N 
HETATM   10  C1  UNL     1     -21.607   1.430   3.011  1.00  0.00     0.310 C 
HETATM   11  C2  UNL     1     -21.502  -0.348   1.448  1.00  0.00     0.273 C 
HETATM   12  C3  UNL     1     -20.568  -0.458   0.273  1.00  0.00     0.033 C 
HETATM   13  C4  UNL     1     -20.889   0.839  -0.465  1.00  0.00     0.042 C 
ENDBRANCH   1   8
TORSDOF 1
ENDMDL
