MODEL 7
REMARK VINA RESULT: -12.021187078      1.954      9.279
REMARK  3 active torsions:
REMARK  status: ('A' for Active; 'I' for Inactive)
REMARK       I    between atoms: C1_2  and  N1_3 
REMARK    1  A    between atoms: C1_2  and  C21_30 
REMARK    2  A    between atoms: N1_3  and  C2_5 
REMARK    3  A    between atoms: C10_13  and  C11_14 
ROOT
HETATM    1  C2  UNL     1       7.781  13.576  24.396  1.00  0.00     0.153 C 
HETATM    2  C3  UNL     1       6.593  14.200  24.946  1.00  0.00    -0.020 A 
HETATM    3  C4  UNL     1       6.363  15.470  25.492  1.00  0.00     0.010 A 
HETATM    4  C5  UNL     1       5.142  15.853  25.975  1.00  0.00     0.001 A 
HETATM    5  C6  UNL     1       4.126  14.936  25.905  1.00  0.00     0.001 A 
HETATM    6  C7  UNL     1       4.292  13.649  25.368  1.00  0.00     0.013 A 
HETATM    7  C8  UNL     1       5.547  13.313  24.896  1.00  0.00    -0.016 A 
HETATM    8  C9  UNL     1       6.015  12.088  24.188  1.00  0.00    -0.003 A 
HETATM    9  C10 UNL     1       5.348  10.957  23.811  1.00  0.00     0.020 A 
HETATM   10  C17 UNL     1       6.051  10.018  23.018  1.00  0.00     0.016 A 
HETATM   11  C18 UNL     1       7.350  10.225  22.646  1.00  0.00     0.002 A 
HETATM   12  C19 UNL     1       8.005  11.361  23.042  1.00  0.00     0.010 A 
HETATM   13  C20 UNL     1       7.341  12.304  23.819  1.00  0.00    -0.019 A 
ENDROOT
BRANCH   1  14
HETATM   14  N1  UNL     1       8.861  13.427  25.348  1.00  0.00    -0.344 N 
HETATM   15  C1  UNL     1       9.800  14.442  25.630  1.00  0.00     0.253 C 
HETATM   16  O1  UNL     1       9.621  15.524  24.950  1.00  0.00    -0.268 OA
ATOM     17  H1  UNL     1       8.948  12.539  25.842  1.00  0.00     0.163 HD
BRANCH  15  18
HETATM   18  C21 UNL     1      10.902  14.414  26.554  1.00  0.00     0.047 A 
HETATM   19  C22 UNL     1      10.570  14.642  27.897  1.00  0.00     0.035 A 
HETATM   20  C23 UNL     1      11.498  14.708  28.892  1.00  0.00     0.090 A 
HETATM   21  N5  UNL     1      12.797  14.551  28.589  1.00  0.00    -0.352 N 
HETATM   22  C24 UNL     1      13.151  14.326  27.288  1.00  0.00     0.116 A 
ATOM     23  H5  UNL     1      13.508  14.598  29.318  1.00  0.00     0.166 HD
HETATM   24  N6  UNL     1      14.358  14.119  26.730  1.00  0.00    -0.352 N 
HETATM   25  C27 UNL     1      12.226  14.256  26.276  1.00  0.00     0.025 A 
HETATM   26  C25 UNL     1      14.236  13.920  25.409  1.00  0.00     0.090 A 
ATOM     27  H6  UNL     1      15.241  14.115  27.241  1.00  0.00     0.166 HD
HETATM   28  C26 UNL     1      12.870  14.005  25.106  1.00  0.00     0.033 A 
ENDBRANCH  15  18
ENDBRANCH   1  14
BRANCH   9  29
HETATM   29  C11 UNL     1       4.076  10.510  24.349  1.00  0.00     0.117 A 
HETATM   30  N2  UNL     1       4.066   9.959  25.615  1.00  0.00    -0.340 N 
HETATM   31  C12 UNL     1       2.841   9.570  25.909  1.00  0.00     0.063 A 
ATOM     32  H2  UNL     1       4.878   9.867  26.226  1.00  0.00     0.167 HD
HETATM   33  C13 UNL     1       2.335   8.958  27.067  1.00  0.00     0.049 A 
HETATM   34  C16 UNL     1       2.061   9.867  24.843  1.00  0.00     0.076 A 
HETATM   35  C14 UNL     1       0.988   8.671  27.068  1.00  0.00     0.090 A 
HETATM   36  N3  UNL     1       0.194   8.959  26.015  1.00  0.00    -0.373 N 
HETATM   37  C15 UNL     1       0.711   9.544  24.923  1.00  0.00     0.119 A 
ATOM     38  H3  UNL     1      -0.799   8.733  26.050  1.00  0.00     0.164 HD
HETATM   39  N4  UNL     1       2.840  10.432  23.925  1.00  0.00    -0.339 N 
ATOM     40  H4  UNL     1       2.517  10.761  23.015  1.00  0.00     0.167 HD
ENDBRANCH   9  29
TORSDOF 3
ENDMDL
