MODEL 6
REMARK VINA RESULT: -12.512715674      2.013      9.332
REMARK  3 active torsions:
REMARK  status: ('A' for Active; 'I' for Inactive)
REMARK       I    between atoms: C1_2  and  N1_3 
REMARK    1  A    between atoms: C1_2  and  C21_30 
REMARK    2  A    between atoms: N1_3  and  C2_5 
REMARK    3  A    between atoms: C10_13  and  C11_14 
ROOT
HETATM    1  C2  UNL     1       7.843  13.508  24.437  1.00  0.00     0.153 C 
HETATM    2  C3  UNL     1       6.663  14.160  24.971  1.00  0.00    -0.020 A 
HETATM    3  C4  UNL     1       6.446  15.452  25.470  1.00  0.00     0.010 A 
HETATM    4  C5  UNL     1       5.231  15.861  25.947  1.00  0.00     0.001 A 
HETATM    5  C6  UNL     1       4.209  14.949  25.920  1.00  0.00     0.001 A 
HETATM    6  C7  UNL     1       4.362  13.642  25.431  1.00  0.00     0.013 A 
HETATM    7  C8  UNL     1       5.611  13.279  24.963  1.00  0.00    -0.016 A 
HETATM    8  C9  UNL     1       6.066  12.025  24.299  1.00  0.00    -0.003 A 
HETATM    9  C10 UNL     1       5.389  10.885  23.971  1.00  0.00     0.020 A 
HETATM   10  C17 UNL     1       6.080   9.911  23.208  1.00  0.00     0.016 A 
HETATM   11  C18 UNL     1       7.377  10.095  22.819  1.00  0.00     0.002 A 
HETATM   12  C19 UNL     1       8.042  11.241  23.166  1.00  0.00     0.010 A 
HETATM   13  C20 UNL     1       7.390  12.217  23.912  1.00  0.00    -0.019 A 
ENDROOT
BRANCH   1  14
HETATM   14  N1  UNL     1       8.929  13.388  25.386  1.00  0.00    -0.344 N 
HETATM   15  C1  UNL     1       9.859  14.418  25.644  1.00  0.00     0.253 C 
HETATM   16  O1  UNL     1       9.665  15.484  24.944  1.00  0.00    -0.268 OA
ATOM     17  H1  UNL     1       9.028  12.510  25.896  1.00  0.00     0.163 HD
BRANCH  15  18
HETATM   18  C21 UNL     1      10.966  14.419  26.562  1.00  0.00     0.047 A 
HETATM   19  C22 UNL     1      10.639  14.677  27.901  1.00  0.00     0.035 A 
HETATM   20  C23 UNL     1      11.572  14.773  28.889  1.00  0.00     0.090 A 
HETATM   21  N5  UNL     1      12.870  14.615  28.583  1.00  0.00    -0.352 N 
HETATM   22  C24 UNL     1      13.219  14.360  27.286  1.00  0.00     0.116 A 
ATOM     23  H5  UNL     1      13.585  14.684  29.307  1.00  0.00     0.166 HD
HETATM   24  N6  UNL     1      14.424  14.147  26.727  1.00  0.00    -0.352 N 
HETATM   25  C27 UNL     1      12.290  14.261  26.281  1.00  0.00     0.025 A 
HETATM   26  C25 UNL     1      14.297  13.914  25.412  1.00  0.00     0.090 A 
ATOM     27  H6  UNL     1      15.311  14.160  27.233  1.00  0.00     0.166 HD
HETATM   28  C26 UNL     1      12.928  13.984  25.114  1.00  0.00     0.033 A 
ENDBRANCH  15  18
ENDBRANCH   1  14
BRANCH   9  29
HETATM   29  C11 UNL     1       4.118  10.467  24.534  1.00  0.00     0.117 A 
HETATM   30  N2  UNL     1       2.971  10.729  23.811  1.00  0.00    -0.340 N 
HETATM   31  C12 UNL     1       1.922  10.325  24.500  1.00  0.00     0.063 A 
ATOM     32  H2  UNL     1       2.941  11.166  22.889  1.00  0.00     0.167 HD
HETATM   33  C13 UNL     1       0.554  10.377  24.186  1.00  0.00     0.049 A 
HETATM   34  C16 UNL     1       2.384   9.803  25.660  1.00  0.00     0.076 A 
HETATM   35  C14 UNL     1      -0.309   9.864  25.129  1.00  0.00     0.090 A 
HETATM   36  N3  UNL     1       0.132   9.341  26.292  1.00  0.00    -0.373 N 
HETATM   37  C15 UNL     1       1.446   9.307  26.560  1.00  0.00     0.119 A 
ATOM     38  H3  UNL     1      -0.536   8.970  26.968  1.00  0.00     0.164 HD
HETATM   39  N4  UNL     1       3.709   9.906  25.644  1.00  0.00    -0.339 N 
ATOM     40  H4  UNL     1       4.324   9.590  26.394  1.00  0.00     0.167 HD
ENDBRANCH   9  29
TORSDOF 3
ENDMDL
