MODEL 8
REMARK VINA RESULT: -11.953686783      2.053      9.450
REMARK  3 active torsions:
REMARK  status: ('A' for Active; 'I' for Inactive)
REMARK       I    between atoms: C1_2  and  N1_3 
REMARK    1  A    between atoms: C1_2  and  C21_30 
REMARK    2  A    between atoms: N1_3  and  C2_5 
REMARK    3  A    between atoms: C10_13  and  C11_14 
ROOT
HETATM    1  C2  UNL     1       8.340  13.454  24.621  1.00  0.00     0.153 C 
HETATM    2  C3  UNL     1       7.064  14.061  24.948  1.00  0.00    -0.020 A 
HETATM    3  C4  UNL     1       6.710  15.365  25.318  1.00  0.00     0.010 A 
HETATM    4  C5  UNL     1       5.421  15.724  25.602  1.00  0.00     0.001 A 
HETATM    5  C6  UNL     1       4.465  14.747  25.510  1.00  0.00     0.001 A 
HETATM    6  C7  UNL     1       4.756  13.423  25.143  1.00  0.00     0.013 A 
HETATM    7  C8  UNL     1       6.075  13.114  24.869  1.00  0.00    -0.016 A 
HETATM    8  C9  UNL     1       6.684  11.851  24.364  1.00  0.00    -0.003 A 
HETATM    9  C10 UNL     1       6.122  10.649  24.036  1.00  0.00     0.020 A 
HETATM   10  C17 UNL     1       6.963   9.676  23.443  1.00  0.00     0.016 A 
HETATM   11  C18 UNL     1       8.288   9.918  23.213  1.00  0.00     0.002 A 
HETATM   12  C19 UNL     1       8.835  11.126  23.558  1.00  0.00     0.010 A 
HETATM   13  C20 UNL     1       8.035  12.104  24.138  1.00  0.00    -0.019 A 
ENDROOT
BRANCH   1  14
HETATM   14  N1  UNL     1       9.295  13.468  25.708  1.00  0.00    -0.344 N 
HETATM   15  C1  UNL     1      10.526  14.156  25.658  1.00  0.00     0.253 C 
HETATM   16  O1  UNL     1      10.738  14.767  24.542  1.00  0.00    -0.268 OA
ATOM     17  H1  UNL     1       9.065  12.952  26.557  1.00  0.00     0.163 HD
BRANCH  15  18
HETATM   18  C21 UNL     1      11.544  14.250  26.670  1.00  0.00     0.047 A 
HETATM   19  C22 UNL     1      11.087  14.558  27.959  1.00  0.00     0.035 A 
HETATM   20  C23 UNL     1      11.921  14.742  29.020  1.00  0.00     0.090 A 
HETATM   21  N5  UNL     1      13.247  14.627  28.839  1.00  0.00    -0.352 N 
HETATM   22  C24 UNL     1      13.722  14.326  27.593  1.00  0.00     0.116 A 
ATOM     23  H5  UNL     1      13.890  14.762  29.619  1.00  0.00     0.166 HD
HETATM   24  N6  UNL     1      14.981  14.139  27.156  1.00  0.00    -0.352 N 
HETATM   25  C27 UNL     1      12.893  14.137  26.516  1.00  0.00     0.025 A 
HETATM   26  C25 UNL     1      14.983  13.838  25.848  1.00  0.00     0.090 A 
ATOM     27  H6  UNL     1      15.816  14.215  27.737  1.00  0.00     0.166 HD
HETATM   28  C26 UNL     1      13.646  13.833  25.426  1.00  0.00     0.033 A 
ENDBRANCH  15  18
ENDBRANCH   1  14
BRANCH   9  29
HETATM   29  C11 UNL     1       4.814  10.187  24.460  1.00  0.00     0.117 A 
HETATM   30  N2  UNL     1       4.197   9.209  23.705  1.00  0.00    -0.340 N 
HETATM   31  C12 UNL     1       3.006   8.956  24.212  1.00  0.00     0.063 A 
ATOM     32  H2  UNL     1       4.598   8.754  22.885  1.00  0.00     0.167 HD
HETATM   33  C13 UNL     1       2.015   8.052  23.798  1.00  0.00     0.049 A 
HETATM   34  C16 UNL     1       2.852   9.763  25.289  1.00  0.00     0.076 A 
HETATM   35  C14 UNL     1       0.862   8.022  24.549  1.00  0.00     0.090 A 
HETATM   36  N3  UNL     1       0.689   8.818  25.625  1.00  0.00    -0.373 N 
HETATM   37  C15 UNL     1       1.656   9.672  25.994  1.00  0.00     0.119 A 
ATOM     38  H3  UNL     1      -0.179   8.770  26.159  1.00  0.00     0.164 HD
HETATM   39  N4  UNL     1       3.960  10.487  25.406  1.00  0.00    -0.339 N 
ATOM     40  H4  UNL     1       4.123  11.182  26.135  1.00  0.00     0.167 HD
ENDBRANCH   9  29
TORSDOF 3
ENDMDL
