MODEL 3
REMARK VINA RESULT: -14.389177536      0.534      1.637
REMARK  3 active torsions:
REMARK  status: ('A' for Active; 'I' for Inactive)
REMARK       I    between atoms: C1_2  and  N1_3 
REMARK    1  A    between atoms: C1_2  and  C21_30 
REMARK    2  A    between atoms: N1_3  and  C2_5 
REMARK    3  A    between atoms: C10_13  and  C11_14 
ROOT
HETATM    1  C2  UNL     1       4.921  11.890  24.293  1.00  0.00     0.153 C 
HETATM    2  C3  UNL     1       6.205  11.308  23.953  1.00  0.00    -0.020 A 
HETATM    3  C4  UNL     1       6.556  10.154  23.240  1.00  0.00     0.010 A 
HETATM    4  C5  UNL     1       7.856   9.777  23.046  1.00  0.00     0.001 A 
HETATM    5  C6  UNL     1       8.828  10.582  23.581  1.00  0.00     0.001 A 
HETATM    6  C7  UNL     1       8.540  11.751  24.304  1.00  0.00     0.013 A 
HETATM    7  C8  UNL     1       7.210  12.085  24.472  1.00  0.00    -0.016 A 
HETATM    8  C9  UNL     1       6.588  13.291  25.089  1.00  0.00    -0.003 A 
HETATM    9  C10 UNL     1       7.148  14.397  25.662  1.00  0.00     0.020 A 
HETATM   10  C17 UNL     1       6.278  15.451  26.036  1.00  0.00     0.016 A 
HETATM   11  C18 UNL     1       4.927  15.367  25.841  1.00  0.00     0.002 A 
HETATM   12  C19 UNL     1       4.384  14.245  25.273  1.00  0.00     0.010 A 
HETATM   13  C20 UNL     1       5.213  13.195  24.892  1.00  0.00    -0.019 A 
ENDROOT
BRANCH   1  14
HETATM   14  N1  UNL     1       4.097  11.048  25.134  1.00  0.00    -0.344 N 
HETATM   15  C1  UNL     1       3.097  10.186  24.637  1.00  0.00     0.253 C 
HETATM   16  O1  UNL     1       2.966  10.222  23.354  1.00  0.00    -0.268 OA
ATOM     17  H1  UNL     1       4.249  11.080  26.142  1.00  0.00     0.163 HD
BRANCH  15  18
HETATM   18  C21 UNL     1       2.228   9.303  25.368  1.00  0.00     0.047 A 
HETATM   19  C22 UNL     1       2.639   7.964  25.426  1.00  0.00     0.035 A 
HETATM   20  C23 UNL     1       1.905   6.986  26.026  1.00  0.00     0.090 A 
HETATM   21  N5  UNL     1       0.730   7.302  26.592  1.00  0.00    -0.352 N 
HETATM   22  C24 UNL     1       0.303   8.600  26.553  1.00  0.00     0.116 A 
ATOM     23  H5  UNL     1       0.163   6.585  27.045  1.00  0.00     0.166 HD
HETATM   24  N6  UNL     1      -0.806   9.175  27.052  1.00  0.00    -0.352 N 
HETATM   25  C27 UNL     1       1.033   9.596  25.952  1.00  0.00     0.025 A 
HETATM   26  C25 UNL     1      -0.809  10.491  26.795  1.00  0.00     0.090 A 
ATOM     27  H6  UNL     1      -1.543   8.679  27.555  1.00  0.00     0.166 HD
HETATM   28  C26 UNL     1       0.369  10.774  26.089  1.00  0.00     0.033 A 
ENDBRANCH  15  18
ENDBRANCH   1  14
BRANCH   9  29
HETATM   29  C11 UNL     1       8.512  14.496  26.149  1.00  0.00     0.117 A 
HETATM   30  N2  UNL     1       9.538  14.302  25.246  1.00  0.00    -0.340 N 
HETATM   31  C12 UNL     1      10.693  14.380  25.878  1.00  0.00     0.063 A 
ATOM     32  H2  UNL     1       9.421  14.126  24.248  1.00  0.00     0.167 HD
HETATM   33  C13 UNL     1      12.004  14.251  25.394  1.00  0.00     0.049 A 
HETATM   34  C16 UNL     1      10.418  14.625  27.181  1.00  0.00     0.076 A 
HETATM   35  C14 UNL     1      13.014  14.388  26.319  1.00  0.00     0.090 A 
HETATM   36  N3  UNL     1      12.762  14.631  27.623  1.00  0.00    -0.373 N 
HETATM   37  C15 UNL     1      11.495  14.748  28.053  1.00  0.00     0.119 A 
ATOM     38  H3  UNL     1      13.534  14.726  28.282  1.00  0.00     0.164 HD
HETATM   39  N4  UNL     1       9.097  14.688  27.305  1.00  0.00    -0.339 N 
ATOM     40  H4  UNL     1       8.605  14.864  28.181  1.00  0.00     0.167 HD
ENDBRANCH   9  29
TORSDOF 3
ENDMDL
