MODEL 3
REMARK VINA RESULT: -6.690791335      1.214      1.224
REMARK  4 active torsions:
REMARK  status: ('A' for Active; 'I' for Inactive)
REMARK    1  A    between atoms: N1_1  and  C1_5 
REMARK    2  A    between atoms: C1_5  and  C2_6 
REMARK    3  A    between atoms: C2_6  and  C3_7 
REMARK    4  A    between atoms: C8_14  and  O1_15 
ROOT
HETATM    1  C3  UNL     1      11.712   7.774   7.232  1.00  0.00    -0.029 A 
HETATM    2  C4  UNL     1      12.203   7.857   5.927  1.00  0.00     0.096 A 
HETATM    3  N2  UNL     1      13.218   8.749   5.906  1.00  0.00    -0.365 N 
ATOM      4  H2  UNL     1      13.764   9.010   5.084  1.00  0.00     0.165 HD
HETATM    5  C5  UNL     1      13.389   9.237   7.148  1.00  0.00     0.043 A 
HETATM    6  C6  UNL     1      14.255  10.154   7.687  1.00  0.00     0.033 A 
HETATM    7  C7  UNL     1      14.228  10.499   9.040  1.00  0.00     0.039 A 
HETATM    8  C8  UNL     1      13.309   9.910   9.870  1.00  0.00     0.066 A 
HETATM    9  C9  UNL     1      12.432   8.984   9.343  1.00  0.00     0.050 A 
HETATM   10  C10 UNL     1      12.467   8.646   7.986  1.00  0.00     0.001 A 
ENDROOT
BRANCH   1  11
HETATM   11  C2  UNL     1      10.603   6.910   7.695  1.00  0.00     0.068 C 
BRANCH  11  12
HETATM   12  C1  UNL     1       9.456   7.011   6.704  1.00  0.00     0.234 C 
BRANCH  12  13
HETATM   13  N1  UNL     1       8.553   8.089   7.011  1.00  0.00    -0.079 N 
ATOM     14  H13 UNL     1       8.949   8.708   7.719  1.00  0.00     0.274 HD
ATOM     15  H12 UNL     1       8.490   8.747   6.234  1.00  0.00     0.274 HD
ATOM     16  H11 UNL     1       7.629   7.759   7.289  1.00  0.00     0.274 HD
ENDBRANCH  12  13
ENDBRANCH  11  12
ENDBRANCH   1  11
BRANCH   8  17
HETATM   17  O1  UNL     1      13.299  10.266  11.204  1.00  0.00    -0.361 OA
ATOM     18  H1  UNL     1      13.952   9.888  11.780  1.00  0.00     0.217 HD
ENDBRANCH   8  17
TORSDOF 4
ENDMDL
