MODEL 1
REMARK VINA RESULT: -7.488826660      0.000      0.000
REMARK  4 active torsions:
REMARK  status: ('A' for Active; 'I' for Inactive)
REMARK    1  A    between atoms: N1_1  and  C1_5 
REMARK    2  A    between atoms: C1_5  and  C2_6 
REMARK    3  A    between atoms: C2_6  and  C3_7 
REMARK    4  A    between atoms: C8_14  and  O1_15 
ROOT
HETATM    1  C3  UNL     1      11.510   7.990   7.129  1.00  0.00    -0.029 A 
HETATM    2  C4  UNL     1      12.058   7.977   5.845  1.00  0.00     0.096 A 
HETATM    3  N2  UNL     1      13.194   8.711   5.855  1.00  0.00    -0.365 N 
ATOM      4  H2  UNL     1      13.803   8.874   5.053  1.00  0.00     0.165 HD
HETATM    5  C5  UNL     1      13.386   9.190   7.097  1.00  0.00     0.043 A 
HETATM    6  C6  UNL     1      14.356   9.979   7.661  1.00  0.00     0.033 A 
HETATM    7  C7  UNL     1      14.327  10.348   9.008  1.00  0.00     0.039 A 
HETATM    8  C8  UNL     1      13.300   9.914   9.806  1.00  0.00     0.066 A 
HETATM    9  C9  UNL     1      12.317   9.118   9.254  1.00  0.00     0.050 A 
HETATM   10  C10 UNL     1      12.354   8.755   7.903  1.00  0.00     0.001 A 
ENDROOT
BRANCH   1  11
HETATM   11  C2  UNL     1      10.269   7.307   7.556  1.00  0.00     0.068 C 
BRANCH  11  12
HETATM   12  C1  UNL     1      10.263   5.898   6.985  1.00  0.00     0.234 C 
BRANCH  12  13
HETATM   13  N1  UNL     1      11.294   5.068   7.551  1.00  0.00    -0.079 N 
ATOM     14  H13 UNL     1      11.940   4.746   6.832  1.00  0.00     0.274 HD
ATOM     15  H12 UNL     1      11.938   5.620   8.117  1.00  0.00     0.274 HD
ATOM     16  H11 UNL     1      10.917   4.284   8.083  1.00  0.00     0.274 HD
ENDBRANCH  12  13
ENDBRANCH  11  12
ENDBRANCH   1  11
BRANCH   8  17
HETATM   17  O1  UNL     1      13.290  10.291  11.134  1.00  0.00    -0.361 OA
ATOM     18  H1  UNL     1      13.076   9.639  11.790  1.00  0.00     0.217 HD
ENDBRANCH   8  17
TORSDOF 4
ENDMDL
