MODEL 8
REMARK VINA RESULT: -4.758662158      2.803      4.808
REMARK  4 active torsions:
REMARK  status: ('A' for Active; 'I' for Inactive)
REMARK    1  A    between atoms: N1_1  and  C1_5 
REMARK    2  A    between atoms: C1_5  and  C2_6 
REMARK    3  A    between atoms: C2_6  and  C3_7 
REMARK    4  A    between atoms: C8_14  and  O1_15 
ROOT
HETATM    1  C3  UNL     1      14.167   9.835   7.136  1.00  0.00    -0.029 A 
HETATM    2  C4  UNL     1      14.424  10.382   8.394  1.00  0.00     0.096 A 
HETATM    3  N2  UNL     1      13.494   9.921   9.262  1.00  0.00    -0.365 N 
ATOM      4  H2  UNL     1      13.438  10.155  10.253  1.00  0.00     0.165 HD
HETATM    5  C5  UNL     1      12.656   9.103   8.600  1.00  0.00     0.043 A 
HETATM    6  C6  UNL     1      11.554   8.380   8.978  1.00  0.00     0.033 A 
HETATM    7  C7  UNL     1      10.836   7.589   8.078  1.00  0.00     0.039 A 
HETATM    8  C8  UNL     1      11.235   7.524   6.768  1.00  0.00     0.066 A 
HETATM    9  C9  UNL     1      12.343   8.245   6.372  1.00  0.00     0.050 A 
HETATM   10  C10 UNL     1      13.055   9.035   7.281  1.00  0.00     0.001 A 
ENDROOT
BRANCH   1  11
HETATM   11  C2  UNL     1      14.949  10.074   5.903  1.00  0.00     0.068 C 
BRANCH  11  12
HETATM   12  C1  UNL     1      14.400  11.309   5.206  1.00  0.00     0.234 C 
BRANCH  12  13
HETATM   13  N1  UNL     1      14.670  11.311   3.792  1.00  0.00    -0.079 N 
ATOM     14  H13 UNL     1      14.567  10.377   3.398  1.00  0.00     0.274 HD
ATOM     15  H12 UNL     1      13.929  11.789   3.279  1.00  0.00     0.274 HD
ATOM     16  H11 UNL     1      15.584  11.705   3.568  1.00  0.00     0.274 HD
ENDBRANCH  12  13
ENDBRANCH  11  12
ENDBRANCH   1  11
BRANCH   8  17
HETATM   17  O1  UNL     1      10.510   6.737   5.895  1.00  0.00    -0.361 OA
ATOM     18  H1  UNL     1       9.857   7.153   5.344  1.00  0.00     0.217 HD
ENDBRANCH   8  17
TORSDOF 4
ENDMDL
