MODEL 7
REMARK VINA RESULT: -5.289131454      2.891      5.083
REMARK  4 active torsions:
REMARK  status: ('A' for Active; 'I' for Inactive)
REMARK    1  A    between atoms: N1_1  and  C1_5 
REMARK    2  A    between atoms: C1_5  and  C2_6 
REMARK    3  A    between atoms: C2_6  and  C3_7 
REMARK    4  A    between atoms: C8_14  and  O1_15 
ROOT
HETATM    1  C3  UNL     1      13.152   9.380   8.327  1.00  0.00    -0.029 A 
HETATM    2  C4  UNL     1      12.621   9.298   9.616  1.00  0.00     0.096 A 
HETATM    3  N2  UNL     1      11.567   8.451   9.593  1.00  0.00    -0.365 N 
ATOM      4  H2  UNL     1      10.989   8.200  10.395  1.00  0.00     0.165 HD
HETATM    5  C5  UNL     1      11.409   7.994   8.338  1.00  0.00     0.043 A 
HETATM    6  C6  UNL     1      10.515   7.131   7.757  1.00  0.00     0.033 A 
HETATM    7  C7  UNL     1      10.561   6.813   6.398  1.00  0.00     0.039 A 
HETATM    8  C8  UNL     1      11.528   7.374   5.604  1.00  0.00     0.066 A 
HETATM    9  C9  UNL     1      12.436   8.244   6.174  1.00  0.00     0.050 A 
HETATM   10  C10 UNL     1      12.380   8.557   7.537  1.00  0.00     0.001 A 
ENDROOT
BRANCH   1  11
HETATM   11  C2  UNL     1      14.317  10.193   7.912  1.00  0.00     0.068 C 
BRANCH  11  12
HETATM   12  C1  UNL     1      14.981  10.767   9.152  1.00  0.00     0.234 C 
BRANCH  12  13
HETATM   13  N1  UNL     1      14.247  11.871   9.712  1.00  0.00    -0.079 N 
ATOM     14  H13 UNL     1      13.407  12.065   9.169  1.00  0.00     0.274 HD
ATOM     15  H12 UNL     1      13.814  11.612  10.598  1.00  0.00     0.274 HD
ATOM     16  H11 UNL     1      14.819  12.710   9.814  1.00  0.00     0.274 HD
ENDBRANCH  12  13
ENDBRANCH  11  12
ENDBRANCH   1  11
BRANCH   8  17
HETATM   17  O1  UNL     1      11.555   7.047   4.263  1.00  0.00    -0.361 OA
ATOM     18  H1  UNL     1      11.336   6.159   4.008  1.00  0.00     0.217 HD
ENDBRANCH   8  17
TORSDOF 4
ENDMDL
