MODEL 2
REMARK VINA RESULT: -6.805777370      2.478      4.516
REMARK  4 active torsions:
REMARK  status: ('A' for Active; 'I' for Inactive)
REMARK    1  A    between atoms: N1_1  and  C1_5 
REMARK    2  A    between atoms: C1_5  and  C2_6 
REMARK    3  A    between atoms: C2_6  and  C3_7 
REMARK    4  A    between atoms: C8_14  and  O1_15 
ROOT
HETATM    1  C3  UNL     1      13.164   9.262   8.157  1.00  0.00    -0.029 A 
HETATM    2  C4  UNL     1      13.952   9.701   7.091  1.00  0.00     0.096 A 
HETATM    3  N2  UNL     1      13.578   9.033   5.976  1.00  0.00    -0.365 N 
ATOM      4  H2  UNL     1      13.983   9.152   5.048  1.00  0.00     0.165 HD
HETATM    5  C5  UNL     1      12.583   8.186   6.295  1.00  0.00     0.043 A 
HETATM    6  C6  UNL     1      11.848   7.283   5.571  1.00  0.00     0.033 A 
HETATM    7  C7  UNL     1      10.847   6.500   6.150  1.00  0.00     0.039 A 
HETATM    8  C8  UNL     1      10.579   6.628   7.488  1.00  0.00     0.066 A 
HETATM    9  C9  UNL     1      11.309   7.533   8.232  1.00  0.00     0.050 A 
HETATM   10  C10 UNL     1      12.310   8.311   7.642  1.00  0.00     0.001 A 
ENDROOT
BRANCH   1  11
HETATM   11  C2  UNL     1      13.242   9.739   9.555  1.00  0.00     0.068 C 
BRANCH  11  12
HETATM   12  C1  UNL     1      13.222  11.259   9.557  1.00  0.00     0.234 C 
BRANCH  12  13
HETATM   13  N1  UNL     1      14.483  11.828   9.952  1.00  0.00    -0.079 N 
ATOM     14  H13 UNL     1      15.261  11.244   9.645  1.00  0.00     0.274 HD
ATOM     15  H12 UNL     1      14.689  12.671   9.415  1.00  0.00     0.274 HD
ATOM     16  H11 UNL     1      14.535  12.009  10.954  1.00  0.00     0.274 HD
ENDBRANCH  12  13
ENDBRANCH  11  12
ENDBRANCH   1  11
BRANCH   8  17
HETATM   17  O1  UNL     1       9.586   5.843   8.041  1.00  0.00    -0.361 OA
ATOM     18  H1  UNL     1       9.672   4.899   7.989  1.00  0.00     0.217 HD
ENDBRANCH   8  17
TORSDOF 4
ENDMDL
