MODEL 4
REMARK VINA RESULT: -8.199779408      5.835      7.544
REMARK  2 active torsions:
REMARK  status: ('A' for Active; 'I' for Inactive)
REMARK    1  A    between atoms: C2_5  and  C3_6 
REMARK       I    between atoms: C3_6  and  N3_8 
REMARK    2  A    between atoms: N3_8  and  C4_10 
ROOT
HETATM    1  C3  UNL     1     -13.482  70.844   5.133  1.00  0.00     0.270 C 
HETATM    2  O1  UNL     1     -13.438  70.315   6.272  1.00  0.00    -0.266 OA
HETATM    3  N3  UNL     1     -12.318  71.380   4.540  1.00  0.00    -0.351 N 
ATOM      4  H3  UNL     1     -12.386  71.802   3.613  1.00  0.00     0.163 HD
ENDROOT
BRANCH   1   5
HETATM    5  C2  UNL     1     -14.736  70.916   4.395  1.00  0.00     0.128 A 
HETATM    6  N2  UNL     1     -14.918  70.945   3.078  1.00  0.00    -0.293 N 
HETATM    7  N1  UNL     1     -16.211  71.011   2.780  1.00  0.00    -0.295 N 
ATOM      8  H2  UNL     1     -14.167  70.919   2.390  1.00  0.00     0.187 HD
HETATM    9  C1  UNL     1     -16.731  71.057   1.430  1.00  0.00     0.178 C 
HETATM   10  C18 UNL     1     -16.940  71.030   3.911  1.00  0.00     0.063 A 
HETATM   11  C13 UNL     1     -16.020  70.969   4.939  1.00  0.00     0.026 A 
HETATM   12  C17 UNL     1     -18.286  71.090   4.209  1.00  0.00     0.032 A 
HETATM   13  C14 UNL     1     -16.475  70.972   6.234  1.00  0.00     0.016 A 
HETATM   14  C15 UNL     1     -17.823  71.032   6.552  1.00  0.00     0.001 A 
HETATM   15  C16 UNL     1     -18.727  71.091   5.517  1.00  0.00     0.002 A 
ENDBRANCH   1   5
BRANCH   3  16
HETATM   16  C4  UNL     1     -11.035  71.351   5.201  1.00  0.00     0.088 C 
HETATM   17  C5  UNL     1     -10.195  70.303   4.519  1.00  0.00     0.061 C 
HETATM   18  C6  UNL     1      -8.720  70.453   4.817  1.00  0.00     0.225 C 
HETATM   19  C7  UNL     1      -8.362  69.985   6.184  1.00  0.00     0.036 C 
HETATM   20  N4  UNL     1      -8.338  71.796   4.516  1.00  0.00     0.093 N 
HETATM   21  C8  UNL     1      -8.076  71.088   7.160  1.00  0.00     0.004 C 
HETATM   22  C9  UNL     1      -8.827  72.337   6.871  1.00  0.00     0.036 C 
HETATM   23  C10 UNL     1      -8.949  72.710   5.451  1.00  0.00     0.225 C 
HETATM   24  C11 UNL     1     -10.440  72.735   5.092  1.00  0.00     0.061 C 
HETATM   25  C12 UNL     1      -6.942  72.002   4.321  1.00  0.00     0.310 C 
ENDBRANCH   3  16
TORSDOF 2
ENDMDL
