MODEL 3
REMARK VINA RESULT: -8.228645037      5.919      8.418
REMARK  2 active torsions:
REMARK  status: ('A' for Active; 'I' for Inactive)
REMARK    1  A    between atoms: C2_5  and  C3_6 
REMARK       I    between atoms: C3_6  and  N3_8 
REMARK    2  A    between atoms: N3_8  and  C4_10 
ROOT
HETATM    1  C3  UNL     1     -13.377  71.280   4.115  1.00  0.00     0.270 C 
HETATM    2  O1  UNL     1     -13.690  71.093   2.912  1.00  0.00    -0.266 OA
HETATM    3  N3  UNL     1     -14.372  71.389   5.112  1.00  0.00    -0.351 N 
ATOM      4  H3  UNL     1     -14.086  71.540   6.079  1.00  0.00     0.163 HD
ENDROOT
BRANCH   1   5
HETATM    5  C2  UNL     1     -11.979  71.390   4.511  1.00  0.00     0.128 A 
HETATM    6  N2  UNL     1     -11.405  72.330   5.256  1.00  0.00    -0.293 N 
HETATM    7  N1  UNL     1     -10.107  72.090   5.403  1.00  0.00    -0.295 N 
ATOM      8  H2  UNL     1     -11.895  73.127   5.661  1.00  0.00     0.187 HD
HETATM    9  C1  UNL     1      -9.206  72.933   6.161  1.00  0.00     0.178 C 
HETATM   10  C18 UNL     1      -9.773  70.964   4.746  1.00  0.00     0.063 A 
HETATM   11  C13 UNL     1     -10.948  70.511   4.179  1.00  0.00     0.026 A 
HETATM   12  C17 UNL     1      -8.609  70.250   4.552  1.00  0.00     0.032 A 
HETATM   13  C14 UNL     1     -10.921  69.359   3.433  1.00  0.00     0.016 A 
HETATM   14  C15 UNL     1      -9.761  68.629   3.228  1.00  0.00     0.001 A 
HETATM   15  C16 UNL     1      -8.598  69.092   3.800  1.00  0.00     0.002 A 
ENDBRANCH   1   5
BRANCH   3  16
HETATM   16  C4  UNL     1     -15.779  71.292   4.806  1.00  0.00     0.088 C 
HETATM   17  C5  UNL     1     -16.464  70.679   6.001  1.00  0.00     0.061 C 
HETATM   18  C6  UNL     1     -17.959  70.904   5.995  1.00  0.00     0.225 C 
HETATM   19  C7  UNL     1     -18.666  70.027   5.022  1.00  0.00     0.036 C 
HETATM   20  N4  UNL     1     -18.200  72.303   5.837  1.00  0.00     0.093 N 
HETATM   21  C8  UNL     1     -19.143  70.733   3.786  1.00  0.00     0.004 C 
HETATM   22  C9  UNL     1     -18.294  71.892   3.408  1.00  0.00     0.036 C 
HETATM   23  C10 UNL     1     -17.806  72.732   4.516  1.00  0.00     0.225 C 
HETATM   24  C11 UNL     1     -16.273  72.688   4.506  1.00  0.00     0.061 C 
HETATM   25  C12 UNL     1     -19.493  72.747   6.236  1.00  0.00     0.310 C 
ENDBRANCH   3  16
TORSDOF 2
ENDMDL
