MODEL 2
REMARK VINA RESULT: -8.258936418      7.330     10.335
REMARK  2 active torsions:
REMARK  status: ('A' for Active; 'I' for Inactive)
REMARK    1  A    between atoms: C2_5  and  C3_6 
REMARK       I    between atoms: C3_6  and  N3_8 
REMARK    2  A    between atoms: N3_8  and  C4_10 
ROOT
HETATM    1  C3  UNL     1     -16.042  70.623   6.054  1.00  0.00     0.270 C 
HETATM    2  O1  UNL     1     -16.427  70.972   7.198  1.00  0.00    -0.266 OA
HETATM    3  N3  UNL     1     -16.900  70.735   4.937  1.00  0.00    -0.351 N 
ATOM      4  H3  UNL     1     -16.558  70.444   4.021  1.00  0.00     0.163 HD
ENDROOT
BRANCH   1   5
HETATM    5  C2  UNL     1     -14.699  70.095   5.849  1.00  0.00     0.128 A 
HETATM    6  N2  UNL     1     -13.570  70.768   5.648  1.00  0.00    -0.293 N 
HETATM    7  N1  UNL     1     -12.543  69.938   5.504  1.00  0.00    -0.295 N 
ATOM      8  H2  UNL     1     -13.502  71.784   5.608  1.00  0.00     0.187 HD
HETATM    9  C1  UNL     1     -11.180  70.366   5.271  1.00  0.00     0.178 C 
HETATM   10  C18 UNL     1     -12.968  68.665   5.607  1.00  0.00     0.063 A 
HETATM   11  C13 UNL     1     -14.328  68.751   5.827  1.00  0.00     0.026 A 
HETATM   12  C17 UNL     1     -12.369  67.424   5.544  1.00  0.00     0.032 A 
HETATM   13  C14 UNL     1     -15.048  67.591   5.975  1.00  0.00     0.016 A 
HETATM   14  C15 UNL     1     -14.463  66.336   5.914  1.00  0.00     0.001 A 
HETATM   15  C16 UNL     1     -13.106  66.267   5.696  1.00  0.00     0.002 A 
ENDBRANCH   1   5
BRANCH   3  16
HETATM   16  C4  UNL     1     -18.245  71.247   5.051  1.00  0.00     0.088 C 
HETATM   17  C5  UNL     1     -18.349  72.455   4.157  1.00  0.00     0.061 C 
HETATM   18  C6  UNL     1     -19.781  72.833   3.851  1.00  0.00     0.225 C 
HETATM   19  C7  UNL     1     -20.452  73.506   4.997  1.00  0.00     0.036 C 
HETATM   20  N4  UNL     1     -20.451  71.676   3.350  1.00  0.00     0.093 N 
HETATM   21  C8  UNL     1     -21.447  72.648   5.722  1.00  0.00     0.004 C 
HETATM   22  C9  UNL     1     -21.116  71.200   5.677  1.00  0.00     0.036 C 
HETATM   23  C10 UNL     1     -20.595  70.690   4.396  1.00  0.00     0.225 C 
HETATM   24  C11 UNL     1     -19.186  70.138   4.642  1.00  0.00     0.061 C 
HETATM   25  C12 UNL     1     -21.646  71.933   2.619  1.00  0.00     0.310 C 
ENDBRANCH   3  16
TORSDOF 2
ENDMDL
