MODEL 3
REMARK VINA RESULT: -5.334288302      1.760      6.421
REMARK  12 active torsions:
REMARK  status: ('A' for Active; 'I' for Inactive)
REMARK    1  A    between atoms: O1_1  and  C1_3 
REMARK    2  A    between atoms: C1_3  and  C2_4 
REMARK    3  A    between atoms: C3_6  and  O3_7 
REMARK    4  A    between atoms: O3_7  and  C4_8 
REMARK    5  A    between atoms: C5_9  and  C6_10 
REMARK    6  A    between atoms: C6_10  and  O4_11 
REMARK    7  A    between atoms: C7_14  and  O6_15 
REMARK    8  A    between atoms: C8_17  and  O7_18 
REMARK    9  A    between atoms: C9_20  and  O8_21 
REMARK   10  A    between atoms: C10_23  and  O9_24 
REMARK   11  A    between atoms: C11_26  and  O10_27 
REMARK   12  A    between atoms: C12_29  and  O11_30 
ROOT
HETATM    1  O3  UNL     1     -22.056  14.099  19.798  1.00  0.00    -0.348 OA
ENDROOT
BRANCH   1   2
HETATM    2  C3  UNL     1     -22.707  15.136  19.136  1.00  0.00     0.292 C 
HETATM    3  O2  UNL     1     -22.591  15.051  17.767  1.00  0.00    -0.348 OA
HETATM    4  C2  UNL     1     -23.703  15.676  17.209  1.00  0.00     0.179 C 
HETATM    5  C12 UNL     1     -23.918  17.060  17.780  1.00  0.00     0.180 C 
HETATM    6  C11 UNL     1     -22.730  17.518  18.598  1.00  0.00     0.183 C 
HETATM    7  C10 UNL     1     -22.273  16.487  19.594  1.00  0.00     0.204 C 
BRANCH   4   8
HETATM    8  C1  UNL     1     -23.644  15.690  15.699  1.00  0.00     0.198 C 
BRANCH   8   9
HETATM    9  O1  UNL     1     -22.357  15.881  15.215  1.00  0.00    -0.398 OA
ATOM     10  H1  UNL     1     -22.171  15.349  14.450  1.00  0.00     0.209 HD
ENDBRANCH   8   9
ENDBRANCH   4   8
BRANCH   5  11
HETATM   11  O11 UNL     1     -24.014  17.940  16.694  1.00  0.00    -0.390 OA
ATOM     12  H11 UNL     1     -24.081  18.818  17.053  1.00  0.00     0.210 HD
ENDBRANCH   5  11
BRANCH   6  13
HETATM   13  O10 UNL     1     -23.161  18.661  19.310  1.00  0.00    -0.390 OA
ATOM     14  H10 UNL     1     -24.076  18.543  19.537  1.00  0.00     0.210 HD
ENDBRANCH   6  13
BRANCH   7  15
HETATM   15  O9  UNL     1     -20.872  16.590  19.686  1.00  0.00    -0.388 OA
ATOM     16  H9  UNL     1     -20.457  16.592  18.832  1.00  0.00     0.210 HD
ENDBRANCH   7  15
ENDBRANCH   1   2
BRANCH   1  17
HETATM   17  C4  UNL     1     -22.250  14.115  21.164  1.00  0.00     0.187 C 
HETATM   18  C5  UNL     1     -20.936  13.834  21.850  1.00  0.00     0.180 C 
HETATM   19  O5  UNL     1     -21.065  13.655  23.217  1.00  0.00    -0.349 OA
HETATM   20  C7  UNL     1     -21.966  12.662  23.559  1.00  0.00     0.288 C 
HETATM   21  C8  UNL     1     -23.339  12.901  22.973  1.00  0.00     0.204 C 
HETATM   22  C9  UNL     1     -23.302  13.080  21.490  1.00  0.00     0.183 C 
BRANCH  18  23
HETATM   23  C6  UNL     1     -20.206  12.677  21.188  1.00  0.00     0.198 C 
BRANCH  23  24
HETATM   24  O4  UNL     1     -19.466  13.186  20.122  1.00  0.00    -0.398 OA
ATOM     25  H4  UNL     1     -18.914  12.489  19.789  1.00  0.00     0.209 HD
ENDBRANCH  23  24
ENDBRANCH  18  23
BRANCH  20  26
HETATM   26  O6  UNL     1     -22.103  12.671  24.947  1.00  0.00    -0.369 OA
ATOM     27  H6  UNL     1     -22.717  11.986  25.181  1.00  0.00     0.212 HD
ENDBRANCH  20  26
BRANCH  21  28
HETATM   28  O7  UNL     1     -24.136  11.814  23.318  1.00  0.00    -0.388 OA
ATOM     29  H7  UNL     1     -24.504  11.463  22.516  1.00  0.00     0.210 HD
ENDBRANCH  21  28
BRANCH  22  30
HETATM   30  O8  UNL     1     -23.137  11.908  20.786  1.00  0.00    -0.390 OA
ATOM     31  H8  UNL     1     -23.135  11.140  21.344  1.00  0.00     0.210 HD
ENDBRANCH  22  30
ENDBRANCH   1  17
TORSDOF 12
ENDMDL
