MODEL 1
REMARK VINA RESULT: -5.413262789      0.000      0.000
REMARK  12 active torsions:
REMARK  status: ('A' for Active; 'I' for Inactive)
REMARK    1  A    between atoms: O1_1  and  C1_3 
REMARK    2  A    between atoms: C1_3  and  C2_4 
REMARK    3  A    between atoms: C3_6  and  O3_7 
REMARK    4  A    between atoms: O3_7  and  C4_8 
REMARK    5  A    between atoms: C5_9  and  C6_10 
REMARK    6  A    between atoms: C6_10  and  O4_11 
REMARK    7  A    between atoms: C7_14  and  O6_15 
REMARK    8  A    between atoms: C8_17  and  O7_18 
REMARK    9  A    between atoms: C9_20  and  O8_21 
REMARK   10  A    between atoms: C10_23  and  O9_24 
REMARK   11  A    between atoms: C11_26  and  O10_27 
REMARK   12  A    between atoms: C12_29  and  O11_30 
ROOT
HETATM    1  O3  UNL     1     -22.166  14.762  19.148  1.00  0.00    -0.348 OA
ENDROOT
BRANCH   1   2
HETATM    2  C3  UNL     1     -22.036  14.523  20.513  1.00  0.00     0.292 C 
HETATM    3  O2  UNL     1     -21.678  15.648  21.221  1.00  0.00    -0.348 OA
HETATM    4  C2  UNL     1     -22.164  15.503  22.518  1.00  0.00     0.179 C 
HETATM    5  C12 UNL     1     -21.770  14.175  23.123  1.00  0.00     0.180 C 
HETATM    6  C11 UNL     1     -20.729  13.464  22.284  1.00  0.00     0.183 C 
HETATM    7  C10 UNL     1     -21.092  13.412  20.825  1.00  0.00     0.204 C 
BRANCH   4   8
HETATM    8  C1  UNL     1     -21.772  16.666  23.400  1.00  0.00     0.198 C 
BRANCH   8   9
HETATM    9  O1  UNL     1     -20.512  17.164  23.102  1.00  0.00    -0.398 OA
ATOM     10  H1  UNL     1     -20.236  17.846  23.701  1.00  0.00     0.209 HD
ENDBRANCH   8   9
ENDBRANCH   4   8
BRANCH   5  11
HETATM   11  O11 UNL     1     -21.163  14.451  24.356  1.00  0.00    -0.390 OA
ATOM     12  H11 UNL     1     -20.983  13.615  24.770  1.00  0.00     0.210 HD
ENDBRANCH   5  11
BRANCH   6  13
HETATM   13  O10 UNL     1     -20.668  12.140  22.774  1.00  0.00    -0.390 OA
ATOM     14  H10 UNL     1     -19.905  12.065  23.334  1.00  0.00     0.210 HD
ENDBRANCH   6  13
BRANCH   7  15
HETATM   15  O9  UNL     1     -19.894  13.514  20.094  1.00  0.00    -0.388 OA
ATOM     16  H9  UNL     1     -19.130  13.524  20.659  1.00  0.00     0.210 HD
ENDBRANCH   7  15
ENDBRANCH   1   2
BRANCH   1  17
HETATM   17  C4  UNL     1     -23.165  15.663  18.842  1.00  0.00     0.187 C 
HETATM   18  C5  UNL     1     -24.141  15.010  17.895  1.00  0.00     0.180 C 
HETATM   19  O5  UNL     1     -25.083  15.893  17.392  1.00  0.00    -0.349 OA
HETATM   20  C7  UNL     1     -24.526  16.994  16.767  1.00  0.00     0.288 C 
HETATM   21  C8  UNL     1     -23.584  17.757  17.671  1.00  0.00     0.204 C 
HETATM   22  C9  UNL     1     -22.512  16.887  18.242  1.00  0.00     0.183 C 
BRANCH  18  23
HETATM   23  C6  UNL     1     -23.417  14.258  16.791  1.00  0.00     0.198 C 
BRANCH  23  24
HETATM   24  O4  UNL     1     -23.096  12.989  17.272  1.00  0.00    -0.398 OA
ATOM     25  H4  UNL     1     -22.849  12.448  16.531  1.00  0.00     0.209 HD
ENDBRANCH  23  24
ENDBRANCH  18  23
BRANCH  20  26
HETATM   26  O6  UNL     1     -25.564  17.860  16.427  1.00  0.00    -0.369 OA
ATOM     27  H6  UNL     1     -25.402  18.690  16.860  1.00  0.00     0.212 HD
ENDBRANCH  20  26
BRANCH  21  28
HETATM   28  O7  UNL     1     -23.032  18.792  16.922  1.00  0.00    -0.388 OA
ATOM     29  H7  UNL     1     -22.092  18.774  17.059  1.00  0.00     0.210 HD
ENDBRANCH  21  28
BRANCH  22  30
HETATM   30  O8  UNL     1     -21.507  16.576  17.354  1.00  0.00    -0.390 OA
ATOM     31  H8  UNL     1     -20.661  16.478  17.774  1.00  0.00     0.210 HD
ENDBRANCH  22  30
ENDBRANCH   1  17
TORSDOF 12
ENDMDL
