MODEL 2
REMARK VINA RESULT: -5.360474366      1.894      6.496
REMARK  12 active torsions:
REMARK  status: ('A' for Active; 'I' for Inactive)
REMARK    1  A    between atoms: O1_1  and  C1_3 
REMARK    2  A    between atoms: C1_3  and  C2_4 
REMARK    3  A    between atoms: C3_6  and  O3_7 
REMARK    4  A    between atoms: O3_7  and  C4_8 
REMARK    5  A    between atoms: C5_9  and  C6_10 
REMARK    6  A    between atoms: C6_10  and  O4_11 
REMARK    7  A    between atoms: C7_14  and  O6_15 
REMARK    8  A    between atoms: C8_17  and  O7_18 
REMARK    9  A    between atoms: C9_20  and  O8_21 
REMARK   10  A    between atoms: C10_23  and  O9_24 
REMARK   11  A    between atoms: C11_26  and  O10_27 
REMARK   12  A    between atoms: C12_29  and  O11_30 
ROOT
HETATM    1  O3  UNL     1     -21.594  14.111  19.714  1.00  0.00    -0.348 OA
ENDROOT
BRANCH   1   2
HETATM    2  C3  UNL     1     -22.481  15.022  19.148  1.00  0.00     0.292 C 
HETATM    3  O2  UNL     1     -22.437  15.027  17.773  1.00  0.00    -0.348 OA
HETATM    4  C2  UNL     1     -23.685  15.437  17.312  1.00  0.00     0.179 C 
HETATM    5  C12 UNL     1     -24.137  16.720  17.973  1.00  0.00     0.180 C 
HETATM    6  C11 UNL     1     -23.016  17.372  18.754  1.00  0.00     0.183 C 
HETATM    7  C10 UNL     1     -22.299  16.411  19.661  1.00  0.00     0.204 C 
BRANCH   4   8
HETATM    8  C1  UNL     1     -23.725  15.534  15.804  1.00  0.00     0.198 C 
BRANCH   8   9
HETATM    9  O1  UNL     1     -22.501  15.890  15.257  1.00  0.00    -0.398 OA
ATOM     10  H1  UNL     1     -21.960  15.139  15.047  1.00  0.00     0.209 HD
ENDBRANCH   8   9
ENDBRANCH   4   8
BRANCH   5  11
HETATM   11  O11 UNL     1     -24.477  17.612  16.947  1.00  0.00    -0.390 OA
ATOM     12  H11 UNL     1     -24.777  18.412  17.363  1.00  0.00     0.210 HD
ENDBRANCH   5  11
BRANCH   6  13
HETATM   13  O10 UNL     1     -23.623  18.368  19.552  1.00  0.00    -0.390 OA
ATOM     14  H10 UNL     1     -23.227  18.340  20.415  1.00  0.00     0.210 HD
ENDBRANCH   6  13
BRANCH   7  15
HETATM   15  O9  UNL     1     -20.945  16.793  19.687  1.00  0.00    -0.388 OA
ATOM     16  H9  UNL     1     -20.786  17.578  19.176  1.00  0.00     0.210 HD
ENDBRANCH   7  15
ENDBRANCH   1   2
BRANCH   1  17
HETATM   17  C4  UNL     1     -22.218  13.118  20.441  1.00  0.00     0.187 C 
HETATM   18  C5  UNL     1     -21.933  13.329  21.907  1.00  0.00     0.180 C 
HETATM   19  O5  UNL     1     -22.371  12.283  22.702  1.00  0.00    -0.349 OA
HETATM   20  C7  UNL     1     -21.861  11.054  22.322  1.00  0.00     0.288 C 
HETATM   21  C8  UNL     1     -22.164  10.723  20.879  1.00  0.00     0.204 C 
HETATM   22  C9  UNL     1     -21.702  11.788  19.940  1.00  0.00     0.183 C 
BRANCH  18  23
HETATM   23  C6  UNL     1     -20.467  13.650  22.142  1.00  0.00     0.198 C 
BRANCH  23  24
HETATM   24  O4  UNL     1     -20.309  15.033  22.060  1.00  0.00    -0.398 OA
ATOM     25  H4  UNL     1     -20.111  15.358  22.930  1.00  0.00     0.209 HD
ENDBRANCH  23  24
ENDBRANCH  18  23
BRANCH  20  26
HETATM   26  O6  UNL     1     -22.474  10.078  23.107  1.00  0.00    -0.369 OA
ATOM     27  H6  UNL     1     -22.234  10.241  24.011  1.00  0.00     0.212 HD
ENDBRANCH  20  26
BRANCH  21  28
HETATM   28  O7  UNL     1     -21.547   9.509  20.589  1.00  0.00    -0.388 OA
ATOM     29  H7  UNL     1     -21.464   9.449  19.645  1.00  0.00     0.210 HD
ENDBRANCH  21  28
BRANCH  22  30
HETATM   30  O8  UNL     1     -20.342  11.792  19.718  1.00  0.00    -0.390 OA
ATOM     31  H8  UNL     1     -20.058  11.078  19.160  1.00  0.00     0.210 HD
ENDBRANCH  22  30
ENDBRANCH   1  17
TORSDOF 12
ENDMDL
