MODEL 9
REMARK VINA RESULT: -9.827157514      1.854      2.406
REMARK  5 active torsions:
REMARK  status: ('A' for Active; 'I' for Inactive)
REMARK    1  A    between atoms: C2_2  and  C4_4 
REMARK    2  A    between atoms: C4_4  and  C5_5 
REMARK    3  A    between atoms: C5_5  and  C6_6 
REMARK    4  A    between atoms: C6_6  and  C7_7 
REMARK    5  A    between atoms: C7_7  and  C9_9 
ROOT
HETATM    1  C9  UNL     1      20.131 -10.730   4.346  1.00  0.00    -0.002 C 
HETATM    2  C10 UNL     1      21.522 -10.159   4.508  1.00  0.00     0.006 C 
HETATM    3  C11 UNL     1      22.043 -10.613   5.854  1.00  0.00     0.006 C 
HETATM    4  C12 UNL     1      21.197 -11.826   6.094  1.00  0.00    -0.002 C 
HETATM    5  C13 UNL     1      21.242 -12.372   7.460  1.00  0.00    -0.004 C 
HETATM    6  C14 UNL     1      22.613 -13.035   7.683  1.00  0.00     0.010 C 
HETATM    7  C15 UNL     1      22.672 -13.313   9.175  1.00  0.00     0.035 C 
HETATM    8  C16 UNL     1      21.473 -14.070   9.632  1.00  0.00    -0.068 C 
HETATM    9  C17 UNL     1      21.624 -14.824  10.701  1.00  0.00     0.053 C 
HETATM   10  C18 UNL     1      20.478 -15.584  11.185  1.00  0.00     0.149 C 
HETATM   11  O1  UNL     1      20.325 -15.760  12.423  1.00  0.00    -0.293 OA
HETATM   12  C19 UNL     1      19.533 -16.125  10.201  1.00  0.00     0.084 C 
HETATM   13  C20 UNL     1      19.447 -15.344   8.921  1.00  0.00     0.022 C 
HETATM   14  C21 UNL     1      20.168 -14.015   8.969  1.00  0.00    -0.016 C 
HETATM   15  C22 UNL     1      19.251 -13.063   9.748  1.00  0.00     0.020 C 
HETATM   16  C23 UNL     1      20.244 -13.492   7.561  1.00  0.00     0.002 C 
HETATM   17  C24 UNL     1      18.898 -13.152   7.030  1.00  0.00     0.007 C 
HETATM   18  C25 UNL     1      18.977 -12.575   5.613  1.00  0.00     0.010 C 
HETATM   19  C26 UNL     1      19.821 -11.343   5.683  1.00  0.00    -0.036 C 
HETATM   20  C27 UNL     1      19.220 -10.385   6.651  1.00  0.00     0.016 C 
ENDROOT
BRANCH   1  21
HETATM   21  C7  UNL     1      19.146  -9.747   3.843  1.00  0.00    -0.014 C 
HETATM   22  C8  UNL     1      17.832 -10.384   3.453  1.00  0.00     0.010 C 
BRANCH  21  23
HETATM   23  C6  UNL     1      19.611  -9.015   2.585  1.00  0.00     0.005 C 
BRANCH  23  24
HETATM   24  C5  UNL     1      20.396  -7.799   2.900  1.00  0.00     0.001 C 
BRANCH  24  25
HETATM   25  C4  UNL     1      20.480  -6.732   1.888  1.00  0.00     0.004 C 
BRANCH  25  26
HETATM   26  C2  UNL     1      21.778  -6.149   1.520  1.00  0.00    -0.023 C 
HETATM   27  C1  UNL     1      22.024  -5.837   0.080  1.00  0.00     0.009 C 
HETATM   28  C3  UNL     1      22.167  -4.949   2.369  1.00  0.00     0.009 C 
ENDBRANCH  25  26
ENDBRANCH  24  25
ENDBRANCH  23  24
ENDBRANCH  21  23
ENDBRANCH   1  21
TORSDOF 5
ENDMDL
