MODEL 2
REMARK VINA RESULT: -10.479899928      3.004      8.415
REMARK  5 active torsions:
REMARK  status: ('A' for Active; 'I' for Inactive)
REMARK    1  A    between atoms: C2_2  and  C4_4 
REMARK    2  A    between atoms: C4_4  and  C5_5 
REMARK    3  A    between atoms: C5_5  and  C6_6 
REMARK    4  A    between atoms: C6_6  and  C7_7 
REMARK    5  A    between atoms: C7_7  and  C9_9 
ROOT
HETATM    1  C9  UNL     1      18.148 -14.357   8.510  1.00  0.00    -0.002 C 
HETATM    2  C10 UNL     1      18.353 -13.526   9.758  1.00  0.00     0.006 C 
HETATM    3  C11 UNL     1      18.995 -12.223   9.333  1.00  0.00     0.006 C 
HETATM    4  C12 UNL     1      18.591 -12.163   7.891  1.00  0.00    -0.002 C 
HETATM    5  C13 UNL     1      19.283 -11.148   7.081  1.00  0.00    -0.004 C 
HETATM    6  C14 UNL     1      18.775  -9.754   7.492  1.00  0.00     0.010 C 
HETATM    7  C15 UNL     1      19.727  -8.780   6.820  1.00  0.00     0.035 C 
HETATM    8  C16 UNL     1      19.840  -9.054   5.360  1.00  0.00    -0.068 C 
HETATM    9  C17 UNL     1      20.156  -8.033   4.591  1.00  0.00     0.053 C 
HETATM   10  C18 UNL     1      20.278  -8.254   3.155  1.00  0.00     0.149 C 
HETATM   11  O1  UNL     1      21.140  -7.614   2.497  1.00  0.00    -0.293 OA
HETATM   12  C19 UNL     1      19.379  -9.225   2.519  1.00  0.00     0.084 C 
HETATM   13  C20 UNL     1      18.906 -10.326   3.424  1.00  0.00     0.022 C 
HETATM   14  C21 UNL     1      19.625 -10.371   4.755  1.00  0.00    -0.016 C 
HETATM   15  C22 UNL     1      20.985 -11.024   4.479  1.00  0.00     0.020 C 
HETATM   16  C23 UNL     1      18.863 -11.312   5.647  1.00  0.00     0.002 C 
HETATM   17  C24 UNL     1      18.932 -12.712   5.153  1.00  0.00     0.007 C 
HETATM   18  C25 UNL     1      18.196 -13.680   6.085  1.00  0.00     0.010 C 
HETATM   19  C26 UNL     1      18.847 -13.582   7.427  1.00  0.00    -0.036 C 
HETATM   20  C27 UNL     1      20.293 -13.909   7.301  1.00  0.00     0.016 C 
ENDROOT
BRANCH   1  21
HETATM   21  C7  UNL     1      18.567 -15.768   8.666  1.00  0.00    -0.014 C 
HETATM   22  C8  UNL     1      17.506 -16.745   8.213  1.00  0.00     0.010 C 
BRANCH  21  23
HETATM   23  C6  UNL     1      18.860 -16.155  10.114  1.00  0.00     0.005 C 
BRANCH  23  24
HETATM   24  C5  UNL     1      20.313 -16.244  10.390  1.00  0.00     0.001 C 
BRANCH  24  25
HETATM   25  C4  UNL     1      20.834 -15.634  11.625  1.00  0.00     0.004 C 
BRANCH  25  26
HETATM   26  C2  UNL     1      21.432 -14.291  11.602  1.00  0.00    -0.023 C 
HETATM   27  C1  UNL     1      22.343 -13.909  12.722  1.00  0.00     0.009 C 
HETATM   28  C3  UNL     1      22.091 -13.943  10.276  1.00  0.00     0.009 C 
ENDBRANCH  25  26
ENDBRANCH  24  25
ENDBRANCH  23  24
ENDBRANCH  21  23
ENDBRANCH   1  21
TORSDOF 5
ENDMDL
