MODEL 4
REMARK VINA RESULT: -10.151853497      1.308      2.003
REMARK  5 active torsions:
REMARK  status: ('A' for Active; 'I' for Inactive)
REMARK    1  A    between atoms: C2_2  and  C4_4 
REMARK    2  A    between atoms: C4_4  and  C5_5 
REMARK    3  A    between atoms: C5_5  and  C6_6 
REMARK    4  A    between atoms: C6_6  and  C7_7 
REMARK    5  A    between atoms: C7_7  and  C9_9 
ROOT
HETATM    1  C9  UNL     1      20.294 -10.407   4.293  1.00  0.00    -0.002 C 
HETATM    2  C10 UNL     1      21.717 -10.153   4.739  1.00  0.00     0.006 C 
HETATM    3  C11 UNL     1      21.959 -10.989   5.977  1.00  0.00     0.006 C 
HETATM    4  C12 UNL     1      20.912 -12.049   5.815  1.00  0.00    -0.002 C 
HETATM    5  C13 UNL     1      20.673 -12.892   6.997  1.00  0.00    -0.004 C 
HETATM    6  C14 UNL     1      21.880 -13.827   7.192  1.00  0.00     0.010 C 
HETATM    7  C15 UNL     1      21.676 -14.444   8.565  1.00  0.00     0.035 C 
HETATM    8  C16 UNL     1      20.322 -15.053   8.689  1.00  0.00    -0.068 C 
HETATM    9  C17 UNL     1      20.198 -16.046   9.544  1.00  0.00     0.053 C 
HETATM   10  C18 UNL     1      18.892 -16.673   9.699  1.00  0.00     0.149 C 
HETATM   11  O1  UNL     1      18.534 -17.097  10.830  1.00  0.00    -0.293 OA
HETATM   12  C19 UNL     1      18.031 -16.793   8.517  1.00  0.00     0.084 C 
HETATM   13  C20 UNL     1      18.253 -15.739   7.471  1.00  0.00     0.022 C 
HETATM   14  C21 UNL     1      19.152 -14.611   7.926  1.00  0.00    -0.016 C 
HETATM   15  C22 UNL     1      18.286 -13.711   8.816  1.00  0.00     0.020 C 
HETATM   16  C23 UNL     1      19.513 -13.803   6.710  1.00  0.00     0.002 C 
HETATM   17  C24 UNL     1      18.327 -13.111   6.141  1.00  0.00     0.007 C 
HETATM   18  C25 UNL     1      18.699 -12.250   4.929  1.00  0.00     0.010 C 
HETATM   19  C26 UNL     1      19.701 -11.242   5.394  1.00  0.00    -0.036 C 
HETATM   20  C27 UNL     1      19.117 -10.437   6.502  1.00  0.00     0.016 C 
ENDROOT
BRANCH   1  21
HETATM   21  C7  UNL     1      19.554  -9.173   3.951  1.00  0.00    -0.014 C 
HETATM   22  C8  UNL     1      18.747  -9.309   2.679  1.00  0.00     0.010 C 
BRANCH  21  23
HETATM   23  C6  UNL     1      20.464  -7.970   3.707  1.00  0.00     0.005 C 
BRANCH  23  24
HETATM   24  C5  UNL     1      20.401  -7.491   2.307  1.00  0.00     0.001 C 
BRANCH  24  25
HETATM   25  C4  UNL     1      21.662  -7.236   1.590  1.00  0.00     0.004 C 
BRANCH  25  26
HETATM   26  C2  UNL     1      22.173  -5.866   1.439  1.00  0.00    -0.023 C 
HETATM   27  C1  UNL     1      22.092  -5.232   0.089  1.00  0.00     0.009 C 
HETATM   28  C3  UNL     1      21.635  -4.899   2.482  1.00  0.00     0.009 C 
ENDBRANCH  25  26
ENDBRANCH  24  25
ENDBRANCH  23  24
ENDBRANCH  21  23
ENDBRANCH   1  21
TORSDOF 5
ENDMDL
