MODEL 10
REMARK VINA RESULT: -9.674696468      3.698      8.904
REMARK  5 active torsions:
REMARK  status: ('A' for Active; 'I' for Inactive)
REMARK    1  A    between atoms: C2_2  and  C4_4 
REMARK    2  A    between atoms: C4_4  and  C5_5 
REMARK    3  A    between atoms: C5_5  and  C6_6 
REMARK    4  A    between atoms: C6_6  and  C7_7 
REMARK    5  A    between atoms: C7_7  and  C9_9 
ROOT
HETATM    1  C9  UNL     1      20.546 -13.330   8.346  1.00  0.00    -0.002 C 
HETATM    2  C10 UNL     1      19.095 -13.756   8.318  1.00  0.00     0.006 C 
HETATM    3  C11 UNL     1      18.370 -12.828   7.368  1.00  0.00     0.006 C 
HETATM    4  C12 UNL     1      19.506 -12.343   6.519  1.00  0.00    -0.002 C 
HETATM    5  C13 UNL     1      19.204 -11.194   5.650  1.00  0.00    -0.004 C 
HETATM    6  C14 UNL     1      18.285 -11.664   4.509  1.00  0.00     0.010 C 
HETATM    7  C15 UNL     1      17.808 -10.385   3.842  1.00  0.00     0.035 C 
HETATM    8  C16 UNL     1      18.955  -9.510   3.470  1.00  0.00    -0.068 C 
HETATM    9  C17 UNL     1      18.767  -8.691   2.456  1.00  0.00     0.053 C 
HETATM   10  C18 UNL     1      19.861  -7.815   2.055  1.00  0.00     0.149 C 
HETATM   11  O1  UNL     1      19.608  -6.660   1.623  1.00  0.00    -0.293 OA
HETATM   12  C19 UNL     1      21.235  -8.318   2.170  1.00  0.00     0.084 C 
HETATM   13  C20 UNL     1      21.436  -9.352   3.240  1.00  0.00     0.022 C 
HETATM   14  C21 UNL     1      20.247  -9.514   4.161  1.00  0.00    -0.016 C 
HETATM   15  C22 UNL     1      20.299  -8.329   5.132  1.00  0.00     0.020 C 
HETATM   16  C23 UNL     1      20.475 -10.757   4.977  1.00  0.00     0.002 C 
HETATM   17  C24 UNL     1      21.627 -10.601   5.902  1.00  0.00     0.007 C 
HETATM   18  C25 UNL     1      21.833 -11.848   6.768  1.00  0.00     0.010 C 
HETATM   19  C26 UNL     1      20.576 -12.054   7.551  1.00  0.00    -0.036 C 
HETATM   20  C27 UNL     1      20.296 -10.840   8.366  1.00  0.00     0.016 C 
ENDROOT
BRANCH   1  21
HETATM   21  C7  UNL     1      21.112 -13.254   9.711  1.00  0.00    -0.014 C 
HETATM   22  C8  UNL     1      22.592 -13.559   9.748  1.00  0.00     0.010 C 
BRANCH  21  23
HETATM   23  C6  UNL     1      20.484 -14.252  10.682  1.00  0.00     0.005 C 
BRANCH  23  24
HETATM   24  C5  UNL     1      21.497 -14.935  11.521  1.00  0.00     0.001 C 
BRANCH  24  25
HETATM   25  C4  UNL     1      21.527 -14.647  12.965  1.00  0.00     0.004 C 
BRANCH  25  26
HETATM   26  C2  UNL     1      22.442 -13.632  13.506  1.00  0.00    -0.023 C 
HETATM   27  C1  UNL     1      22.422 -13.384  14.979  1.00  0.00     0.009 C 
HETATM   28  C3  UNL     1      23.881 -13.805  13.045  1.00  0.00     0.009 C 
ENDBRANCH  25  26
ENDBRANCH  24  25
ENDBRANCH  23  24
ENDBRANCH  21  23
ENDBRANCH   1  21
TORSDOF 5
ENDMDL
