MODEL 7
REMARK VINA RESULT: -10.042560998      1.198      1.416
REMARK  5 active torsions:
REMARK  status: ('A' for Active; 'I' for Inactive)
REMARK    1  A    between atoms: C2_2  and  C4_4 
REMARK    2  A    between atoms: C4_4  and  C5_5 
REMARK    3  A    between atoms: C5_5  and  C6_6 
REMARK    4  A    between atoms: C6_6  and  C7_7 
REMARK    5  A    between atoms: C7_7  and  C9_9 
ROOT
HETATM    1  C9  UNL     1      20.285 -10.015   4.761  1.00  0.00    -0.002 C 
HETATM    2  C10 UNL     1      21.176  -9.368   5.797  1.00  0.00     0.006 C 
HETATM    3  C11 UNL     1      20.929 -10.076   7.112  1.00  0.00     0.006 C 
HETATM    4  C12 UNL     1      20.385 -11.387   6.632  1.00  0.00    -0.002 C 
HETATM    5  C13 UNL     1      19.769 -12.235   7.665  1.00  0.00    -0.004 C 
HETATM    6  C14 UNL     1      20.879 -12.796   8.572  1.00  0.00     0.010 C 
HETATM    7  C15 UNL     1      20.144 -13.413   9.750  1.00  0.00     0.035 C 
HETATM    8  C16 UNL     1      19.097 -14.369   9.293  1.00  0.00    -0.068 C 
HETATM    9  C17 UNL     1      18.778 -15.337  10.126  1.00  0.00     0.053 C 
HETATM   10  C18 UNL     1      17.759 -16.297   9.721  1.00  0.00     0.149 C 
HETATM   11  O1  UNL     1      16.977 -16.777  10.585  1.00  0.00    -0.293 OA
HETATM   12  C19 UNL     1      17.681 -16.678   8.306  1.00  0.00     0.084 C 
HETATM   13  C20 UNL     1      18.165 -15.628   7.348  1.00  0.00     0.022 C 
HETATM   14  C21 UNL     1      18.421 -14.285   7.996  1.00  0.00    -0.016 C 
HETATM   15  C22 UNL     1      17.043 -13.639   8.190  1.00  0.00     0.020 C 
HETATM   16  C23 UNL     1      19.162 -13.437   6.998  1.00  0.00     0.002 C 
HETATM   17  C24 UNL     1      18.317 -13.113   5.820  1.00  0.00     0.007 C 
HETATM   18  C25 UNL     1      19.054 -12.211   4.824  1.00  0.00     0.010 C 
HETATM   19  C26 UNL     1      19.417 -10.956   5.550  1.00  0.00    -0.036 C 
HETATM   20  C27 UNL     1      18.183 -10.318   6.084  1.00  0.00     0.016 C 
ENDROOT
BRANCH   1  21
HETATM   21  C7  UNL     1      19.571  -9.041   3.906  1.00  0.00    -0.014 C 
HETATM   22  C8  UNL     1      18.983  -9.674   2.665  1.00  0.00     0.010 C 
BRANCH  21  23
HETATM   23  C6  UNL     1      20.469  -7.922   3.384  1.00  0.00     0.005 C 
BRANCH  23  24
HETATM   24  C5  UNL     1      21.144  -8.286   2.116  1.00  0.00     0.001 C 
BRANCH  24  25
HETATM   25  C4  UNL     1      22.030  -7.297   1.480  1.00  0.00     0.004 C 
BRANCH  25  26
HETATM   26  C2  UNL     1      21.630  -5.885   1.383  1.00  0.00    -0.023 C 
HETATM   27  C1  UNL     1      22.271  -4.909   2.315  1.00  0.00     0.009 C 
HETATM   28  C3  UNL     1      21.681  -5.336  -0.034  1.00  0.00     0.009 C 
ENDBRANCH  25  26
ENDBRANCH  24  25
ENDBRANCH  23  24
ENDBRANCH  21  23
ENDBRANCH   1  21
TORSDOF 5
ENDMDL
