MODEL 6
REMARK VINA RESULT: -10.105810051      3.079      8.938
REMARK  5 active torsions:
REMARK  status: ('A' for Active; 'I' for Inactive)
REMARK    1  A    between atoms: C2_2  and  C4_4 
REMARK    2  A    between atoms: C4_4  and  C5_5 
REMARK    3  A    between atoms: C5_5  and  C6_6 
REMARK    4  A    between atoms: C6_6  and  C7_7 
REMARK    5  A    between atoms: C7_7  and  C9_9 
ROOT
HETATM    1  C9  UNL     1      19.922 -13.794   8.347  1.00  0.00    -0.002 C 
HETATM    2  C10 UNL     1      18.462 -14.156   8.190  1.00  0.00     0.006 C 
HETATM    3  C11 UNL     1      17.850 -13.158   7.230  1.00  0.00     0.006 C 
HETATM    4  C12 UNL     1      19.066 -12.687   6.493  1.00  0.00    -0.002 C 
HETATM    5  C13 UNL     1      18.879 -11.491   5.657  1.00  0.00    -0.004 C 
HETATM    6  C14 UNL     1      18.033 -11.872   4.429  1.00  0.00     0.010 C 
HETATM    7  C15 UNL     1      17.661 -10.547   3.787  1.00  0.00     0.035 C 
HETATM    8  C16 UNL     1      18.867  -9.707   3.542  1.00  0.00    -0.068 C 
HETATM    9  C17 UNL     1      18.791  -8.839   2.555  1.00  0.00     0.053 C 
HETATM   10  C18 UNL     1      19.947  -7.995   2.279  1.00  0.00     0.149 C 
HETATM   11  O1  UNL     1      19.774  -6.812   1.881  1.00  0.00    -0.293 OA
HETATM   12  C19 UNL     1      21.287  -8.561   2.474  1.00  0.00     0.084 C 
HETATM   13  C20 UNL     1      21.363  -9.647   3.509  1.00  0.00     0.022 C 
HETATM   14  C21 UNL     1      20.101  -9.796   4.328  1.00  0.00    -0.016 C 
HETATM   15  C22 UNL     1      20.124  -8.656   5.354  1.00  0.00     0.020 C 
HETATM   16  C23 UNL     1      20.215 -11.080   5.102  1.00  0.00     0.002 C 
HETATM   17  C24 UNL     1      21.297 -11.013   6.118  1.00  0.00     0.007 C 
HETATM   18  C25 UNL     1      21.385 -12.304   6.940  1.00  0.00     0.010 C 
HETATM   19  C26 UNL     1      20.064 -12.488   7.616  1.00  0.00    -0.036 C 
HETATM   20  C27 UNL     1      19.770 -11.299   8.461  1.00  0.00     0.016 C 
ENDROOT
BRANCH   1  21
HETATM   21  C7  UNL     1      20.383 -13.799   9.753  1.00  0.00    -0.014 C 
HETATM   22  C8  UNL     1      21.886 -13.898   9.875  1.00  0.00     0.010 C 
BRANCH  21  23
HETATM   23  C6  UNL     1      19.849 -14.982  10.560  1.00  0.00     0.005 C 
BRANCH  23  24
HETATM   24  C5  UNL     1      20.576 -16.239  10.264  1.00  0.00     0.001 C 
BRANCH  24  25
HETATM   25  C4  UNL     1      19.813 -17.497  10.202  1.00  0.00     0.004 C 
BRANCH  25  26
HETATM   26  C2  UNL     1      18.907 -17.768   9.077  1.00  0.00    -0.023 C 
HETATM   27  C1  UNL     1      18.999 -19.101   8.408  1.00  0.00     0.009 C 
HETATM   28  C3  UNL     1      17.450 -17.458   9.382  1.00  0.00     0.009 C 
ENDBRANCH  25  26
ENDBRANCH  24  25
ENDBRANCH  23  24
ENDBRANCH  21  23
ENDBRANCH   1  21
TORSDOF 5
ENDMDL
