MODEL 8
REMARK VINA RESULT: -5.164117608      1.127      1.380
REMARK  3 active torsions:
REMARK  status: ('A' for Active; 'I' for Inactive)
REMARK    1  A    between atoms: C1_2  and  C2_4 
REMARK    2  A    between atoms: C2_4  and  O3_5 
REMARK    3  A    between atoms: O3_5  and  P1_6 
ROOT
HETATM    1  O3  UNL     1      92.796  42.072  50.073  1.00  0.00    -0.272 OA
ENDROOT
BRANCH   1   2
HETATM    2  C2  UNL     1      92.219  43.216  50.527  1.00  0.00     0.295 C 
BRANCH   2   3
HETATM    3  C1  UNL     1      90.774  42.933  50.737  1.00  0.00     0.198 C 
HETATM    4  O1  UNL     1      89.896  43.195  49.857  1.00  0.00    -0.646 OA
HETATM    5  O2  UNL     1      90.298  42.367  51.909  1.00  0.00    -0.646 OA
ENDBRANCH   2   3
ENDBRANCH   1   2
BRANCH   1   6
HETATM    6  P1  UNL     1      93.534  42.415  48.618  1.00  0.00     0.422 P 
HETATM    7  O4  UNL     1      94.898  42.387  49.289  1.00  0.00    -0.617 OA
HETATM    8  O5  UNL     1      93.888  41.251  47.549  1.00  0.00    -0.617 OA
HETATM    9  O6  UNL     1      93.729  44.009  48.163  1.00  0.00    -0.617 OA
ENDBRANCH   1   6
TORSDOF 3
ENDMDL
