MODEL 1
REMARK VINA RESULT: -5.535396759      0.000      0.000
REMARK  3 active torsions:
REMARK  status: ('A' for Active; 'I' for Inactive)
REMARK    1  A    between atoms: C1_2  and  C2_4 
REMARK    2  A    between atoms: C2_4  and  O3_5 
REMARK    3  A    between atoms: O3_5  and  P1_6 
ROOT
HETATM    1  O3  UNL     1      93.122  42.165  49.493  1.00  0.00    -0.272 OA
ENDROOT
BRANCH   1   2
HETATM    2  C2  UNL     1      92.533  43.096  50.288  1.00  0.00     0.295 C 
BRANCH   2   3
HETATM    3  C1  UNL     1      91.179  42.591  50.639  1.00  0.00     0.198 C 
HETATM    4  O1  UNL     1      90.117  43.192  50.285  1.00  0.00    -0.646 OA
HETATM    5  O2  UNL     1      90.994  41.432  51.375  1.00  0.00    -0.646 OA
ENDBRANCH   2   3
ENDBRANCH   1   2
BRANCH   1   6
HETATM    6  P1  UNL     1      92.925  42.645  47.909  1.00  0.00     0.422 P 
HETATM    7  O4  UNL     1      93.705  41.430  47.431  1.00  0.00    -0.617 OA
HETATM    8  O5  UNL     1      91.588  42.281  47.071  1.00  0.00    -0.617 OA
HETATM    9  O6  UNL     1      94.035  43.693  47.235  1.00  0.00    -0.617 OA
ENDBRANCH   1   6
TORSDOF 3
ENDMDL
