MODEL 7
REMARK VINA RESULT: -5.178601554      2.626      4.490
REMARK  3 active torsions:
REMARK  status: ('A' for Active; 'I' for Inactive)
REMARK    1  A    between atoms: C1_2  and  C2_4 
REMARK    2  A    between atoms: C2_4  and  O3_5 
REMARK    3  A    between atoms: O3_5  and  P1_6 
ROOT
HETATM    1  O3  UNL     1      93.237  41.600  47.714  1.00  0.00    -0.272 OA
ENDROOT
BRANCH   1   2
HETATM    2  C2  UNL     1      94.194  41.937  46.810  1.00  0.00     0.295 C 
BRANCH   2   3
HETATM    3  C1  UNL     1      95.001  40.717  46.539  1.00  0.00     0.198 C 
HETATM    4  O1  UNL     1      95.944  40.702  45.689  1.00  0.00    -0.646 OA
HETATM    5  O2  UNL     1      94.770  39.521  47.201  1.00  0.00    -0.646 OA
ENDBRANCH   2   3
ENDBRANCH   1   2
BRANCH   1   6
HETATM    6  P1  UNL     1      93.127  42.837  48.827  1.00  0.00     0.422 P 
HETATM    7  O4  UNL     1      94.452  42.416  49.444  1.00  0.00    -0.617 OA
HETATM    8  O5  UNL     1      93.616  44.340  48.478  1.00  0.00    -0.617 OA
HETATM    9  O6  UNL     1      92.313  42.570  50.258  1.00  0.00    -0.617 OA
ENDBRANCH   1   6
TORSDOF 3
ENDMDL
