MODEL 9
REMARK VINA RESULT: -5.137361461      2.625      4.575
REMARK  3 active torsions:
REMARK  status: ('A' for Active; 'I' for Inactive)
REMARK    1  A    between atoms: C1_2  and  C2_4 
REMARK    2  A    between atoms: C2_4  and  O3_5 
REMARK    3  A    between atoms: O3_5  and  P1_6 
ROOT
HETATM    1  O3  UNL     1      93.251  41.608  47.772  1.00  0.00    -0.272 OA
ENDROOT
BRANCH   1   2
HETATM    2  C2  UNL     1      94.201  41.958  46.864  1.00  0.00     0.295 C 
BRANCH   2   3
HETATM    3  C1  UNL     1      95.006  40.742  46.571  1.00  0.00     0.198 C 
HETATM    4  O1  UNL     1      94.756  39.617  47.104  1.00  0.00    -0.646 OA
HETATM    5  O2  UNL     1      96.081  40.766  45.696  1.00  0.00    -0.646 OA
ENDBRANCH   2   3
ENDBRANCH   1   2
BRANCH   1   6
HETATM    6  P1  UNL     1      93.163  42.822  48.912  1.00  0.00     0.422 P 
HETATM    7  O4  UNL     1      94.469  42.349  49.533  1.00  0.00    -0.617 OA
HETATM    8  O5  UNL     1      93.698  44.318  48.604  1.00  0.00    -0.617 OA
HETATM    9  O6  UNL     1      92.325  42.544  50.328  1.00  0.00    -0.617 OA
ENDBRANCH   1   6
TORSDOF 3
ENDMDL
