MODEL 14
REMARK VINA RESULT: -6.981707274      3.497      5.914
REMARK  6 active torsions:
REMARK  status: ('A' for Active; 'I' for Inactive)
REMARK    1  A    between atoms: C1_2  and  C2_4 
REMARK    2  A    between atoms: C2_4  and  C3_5 
REMARK    3  A    between atoms: C2_4  and  C4_7 
REMARK    4  A    between atoms: C4_7  and  C5_8 
REMARK    5  A    between atoms: C5_8  and  C6_9 
REMARK    6  A    between atoms: C6_9  and  C7_10 
ROOT
HETATM    1  C5  UNL     1      33.105   6.697 108.210  1.00  0.00     0.006 C 
ENDROOT
BRANCH   1   2
HETATM    2  C4  UNL     1      34.449   6.149 107.830  1.00  0.00     0.016 C 
BRANCH   2   3
HETATM    3  C2  UNL     1      34.434   5.239 106.636  1.00  0.00     0.097 C 
BRANCH   3   4
HETATM    4  C1  UNL     1      34.043   5.915 105.385  1.00  0.00     0.177 C 
HETATM    5  O1  UNL     1      33.097   5.430 104.714  1.00  0.00    -0.648 OA
HETATM    6  O2  UNL     1      34.655   7.055 104.901  1.00  0.00    -0.648 OA
ENDBRANCH   3   4
BRANCH   3   7
HETATM    7  C3  UNL     1      35.859   4.683 106.520  1.00  0.00     0.101 C 
HETATM    8  S1  UNL     1      36.822   5.467 107.867  1.00  0.00    -0.097 SA
ENDBRANCH   3   7
ENDBRANCH   2   3
ENDBRANCH   1   2
BRANCH   1   9
HETATM    9  C6  UNL     1      33.368   7.856 109.168  1.00  0.00     0.038 C 
BRANCH   9  10
HETATM   10  C7  UNL     1      32.977   9.137 108.524  1.00  0.00    -0.058 A 
HETATM   11  C8  UNL     1      32.932   9.184 107.139  1.00  0.00     0.007 A 
HETATM   12  C9  UNL     1      32.574  10.355 106.505  1.00  0.00     0.001 A 
HETATM   13  C10 UNL     1      32.260  11.479 107.225  1.00  0.00     0.000 A 
HETATM   14  C11 UNL     1      32.310  11.414 108.610  1.00  0.00     0.001 A 
HETATM   15  C12 UNL     1      32.666  10.253 109.261  1.00  0.00     0.007 A 
ENDBRANCH   9  10
ENDBRANCH   1   9
TORSDOF 6
ENDMDL
