MODEL 12
REMARK VINA RESULT: -7.098407492      2.626      5.939
REMARK  6 active torsions:
REMARK  status: ('A' for Active; 'I' for Inactive)
REMARK    1  A    between atoms: C1_2  and  C2_4 
REMARK    2  A    between atoms: C2_4  and  C3_5 
REMARK    3  A    between atoms: C2_4  and  C4_7 
REMARK    4  A    between atoms: C4_7  and  C5_8 
REMARK    5  A    between atoms: C5_8  and  C6_9 
REMARK    6  A    between atoms: C6_9  and  C7_10 
ROOT
HETATM    1  C5  UNL     1      33.073   9.491 109.027  1.00  0.00     0.006 C 
ENDROOT
BRANCH   1   2
HETATM    2  C4  UNL     1      34.433   8.906 108.784  1.00  0.00     0.016 C 
BRANCH   2   3
HETATM    3  C2  UNL     1      34.820   8.814 107.337  1.00  0.00     0.097 C 
BRANCH   3   4
HETATM    4  C1  UNL     1      35.896   9.748 106.955  1.00  0.00     0.177 C 
HETATM    5  O1  UNL     1      36.758   9.359 106.125  1.00  0.00    -0.648 OA
HETATM    6  O2  UNL     1      36.018  11.030 107.454  1.00  0.00    -0.648 OA
ENDBRANCH   3   4
BRANCH   3   7
HETATM    7  C3  UNL     1      35.270   7.363 107.119  1.00  0.00     0.101 C 
HETATM    8  S1  UNL     1      35.941   6.792 108.726  1.00  0.00    -0.097 SA
ENDBRANCH   3   7
ENDBRANCH   2   3
ENDBRANCH   1   2
BRANCH   1   9
HETATM    9  C6  UNL     1      33.300  10.894 109.584  1.00  0.00     0.038 C 
BRANCH   9  10
HETATM   10  C7  UNL     1      32.118  11.746 109.295  1.00  0.00    -0.058 A 
HETATM   11  C8  UNL     1      31.745  11.916 107.970  1.00  0.00     0.007 A 
HETATM   12  C9  UNL     1      30.653  12.701 107.662  1.00  0.00     0.001 A 
HETATM   13  C10 UNL     1      29.926  13.317 108.647  1.00  0.00     0.000 A 
HETATM   14  C11 UNL     1      30.314  13.135 109.968  1.00  0.00     0.001 A 
HETATM   15  C12 UNL     1      31.402  12.356 110.295  1.00  0.00     0.007 A 
ENDBRANCH   9  10
ENDBRANCH   1   9
TORSDOF 6
ENDMDL
