MODEL 13
REMARK VINA RESULT: -7.040201331      2.622      5.944
REMARK  6 active torsions:
REMARK  status: ('A' for Active; 'I' for Inactive)
REMARK    1  A    between atoms: C1_2  and  C2_4 
REMARK    2  A    between atoms: C2_4  and  C3_5 
REMARK    3  A    between atoms: C2_4  and  C4_7 
REMARK    4  A    between atoms: C4_7  and  C5_8 
REMARK    5  A    between atoms: C5_8  and  C6_9 
REMARK    6  A    between atoms: C6_9  and  C7_10 
ROOT
HETATM    1  C5  UNL     1      32.889   9.703 109.033  1.00  0.00     0.006 C 
ENDROOT
BRANCH   1   2
HETATM    2  C4  UNL     1      34.266   9.137 108.846  1.00  0.00     0.016 C 
BRANCH   2   3
HETATM    3  C2  UNL     1      34.684   8.981 107.413  1.00  0.00     0.097 C 
BRANCH   3   4
HETATM    4  C1  UNL     1      35.835   9.822 107.040  1.00  0.00     0.177 C 
HETATM    5  O1  UNL     1      35.902  10.986 107.513  1.00  0.00    -0.648 OA
HETATM    6  O2  UNL     1      36.850   9.412 106.198  1.00  0.00    -0.648 OA
ENDBRANCH   3   4
BRANCH   3   7
HETATM    7  C3  UNL     1      35.030   7.495 107.242  1.00  0.00     0.101 C 
HETATM    8  S1  UNL     1      35.788   6.964 108.823  1.00  0.00    -0.097 SA
ENDBRANCH   3   7
ENDBRANCH   2   3
ENDBRANCH   1   2
BRANCH   1   9
HETATM    9  C6  UNL     1      33.075  11.125 109.557  1.00  0.00     0.038 C 
BRANCH   9  10
HETATM   10  C7  UNL     1      31.875  11.940 109.234  1.00  0.00    -0.058 A 
HETATM   11  C8  UNL     1      31.147  12.473 110.287  1.00  0.00     0.007 A 
HETATM   12  C9  UNL     1      30.027  13.235 110.027  1.00  0.00     0.001 A 
HETATM   13  C10 UNL     1      29.620  13.474 108.740  1.00  0.00     0.000 A 
HETATM   14  C11 UNL     1      30.361  12.932 107.699  1.00  0.00     0.001 A 
HETATM   15  C12 UNL     1      31.482  12.168 107.939  1.00  0.00     0.007 A 
ENDBRANCH   9  10
ENDBRANCH   1   9
TORSDOF 6
ENDMDL
