MODEL 5
REMARK VINA RESULT: -7.473059620      2.036      2.414
REMARK  6 active torsions:
REMARK  status: ('A' for Active; 'I' for Inactive)
REMARK    1  A    between atoms: C1_2  and  C2_4 
REMARK    2  A    between atoms: C2_4  and  C3_5 
REMARK    3  A    between atoms: C2_4  and  C4_7 
REMARK    4  A    between atoms: C4_7  and  C5_8 
REMARK    5  A    between atoms: C5_8  and  C6_9 
REMARK    6  A    between atoms: C6_9  and  C7_10 
ROOT
HETATM    1  C5  UNL     1      33.271   9.148 109.183  1.00  0.00     0.006 C 
ENDROOT
BRANCH   1   2
HETATM    2  C4  UNL     1      32.818   9.543 107.808  1.00  0.00     0.016 C 
BRANCH   2   3
HETATM    3  C2  UNL     1      33.608  10.662 107.193  1.00  0.00     0.097 C 
BRANCH   3   4
HETATM    4  C1  UNL     1      33.427  11.955 107.876  1.00  0.00     0.177 C 
HETATM    5  O1  UNL     1      34.451  12.626 108.168  1.00  0.00    -0.648 OA
HETATM    6  O2  UNL     1      32.197  12.481 108.219  1.00  0.00    -0.648 OA
ENDBRANCH   3   4
BRANCH   3   7
HETATM    7  C3  UNL     1      35.076  10.221 107.264  1.00  0.00     0.101 C 
HETATM    8  S1  UNL     1      35.376   9.207 105.767  1.00  0.00    -0.097 SA
ENDBRANCH   3   7
ENDBRANCH   2   3
ENDBRANCH   1   2
BRANCH   1   9
HETATM    9  C6  UNL     1      33.045   7.641 109.294  1.00  0.00     0.038 C 
BRANCH   9  10
HETATM   10  C7  UNL     1      34.205   6.917 108.712  1.00  0.00    -0.058 A 
HETATM   11  C8  UNL     1      35.448   7.095 109.302  1.00  0.00     0.007 A 
HETATM   12  C9  UNL     1      36.548   6.439 108.789  1.00  0.00     0.001 A 
HETATM   13  C10 UNL     1      36.433   5.611 107.703  1.00  0.00     0.000 A 
HETATM   14  C11 UNL     1      35.181   5.445 107.126  1.00  0.00     0.001 A 
HETATM   15  C12 UNL     1      34.071   6.091 107.623  1.00  0.00     0.007 A 
ENDBRANCH   9  10
ENDBRANCH   1   9
TORSDOF 6
ENDMDL
