MODEL 14
REMARK VINA RESULT: -6.145003828      3.300      5.443
REMARK  3 active torsions:
REMARK  status: ('A' for Active; 'I' for Inactive)
REMARK    1  A    between atoms: C2_2  and  C3_3 
REMARK    2  A    between atoms: C3_3  and  C4_4 
REMARK    3  A    between atoms: C4_4  and  C5_5 
ROOT
HETATM    1  C5  UNL     1      15.788  17.222  19.817  1.00  0.00     0.082 A 
HETATM    2  N1  UNL     1      15.391  15.948  19.928  1.00  0.00    -0.339 N 
ATOM      3  H1  UNL     1      15.738  15.278  20.614  1.00  0.00     0.167 HD
HETATM    4  C6  UNL     1      14.449  15.689  18.977  1.00  0.00     0.136 A 
HETATM    5  C7  UNL     1      13.714  14.583  18.632  1.00  0.00     0.289 A 
HETATM    6  O1  UNL     1      13.883  13.524  19.288  1.00  0.00    -0.264 OA
HETATM    7  N2  UNL     1      12.843  14.670  17.610  1.00  0.00    -0.262 N 
ATOM      8  H2  UNL     1      12.297  13.847  17.355  1.00  0.00     0.190 HD
HETATM    9  N3  UNL     1      12.673  15.787  16.928  1.00  0.00    -0.262 N 
ATOM     10  H3  UNL     1      12.003  15.809  16.160  1.00  0.00     0.190 HD
HETATM   11  C8  UNL     1      13.368  16.892  17.229  1.00  0.00     0.289 A 
HETATM   12  O2  UNL     1      13.246  17.986  16.611  1.00  0.00    -0.264 OA
HETATM   13  C9  UNL     1      14.274  16.851  18.272  1.00  0.00     0.136 A 
HETATM   14  N4  UNL     1      15.097  17.761  18.802  1.00  0.00    -0.339 N 
ATOM     15  H4  UNL     1      15.187  18.726  18.481  1.00  0.00     0.167 HD
ENDROOT
BRANCH   1  16
HETATM   16  C4  UNL     1      16.778  17.941  20.622  1.00  0.00     0.076 C 
BRANCH  16  17
HETATM   17  C3  UNL     1      17.062  17.245  21.955  1.00  0.00     0.007 C 
BRANCH  17  18
HETATM   18  C2  UNL     1      16.161  17.889  22.986  1.00  0.00    -0.004 C 
HETATM   19  C1  UNL     1      15.104  16.929  23.485  1.00  0.00     0.005 C 
ENDBRANCH  17  18
ENDBRANCH  16  17
ENDBRANCH   1  16
TORSDOF 3
ENDMDL
