MODEL 12
REMARK VINA RESULT: -6.214503482      4.096      6.369
REMARK  3 active torsions:
REMARK  status: ('A' for Active; 'I' for Inactive)
REMARK    1  A    between atoms: C2_2  and  C3_3 
REMARK    2  A    between atoms: C3_3  and  C4_4 
REMARK    3  A    between atoms: C4_4  and  C5_5 
ROOT
HETATM    1  C5  UNL     1      15.625  17.581  17.427  1.00  0.00     0.082 A 
HETATM    2  N1  UNL     1      15.724  17.333  16.115  1.00  0.00    -0.339 N 
ATOM      3  H1  UNL     1      16.444  17.706  15.495  1.00  0.00     0.167 HD
HETATM    4  C6  UNL     1      14.711  16.502  15.738  1.00  0.00     0.136 A 
HETATM    5  C7  UNL     1      14.330  15.933  14.550  1.00  0.00     0.289 A 
HETATM    6  O1  UNL     1      15.012  16.179  13.523  1.00  0.00    -0.264 OA
HETATM    7  N2  UNL     1      13.245  15.137  14.525  1.00  0.00    -0.262 N 
ATOM      8  H2  UNL     1      12.963  14.714  13.640  1.00  0.00     0.190 HD
HETATM    9  N3  UNL     1      12.536  14.886  15.609  1.00  0.00    -0.262 N 
ATOM     10  H3  UNL     1      11.721  14.276  15.545  1.00  0.00     0.190 HD
HETATM   11  C8  UNL     1      12.871  15.418  16.792  1.00  0.00     0.289 A 
HETATM   12  O2  UNL     1      12.230  15.211  17.859  1.00  0.00    -0.264 OA
HETATM   13  C9  UNL     1      13.978  16.242  16.867  1.00  0.00     0.136 A 
HETATM   14  N4  UNL     1      14.554  16.908  17.873  1.00  0.00    -0.339 N 
ATOM     15  H4  UNL     1      14.226  16.904  18.839  1.00  0.00     0.167 HD
ENDROOT
BRANCH   1  16
HETATM   16  C4  UNL     1      16.490  18.415  18.265  1.00  0.00     0.076 C 
BRANCH  16  17
HETATM   17  C3  UNL     1      17.318  17.588  19.250  1.00  0.00     0.007 C 
BRANCH  17  18
HETATM   18  C2  UNL     1      16.869  17.984  20.640  1.00  0.00    -0.004 C 
HETATM   19  C1  UNL     1      15.896  16.984  21.221  1.00  0.00     0.005 C 
ENDBRANCH  17  18
ENDBRANCH  16  17
ENDBRANCH   1  16
TORSDOF 3
ENDMDL
