MODEL 13
REMARK VINA RESULT: -6.170728637      3.270      5.479
REMARK  3 active torsions:
REMARK  status: ('A' for Active; 'I' for Inactive)
REMARK    1  A    between atoms: C2_2  and  C3_3 
REMARK    2  A    between atoms: C3_3  and  C4_4 
REMARK    3  A    between atoms: C4_4  and  C5_5 
ROOT
HETATM    1  C5  UNL     1      15.835  17.281  19.732  1.00  0.00     0.082 A 
HETATM    2  N1  UNL     1      15.131  17.830  18.734  1.00  0.00    -0.339 N 
ATOM      3  H1  UNL     1      15.214  18.794  18.413  1.00  0.00     0.167 HD
HETATM    4  C6  UNL     1      14.287  16.895  18.214  1.00  0.00     0.136 A 
HETATM    5  C7  UNL     1      13.359  16.896  17.204  1.00  0.00     0.289 A 
HETATM    6  O1  UNL     1      13.181  17.959  16.558  1.00  0.00    -0.264 OA
HETATM    7  N2  UNL     1      12.675  15.767  16.943  1.00  0.00    -0.262 N 
ATOM      8  H2  UNL     1      11.985  15.770  16.191  1.00  0.00     0.190 HD
HETATM    9  N3  UNL     1      12.869  14.657  17.629  1.00  0.00    -0.262 N 
ATOM     10  H3  UNL     1      12.329  13.823  17.398  1.00  0.00     0.190 HD
HETATM   11  C8  UNL     1      13.765  14.607  18.623  1.00  0.00     0.289 A 
HETATM   12  O2  UNL     1      13.991  13.572  19.311  1.00  0.00    -0.264 OA
HETATM   13  C9  UNL     1      14.492  15.742  18.928  1.00  0.00     0.136 A 
HETATM   14  N4  UNL     1      15.434  16.005  19.840  1.00  0.00    -0.339 N 
ATOM     15  H4  UNL     1      15.794  15.334  20.518  1.00  0.00     0.167 HD
ENDROOT
BRANCH   1  16
HETATM   16  C4  UNL     1      16.857  17.903  20.577  1.00  0.00     0.076 C 
BRANCH  16  17
HETATM   17  C3  UNL     1      17.049  17.162  21.901  1.00  0.00     0.007 C 
BRANCH  17  18
HETATM   18  C2  UNL     1      16.176  17.857  22.923  1.00  0.00    -0.004 C 
HETATM   19  C1  UNL     1      15.083  16.949  23.438  1.00  0.00     0.005 C 
ENDBRANCH  17  18
ENDBRANCH  16  17
ENDBRANCH   1  16
TORSDOF 3
ENDMDL
