MODEL 9
REMARK VINA RESULT: -6.817735699      1.265      2.659
REMARK  3 active torsions:
REMARK  status: ('A' for Active; 'I' for Inactive)
REMARK    1  A    between atoms: C2_2  and  C3_3 
REMARK    2  A    between atoms: C3_3  and  C4_4 
REMARK    3  A    between atoms: C4_4  and  C5_5 
ROOT
HETATM    1  C5  UNL     1      15.257  16.757  19.761  1.00  0.00     0.082 A 
HETATM    2  N1  UNL     1      14.492  16.809  20.858  1.00  0.00    -0.339 N 
ATOM      3  H1  UNL     1      13.475  16.736  20.874  1.00  0.00     0.167 HD
HETATM    4  C6  UNL     1      15.288  16.976  21.952  1.00  0.00     0.136 A 
HETATM    5  C7  UNL     1      15.056  17.091  23.299  1.00  0.00     0.289 A 
HETATM    6  O1  UNL     1      13.868  17.044  23.706  1.00  0.00    -0.264 OA
HETATM    7  N2  UNL     1      16.101  17.250  24.131  1.00  0.00    -0.262 N 
ATOM      8  H2  UNL     1      15.927  17.336  25.133  1.00  0.00     0.190 HD
HETATM    9  N3  UNL     1      17.345  17.299  23.692  1.00  0.00    -0.262 N 
ATOM     10  H3  UNL     1      18.108  17.422  24.358  1.00  0.00     0.190 HD
HETATM   11  C8  UNL     1      17.620  17.190  22.386  1.00  0.00     0.289 A 
HETATM   12  O2  UNL     1      18.790  17.229  21.911  1.00  0.00    -0.264 OA
HETATM   13  C9  UNL     1      16.579  17.024  21.492  1.00  0.00     0.136 A 
HETATM   14  N4  UNL     1      16.530  16.890  20.163  1.00  0.00    -0.339 N 
ATOM     15  H4  UNL     1      17.342  16.888  19.545  1.00  0.00     0.167 HD
ENDROOT
BRANCH   1  16
HETATM   16  C4  UNL     1      14.841  16.587  18.367  1.00  0.00     0.076 C 
BRANCH  16  17
HETATM   17  C3  UNL     1      14.856  17.905  17.590  1.00  0.00     0.007 C 
BRANCH  17  18
HETATM   18  C2  UNL     1      16.115  17.904  16.751  1.00  0.00    -0.004 C 
HETATM   19  C1  UNL     1      17.103  18.949  17.220  1.00  0.00     0.005 C 
ENDBRANCH  17  18
ENDBRANCH  16  17
ENDBRANCH   1  16
TORSDOF 3
ENDMDL
