MODEL 4
REMARK VINA RESULT: -7.093204243      1.669      3.077
REMARK  3 active torsions:
REMARK  status: ('A' for Active; 'I' for Inactive)
REMARK    1  A    between atoms: C2_2  and  C3_3 
REMARK    2  A    between atoms: C3_3  and  C4_4 
REMARK    3  A    between atoms: C4_4  and  C5_5 
ROOT
HETATM    1  C5  UNL     1      14.030  16.871  19.933  1.00  0.00     0.082 A 
HETATM    2  N1  UNL     1      13.189  16.673  20.957  1.00  0.00    -0.339 N 
ATOM      3  H1  UNL     1      12.186  16.505  20.874  1.00  0.00     0.167 HD
HETATM    4  C6  UNL     1      13.886  16.731  22.126  1.00  0.00     0.136 A 
HETATM    5  C7  UNL     1      13.551  16.603  23.450  1.00  0.00     0.289 A 
HETATM    6  O1  UNL     1      12.349  16.381  23.743  1.00  0.00    -0.264 OA
HETATM    7  N2  UNL     1      14.513  16.719  24.383  1.00  0.00    -0.262 N 
ATOM      8  H2  UNL     1      14.262  16.624  25.367  1.00  0.00     0.190 HD
HETATM    9  N3  UNL     1      15.772  16.953  24.064  1.00  0.00    -0.262 N 
ATOM     10  H3  UNL     1      16.471  17.035  24.803  1.00  0.00     0.190 HD
HETATM   11  C8  UNL     1      16.147  17.085  22.785  1.00  0.00     0.289 A 
HETATM   12  O2  UNL     1      17.337  17.308  22.424  1.00  0.00    -0.264 OA
HETATM   13  C9  UNL     1      15.194  16.972  21.792  1.00  0.00     0.136 A 
HETATM   14  N4  UNL     1      15.251  17.053  20.458  1.00  0.00    -0.339 N 
ATOM     15  H4  UNL     1      16.099  17.226  19.919  1.00  0.00     0.167 HD
ENDROOT
BRANCH   1  16
HETATM   16  C4  UNL     1      13.731  16.894  18.500  1.00  0.00     0.076 C 
BRANCH  16  17
HETATM   17  C3  UNL     1      14.990  16.772  17.640  1.00  0.00     0.007 C 
BRANCH  17  18
HETATM   18  C2  UNL     1      15.276  18.150  17.084  1.00  0.00    -0.004 C 
HETATM   19  C1  UNL     1      16.663  18.627  17.452  1.00  0.00     0.005 C 
ENDBRANCH  17  18
ENDBRANCH  16  17
ENDBRANCH   1  16
TORSDOF 3
ENDMDL
