MODEL 2
REMARK VINA RESULT: -7.184575685      0.093      2.400
REMARK  3 active torsions:
REMARK  status: ('A' for Active; 'I' for Inactive)
REMARK    1  A    between atoms: C2_2  and  C3_3 
REMARK    2  A    between atoms: C3_3  and  C4_4 
REMARK    3  A    between atoms: C4_4  and  C5_5 
ROOT
HETATM    1  C5  UNL     1      16.665  17.336  19.771  1.00  0.00     0.082 A 
HETATM    2  N1  UNL     1      15.454  17.069  20.277  1.00  0.00    -0.339 N 
ATOM      3  H1  UNL     1      14.607  16.913  19.731  1.00  0.00     0.167 HD
HETATM    4  C6  UNL     1      15.534  17.041  21.637  1.00  0.00     0.136 A 
HETATM    5  C7  UNL     1      14.631  16.821  22.646  1.00  0.00     0.289 A 
HETATM    6  O1  UNL     1      13.436  16.584  22.337  1.00  0.00    -0.264 OA
HETATM    7  N2  UNL     1      15.053  16.866  23.923  1.00  0.00    -0.262 N 
ATOM      8  H2  UNL     1      14.381  16.702  24.672  1.00  0.00     0.190 HD
HETATM    9  N3  UNL     1      16.311  17.117  24.235  1.00  0.00    -0.262 N 
ATOM     10  H3  UNL     1      16.589  17.142  25.217  1.00  0.00     0.190 HD
HETATM   11  C8  UNL     1      17.228  17.337  23.284  1.00  0.00     0.289 A 
HETATM   12  O2  UNL     1      18.444  17.580  23.527  1.00  0.00    -0.264 OA
HETATM   13  C9  UNL     1      16.841  17.300  21.959  1.00  0.00     0.136 A 
HETATM   14  N4  UNL     1      17.503  17.474  20.810  1.00  0.00    -0.339 N 
ATOM     15  H4  UNL     1      18.499  17.682  20.734  1.00  0.00     0.167 HD
ENDROOT
BRANCH   1  16
HETATM   16  C4  UNL     1      17.058  17.463  18.365  1.00  0.00     0.076 C 
BRANCH  16  17
HETATM   17  C3  UNL     1      17.502  18.883  18.010  1.00  0.00     0.007 C 
BRANCH  17  18
HETATM   18  C2  UNL     1      16.969  19.174  16.624  1.00  0.00    -0.004 C 
HETATM   19  C1  UNL     1      15.620  18.531  16.395  1.00  0.00     0.005 C 
ENDBRANCH  17  18
ENDBRANCH  16  17
ENDBRANCH   1  16
TORSDOF 3
ENDMDL
