MODEL 8
REMARK VINA RESULT: -6.874178908      1.474      1.769
REMARK  3 active torsions:
REMARK  status: ('A' for Active; 'I' for Inactive)
REMARK    1  A    between atoms: C2_2  and  C3_3 
REMARK    2  A    between atoms: C3_3  and  C4_4 
REMARK    3  A    between atoms: C4_4  and  C5_5 
ROOT
HETATM    1  C5  UNL     1      15.988  17.523  19.782  1.00  0.00     0.082 A 
HETATM    2  N1  UNL     1      17.041  17.630  20.601  1.00  0.00    -0.339 N 
ATOM      3  H1  UNL     1      17.991  17.869  20.314  1.00  0.00     0.167 HD
HETATM    4  C6  UNL     1      16.644  17.368  21.878  1.00  0.00     0.136 A 
HETATM    5  C7  UNL     1      17.281  17.332  23.092  1.00  0.00     0.289 A 
HETATM    6  O1  UNL     1      18.511  17.585  23.129  1.00  0.00    -0.264 OA
HETATM    7  N2  UNL     1      16.571  17.029  24.195  1.00  0.00    -0.262 N 
ATOM      8  H2  UNL     1      17.046  17.003  25.097  1.00  0.00     0.190 HD
HETATM    9  N3  UNL     1      15.279  16.765  24.144  1.00  0.00    -0.262 N 
ATOM     10  H3  UNL     1      14.779  16.539  25.004  1.00  0.00     0.190 HD
HETATM   11  C8  UNL     1      14.615  16.788  22.981  1.00  0.00     0.289 A 
HETATM   12  O2  UNL     1      13.380  16.544  22.875  1.00  0.00    -0.264 OA
HETATM   13  C9  UNL     1      15.301  17.095  21.822  1.00  0.00     0.136 A 
HETATM   14  N4  UNL     1      14.932  17.196  20.541  1.00  0.00    -0.339 N 
ATOM     15  H4  UNL     1      13.984  17.046  20.193  1.00  0.00     0.167 HD
ENDROOT
BRANCH   1  16
HETATM   16  C4  UNL     1      15.938  17.716  18.330  1.00  0.00     0.076 C 
BRANCH  16  17
HETATM   17  C3  UNL     1      14.517  17.598  17.775  1.00  0.00     0.007 C 
BRANCH  17  18
HETATM   18  C2  UNL     1      14.422  16.247  17.100  1.00  0.00    -0.004 C 
HETATM   19  C1  UNL     1      13.273  15.428  17.643  1.00  0.00     0.005 C 
ENDBRANCH  17  18
ENDBRANCH  16  17
ENDBRANCH   1  16
TORSDOF 3
ENDMDL
