MODEL 1
REMARK VINA RESULT: -7.201654649      0.000      0.000
REMARK  3 active torsions:
REMARK  status: ('A' for Active; 'I' for Inactive)
REMARK    1  A    between atoms: C2_2  and  C3_3 
REMARK    2  A    between atoms: C3_3  and  C4_4 
REMARK    3  A    between atoms: C4_4  and  C5_5 
ROOT
HETATM    1  C5  UNL     1      16.776  17.372  19.762  1.00  0.00     0.082 A 
HETATM    2  N1  UNL     1      17.615  17.527  20.794  1.00  0.00    -0.339 N 
ATOM      3  H1  UNL     1      18.607  17.751  20.721  1.00  0.00     0.167 HD
HETATM    4  C6  UNL     1      16.932  17.336  21.958  1.00  0.00     0.136 A 
HETATM    5  C7  UNL     1      17.273  17.370  23.286  1.00  0.00     0.289 A 
HETATM    6  O1  UNL     1      18.465  17.627  23.590  1.00  0.00    -0.264 OA
HETATM    7  N2  UNL     1      16.326  17.127  24.211  1.00  0.00    -0.262 N 
ATOM      8  H2  UNL     1      16.581  17.153  25.198  1.00  0.00     0.190 HD
HETATM    9  N3  UNL     1      15.077  16.857  23.879  1.00  0.00    -0.262 N 
ATOM     10  H3  UNL     1      14.391  16.679  24.612  1.00  0.00     0.190 HD
HETATM   11  C8  UNL     1      14.698  16.814  22.595  1.00  0.00     0.289 A 
HETATM   12  O2  UNL     1      13.518  16.561  22.222  1.00  0.00    -0.264 OA
HETATM   13  C9  UNL     1      15.636  17.057  21.610  1.00  0.00     0.136 A 
HETATM   14  N4  UNL     1      15.571  17.086  20.275  1.00  0.00    -0.339 N 
ATOM     15  H4  UNL     1      14.727  16.915  19.727  1.00  0.00     0.167 HD
ENDROOT
BRANCH   1  16
HETATM   16  C4  UNL     1      17.063  17.484  18.329  1.00  0.00     0.076 C 
BRANCH  16  17
HETATM   17  C3  UNL     1      17.507  18.893  17.932  1.00  0.00     0.007 C 
BRANCH  17  18
HETATM   18  C2  UNL     1      16.971  19.145  16.540  1.00  0.00    -0.004 C 
HETATM   19  C1  UNL     1      15.571  18.601  16.371  1.00  0.00     0.005 C 
ENDBRANCH  17  18
ENDBRANCH  16  17
ENDBRANCH   1  16
TORSDOF 3
ENDMDL
