MODEL 1
REMARK VINA RESULT: -9.491798322      0.000      0.000
REMARK  13 active torsions:
REMARK  status: ('A' for Active; 'I' for Inactive)
REMARK    1  A    between atoms: C2_2  and  C4_4 
REMARK    2  A    between atoms: C4_4  and  N1_5 
REMARK    3  A    between atoms: N1_5  and  C5_6 
REMARK    4  A    between atoms: N1_5  and  S1_31 
REMARK    5  A    between atoms: C5_6  and  C6_7 
REMARK    6  A    between atoms: C6_7  and  O1_8 
REMARK    7  A    between atoms: C6_7  and  C7_10 
REMARK    8  A    between atoms: C7_10  and  C8_11 
REMARK    9  A    between atoms: C7_10  and  N2_18 
REMARK   10  A    between atoms: C8_11  and  C9_12 
REMARK       I    between atoms: N2_18  and  C15_20 
REMARK   11  A    between atoms: C15_20  and  O3_22 
REMARK   12  A    between atoms: O3_22  and  C16_23 
REMARK   13  A    between atoms: S1_31  and  C22_34 
ROOT
HETATM    1  C6  UNL     1      17.794  24.438  17.463  1.00  0.00     0.160 C 
ENDROOT
BRANCH   1   2
HETATM    2  C5  UNL     1      19.073  24.124  18.185  1.00  0.00     0.174 C 
BRANCH   2   3
HETATM    3  N1  UNL     1      19.030  24.346  19.607  1.00  0.00    -0.283 N 
BRANCH   3   4
HETATM    4  C4  UNL     1      18.158  23.521  20.274  1.00  0.00     0.080 C 
BRANCH   4   5
HETATM    5  C2  UNL     1      18.291  22.019  20.102  1.00  0.00     0.017 C 
HETATM    6  C1  UNL     1      17.053  21.382  19.543  1.00  0.00     0.015 C 
HETATM    7  C3  UNL     1      18.871  21.296  21.286  1.00  0.00     0.015 C 
ENDBRANCH   4   5
ENDBRANCH   3   4
BRANCH   3   8
HETATM    8  S1  UNL     1      20.490  24.884  20.192  1.00  0.00     0.264 S 
HETATM    9  O6  UNL     1      20.380  25.592  21.533  1.00  0.00    -0.200 OA
HETATM   10  O7  UNL     1      21.344  23.647  20.519  1.00  0.00    -0.200 OA
BRANCH   8  11
HETATM   11  C22 UNL     1      21.485  25.833  19.121  1.00  0.00     0.082 A 
HETATM   12  C23 UNL     1      21.027  26.958  18.473  1.00  0.00     0.028 A 
HETATM   13  C24 UNL     1      21.847  27.683  17.637  1.00  0.00     0.041 A 
HETATM   14  C25 UNL     1      23.165  27.323  17.405  1.00  0.00     0.105 A 
HETATM   15  C26 UNL     1      23.632  26.201  18.050  1.00  0.00     0.106 A 
HETATM   16  O9  UNL     1      24.205  27.844  16.636  1.00  0.00    -0.323 OA
HETATM   17  C27 UNL     1      22.798  25.462  18.901  1.00  0.00     0.065 A 
HETATM   18  O8  UNL     1      24.954  26.050  17.665  1.00  0.00    -0.323 OA
HETATM   19  C28 UNL     1      25.220  26.841  16.523  1.00  0.00     0.352 C 
ENDBRANCH   8  11
ENDBRANCH   3   8
ENDBRANCH   2   3
ENDBRANCH   1   2
BRANCH   1  20
HETATM   20  O1  UNL     1      17.318  25.699  17.738  1.00  0.00    -0.392 OA
ATOM     21  H1  UNL     1      17.007  26.155  16.964  1.00  0.00     0.210 HD
ENDBRANCH   1  20
BRANCH   1  22
HETATM   22  C7  UNL     1      17.910  24.296  15.970  1.00  0.00     0.121 C 
BRANCH  22  23
HETATM   23  C8  UNL     1      17.857  25.632  15.290  1.00  0.00     0.066 C 
BRANCH  23  24
HETATM   24  C9  UNL     1      19.211  26.105  14.919  1.00  0.00    -0.056 A 
HETATM   25  C10 UNL     1      20.268  25.227  14.966  1.00  0.00     0.007 A 
HETATM   26  C11 UNL     1      21.559  25.619  14.628  1.00  0.00     0.001 A 
HETATM   27  C12 UNL     1      21.762  26.930  14.241  1.00  0.00     0.000 A 
HETATM   28  C13 UNL     1      20.725  27.818  14.189  1.00  0.00     0.001 A 
HETATM   29  C14 UNL     1      19.434  27.403  14.531  1.00  0.00     0.007 A 
ENDBRANCH  23  24
ENDBRANCH  22  23
BRANCH  22  30
HETATM   30  N2  UNL     1      16.855  23.414  15.448  1.00  0.00    -0.329 N 
HETATM   31  C15 UNL     1      16.931  22.004  15.580  1.00  0.00     0.361 C 
HETATM   32  O2  UNL     1      17.917  21.507  16.150  1.00  0.00    -0.238 OA
ATOM     33  H2  UNL     1      16.049  23.827  14.978  1.00  0.00     0.165 HD
BRANCH  31  34
HETATM   34  O3  UNL     1      15.963  21.138  15.106  1.00  0.00    -0.296 OA
BRANCH  34  35
HETATM   35  C16 UNL     1      14.691  21.595  14.802  1.00  0.00     0.166 C 
HETATM   36  C17 UNL     1      13.986  20.789  13.739  1.00  0.00     0.204 C 
HETATM   37  O4  UNL     1      12.672  21.230  13.878  1.00  0.00    -0.358 OA
HETATM   38  C18 UNL     1      12.419  21.279  15.245  1.00  0.00     0.266 C 
HETATM   39  O5  UNL     1      11.926  20.056  15.660  1.00  0.00    -0.361 OA
HETATM   40  C21 UNL     1      13.715  21.528  15.935  1.00  0.00     0.075 C 
HETATM   41  C19 UNL     1      12.484  19.787  16.903  1.00  0.00     0.171 C 
HETATM   42  C20 UNL     1      13.904  20.296  16.787  1.00  0.00     0.038 C 
ENDBRANCH  34  35
ENDBRANCH  31  34
ENDBRANCH  22  30
ENDBRANCH   1  22
TORSDOF 13
ENDMDL
