MODEL 12
REMARK VINA RESULT: -9.179823476      2.296      4.645
REMARK  13 active torsions:
REMARK  status: ('A' for Active; 'I' for Inactive)
REMARK    1  A    between atoms: C2_2  and  C4_4 
REMARK    2  A    between atoms: C4_4  and  N1_5 
REMARK    3  A    between atoms: N1_5  and  C5_6 
REMARK    4  A    between atoms: N1_5  and  S1_31 
REMARK    5  A    between atoms: C5_6  and  C6_7 
REMARK    6  A    between atoms: C6_7  and  O1_8 
REMARK    7  A    between atoms: C6_7  and  C7_10 
REMARK    8  A    between atoms: C7_10  and  C8_11 
REMARK    9  A    between atoms: C7_10  and  N2_18 
REMARK   10  A    between atoms: C8_11  and  C9_12 
REMARK       I    between atoms: N2_18  and  C15_20 
REMARK   11  A    between atoms: C15_20  and  O3_22 
REMARK   12  A    between atoms: O3_22  and  C16_23 
REMARK   13  A    between atoms: S1_31  and  C22_34 
ROOT
HETATM    1  C6  UNL     1      16.275  24.043  18.094  1.00  0.00     0.160 C 
ENDROOT
BRANCH   1   2
HETATM    2  C5  UNL     1      17.196  25.136  17.633  1.00  0.00     0.174 C 
BRANCH   2   3
HETATM    3  N1  UNL     1      18.597  24.811  17.707  1.00  0.00    -0.283 N 
BRANCH   3   4
HETATM    4  C4  UNL     1      18.902  23.877  18.666  1.00  0.00     0.080 C 
BRANCH   4   5
HETATM    5  C2  UNL     1      19.462  24.346  19.996  1.00  0.00     0.017 C 
HETATM    6  C1  UNL     1      20.852  23.843  20.255  1.00  0.00     0.015 C 
HETATM    7  C3  UNL     1      18.527  24.193  21.164  1.00  0.00     0.015 C 
ENDBRANCH   4   5
ENDBRANCH   3   4
BRANCH   3   8
HETATM    8  S1  UNL     1      19.344  24.960  16.229  1.00  0.00     0.264 S 
HETATM    9  O6  UNL     1      19.631  23.625  15.560  1.00  0.00    -0.200 OA
HETATM   10  O7  UNL     1      18.344  25.625  15.268  1.00  0.00    -0.200 OA
BRANCH   8  11
HETATM   11  C22 UNL     1      20.767  25.962  16.144  1.00  0.00     0.082 A 
HETATM   12  C23 UNL     1      21.134  26.647  15.009  1.00  0.00     0.028 A 
HETATM   13  C24 UNL     1      22.266  27.432  14.984  1.00  0.00     0.041 A 
HETATM   14  C25 UNL     1      23.088  27.573  16.090  1.00  0.00     0.105 A 
HETATM   15  C26 UNL     1      22.728  26.892  17.231  1.00  0.00     0.106 A 
HETATM   16  O9  UNL     1      24.263  28.275  16.360  1.00  0.00    -0.323 OA
HETATM   17  C27 UNL     1      21.577  26.093  17.257  1.00  0.00     0.065 A 
HETATM   18  O8  UNL     1      23.690  27.188  18.184  1.00  0.00    -0.323 OA
HETATM   19  C28 UNL     1      24.830  27.749  17.563  1.00  0.00     0.352 C 
ENDBRANCH   8  11
ENDBRANCH   3   8
ENDBRANCH   2   3
ENDBRANCH   1   2
BRANCH   1  20
HETATM   20  O1  UNL     1      15.040  24.510  18.482  1.00  0.00    -0.392 OA
ATOM     21  H1  UNL     1      14.329  24.157  17.959  1.00  0.00     0.210 HD
ENDBRANCH   1  20
BRANCH   1  22
HETATM   22  C7  UNL     1      16.066  22.974  17.057  1.00  0.00     0.121 C 
BRANCH  22  23
HETATM   23  C8  UNL     1      15.522  23.548  15.783  1.00  0.00     0.066 C 
BRANCH  23  24
HETATM   24  C9  UNL     1      14.715  22.551  15.040  1.00  0.00    -0.056 A 
HETATM   25  C10 UNL     1      13.344  22.613  15.104  1.00  0.00     0.007 A 
HETATM   26  C11 UNL     1      12.539  21.703  14.427  1.00  0.00     0.001 A 
HETATM   27  C12 UNL     1      13.156  20.719  13.678  1.00  0.00     0.000 A 
HETATM   28  C13 UNL     1      14.518  20.640  13.602  1.00  0.00     0.001 A 
HETATM   29  C14 UNL     1      15.309  21.566  14.290  1.00  0.00     0.007 A 
ENDBRANCH  23  24
ENDBRANCH  22  23
BRANCH  22  30
HETATM   30  N2  UNL     1      15.172  21.922  17.567  1.00  0.00    -0.329 N 
HETATM   31  C15 UNL     1      15.664  20.645  17.940  1.00  0.00     0.361 C 
HETATM   32  O2  UNL     1      16.879  20.414  17.830  1.00  0.00    -0.238 OA
ATOM     33  H2  UNL     1      14.175  22.117  17.653  1.00  0.00     0.165 HD
BRANCH  31  34
HETATM   34  O3  UNL     1      14.860  19.629  18.426  1.00  0.00    -0.296 OA
BRANCH  34  35
HETATM   35  C16 UNL     1      13.514  19.845  18.670  1.00  0.00     0.166 C 
HETATM   36  C17 UNL     1      12.598  19.261  17.623  1.00  0.00     0.204 C 
HETATM   37  O4  UNL     1      11.364  19.318  18.268  1.00  0.00    -0.358 OA
HETATM   38  C18 UNL     1      11.584  18.885  19.571  1.00  0.00     0.266 C 
HETATM   39  O5  UNL     1      11.417  17.514  19.630  1.00  0.00    -0.361 OA
HETATM   40  C21 UNL     1      12.995  19.208  19.921  1.00  0.00     0.075 C 
HETATM   41  C19 UNL     1      12.392  17.017  20.486  1.00  0.00     0.171 C 
HETATM   42  C20 UNL     1      13.613  17.855  20.179  1.00  0.00     0.038 C 
ENDBRANCH  34  35
ENDBRANCH  31  34
ENDBRANCH  22  30
ENDBRANCH   1  22
TORSDOF 13
ENDMDL
