MODEL 2
REMARK VINA RESULT: -9.477443545      2.650      5.809
REMARK  13 active torsions:
REMARK  status: ('A' for Active; 'I' for Inactive)
REMARK    1  A    between atoms: C2_2  and  C4_4 
REMARK    2  A    between atoms: C4_4  and  N1_5 
REMARK    3  A    between atoms: N1_5  and  C5_6 
REMARK    4  A    between atoms: N1_5  and  S1_31 
REMARK    5  A    between atoms: C5_6  and  C6_7 
REMARK    6  A    between atoms: C6_7  and  O1_8 
REMARK    7  A    between atoms: C6_7  and  C7_10 
REMARK    8  A    between atoms: C7_10  and  C8_11 
REMARK    9  A    between atoms: C7_10  and  N2_18 
REMARK   10  A    between atoms: C8_11  and  C9_12 
REMARK       I    between atoms: N2_18  and  C15_20 
REMARK   11  A    between atoms: C15_20  and  O3_22 
REMARK   12  A    between atoms: O3_22  and  C16_23 
REMARK   13  A    between atoms: S1_31  and  C22_34 
ROOT
HETATM    1  C6  UNL     1      16.496  24.106  18.093  1.00  0.00     0.160 C 
ENDROOT
BRANCH   1   2
HETATM    2  C5  UNL     1      17.770  24.424  18.824  1.00  0.00     0.174 C 
BRANCH   2   3
HETATM    3  N1  UNL     1      18.768  23.387  18.768  1.00  0.00    -0.283 N 
BRANCH   3   4
HETATM    4  C4  UNL     1      20.052  23.857  18.641  1.00  0.00     0.080 C 
BRANCH   4   5
HETATM    5  C2  UNL     1      20.426  25.162  19.318  1.00  0.00     0.017 C 
HETATM    6  C1  UNL     1      21.232  26.069  18.434  1.00  0.00     0.015 C 
HETATM    7  C3  UNL     1      20.974  25.018  20.711  1.00  0.00     0.015 C 
ENDBRANCH   4   5
ENDBRANCH   3   4
BRANCH   3   8
HETATM    8  S1  UNL     1      18.310  22.043  19.633  1.00  0.00     0.264 S 
HETATM    9  O6  UNL     1      19.472  21.127  19.985  1.00  0.00    -0.200 OA
HETATM   10  O7  UNL     1      17.814  22.522  21.008  1.00  0.00    -0.200 OA
BRANCH   8  11
HETATM   11  C22 UNL     1      16.998  21.088  19.000  1.00  0.00     0.082 A 
HETATM   12  C23 UNL     1      17.057  20.446  17.784  1.00  0.00     0.028 A 
HETATM   13  C24 UNL     1      15.997  19.697  17.321  1.00  0.00     0.041 A 
HETATM   14  C25 UNL     1      14.827  19.549  18.048  1.00  0.00     0.105 A 
HETATM   15  C26 UNL     1      14.760  20.187  19.266  1.00  0.00     0.106 A 
HETATM   16  O9  UNL     1      13.622  18.876  17.846  1.00  0.00    -0.323 OA
HETATM   17  C27 UNL     1      15.837  20.949  19.738  1.00  0.00     0.065 A 
HETATM   18  O8  UNL     1      13.512  19.893  19.793  1.00  0.00    -0.323 OA
HETATM   19  C28 UNL     1      12.666  19.384  18.781  1.00  0.00     0.352 C 
ENDBRANCH   8  11
ENDBRANCH   3   8
ENDBRANCH   2   3
ENDBRANCH   1   2
BRANCH   1  20
HETATM   20  O1  UNL     1      15.468  24.964  18.409  1.00  0.00    -0.392 OA
ATOM     21  H1  UNL     1      15.498  25.264  19.310  1.00  0.00     0.210 HD
ENDBRANCH   1  20
BRANCH   1  22
HETATM   22  C7  UNL     1      16.660  24.102  16.598  1.00  0.00     0.121 C 
BRANCH  22  23
HETATM   23  C8  UNL     1      17.116  25.440  16.096  1.00  0.00     0.066 C 
BRANCH  23  24
HETATM   24  C9  UNL     1      18.511  25.387  15.600  1.00  0.00    -0.056 A 
HETATM   25  C10 UNL     1      19.139  26.552  15.230  1.00  0.00     0.007 A 
HETATM   26  C11 UNL     1      20.447  26.559  14.758  1.00  0.00     0.001 A 
HETATM   27  C12 UNL     1      21.113  25.352  14.667  1.00  0.00     0.000 A 
HETATM   28  C13 UNL     1      20.507  24.182  15.030  1.00  0.00     0.001 A 
HETATM   29  C14 UNL     1      19.191  24.198  15.502  1.00  0.00     0.007 A 
ENDBRANCH  23  24
ENDBRANCH  22  23
BRANCH  22  30
HETATM   30  N2  UNL     1      15.405  23.708  15.938  1.00  0.00    -0.329 N 
HETATM   31  C15 UNL     1      15.361  22.646  14.999  1.00  0.00     0.361 C 
HETATM   32  O2  UNL     1      16.411  22.039  14.729  1.00  0.00    -0.238 OA
ATOM     33  H2  UNL     1      14.547  24.212  16.162  1.00  0.00     0.165 HD
BRANCH  31  34
HETATM   34  O3  UNL     1      14.205  22.241  14.356  1.00  0.00    -0.296 OA
BRANCH  34  35
HETATM   35  C16 UNL     1      13.233  21.522  15.033  1.00  0.00     0.166 C 
HETATM   36  C17 UNL     1      11.820  21.887  14.649  1.00  0.00     0.204 C 
HETATM   37  O4  UNL     1      11.099  20.826  15.193  1.00  0.00    -0.358 OA
HETATM   38  C18 UNL     1      11.814  19.672  14.888  1.00  0.00     0.266 C 
HETATM   39  O5  UNL     1      11.388  19.181  13.668  1.00  0.00    -0.361 OA
HETATM   40  C21 UNL     1      13.250  20.049  14.773  1.00  0.00     0.075 C 
HETATM   41  C19 UNL     1      12.510  18.715  12.997  1.00  0.00     0.171 C 
HETATM   42  C20 UNL     1      13.588  19.720  13.339  1.00  0.00     0.038 C 
ENDBRANCH  34  35
ENDBRANCH  31  34
ENDBRANCH  22  30
ENDBRANCH   1  22
TORSDOF 13
ENDMDL
