MODEL 5
REMARK VINA RESULT: -9.354194082      2.448      4.744
REMARK  13 active torsions:
REMARK  status: ('A' for Active; 'I' for Inactive)
REMARK    1  A    between atoms: C2_2  and  C4_4 
REMARK    2  A    between atoms: C4_4  and  N1_5 
REMARK    3  A    between atoms: N1_5  and  C5_6 
REMARK    4  A    between atoms: N1_5  and  S1_31 
REMARK    5  A    between atoms: C5_6  and  C6_7 
REMARK    6  A    between atoms: C6_7  and  O1_8 
REMARK    7  A    between atoms: C6_7  and  C7_10 
REMARK    8  A    between atoms: C7_10  and  C8_11 
REMARK    9  A    between atoms: C7_10  and  N2_18 
REMARK   10  A    between atoms: C8_11  and  C9_12 
REMARK       I    between atoms: N2_18  and  C15_20 
REMARK   11  A    between atoms: C15_20  and  O3_22 
REMARK   12  A    between atoms: O3_22  and  C16_23 
REMARK   13  A    between atoms: S1_31  and  C22_34 
ROOT
HETATM    1  C6  UNL     1      16.528  24.332  18.158  1.00  0.00     0.160 C 
ENDROOT
BRANCH   1   2
HETATM    2  C5  UNL     1      17.472  25.218  17.397  1.00  0.00     0.174 C 
BRANCH   2   3
HETATM    3  N1  UNL     1      18.865  24.891  17.561  1.00  0.00    -0.283 N 
BRANCH   3   4
HETATM    4  C4  UNL     1      19.106  23.948  18.530  1.00  0.00     0.080 C 
BRANCH   4   5
HETATM    5  C2  UNL     1      19.723  24.388  19.845  1.00  0.00     0.017 C 
HETATM    6  C1  UNL     1      21.106  23.846  20.052  1.00  0.00     0.015 C 
HETATM    7  C3  UNL     1      18.823  24.247  21.042  1.00  0.00     0.015 C 
ENDBRANCH   4   5
ENDBRANCH   3   4
BRANCH   3   8
HETATM    8  S1  UNL     1      19.708  25.052  16.138  1.00  0.00     0.264 S 
HETATM    9  O6  UNL     1      20.048  23.723  15.482  1.00  0.00    -0.200 OA
HETATM   10  O7  UNL     1      18.771  25.716  15.115  1.00  0.00    -0.200 OA
BRANCH   8  11
HETATM   11  C22 UNL     1      21.127  26.063  16.153  1.00  0.00     0.082 A 
HETATM   12  C23 UNL     1      21.543  26.788  15.060  1.00  0.00     0.028 A 
HETATM   13  C24 UNL     1      22.671  27.578  15.115  1.00  0.00     0.041 A 
HETATM   14  C25 UNL     1      23.438  27.687  16.263  1.00  0.00     0.105 A 
HETATM   15  C26 UNL     1      23.029  26.966  17.362  1.00  0.00     0.106 A 
HETATM   16  O9  UNL     1      24.594  28.385  16.611  1.00  0.00    -0.323 OA
HETATM   17  C27 UNL     1      21.883  26.161  17.307  1.00  0.00     0.065 A 
HETATM   18  O8  UNL     1      23.943  27.235  18.368  1.00  0.00    -0.323 OA
HETATM   19  C28 UNL     1      25.108  27.822  17.821  1.00  0.00     0.352 C 
ENDBRANCH   8  11
ENDBRANCH   3   8
ENDBRANCH   2   3
ENDBRANCH   1   2
BRANCH   1  20
HETATM   20  O1  UNL     1      15.472  25.020  18.709  1.00  0.00    -0.392 OA
ATOM     21  H1  UNL     1      14.726  24.463  18.901  1.00  0.00     0.210 HD
ENDBRANCH   1  20
BRANCH   1  22
HETATM   22  C7  UNL     1      15.971  23.211  17.323  1.00  0.00     0.121 C 
BRANCH  22  23
HETATM   23  C8  UNL     1      15.523  23.702  15.979  1.00  0.00     0.066 C 
BRANCH  23  24
HETATM   24  C9  UNL     1      14.695  22.691  15.281  1.00  0.00    -0.056 A 
HETATM   25  C10 UNL     1      13.357  22.937  15.083  1.00  0.00     0.007 A 
HETATM   26  C11 UNL     1      12.534  22.022  14.434  1.00  0.00     0.001 A 
HETATM   27  C12 UNL     1      13.098  20.842  13.987  1.00  0.00     0.000 A 
HETATM   28  C13 UNL     1      14.425  20.579  14.174  1.00  0.00     0.001 A 
HETATM   29  C14 UNL     1      15.235  21.513  14.829  1.00  0.00     0.007 A 
ENDBRANCH  23  24
ENDBRANCH  22  23
BRANCH  22  30
HETATM   30  N2  UNL     1      14.860  22.545  18.021  1.00  0.00    -0.329 N 
HETATM   31  C15 UNL     1      15.058  21.357  18.771  1.00  0.00     0.361 C 
HETATM   32  O2  UNL     1      16.200  20.870  18.835  1.00  0.00    -0.238 OA
ATOM     33  H2  UNL     1      13.925  22.948  17.964  1.00  0.00     0.165 HD
BRANCH  31  34
HETATM   34  O3  UNL     1      14.044  20.699  19.444  1.00  0.00    -0.296 OA
BRANCH  34  35
HETATM   35  C16 UNL     1      13.922  19.321  19.368  1.00  0.00     0.166 C 
HETATM   36  C17 UNL     1      13.133  18.712  20.501  1.00  0.00     0.204 C 
HETATM   37  O4  UNL     1      12.882  17.431  20.010  1.00  0.00    -0.358 OA
HETATM   38  C18 UNL     1      12.514  17.589  18.678  1.00  0.00     0.266 C 
HETATM   39  O5  UNL     1      11.144  17.757  18.601  1.00  0.00    -0.361 OA
HETATM   40  C21 UNL     1      13.174  18.824  18.171  1.00  0.00     0.075 C 
HETATM   41  C19 UNL     1      10.900  18.710  17.622  1.00  0.00     0.171 C 
HETATM   42  C20 UNL     1      12.014  19.718  17.803  1.00  0.00     0.038 C 
ENDBRANCH  34  35
ENDBRANCH  31  34
ENDBRANCH  22  30
ENDBRANCH   1  22
TORSDOF 13
ENDMDL
