MODEL 7
REMARK VINA RESULT: -9.284430174      2.476      4.891
REMARK  13 active torsions:
REMARK  status: ('A' for Active; 'I' for Inactive)
REMARK    1  A    between atoms: C2_2  and  C4_4 
REMARK    2  A    between atoms: C4_4  and  N1_5 
REMARK    3  A    between atoms: N1_5  and  C5_6 
REMARK    4  A    between atoms: N1_5  and  S1_31 
REMARK    5  A    between atoms: C5_6  and  C6_7 
REMARK    6  A    between atoms: C6_7  and  O1_8 
REMARK    7  A    between atoms: C6_7  and  C7_10 
REMARK    8  A    between atoms: C7_10  and  C8_11 
REMARK    9  A    between atoms: C7_10  and  N2_18 
REMARK   10  A    between atoms: C8_11  and  C9_12 
REMARK       I    between atoms: N2_18  and  C15_20 
REMARK   11  A    between atoms: C15_20  and  O3_22 
REMARK   12  A    between atoms: O3_22  and  C16_23 
REMARK   13  A    between atoms: S1_31  and  C22_34 
ROOT
HETATM    1  C6  UNL     1      16.607  22.364  18.928  1.00  0.00     0.160 C 
ENDROOT
BRANCH   1   2
HETATM    2  C5  UNL     1      17.981  22.210  18.341  1.00  0.00     0.174 C 
BRANCH   2   3
HETATM    3  N1  UNL     1      18.759  23.421  18.307  1.00  0.00    -0.283 N 
BRANCH   3   4
HETATM    4  C4  UNL     1      19.931  23.351  19.018  1.00  0.00     0.080 C 
BRANCH   4   5
HETATM    5  C2  UNL     1      20.154  24.321  20.164  1.00  0.00     0.017 C 
HETATM    6  C1  UNL     1      21.525  24.212  20.764  1.00  0.00     0.015 C 
HETATM    7  C3  UNL     1      19.043  24.368  21.177  1.00  0.00     0.015 C 
ENDBRANCH   4   5
ENDBRANCH   3   4
BRANCH   3   8
HETATM    8  S1  UNL     1      18.537  24.257  16.887  1.00  0.00     0.264 S 
HETATM    9  O6  UNL     1      17.936  23.412  15.775  1.00  0.00    -0.200 OA
HETATM   10  O7  UNL     1      17.457  25.323  17.139  1.00  0.00    -0.200 OA
BRANCH   8  11
HETATM   11  C22 UNL     1      19.896  25.149  16.259  1.00  0.00     0.082 A 
HETATM   12  C23 UNL     1      20.590  24.764  15.134  1.00  0.00     0.028 A 
HETATM   13  C24 UNL     1      21.657  25.500  14.668  1.00  0.00     0.041 A 
HETATM   14  C25 UNL     1      22.085  26.657  15.300  1.00  0.00     0.105 A 
HETATM   15  C26 UNL     1      21.397  27.050  16.425  1.00  0.00     0.106 A 
HETATM   16  O9  UNL     1      23.102  27.584  15.070  1.00  0.00    -0.323 OA
HETATM   17  C27 UNL     1      20.311  26.302  16.900  1.00  0.00     0.065 A 
HETATM   18  O8  UNL     1      22.004  28.214  16.868  1.00  0.00    -0.323 OA
HETATM   19  C28 UNL     1      23.271  28.363  16.258  1.00  0.00     0.352 C 
ENDBRANCH   8  11
ENDBRANCH   3   8
ENDBRANCH   2   3
ENDBRANCH   1   2
BRANCH   1  20
HETATM   20  O1  UNL     1      16.290  23.670  19.219  1.00  0.00    -0.392 OA
ATOM     21  H1  UNL     1      15.370  23.793  19.420  1.00  0.00     0.210 HD
ENDBRANCH   1  20
BRANCH   1  22
HETATM   22  C7  UNL     1      15.524  21.805  18.047  1.00  0.00     0.121 C 
BRANCH  22  23
HETATM   23  C8  UNL     1      14.836  22.890  17.273  1.00  0.00     0.066 C 
BRANCH  23  24
HETATM   24  C9  UNL     1      14.487  22.442  15.905  1.00  0.00    -0.056 A 
HETATM   25  C10 UNL     1      13.368  22.955  15.294  1.00  0.00     0.007 A 
HETATM   26  C11 UNL     1      12.994  22.569  14.010  1.00  0.00     0.001 A 
HETATM   27  C12 UNL     1      13.783  21.644  13.353  1.00  0.00     0.000 A 
HETATM   28  C13 UNL     1      14.899  21.122  13.943  1.00  0.00     0.001 A 
HETATM   29  C14 UNL     1      15.257  21.525  15.234  1.00  0.00     0.007 A 
ENDBRANCH  23  24
ENDBRANCH  22  23
BRANCH  22  30
HETATM   30  N2  UNL     1      14.547  21.045  18.842  1.00  0.00    -0.329 N 
HETATM   31  C15 UNL     1      14.506  19.627  18.813  1.00  0.00     0.361 C 
HETATM   32  O2  UNL     1      15.317  19.018  18.096  1.00  0.00    -0.238 OA
ATOM     33  H2  UNL     1      13.882  21.551  19.428  1.00  0.00     0.165 HD
BRANCH  31  34
HETATM   34  O3  UNL     1      13.607  18.873  19.545  1.00  0.00    -0.296 OA
BRANCH  34  35
HETATM   35  C16 UNL     1      12.245  18.966  19.306  1.00  0.00     0.166 C 
HETATM   36  C17 UNL     1      11.894  19.683  18.025  1.00  0.00     0.204 C 
HETATM   37  O4  UNL     1      10.552  19.339  17.871  1.00  0.00    -0.358 OA
HETATM   38  C18 UNL     1      10.461  17.982  18.163  1.00  0.00     0.266 C 
HETATM   39  O5  UNL     1      10.657  17.253  17.005  1.00  0.00    -0.361 OA
HETATM   40  C21 UNL     1      11.551  17.652  19.123  1.00  0.00     0.075 C 
HETATM   41  C19 UNL     1      11.410  16.137  17.343  1.00  0.00     0.171 C 
HETATM   42  C20 UNL     1      12.396  16.654  18.368  1.00  0.00     0.038 C 
ENDBRANCH  34  35
ENDBRANCH  31  34
ENDBRANCH  22  30
ENDBRANCH   1  22
TORSDOF 13
ENDMDL
