MODEL 4
REMARK VINA RESULT: -9.388575847      2.537      9.594
REMARK  13 active torsions:
REMARK  status: ('A' for Active; 'I' for Inactive)
REMARK    1  A    between atoms: C2_2  and  C4_4 
REMARK    2  A    between atoms: C4_4  and  N1_5 
REMARK    3  A    between atoms: N1_5  and  C5_6 
REMARK    4  A    between atoms: N1_5  and  S1_31 
REMARK    5  A    between atoms: C5_6  and  C6_7 
REMARK    6  A    between atoms: C6_7  and  O1_8 
REMARK    7  A    between atoms: C6_7  and  C7_10 
REMARK    8  A    between atoms: C7_10  and  C8_11 
REMARK    9  A    between atoms: C7_10  and  N2_18 
REMARK   10  A    between atoms: C8_11  and  C9_12 
REMARK       I    between atoms: N2_18  and  C15_20 
REMARK   11  A    between atoms: C15_20  and  O3_22 
REMARK   12  A    between atoms: O3_22  and  C16_23 
REMARK   13  A    between atoms: S1_31  and  C22_34 
ROOT
HETATM    1  C6  UNL     1      16.336  23.472  15.635  1.00  0.00     0.160 C 
ENDROOT
BRANCH   1   2
HETATM    2  C5  UNL     1      16.330  21.973  15.538  1.00  0.00     0.174 C 
BRANCH   2   3
HETATM    3  N1  UNL     1      15.082  21.353  15.900  1.00  0.00    -0.283 N 
BRANCH   3   4
HETATM    4  C4  UNL     1      14.515  20.612  14.892  1.00  0.00     0.080 C 
BRANCH   4   5
HETATM    5  C2  UNL     1      13.706  21.324  13.824  1.00  0.00     0.017 C 
HETATM    6  C1  UNL     1      14.516  21.663  12.607  1.00  0.00     0.015 C 
HETATM    7  C3  UNL     1      12.852  22.454  14.327  1.00  0.00     0.015 C 
ENDBRANCH   4   5
ENDBRANCH   3   4
BRANCH   3   8
HETATM    8  S1  UNL     1      15.023  20.988  17.520  1.00  0.00     0.264 S 
HETATM    9  O6  UNL     1      16.393  20.920  18.176  1.00  0.00    -0.200 OA
HETATM   10  O7  UNL     1      14.350  22.170  18.239  1.00  0.00    -0.200 OA
BRANCH   8  11
HETATM   11  C22 UNL     1      14.090  19.595  17.997  1.00  0.00     0.082 A 
HETATM   12  C23 UNL     1      14.663  18.411  18.401  1.00  0.00     0.028 A 
HETATM   13  C24 UNL     1      13.889  17.334  18.773  1.00  0.00     0.041 A 
HETATM   14  C25 UNL     1      12.504  17.384  18.763  1.00  0.00     0.105 A 
HETATM   15  C26 UNL     1      11.922  18.565  18.362  1.00  0.00     0.106 A 
HETATM   16  O9  UNL     1      11.486  16.485  19.076  1.00  0.00    -0.323 OA
HETATM   17  C27 UNL     1      12.708  19.661  17.982  1.00  0.00     0.065 A 
HETATM   18  O8  UNL     1      10.552  18.370  18.435  1.00  0.00    -0.323 OA
HETATM   19  C28 UNL     1      10.263  16.989  18.529  1.00  0.00     0.352 C 
ENDBRANCH   8  11
ENDBRANCH   3   8
ENDBRANCH   2   3
ENDBRANCH   1   2
BRANCH   1  20
HETATM   20  O1  UNL     1      15.155  23.984  16.121  1.00  0.00    -0.392 OA
ATOM     21  H1  UNL     1      14.885  23.581  16.938  1.00  0.00     0.210 HD
ENDBRANCH   1  20
BRANCH   1  22
HETATM   22  C7  UNL     1      17.460  24.002  16.483  1.00  0.00     0.121 C 
BRANCH  22  23
HETATM   23  C8  UNL     1      16.988  24.338  17.866  1.00  0.00     0.066 C 
BRANCH  23  24
HETATM   24  C9  UNL     1      17.953  23.883  18.894  1.00  0.00    -0.056 A 
HETATM   25  C10 UNL     1      17.841  24.356  20.179  1.00  0.00     0.007 A 
HETATM   26  C11 UNL     1      18.721  23.962  21.183  1.00  0.00     0.001 A 
HETATM   27  C12 UNL     1      19.726  23.073  20.854  1.00  0.00     0.000 A 
HETATM   28  C13 UNL     1      19.855  22.591  19.583  1.00  0.00     0.001 A 
HETATM   29  C14 UNL     1      18.959  23.000  18.589  1.00  0.00     0.007 A 
ENDBRANCH  23  24
ENDBRANCH  22  23
BRANCH  22  30
HETATM   30  N2  UNL     1      18.075  25.181  15.853  1.00  0.00    -0.329 N 
HETATM   31  C15 UNL     1      19.407  25.153  15.364  1.00  0.00     0.361 C 
HETATM   32  O2  UNL     1      20.065  24.106  15.476  1.00  0.00    -0.238 OA
ATOM     33  H2  UNL     1      17.530  26.039  15.765  1.00  0.00     0.165 HD
BRANCH  31  34
HETATM   34  O3  UNL     1      20.024  26.236  14.764  1.00  0.00    -0.296 OA
BRANCH  34  35
HETATM   35  C16 UNL     1      20.521  27.280  15.527  1.00  0.00     0.166 C 
HETATM   36  C17 UNL     1      20.524  27.010  17.011  1.00  0.00     0.204 C 
HETATM   37  O4  UNL     1      21.353  28.027  17.479  1.00  0.00    -0.358 OA
HETATM   38  C18 UNL     1      22.432  28.086  16.603  1.00  0.00     0.266 C 
HETATM   39  O5  UNL     1      23.426  27.234  17.046  1.00  0.00    -0.361 OA
HETATM   40  C21 UNL     1      21.958  27.612  15.272  1.00  0.00     0.075 C 
HETATM   41  C19 UNL     1      23.981  26.629  15.926  1.00  0.00     0.171 C 
HETATM   42  C20 UNL     1      22.797  26.383  15.016  1.00  0.00     0.038 C 
ENDBRANCH  34  35
ENDBRANCH  31  34
ENDBRANCH  22  30
ENDBRANCH   1  22
TORSDOF 13
ENDMDL
