MODEL 10
REMARK VINA RESULT: -9.241120118      2.582      4.900
REMARK  13 active torsions:
REMARK  status: ('A' for Active; 'I' for Inactive)
REMARK    1  A    between atoms: C2_2  and  C4_4 
REMARK    2  A    between atoms: C4_4  and  N1_5 
REMARK    3  A    between atoms: N1_5  and  C5_6 
REMARK    4  A    between atoms: N1_5  and  S1_31 
REMARK    5  A    between atoms: C5_6  and  C6_7 
REMARK    6  A    between atoms: C6_7  and  O1_8 
REMARK    7  A    between atoms: C6_7  and  C7_10 
REMARK    8  A    between atoms: C7_10  and  C8_11 
REMARK    9  A    between atoms: C7_10  and  N2_18 
REMARK   10  A    between atoms: C8_11  and  C9_12 
REMARK       I    between atoms: N2_18  and  C15_20 
REMARK   11  A    between atoms: C15_20  and  O3_22 
REMARK   12  A    between atoms: O3_22  and  C16_23 
REMARK   13  A    between atoms: S1_31  and  C22_34 
ROOT
HETATM    1  C6  UNL     1      15.338  23.073  18.577  1.00  0.00     0.160 C 
ENDROOT
BRANCH   1   2
HETATM    2  C5  UNL     1      16.202  24.297  18.471  1.00  0.00     0.174 C 
BRANCH   2   3
HETATM    3  N1  UNL     1      17.602  24.029  18.272  1.00  0.00    -0.283 N 
BRANCH   3   4
HETATM    4  C4  UNL     1      18.053  22.908  18.923  1.00  0.00     0.080 C 
BRANCH   4   5
HETATM    5  C2  UNL     1      18.277  22.970  20.423  1.00  0.00     0.017 C 
HETATM    6  C1  UNL     1      19.069  24.172  20.846  1.00  0.00     0.015 C 
HETATM    7  C3  UNL     1      18.738  21.682  21.047  1.00  0.00     0.015 C 
ENDBRANCH   4   5
ENDBRANCH   3   4
BRANCH   3   8
HETATM    8  S1  UNL     1      18.127  24.561  16.787  1.00  0.00     0.264 S 
HETATM    9  O6  UNL     1      18.302  23.444  15.771  1.00  0.00    -0.200 OA
HETATM   10  O7  UNL     1      17.003  25.416  16.176  1.00  0.00    -0.200 OA
BRANCH   8  11
HETATM   11  C22 UNL     1      19.531  25.593  16.752  1.00  0.00     0.082 A 
HETATM   12  C23 UNL     1      19.706  26.589  15.819  1.00  0.00     0.028 A 
HETATM   13  C24 UNL     1      20.831  27.385  15.828  1.00  0.00     0.041 A 
HETATM   14  C25 UNL     1      21.836  27.228  16.769  1.00  0.00     0.105 A 
HETATM   15  C26 UNL     1      21.669  26.235  17.706  1.00  0.00     0.106 A 
HETATM   16  O9  UNL     1      23.052  27.862  17.023  1.00  0.00    -0.323 OA
HETATM   17  C27 UNL     1      20.526  25.424  17.698  1.00  0.00     0.065 A 
HETATM   18  O8  UNL     1      22.788  26.275  18.523  1.00  0.00    -0.323 OA
HETATM   19  C28 UNL     1      23.812  27.030  17.905  1.00  0.00     0.352 C 
ENDBRANCH   8  11
ENDBRANCH   3   8
ENDBRANCH   2   3
ENDBRANCH   1   2
BRANCH   1  20
HETATM   20  O1  UNL     1      14.053  23.354  18.978  1.00  0.00    -0.392 OA
ATOM     21  H1  UNL     1      13.510  23.691  18.275  1.00  0.00     0.210 HD
ENDBRANCH   1  20
BRANCH   1  22
HETATM   22  C7  UNL     1      15.267  22.291  17.294  1.00  0.00     0.121 C 
BRANCH  22  23
HETATM   23  C8  UNL     1      14.645  23.100  16.195  1.00  0.00     0.066 C 
BRANCH  23  24
HETATM   24  C9  UNL     1      14.365  22.269  15.001  1.00  0.00    -0.056 A 
HETATM   25  C10 UNL     1      15.387  21.973  14.133  1.00  0.00     0.007 A 
HETATM   26  C11 UNL     1      15.180  21.197  12.996  1.00  0.00     0.001 A 
HETATM   27  C12 UNL     1      13.904  20.724  12.755  1.00  0.00     0.000 A 
HETATM   28  C13 UNL     1      12.874  21.008  13.606  1.00  0.00     0.001 A 
HETATM   29  C14 UNL     1      13.105  21.790  14.743  1.00  0.00     0.007 A 
ENDBRANCH  23  24
ENDBRANCH  22  23
BRANCH  22  30
HETATM   30  N2  UNL     1      14.523  21.037  17.490  1.00  0.00    -0.329 N 
HETATM   31  C15 UNL     1      15.181  19.827  17.830  1.00  0.00     0.361 C 
HETATM   32  O2  UNL     1      16.416  19.832  17.962  1.00  0.00    -0.238 OA
ATOM     33  H2  UNL     1      13.509  21.038  17.378  1.00  0.00     0.165 HD
BRANCH  31  34
HETATM   34  O3  UNL     1      14.521  18.627  18.025  1.00  0.00    -0.296 OA
BRANCH  34  35
HETATM   35  C16 UNL     1      14.079  18.258  19.285  1.00  0.00     0.166 C 
HETATM   36  C17 UNL     1      13.498  19.395  20.089  1.00  0.00     0.204 C 
HETATM   37  O4  UNL     1      12.849  18.710  21.114  1.00  0.00    -0.358 OA
HETATM   38  C18 UNL     1      12.189  17.642  20.513  1.00  0.00     0.266 C 
HETATM   39  O5  UNL     1      10.920  18.043  20.139  1.00  0.00    -0.361 OA
HETATM   40  C21 UNL     1      12.952  17.273  19.289  1.00  0.00     0.075 C 
HETATM   41  C19 UNL     1      10.648  17.455  18.911  1.00  0.00     0.171 C 
HETATM   42  C20 UNL     1      11.967  17.519  18.172  1.00  0.00     0.038 C 
ENDBRANCH  34  35
ENDBRANCH  31  34
ENDBRANCH  22  30
ENDBRANCH   1  22
TORSDOF 13
ENDMDL
