MODEL 6
REMARK VINA RESULT: -9.285467044      2.735      5.619
REMARK  13 active torsions:
REMARK  status: ('A' for Active; 'I' for Inactive)
REMARK    1  A    between atoms: C2_2  and  C4_4 
REMARK    2  A    between atoms: C4_4  and  N1_5 
REMARK    3  A    between atoms: N1_5  and  C5_6 
REMARK    4  A    between atoms: N1_5  and  S1_31 
REMARK    5  A    between atoms: C5_6  and  C6_7 
REMARK    6  A    between atoms: C6_7  and  O1_8 
REMARK    7  A    between atoms: C6_7  and  C7_10 
REMARK    8  A    between atoms: C7_10  and  C8_11 
REMARK    9  A    between atoms: C7_10  and  N2_18 
REMARK   10  A    between atoms: C8_11  and  C9_12 
REMARK       I    between atoms: N2_18  and  C15_20 
REMARK   11  A    between atoms: C15_20  and  O3_22 
REMARK   12  A    between atoms: O3_22  and  C16_23 
REMARK   13  A    between atoms: S1_31  and  C22_34 
ROOT
HETATM    1  C6  UNL     1      15.153  22.623  18.294  1.00  0.00     0.160 C 
ENDROOT
BRANCH   1   2
HETATM    2  C5  UNL     1      16.055  23.771  17.943  1.00  0.00     0.174 C 
BRANCH   2   3
HETATM    3  N1  UNL     1      17.457  23.445  17.912  1.00  0.00    -0.283 N 
BRANCH   3   4
HETATM    4  C4  UNL     1      17.830  22.500  18.835  1.00  0.00     0.080 C 
BRANCH   4   5
HETATM    5  C2  UNL     1      18.285  22.956  20.209  1.00  0.00     0.017 C 
HETATM    6  C1  UNL     1      19.117  24.203  20.166  1.00  0.00     0.015 C 
HETATM    7  C3  UNL     1      18.855  21.869  21.079  1.00  0.00     0.015 C 
ENDBRANCH   4   5
ENDBRANCH   3   4
BRANCH   3   8
HETATM    8  S1  UNL     1      18.096  23.612  16.386  1.00  0.00     0.264 S 
HETATM    9  O6  UNL     1      18.975  22.443  15.968  1.00  0.00    -0.200 OA
HETATM   10  O7  UNL     1      16.930  23.547  15.384  1.00  0.00    -0.200 OA
BRANCH   8  11
HETATM   11  C22 UNL     1      18.912  25.105  16.014  1.00  0.00     0.082 A 
HETATM   12  C23 UNL     1      18.563  25.905  14.950  1.00  0.00     0.028 A 
HETATM   13  C24 UNL     1      19.233  27.081  14.692  1.00  0.00     0.041 A 
HETATM   14  C25 UNL     1      20.283  27.519  15.482  1.00  0.00     0.105 A 
HETATM   15  C26 UNL     1      20.639  26.725  16.549  1.00  0.00     0.106 A 
HETATM   16  O9  UNL     1      21.126  28.630  15.471  1.00  0.00    -0.323 OA
HETATM   17  C27 UNL     1      19.959  25.528  16.812  1.00  0.00     0.065 A 
HETATM   18  O8  UNL     1      21.697  27.364  17.176  1.00  0.00    -0.323 OA
HETATM   19  C28 UNL     1      22.241  28.352  16.323  1.00  0.00     0.352 C 
ENDBRANCH   8  11
ENDBRANCH   3   8
ENDBRANCH   2   3
ENDBRANCH   1   2
BRANCH   1  20
HETATM   20  O1  UNL     1      13.937  23.028  18.793  1.00  0.00    -0.392 OA
ATOM     21  H1  UNL     1      14.017  23.600  19.547  1.00  0.00     0.210 HD
ENDBRANCH   1  20
BRANCH   1  22
HETATM   22  C7  UNL     1      14.899  21.698  17.135  1.00  0.00     0.121 C 
BRANCH  22  23
HETATM   23  C8  UNL     1      13.977  22.322  16.131  1.00  0.00     0.066 C 
BRANCH  23  24
HETATM   24  C9  UNL     1      13.489  21.325  15.150  1.00  0.00    -0.056 A 
HETATM   25  C10 UNL     1      12.173  20.929  15.190  1.00  0.00     0.007 A 
HETATM   26  C11 UNL     1      11.662  19.996  14.293  1.00  0.00     0.001 A 
HETATM   27  C12 UNL     1      12.519  19.467  13.347  1.00  0.00     0.000 A 
HETATM   28  C13 UNL     1      13.830  19.846  13.291  1.00  0.00     0.001 A 
HETATM   29  C14 UNL     1      14.323  20.786  14.202  1.00  0.00     0.007 A 
ENDBRANCH  23  24
ENDBRANCH  22  23
BRANCH  22  30
HETATM   30  N2  UNL     1      14.352  20.415  17.604  1.00  0.00    -0.329 N 
HETATM   31  C15 UNL     1      15.196  19.329  17.950  1.00  0.00     0.361 C 
HETATM   32  O2  UNL     1      16.427  19.469  17.851  1.00  0.00    -0.238 OA
ATOM     33  H2  UNL     1      13.341  20.304  17.682  1.00  0.00     0.165 HD
BRANCH  31  34
HETATM   34  O3  UNL     1      14.726  18.107  18.397  1.00  0.00    -0.296 OA
BRANCH  34  35
HETATM   35  C16 UNL     1      14.057  18.003  19.605  1.00  0.00     0.166 C 
HETATM   36  C17 UNL     1      13.479  19.307  20.101  1.00  0.00     0.204 C 
HETATM   37  O4  UNL     1      12.611  18.867  21.098  1.00  0.00    -0.358 OA
HETATM   38  C18 UNL     1      11.946  17.761  20.577  1.00  0.00     0.266 C 
HETATM   39  O5  UNL     1      10.799  18.183  19.930  1.00  0.00    -0.361 OA
HETATM   40  C21 UNL     1      12.847  17.122  19.578  1.00  0.00     0.075 C 
HETATM   41  C19 UNL     1      10.662  17.407  18.786  1.00  0.00     0.171 C 
HETATM   42  C20 UNL     1      12.079  17.239  18.284  1.00  0.00     0.038 C 
ENDBRANCH  34  35
ENDBRANCH  31  34
ENDBRANCH  22  30
ENDBRANCH   1  22
TORSDOF 13
ENDMDL
