MODEL 5
REMARK VINA RESULT: -10.083619158      2.818      6.541
REMARK  10 active torsions:
REMARK  status: ('A' for Active; 'I' for Inactive)
REMARK    1  A    between atoms: N4_17  and  C9_18 
REMARK    2  A    between atoms: C9_18  and  C10_19 
REMARK    3  A    between atoms: C10_19  and  O3_20 
REMARK    4  A    between atoms: C10_19  and  C11_22 
REMARK    5  A    between atoms: C11_22  and  O4_23 
REMARK    6  A    between atoms: C11_22  and  C12_25 
REMARK    7  A    between atoms: C12_25  and  O5_26 
REMARK    8  A    between atoms: C12_25  and  C13_28 
REMARK    9  A    between atoms: C13_28  and  O6_29 
REMARK   10  A    between atoms: O6_29  and  P1_30 
ROOT
HETATM    1  C1  UNL     1      13.586  -0.237  17.515  1.00  0.00     0.049 C 
HETATM    2  C2  UNL     1      12.410   0.048  16.658  1.00  0.00    -0.054 A 
HETATM    3  C3  UNL     1      12.014  -0.840  15.681  1.00  0.00     0.039 A 
HETATM    4  C4  UNL     1      10.919  -0.597  14.866  1.00  0.00     0.060 A 
HETATM    5  N1  UNL     1      10.575  -1.503  13.933  1.00  0.00    -0.347 N 
ATOM      6  H1  UNL     1      11.126  -2.355  13.831  1.00  0.00     0.166 HD
HETATM    7  C5  UNL     1       9.519  -1.297  13.136  1.00  0.00     0.146 A 
HETATM    8  C6  UNL     1       9.120  -2.208  12.150  1.00  0.00     0.280 A 
HETATM    9  O1  UNL     1       9.787  -3.251  12.021  1.00  0.00    -0.265 OA
HETATM   10  N2  UNL     1       8.039  -1.934  11.378  1.00  0.00    -0.273 N 
ATOM     11  H2  UNL     1       7.746  -2.594  10.658  1.00  0.00     0.173 HD
HETATM   12  C7  UNL     1       7.354  -0.791  11.561  1.00  0.00     0.328 A 
HETATM   13  O2  UNL     1       6.361  -0.598  10.812  1.00  0.00    -0.247 OA
HETATM   14  N3  UNL     1       7.708   0.125  12.511  1.00  0.00    -0.292 N 
ATOM     15  H3  UNL     1       7.158   0.977  12.612  1.00  0.00     0.172 HD
HETATM   16  C8  UNL     1       8.765  -0.074  13.313  1.00  0.00     0.145 A 
HETATM   17  N4  UNL     1       9.152   0.819  14.275  1.00  0.00    -0.327 N 
HETATM   18  C14 UNL     1      10.214   0.596  15.067  1.00  0.00     0.063 A 
HETATM   19  C15 UNL     1      10.604   1.491  16.044  1.00  0.00     0.039 A 
HETATM   20  C16 UNL     1      11.700   1.219  16.840  1.00  0.00    -0.054 A 
HETATM   21  C17 UNL     1      12.134   2.170  17.894  1.00  0.00     0.049 C 
ENDROOT
BRANCH  17  22
HETATM   22  C9  UNL     1       8.363   2.024  14.411  1.00  0.00     0.165 C 
BRANCH  22  23
HETATM   23  C10 UNL     1       7.218   1.726  15.389  1.00  0.00     0.167 C 
BRANCH  23  24
HETATM   24  O3  UNL     1       6.027   1.440  14.781  1.00  0.00    -0.391 OA
ATOM     25  H3  UNL     1       5.289   1.396  15.377  1.00  0.00     0.210 HD
ENDBRANCH  23  24
BRANCH  23  26
HETATM   26  C11 UNL     1       7.088   2.700  16.469  1.00  0.00     0.179 C 
BRANCH  26  27
HETATM   27  O4  UNL     1       5.842   2.575  17.091  1.00  0.00    -0.390 OA
ATOM     28  H4  UNL     1       5.455   3.431  17.232  1.00  0.00     0.210 HD
ENDBRANCH  26  27
BRANCH  26  29
HETATM   29  C12 UNL     1       7.435   4.114  16.310  1.00  0.00     0.173 C 
BRANCH  29  30
HETATM   30  O5  UNL     1       8.736   4.234  16.927  1.00  0.00    -0.391 OA
ATOM     31  H5  UNL     1       9.213   4.824  16.355  1.00  0.00     0.210 HD
ENDBRANCH  29  30
BRANCH  29  32
HETATM   32  C13 UNL     1       6.614   5.103  17.130  1.00  0.00     0.217 C 
BRANCH  32  33
HETATM   33  O6  UNL     1       7.097   5.091  18.473  1.00  0.00    -0.280 OA
BRANCH  33  34
HETATM   34  P1  UNL     1       6.471   6.403  19.319  1.00  0.00     0.422 P 
HETATM   35  O7  UNL     1       6.543   6.107  20.781  1.00  0.00    -0.617 OA
HETATM   36  O8  UNL     1       4.865   6.716  18.904  1.00  0.00    -0.617 OA
HETATM   37  O9  UNL     1       7.367   7.817  19.027  1.00  0.00    -0.617 OA
ENDBRANCH  33  34
ENDBRANCH  32  33
ENDBRANCH  29  32
ENDBRANCH  26  29
ENDBRANCH  23  26
ENDBRANCH  22  23
ENDBRANCH  17  22
TORSDOF 10
ENDMDL
