MODEL 3
REMARK VINA RESULT: -10.118136726      1.789      2.623
REMARK  10 active torsions:
REMARK  status: ('A' for Active; 'I' for Inactive)
REMARK    1  A    between atoms: N4_17  and  C9_18 
REMARK    2  A    between atoms: C9_18  and  C10_19 
REMARK    3  A    between atoms: C10_19  and  O3_20 
REMARK    4  A    between atoms: C10_19  and  C11_22 
REMARK    5  A    between atoms: C11_22  and  O4_23 
REMARK    6  A    between atoms: C11_22  and  C12_25 
REMARK    7  A    between atoms: C12_25  and  O5_26 
REMARK    8  A    between atoms: C12_25  and  C13_28 
REMARK    9  A    between atoms: C13_28  and  O6_29 
REMARK   10  A    between atoms: O6_29  and  P1_30 
ROOT
HETATM    1  C1  UNL     1      13.598   0.209  18.085  1.00  0.00     0.049 C 
HETATM    2  C2  UNL     1      12.353   0.672  17.427  1.00  0.00    -0.054 A 
HETATM    3  C3  UNL     1      11.642   1.741  17.929  1.00  0.00     0.039 A 
HETATM    4  C4  UNL     1      10.475   2.195  17.333  1.00  0.00     0.060 A 
HETATM    5  N1  UNL     1       9.827   3.247  17.865  1.00  0.00    -0.347 N 
ATOM      6  H1  UNL     1      10.197   3.696  18.702  1.00  0.00     0.166 HD
HETATM    7  C5  UNL     1       8.702   3.710  17.307  1.00  0.00     0.146 A 
HETATM    8  C6  UNL     1       7.990   4.801  17.821  1.00  0.00     0.280 A 
HETATM    9  O1  UNL     1       8.436   5.354  18.843  1.00  0.00    -0.265 OA
HETATM   10  N2  UNL     1       6.856   5.215  17.203  1.00  0.00    -0.273 N 
ATOM     11  H2  UNL     1       6.333   6.009  17.575  1.00  0.00     0.173 HD
HETATM   12  C7  UNL     1       6.418   4.580  16.102  1.00  0.00     0.328 A 
HETATM   13  O2  UNL     1       5.360   5.016  15.577  1.00  0.00    -0.247 OA
HETATM   14  N3  UNL     1       7.081   3.513  15.567  1.00  0.00    -0.292 N 
ATOM     15  H3  UNL     1       6.711   3.063  14.729  1.00  0.00     0.172 HD
HETATM   16  C8  UNL     1       8.210   3.043  16.120  1.00  0.00     0.145 A 
HETATM   17  N4  UNL     1       8.903   1.977  15.614  1.00  0.00    -0.327 N 
HETATM   18  C14 UNL     1      10.031   1.526  16.186  1.00  0.00     0.063 A 
HETATM   19  C15 UNL     1      10.737   0.454  15.676  1.00  0.00     0.039 A 
HETATM   20  C16 UNL     1      11.897   0.026  16.293  1.00  0.00    -0.054 A 
HETATM   21  C17 UNL     1      12.669  -1.124  15.759  1.00  0.00     0.049 C 
ENDROOT
BRANCH  17  22
HETATM   22  C9  UNL     1       8.369   1.348  14.426  1.00  0.00     0.165 C 
BRANCH  22  23
HETATM   23  C10 UNL     1       9.166   1.869  13.222  1.00  0.00     0.167 C 
BRANCH  23  24
HETATM   24  O3  UNL     1       9.045   3.215  13.015  1.00  0.00    -0.391 OA
ATOM     25  H3  UNL     1       8.643   3.683  13.738  1.00  0.00     0.210 HD
ENDBRANCH  23  24
BRANCH  23  26
HETATM   26  C11 UNL     1       8.985   1.085  12.003  1.00  0.00     0.179 C 
BRANCH  26  27
HETATM   27  O4  UNL     1       9.643   1.694  10.931  1.00  0.00    -0.390 OA
ATOM     28  H4  UNL     1       9.439   1.245  10.118  1.00  0.00     0.210 HD
ENDBRANCH  26  27
BRANCH  26  29
HETATM   29  C12 UNL     1       7.683   0.573  11.574  1.00  0.00     0.173 C 
BRANCH  29  30
HETATM   30  O5  UNL     1       7.785  -0.857  11.749  1.00  0.00    -0.391 OA
ATOM     31  H5  UNL     1       8.607  -1.087  11.332  1.00  0.00     0.210 HD
ENDBRANCH  29  30
BRANCH  29  32
HETATM   32  C13 UNL     1       7.378   0.679  10.083  1.00  0.00     0.217 C 
BRANCH  32  33
HETATM   33  O6  UNL     1       6.825   1.968   9.823  1.00  0.00    -0.280 OA
BRANCH  33  34
HETATM   34  P1  UNL     1       7.330   2.515   8.314  1.00  0.00     0.422 P 
HETATM   35  O7  UNL     1       8.672   1.932   8.019  1.00  0.00    -0.617 OA
HETATM   36  O8  UNL     1       7.441   4.199   8.257  1.00  0.00    -0.617 OA
HETATM   37  O9  UNL     1       6.265   2.023   7.086  1.00  0.00    -0.617 OA
ENDBRANCH  33  34
ENDBRANCH  32  33
ENDBRANCH  29  32
ENDBRANCH  26  29
ENDBRANCH  23  26
ENDBRANCH  22  23
ENDBRANCH  17  22
TORSDOF 10
ENDMDL
