MODEL 1
REMARK VINA RESULT: -10.495891699      0.000      0.000
REMARK  10 active torsions:
REMARK  status: ('A' for Active; 'I' for Inactive)
REMARK    1  A    between atoms: N4_17  and  C9_18 
REMARK    2  A    between atoms: C9_18  and  C10_19 
REMARK    3  A    between atoms: C10_19  and  O3_20 
REMARK    4  A    between atoms: C10_19  and  C11_22 
REMARK    5  A    between atoms: C11_22  and  O4_23 
REMARK    6  A    between atoms: C11_22  and  C12_25 
REMARK    7  A    between atoms: C12_25  and  O5_26 
REMARK    8  A    between atoms: C12_25  and  C13_28 
REMARK    9  A    between atoms: C13_28  and  O6_29 
REMARK   10  A    between atoms: O6_29  and  P1_30 
ROOT
HETATM    1  C1  UNL     1      13.604   0.317  18.005  1.00  0.00     0.049 C 
HETATM    2  C2  UNL     1      12.332   0.748  17.378  1.00  0.00    -0.054 A 
HETATM    3  C3  UNL     1      11.626   1.823  17.875  1.00  0.00     0.039 A 
HETATM    4  C4  UNL     1      10.434   2.247  17.307  1.00  0.00     0.060 A 
HETATM    5  N1  UNL     1       9.792   3.306  17.832  1.00  0.00    -0.347 N 
ATOM      6  H1  UNL     1      10.185   3.783  18.643  1.00  0.00     0.166 HD
HETATM    7  C5  UNL     1       8.642   3.741  17.301  1.00  0.00     0.146 A 
HETATM    8  C6  UNL     1       7.935   4.837  17.809  1.00  0.00     0.280 A 
HETATM    9  O1  UNL     1       8.409   5.424  18.798  1.00  0.00    -0.265 OA
HETATM   10  N2  UNL     1       6.776   5.222  17.219  1.00  0.00    -0.273 N 
ATOM     11  H2  UNL     1       6.257   6.020  17.587  1.00  0.00     0.173 HD
HETATM   12  C7  UNL     1       6.309   4.551  16.152  1.00  0.00     0.328 A 
HETATM   13  O2  UNL     1       5.228   4.960  15.652  1.00  0.00    -0.247 OA
HETATM   14  N3  UNL     1       6.966   3.476  15.624  1.00  0.00    -0.292 N 
ATOM     15  H3  UNL     1       6.573   2.999  14.813  1.00  0.00     0.172 HD
HETATM   16  C8  UNL     1       8.118   3.035  16.150  1.00  0.00     0.145 A 
HETATM   17  N4  UNL     1       8.806   1.963  15.651  1.00  0.00    -0.327 N 
HETATM   18  C14 UNL     1       9.959   1.541  16.196  1.00  0.00     0.063 A 
HETATM   19  C15 UNL     1      10.660   0.463  15.691  1.00  0.00     0.039 A 
HETATM   20  C16 UNL     1      11.845   0.065  16.280  1.00  0.00    -0.054 A 
HETATM   21  C17 UNL     1      12.612  -1.091  15.751  1.00  0.00     0.049 C 
ENDROOT
BRANCH  17  22
HETATM   22  C9  UNL     1       8.239   1.295  14.500  1.00  0.00     0.165 C 
BRANCH  22  23
HETATM   23  C10 UNL     1       9.045   1.725  13.266  1.00  0.00     0.167 C 
BRANCH  23  24
HETATM   24  O3  UNL     1       9.088   3.077  13.073  1.00  0.00    -0.391 OA
ATOM     25  H3  UNL     1       8.851   3.350  12.194  1.00  0.00     0.210 HD
ENDBRANCH  23  24
BRANCH  23  26
HETATM   26  C11 UNL     1       8.714   0.984  12.050  1.00  0.00     0.179 C 
BRANCH  26  27
HETATM   27  O4  UNL     1       7.757   1.677  11.304  1.00  0.00    -0.390 OA
ATOM     28  H4  UNL     1       7.845   1.471  10.380  1.00  0.00     0.210 HD
ENDBRANCH  26  27
BRANCH  26  29
HETATM   29  C12 UNL     1       8.417  -0.450  12.050  1.00  0.00     0.173 C 
BRANCH  29  30
HETATM   30  O5  UNL     1       9.394  -1.016  11.149  1.00  0.00    -0.391 OA
ATOM     31  H5  UNL     1       8.958  -1.773  10.775  1.00  0.00     0.210 HD
ENDBRANCH  29  30
BRANCH  29  32
HETATM   32  C13 UNL     1       7.109  -0.864  11.384  1.00  0.00     0.217 C 
BRANCH  32  33
HETATM   33  O6  UNL     1       6.329  -1.592  12.332  1.00  0.00    -0.280 OA
BRANCH  33  34
HETATM   34  P1  UNL     1       5.023  -0.659  12.837  1.00  0.00     0.422 P 
HETATM   35  O7  UNL     1       5.052   0.641  12.102  1.00  0.00    -0.617 OA
HETATM   36  O8  UNL     1       5.070  -0.350  14.496  1.00  0.00    -0.617 OA
HETATM   37  O9  UNL     1       3.544  -1.421  12.493  1.00  0.00    -0.617 OA
ENDBRANCH  33  34
ENDBRANCH  32  33
ENDBRANCH  29  32
ENDBRANCH  26  29
ENDBRANCH  23  26
ENDBRANCH  22  23
ENDBRANCH  17  22
TORSDOF 10
ENDMDL
