MODEL 4
REMARK VINA RESULT: -10.106817423      3.330      6.548
REMARK  10 active torsions:
REMARK  status: ('A' for Active; 'I' for Inactive)
REMARK    1  A    between atoms: N4_17  and  C9_18 
REMARK    2  A    between atoms: C9_18  and  C10_19 
REMARK    3  A    between atoms: C10_19  and  O3_20 
REMARK    4  A    between atoms: C10_19  and  C11_22 
REMARK    5  A    between atoms: C11_22  and  O4_23 
REMARK    6  A    between atoms: C11_22  and  C12_25 
REMARK    7  A    between atoms: C12_25  and  O5_26 
REMARK    8  A    between atoms: C12_25  and  C13_28 
REMARK    9  A    between atoms: C13_28  and  O6_29 
REMARK   10  A    between atoms: O6_29  and  P1_30 
ROOT
HETATM    1  C1  UNL     1      11.140  -2.679  12.019  1.00  0.00     0.049 C 
HETATM    2  C2  UNL     1      10.870  -1.603  13.003  1.00  0.00    -0.054 A 
HETATM    3  C3  UNL     1      11.647  -1.465  14.132  1.00  0.00     0.039 A 
HETATM    4  C4  UNL     1      11.416  -0.468  15.068  1.00  0.00     0.060 A 
HETATM    5  N1  UNL     1      12.211  -0.378  16.149  1.00  0.00    -0.347 N 
ATOM      6  H1  UNL     1      12.971  -1.047  16.273  1.00  0.00     0.166 HD
HETATM    7  C5  UNL     1      12.015   0.578  17.066  1.00  0.00     0.146 A 
HETATM    8  C6  UNL     1      12.813   0.714  18.208  1.00  0.00     0.280 A 
HETATM    9  O1  UNL     1      13.743  -0.098  18.364  1.00  0.00    -0.265 OA
HETATM   10  N2  UNL     1      12.556   1.707  19.094  1.00  0.00    -0.273 N 
ATOM     11  H2  UNL     1      13.135   1.809  19.928  1.00  0.00     0.173 HD
HETATM   12  C7  UNL     1      11.537   2.557  18.876  1.00  0.00     0.328 A 
HETATM   13  O2  UNL     1      11.352   3.456  19.737  1.00  0.00    -0.247 OA
HETATM   14  N3  UNL     1      10.733   2.461  17.775  1.00  0.00    -0.292 N 
ATOM     15  H3  UNL     1       9.973   3.129  17.652  1.00  0.00     0.172 HD
HETATM   16  C8  UNL     1      10.924   1.506  16.853  1.00  0.00     0.145 A 
HETATM   17  N4  UNL     1      10.141   1.376  15.738  1.00  0.00    -0.327 N 
HETATM   18  C14 UNL     1      10.353   0.411  14.828  1.00  0.00     0.063 A 
HETATM   19  C15 UNL     1       9.569   0.281  13.698  1.00  0.00     0.039 A 
HETATM   20  C16 UNL     1       9.826  -0.724  12.785  1.00  0.00    -0.054 A 
HETATM   21  C17 UNL     1       8.995  -0.879  11.565  1.00  0.00     0.049 C 
ENDROOT
BRANCH  17  22
HETATM   22  C9  UNL     1       9.066   2.330  15.573  1.00  0.00     0.165 C 
BRANCH  22  23
HETATM   23  C10 UNL     1       7.995   2.015  16.627  1.00  0.00     0.167 C 
BRANCH  23  24
HETATM   24  O3  UNL     1       7.144   1.007  16.270  1.00  0.00    -0.391 OA
ATOM     25  H3  UNL     1       6.556   1.231  15.558  1.00  0.00     0.210 HD
ENDBRANCH  23  24
BRANCH  23  26
HETATM   26  C11 UNL     1       7.302   3.193  17.143  1.00  0.00     0.179 C 
BRANCH  26  27
HETATM   27  O4  UNL     1       5.994   3.242  16.653  1.00  0.00    -0.390 OA
ATOM     28  H4  UNL     1       5.371   3.102  17.358  1.00  0.00     0.210 HD
ENDBRANCH  26  27
BRANCH  26  29
HETATM   29  C12 UNL     1       7.896   4.531  17.135  1.00  0.00     0.173 C 
BRANCH  29  30
HETATM   30  O5  UNL     1       8.801   4.527  18.261  1.00  0.00    -0.391 OA
ATOM     31  H5  UNL     1       8.931   5.446  18.462  1.00  0.00     0.210 HD
ENDBRANCH  29  30
BRANCH  29  32
HETATM   32  C13 UNL     1       6.963   5.682  17.496  1.00  0.00     0.217 C 
BRANCH  32  33
HETATM   33  O6  UNL     1       6.179   5.294  18.624  1.00  0.00    -0.280 OA
BRANCH  33  34
HETATM   34  P1  UNL     1       6.080   6.568  19.718  1.00  0.00     0.422 P 
HETATM   35  O7  UNL     1       4.723   7.182  19.615  1.00  0.00    -0.617 OA
HETATM   36  O8  UNL     1       7.242   7.755  19.415  1.00  0.00    -0.617 OA
HETATM   37  O9  UNL     1       6.291   6.032  21.317  1.00  0.00    -0.617 OA
ENDBRANCH  33  34
ENDBRANCH  32  33
ENDBRANCH  29  32
ENDBRANCH  26  29
ENDBRANCH  23  26
ENDBRANCH  22  23
ENDBRANCH  17  22
TORSDOF 10
ENDMDL
