MODEL 7
REMARK VINA RESULT: -9.886886404      2.644      6.259
REMARK  10 active torsions:
REMARK  status: ('A' for Active; 'I' for Inactive)
REMARK    1  A    between atoms: N4_17  and  C9_18 
REMARK    2  A    between atoms: C9_18  and  C10_19 
REMARK    3  A    between atoms: C10_19  and  O3_20 
REMARK    4  A    between atoms: C10_19  and  C11_22 
REMARK    5  A    between atoms: C11_22  and  O4_23 
REMARK    6  A    between atoms: C11_22  and  C12_25 
REMARK    7  A    between atoms: C12_25  and  O5_26 
REMARK    8  A    between atoms: C12_25  and  C13_28 
REMARK    9  A    between atoms: C13_28  and  O6_29 
REMARK   10  A    between atoms: O6_29  and  P1_30 
ROOT
HETATM    1  C1  UNL     1      13.595  -0.339  17.286  1.00  0.00     0.049 C 
HETATM    2  C2  UNL     1      12.339   0.087  16.623  1.00  0.00    -0.054 A 
HETATM    3  C3  UNL     1      11.881  -0.558  15.494  1.00  0.00     0.039 A 
HETATM    4  C4  UNL     1      10.709  -0.181  14.855  1.00  0.00     0.060 A 
HETATM    5  N1  UNL     1      10.308  -0.851  13.760  1.00  0.00    -0.347 N 
ATOM      6  H1  UNL     1      10.870  -1.626  13.409  1.00  0.00     0.166 HD
HETATM    7  C5  UNL     1       9.179  -0.512  13.126  1.00  0.00     0.146 A 
HETATM    8  C6  UNL     1       8.717  -1.177  11.984  1.00  0.00     0.280 A 
HETATM    9  O1  UNL     1       9.399  -2.124  11.550  1.00  0.00    -0.265 OA
HETATM   10  N2  UNL     1       7.564  -0.778  11.393  1.00  0.00    -0.273 N 
ATOM     11  H2  UNL     1       7.224  -1.260  10.560  1.00  0.00     0.173 HD
HETATM   12  C7  UNL     1       6.866   0.252  11.904  1.00  0.00     0.328 A 
HETATM   13  O2  UNL     1       5.804   0.570  11.308  1.00  0.00    -0.247 OA
HETATM   14  N3  UNL     1       7.279   0.928  13.016  1.00  0.00    -0.292 N 
ATOM     15  H3  UNL     1       6.717   1.703  13.368  1.00  0.00     0.172 HD
HETATM   16  C8  UNL     1       8.410   0.594  13.657  1.00  0.00     0.145 A 
HETATM   17  N4  UNL     1       8.857   1.247  14.774  1.00  0.00    -0.327 N 
HETATM   18  C14 UNL     1       9.992   0.893  15.398  1.00  0.00     0.063 A 
HETATM   19  C15 UNL     1      10.444   1.544  16.528  1.00  0.00     0.039 A 
HETATM   20  C16 UNL     1      11.616   1.143  17.142  1.00  0.00    -0.054 A 
HETATM   21  C17 UNL     1      12.117   1.832  18.358  1.00  0.00     0.049 C 
ENDROOT
BRANCH  17  22
HETATM   22  C9  UNL     1       8.050   2.343  15.263  1.00  0.00     0.165 C 
BRANCH  22  23
HETATM   23  C10 UNL     1       7.042   1.770  16.268  1.00  0.00     0.167 C 
BRANCH  23  24
HETATM   24  O3  UNL     1       6.885   0.415  16.188  1.00  0.00    -0.391 OA
ATOM     25  H3  UNL     1       6.230   0.065  16.781  1.00  0.00     0.210 HD
ENDBRANCH  23  24
BRANCH  23  26
HETATM   26  C11 UNL     1       5.772   2.491  16.315  1.00  0.00     0.179 C 
BRANCH  26  27
HETATM   27  O4  UNL     1       5.271   2.679  15.025  1.00  0.00    -0.390 OA
ATOM     28  H4  UNL     1       5.717   2.108  14.410  1.00  0.00     0.210 HD
ENDBRANCH  26  27
BRANCH  26  29
HETATM   29  C12 UNL     1       5.574   3.700  17.117  1.00  0.00     0.173 C 
BRANCH  29  30
HETATM   30  O5  UNL     1       4.266   4.176  16.729  1.00  0.00    -0.391 OA
ATOM     31  H5  UNL     1       4.249   5.080  17.021  1.00  0.00     0.210 HD
ENDBRANCH  29  30
BRANCH  29  32
HETATM   32  C13 UNL     1       6.454   4.894  16.759  1.00  0.00     0.217 C 
BRANCH  32  33
HETATM   33  O6  UNL     1       6.038   6.013  17.540  1.00  0.00    -0.280 OA
BRANCH  33  34
HETATM   34  P1  UNL     1       7.171   6.326  18.743  1.00  0.00     0.422 P 
HETATM   35  O7  UNL     1       7.532   7.773  18.695  1.00  0.00    -0.617 OA
HETATM   36  O8  UNL     1       8.573   5.406  18.546  1.00  0.00    -0.617 OA
HETATM   37  O9  UNL     1       6.546   5.993  20.288  1.00  0.00    -0.617 OA
ENDBRANCH  33  34
ENDBRANCH  32  33
ENDBRANCH  29  32
ENDBRANCH  26  29
ENDBRANCH  23  26
ENDBRANCH  22  23
ENDBRANCH  17  22
TORSDOF 10
ENDMDL
