MODEL 2
REMARK VINA RESULT: -10.267241268      2.873      6.461
REMARK  10 active torsions:
REMARK  status: ('A' for Active; 'I' for Inactive)
REMARK    1  A    between atoms: N4_17  and  C9_18 
REMARK    2  A    between atoms: C9_18  and  C10_19 
REMARK    3  A    between atoms: C10_19  and  O3_20 
REMARK    4  A    between atoms: C10_19  and  C11_22 
REMARK    5  A    between atoms: C11_22  and  O4_23 
REMARK    6  A    between atoms: C11_22  and  C12_25 
REMARK    7  A    between atoms: C12_25  and  O5_26 
REMARK    8  A    between atoms: C12_25  and  C13_28 
REMARK    9  A    between atoms: C13_28  and  O6_29 
REMARK   10  A    between atoms: O6_29  and  P1_30 
ROOT
HETATM    1  C1  UNL     1      13.652  -0.046  17.939  1.00  0.00     0.049 C 
HETATM    2  C2  UNL     1      12.577   0.130  16.933  1.00  0.00    -0.054 A 
HETATM    3  C3  UNL     1      12.278  -0.871  16.034  1.00  0.00     0.039 A 
HETATM    4  C4  UNL     1      11.278  -0.732  15.083  1.00  0.00     0.060 A 
HETATM    5  N1  UNL     1      11.027  -1.745  14.234  1.00  0.00    -0.347 N 
ATOM      6  H1  UNL     1      11.576  -2.602  14.296  1.00  0.00     0.166 HD
HETATM    7  C5  UNL     1      10.064  -1.640  13.311  1.00  0.00     0.146 A 
HETATM    8  C6  UNL     1       9.763  -2.665  12.405  1.00  0.00     0.280 A 
HETATM    9  O1  UNL     1      10.429  -3.713  12.474  1.00  0.00    -0.265 OA
HETATM   10  N2  UNL     1       8.773  -2.489  11.495  1.00  0.00    -0.273 N 
ATOM     11  H2  UNL     1       8.551  -3.233  10.832  1.00  0.00     0.173 HD
HETATM   12  C7  UNL     1       8.084  -1.334  11.464  1.00  0.00     0.328 A 
HETATM   13  O2  UNL     1       7.178  -1.236  10.596  1.00  0.00    -0.247 OA
HETATM   14  N3  UNL     1       8.344  -0.309  12.329  1.00  0.00    -0.292 N 
ATOM     15  H3  UNL     1       7.794   0.548  12.267  1.00  0.00     0.172 HD
HETATM   16  C8  UNL     1       9.307  -0.407  13.257  1.00  0.00     0.145 A 
HETATM   17  N4  UNL     1       9.598   0.597  14.141  1.00  0.00    -0.327 N 
HETATM   18  C14 UNL     1      10.567   0.475  15.062  1.00  0.00     0.063 A 
HETATM   19  C15 UNL     1      10.860   1.483  15.960  1.00  0.00     0.039 A 
HETATM   20  C16 UNL     1      11.863   1.312  16.896  1.00  0.00    -0.054 A 
HETATM   21  C17 UNL     1      12.192   2.385  17.868  1.00  0.00     0.049 C 
ENDROOT
BRANCH  17  22
HETATM   22  C9  UNL     1       8.811   1.807  14.045  1.00  0.00     0.165 C 
BRANCH  22  23
HETATM   23  C10 UNL     1       7.939   1.899  15.305  1.00  0.00     0.167 C 
BRANCH  23  24
HETATM   24  O3  UNL     1       6.950   0.957  15.366  1.00  0.00    -0.391 OA
ATOM     25  H3  UNL     1       6.292   1.042  14.685  1.00  0.00     0.210 HD
ENDBRANCH  23  24
BRANCH  23  26
HETATM   26  C11 UNL     1       7.463   3.247  15.603  1.00  0.00     0.179 C 
BRANCH  26  27
HETATM   27  O4  UNL     1       8.513   4.042  16.071  1.00  0.00    -0.390 OA
ATOM     28  H4  UNL     1       8.926   4.503  15.350  1.00  0.00     0.210 HD
ENDBRANCH  26  27
BRANCH  26  29
HETATM   29  C12 UNL     1       6.247   3.507  16.377  1.00  0.00     0.173 C 
BRANCH  29  30
HETATM   30  O5  UNL     1       5.170   3.185  15.469  1.00  0.00    -0.391 OA
ATOM     31  H5  UNL     1       4.441   2.968  16.038  1.00  0.00     0.210 HD
ENDBRANCH  29  30
BRANCH  29  32
HETATM   32  C13 UNL     1       5.954   4.970  16.694  1.00  0.00     0.217 C 
BRANCH  32  33
HETATM   33  O6  UNL     1       5.712   5.091  18.095  1.00  0.00    -0.280 OA
BRANCH  33  34
HETATM   34  P1  UNL     1       6.936   5.994  18.813  1.00  0.00     0.422 P 
HETATM   35  O7  UNL     1       6.923   7.367  18.227  1.00  0.00    -0.617 OA
HETATM   36  O8  UNL     1       8.458   5.307  18.563  1.00  0.00    -0.617 OA
HETATM   37  O9  UNL     1       6.702   6.138  20.489  1.00  0.00    -0.617 OA
ENDBRANCH  33  34
ENDBRANCH  32  33
ENDBRANCH  29  32
ENDBRANCH  26  29
ENDBRANCH  23  26
ENDBRANCH  22  23
ENDBRANCH  17  22
TORSDOF 10
ENDMDL
