MODEL 6
REMARK VINA RESULT: -8.140946191      1.543      7.553
REMARK  4 active torsions:
REMARK  status: ('A' for Active; 'I' for Inactive)
REMARK    1  A    between atoms: O1_1  and  C1_3 
REMARK    2  A    between atoms: C1_3  and  C2_4 
REMARK    3  A    between atoms: C12_17  and  O5_18 
REMARK    4  A    between atoms: C17_25  and  O7_26 
ROOT
HETATM    1  C2  UNL     1      53.426  -8.157  60.405  1.00  0.00     0.178 C 
HETATM    2  O2  UNL     1      53.466  -8.685  61.646  1.00  0.00    -0.373 OA
HETATM    3  C3  UNL     1      52.981  -7.982  62.696  1.00  0.00     0.157 C 
HETATM    4  C4  UNL     1      52.948  -8.959  63.882  1.00  0.00     0.069 C 
HETATM    5  C5  UNL     1      52.500  -8.198  65.085  1.00  0.00     0.156 C 
HETATM    6  O3  UNL     1      52.540  -9.029  66.175  1.00  0.00    -0.375 OA
HETATM    7  C6  UNL     1      51.963  -8.449  67.330  1.00  0.00     0.157 C 
HETATM    8  C7  UNL     1      51.983  -9.532  68.376  1.00  0.00     0.061 C 
HETATM    9  C8  UNL     1      51.414  -9.164  69.667  1.00  0.00    -0.026 C 
HETATM   10  C9  UNL     1      51.489  -8.002  70.307  1.00  0.00    -0.005 C 
HETATM   11  C10 UNL     1      52.178  -6.791  69.848  1.00  0.00     0.195 C 
HETATM   12  O4  UNL     1      51.865  -6.454  68.533  1.00  0.00    -0.377 OA
HETATM   13  C11 UNL     1      52.725  -7.227  67.717  1.00  0.00     0.182 C 
HETATM   14  C12 UNL     1      53.102  -6.365  66.565  1.00  0.00     0.181 C 
HETATM   15  C13 UNL     1      53.550  -7.106  65.331  1.00  0.00     0.182 C 
HETATM   16  O6  UNL     1      53.530  -6.240  64.277  1.00  0.00    -0.369 OA
HETATM   17  C14 UNL     1      53.797  -6.758  63.045  1.00  0.00     0.173 C 
HETATM   18  C15 UNL     1      53.398  -5.698  62.043  1.00  0.00     0.006 C 
HETATM   19  C16 UNL     1      52.842  -5.821  60.847  1.00  0.00     0.006 C 
HETATM   20  C17 UNL     1      52.452  -7.059  60.155  1.00  0.00     0.171 C 
ENDROOT
BRANCH   1  21
HETATM   21  C1  UNL     1      54.791  -7.675  59.918  1.00  0.00     0.199 C 
BRANCH  21  22
HETATM   22  O1  UNL     1      55.776  -8.612  60.221  1.00  0.00    -0.398 OA
ATOM     23  H1  UNL     1      56.393  -8.690  59.503  1.00  0.00     0.209 HD
ENDBRANCH  21  22
ENDBRANCH   1  21
BRANCH  20  24
HETATM   24  O7  UNL     1      51.134  -7.388  60.415  1.00  0.00    -0.389 OA
ATOM     25  H7  UNL     1      50.678  -6.776  60.981  1.00  0.00     0.210 HD
ENDBRANCH  20  24
BRANCH  14  26
HETATM   26  O5  UNL     1      54.077  -5.442  66.953  1.00  0.00    -0.390 OA
ATOM     27  H5  UNL     1      54.913  -5.664  66.560  1.00  0.00     0.210 HD
ENDBRANCH  14  26
TORSDOF 4
ENDMDL
