MODEL 2
REMARK VINA RESULT: -9.059230592      2.037      7.578
REMARK  4 active torsions:
REMARK  status: ('A' for Active; 'I' for Inactive)
REMARK    1  A    between atoms: O1_1  and  C1_3 
REMARK    2  A    between atoms: C1_3  and  C2_4 
REMARK    3  A    between atoms: C12_17  and  O5_18 
REMARK    4  A    between atoms: C17_25  and  O7_26 
ROOT
HETATM    1  C2  UNL     1      53.696  -7.243  64.769  1.00  0.00     0.178 C 
HETATM    2  O2  UNL     1      52.743  -6.989  65.690  1.00  0.00    -0.373 OA
HETATM    3  C3  UNL     1      52.916  -7.390  66.970  1.00  0.00     0.157 C 
HETATM    4  C4  UNL     1      51.791  -6.726  67.780  1.00  0.00     0.069 C 
HETATM    5  C5  UNL     1      51.894  -7.214  69.186  1.00  0.00     0.156 C 
HETATM    6  O3  UNL     1      50.851  -6.698  69.912  1.00  0.00    -0.375 OA
HETATM    7  C6  UNL     1      50.963  -6.960  71.298  1.00  0.00     0.157 C 
HETATM    8  C7  UNL     1      49.816  -6.226  71.939  1.00  0.00     0.061 C 
HETATM    9  C8  UNL     1      49.735  -6.338  73.391  1.00  0.00    -0.026 C 
HETATM   10  C9  UNL     1      50.005  -7.388  74.159  1.00  0.00    -0.005 C 
HETATM   11  C10 UNL     1      50.457  -8.709  73.710  1.00  0.00     0.195 C 
HETATM   12  O4  UNL     1      51.521  -8.643  72.813  1.00  0.00    -0.377 OA
HETATM   13  C11 UNL     1      50.943  -8.432  71.538  1.00  0.00     0.182 C 
HETATM   14  C12 UNL     1      51.760  -9.209  70.570  1.00  0.00     0.181 C 
HETATM   15  C13 UNL     1      51.684  -8.734  69.140  1.00  0.00     0.182 C 
HETATM   16  O6  UNL     1      52.715  -9.293  68.445  1.00  0.00    -0.369 OA
HETATM   17  C14 UNL     1      52.881  -8.891  67.153  1.00  0.00     0.173 C 
HETATM   18  C15 UNL     1      54.242  -9.390  66.723  1.00  0.00     0.006 C 
HETATM   19  C16 UNL     1      55.149  -8.826  65.940  1.00  0.00     0.006 C 
HETATM   20  C17 UNL     1      55.072  -7.524  65.261  1.00  0.00     0.171 C 
ENDROOT
BRANCH   1  21
HETATM   21  C1  UNL     1      53.314  -8.373  63.813  1.00  0.00     0.199 C 
BRANCH  21  22
HETATM   22  O1  UNL     1      54.108  -8.334  62.669  1.00  0.00    -0.398 OA
ATOM     23  H1  UNL     1      53.897  -9.059  62.093  1.00  0.00     0.209 HD
ENDBRANCH  21  22
ENDBRANCH   1  21
BRANCH  20  24
HETATM   24  O7  UNL     1      55.624  -6.518  66.033  1.00  0.00    -0.389 OA
ATOM     25  H7  UNL     1      54.991  -5.995  66.511  1.00  0.00     0.210 HD
ENDBRANCH  20  24
BRANCH  14  26
HETATM   26  O5  UNL     1      51.433 -10.566  70.643  1.00  0.00    -0.390 OA
ATOM     27  H5  UNL     1      50.805 -10.715  71.340  1.00  0.00     0.210 HD
ENDBRANCH  14  26
TORSDOF 4
ENDMDL
