MODEL 1
REMARK VINA RESULT: -9.371958605      0.000      0.000
REMARK  4 active torsions:
REMARK  status: ('A' for Active; 'I' for Inactive)
REMARK    1  A    between atoms: O1_1  and  C1_3 
REMARK    2  A    between atoms: C1_3  and  C2_4 
REMARK    3  A    between atoms: C12_17  and  O5_18 
REMARK    4  A    between atoms: C17_25  and  O7_26 
ROOT
HETATM    1  C2  UNL     1      51.926  -7.396  70.489  1.00  0.00     0.178 C 
HETATM    2  O2  UNL     1      52.325  -6.795  69.349  1.00  0.00    -0.373 OA
HETATM    3  C3  UNL     1      52.239  -7.456  68.171  1.00  0.00     0.157 C 
HETATM    4  C4  UNL     1      52.524  -6.414  67.077  1.00  0.00     0.069 C 
HETATM    5  C5  UNL     1      52.525  -7.122  65.764  1.00  0.00     0.156 C 
HETATM    6  O3  UNL     1      52.857  -6.229  64.779  1.00  0.00    -0.375 OA
HETATM    7  C6  UNL     1      52.710  -6.765  63.478  1.00  0.00     0.157 C 
HETATM    8  C7  UNL     1      52.995  -5.623  62.538  1.00  0.00     0.061 C 
HETATM    9  C8  UNL     1      52.886  -5.940  61.119  1.00  0.00    -0.026 C 
HETATM   10  C9  UNL     1      53.228  -7.059  60.489  1.00  0.00    -0.005 C 
HETATM   11  C10 UNL     1      53.808  -8.263  61.093  1.00  0.00     0.195 C 
HETATM   12  O4  UNL     1      53.117  -8.689  62.224  1.00  0.00    -0.377 OA
HETATM   13  C11 UNL     1      53.627  -7.928  63.304  1.00  0.00     0.182 C 
HETATM   14  C12 UNL     1      53.672  -8.838  64.478  1.00  0.00     0.181 C 
HETATM   15  C13 UNL     1      53.662  -8.152  65.821  1.00  0.00     0.182 C 
HETATM   16  O6  UNL     1      53.362  -9.077  66.776  1.00  0.00    -0.369 OA
HETATM   17  C14 UNL     1      53.194  -8.621  68.049  1.00  0.00     0.173 C 
HETATM   18  C15 UNL     1      52.564  -9.754  68.828  1.00  0.00     0.006 C 
HETATM   19  C16 UNL     1      51.652  -9.725  69.788  1.00  0.00     0.006 C 
HETATM   20  C17 UNL     1      50.990  -8.548  70.370  1.00  0.00     0.171 C 
ENDROOT
BRANCH   1  21
HETATM   21  C1  UNL     1      53.093  -7.845  71.366  1.00  0.00     0.199 C 
BRANCH  21  22
HETATM   22  O1  UNL     1      52.768  -7.719  72.715  1.00  0.00    -0.398 OA
ATOM     23  H1  UNL     1      52.592  -6.811  72.931  1.00  0.00     0.209 HD
ENDBRANCH  21  22
ENDBRANCH   1  21
BRANCH  20  24
HETATM   24  O7  UNL     1      49.805  -8.262  69.718  1.00  0.00    -0.389 OA
ATOM     25  H7  UNL     1      49.576  -8.873  69.028  1.00  0.00     0.210 HD
ENDBRANCH  20  24
BRANCH  14  26
HETATM   26  O5  UNL     1      54.773  -9.694  64.384  1.00  0.00    -0.390 OA
ATOM     27  H5  UNL     1      55.324  -9.606  65.153  1.00  0.00     0.210 HD
ENDBRANCH  14  26
TORSDOF 4
ENDMDL
