MODEL 5
REMARK VINA RESULT: -8.342624417      4.216      6.027
REMARK  4 active torsions:
REMARK  status: ('A' for Active; 'I' for Inactive)
REMARK    1  A    between atoms: O1_1  and  C1_3 
REMARK    2  A    between atoms: C1_3  and  C2_4 
REMARK    3  A    between atoms: C12_17  and  O5_18 
REMARK    4  A    between atoms: C17_25  and  O7_26 
ROOT
HETATM    1  C2  UNL     1      54.042 -15.655  69.226  1.00  0.00     0.178 C 
HETATM    2  O2  UNL     1      54.016 -14.321  69.426  1.00  0.00    -0.373 OA
HETATM    3  C3  UNL     1      53.621 -13.496  68.430  1.00  0.00     0.157 C 
HETATM    4  C4  UNL     1      53.464 -12.105  69.066  1.00  0.00     0.069 C 
HETATM    5  C5  UNL     1      53.114 -11.145  67.979  1.00  0.00     0.156 C 
HETATM    6  O3  UNL     1      53.048  -9.881  68.508  1.00  0.00    -0.375 OA
HETATM    7  C6  UNL     1      52.546  -8.927  67.592  1.00  0.00     0.157 C 
HETATM    8  C7  UNL     1      52.430  -7.644  68.371  1.00  0.00     0.061 C 
HETATM    9  C8  UNL     1      51.910  -6.504  67.625  1.00  0.00    -0.026 C 
HETATM   10  C9  UNL     1      52.128  -6.172  66.357  1.00  0.00    -0.005 C 
HETATM   11  C10 UNL     1      52.963  -6.896  65.393  1.00  0.00     0.195 C 
HETATM   12  O4  UNL     1      52.697  -8.263  65.361  1.00  0.00    -0.377 OA
HETATM   13  C11 UNL     1      53.455  -8.832  66.412  1.00  0.00     0.182 C 
HETATM   14  C12 UNL     1      53.937 -10.149  65.919  1.00  0.00     0.181 C 
HETATM   15  C13 UNL     1      54.291 -11.145  66.995  1.00  0.00     0.182 C 
HETATM   16  O6  UNL     1      54.381 -12.381  66.426  1.00  0.00    -0.369 OA
HETATM   17  C14 UNL     1      54.582 -13.436  67.264  1.00  0.00     0.173 C 
HETATM   18  C15 UNL     1      54.320 -14.683  66.450  1.00  0.00     0.006 C 
HETATM   19  C16 UNL     1      53.755 -15.828  66.802  1.00  0.00     0.006 C 
HETATM   20  C17 UNL     1      53.214 -16.202  68.117  1.00  0.00     0.171 C 
ENDROOT
BRANCH   1  21
HETATM   21  C1  UNL     1      55.458 -16.202  69.050  1.00  0.00     0.199 C 
BRANCH  21  22
HETATM   22  O1  UNL     1      56.391 -15.330  69.606  1.00  0.00    -0.398 OA
ATOM     23  H1  UNL     1      56.572 -14.612  69.009  1.00  0.00     0.209 HD
ENDBRANCH  21  22
ENDBRANCH   1  21
BRANCH  20  24
HETATM   24  O7  UNL     1      51.865 -15.911  68.209  1.00  0.00    -0.389 OA
ATOM     25  H7  UNL     1      51.293 -16.561  67.819  1.00  0.00     0.210 HD
ENDBRANCH  20  24
BRANCH  14  26
HETATM   26  O5  UNL     1      55.020  -9.972  65.053  1.00  0.00    -0.390 OA
ATOM     27  H5  UNL     1      55.758 -10.497  65.340  1.00  0.00     0.210 HD
ENDBRANCH  14  26
TORSDOF 4
ENDMDL
