MODEL 2
REMARK VINA RESULT: -3.693003796      1.239      2.557
REMARK  0 active torsions:
REMARK  status: ('A' for Active; 'I' for Inactive)
ROOT
HETATM    1  C1  UNL     1      11.574   0.228  24.765  1.00  0.00     0.048 C 
HETATM    2  C2  UNL     1      12.647   0.416  25.782  1.00  0.00    -0.061 A 
HETATM    3  C3  UNL     1      13.839  -0.271  25.706  1.00  0.00     0.008 A 
HETATM    4  C4  UNL     1      14.839  -0.107  26.640  1.00  0.00     0.021 A 
HETATM    5  C5  UNL     1      14.696   0.760  27.702  1.00  0.00     0.029 A 
HETATM    6  S1  UNL     1      15.989   0.984  28.925  1.00  0.00    -0.051 SA
HETATM    7  C6  UNL     1      13.507   1.453  27.789  1.00  0.00     0.030 A 
HETATM    8  S2  UNL     1      13.271   2.598  29.161  1.00  0.00    -0.051 SA
HETATM    9  C7  UNL     1      12.514   1.279  26.849  1.00  0.00     0.027 A 
ENDROOT
TORSDOF 0
ENDMDL
