MODEL 3
REMARK VINA RESULT: -3.680710201      3.096      4.162
REMARK  0 active torsions:
REMARK  status: ('A' for Active; 'I' for Inactive)
ROOT
HETATM    1  C1  UNL     1      11.877  -0.058  25.325  1.00  0.00     0.048 C 
HETATM    2  C2  UNL     1      13.149  -0.613  24.781  1.00  0.00    -0.061 A 
HETATM    3  C3  UNL     1      13.785  -0.033  23.704  1.00  0.00     0.008 A 
HETATM    4  C4  UNL     1      14.961  -0.537  23.192  1.00  0.00     0.021 A 
HETATM    5  C5  UNL     1      15.563  -1.652  23.734  1.00  0.00     0.029 A 
HETATM    6  S1  UNL     1      17.093  -2.318  23.077  1.00  0.00    -0.051 SA
HETATM    7  C6  UNL     1      14.935  -2.241  24.811  1.00  0.00     0.030 A 
HETATM    8  S2  UNL     1      15.682  -3.703  25.555  1.00  0.00    -0.051 SA
HETATM    9  C7  UNL     1      13.759  -1.728  25.314  1.00  0.00     0.027 A 
ENDROOT
TORSDOF 0
ENDMDL
