MODEL 1
REMARK VINA RESULT: -3.806661341      0.000      0.000
REMARK  0 active torsions:
REMARK  status: ('A' for Active; 'I' for Inactive)
ROOT
HETATM    1  C1  UNL     1      13.204  -0.998  23.209  1.00  0.00     0.048 C 
HETATM    2  C2  UNL     1      13.178  -0.284  24.518  1.00  0.00    -0.061 A 
HETATM    3  C3  UNL     1      12.039   0.344  24.973  1.00  0.00     0.008 A 
HETATM    4  C4  UNL     1      12.002   1.007  26.180  1.00  0.00     0.021 A 
HETATM    5  C5  UNL     1      13.110   1.075  26.998  1.00  0.00     0.029 A 
HETATM    6  S1  UNL     1      13.077   1.934  28.572  1.00  0.00    -0.051 SA
HETATM    7  C6  UNL     1      14.256   0.450  26.553  1.00  0.00     0.030 A 
HETATM    8  S2  UNL     1      15.732   0.511  27.585  1.00  0.00    -0.051 SA
HETATM    9  C7  UNL     1      14.280  -0.210  25.342  1.00  0.00     0.027 A 
ENDROOT
TORSDOF 0
ENDMDL
