MODEL 4
REMARK VINA RESULT: -7.741128577      1.023      1.828
REMARK  7 active torsions:
REMARK  status: ('A' for Active; 'I' for Inactive)
REMARK    1  A    between atoms: O1_2  and  C2_3 
REMARK    2  A    between atoms: C2_3  and  C3_5 
REMARK    3  A    between atoms: C7_9  and  O3_10 
REMARK    4  A    between atoms: O3_10  and  C8_11 
REMARK    5  A    between atoms: C13_16  and  O4_17 
REMARK    6  A    between atoms: C14_19  and  O5_20 
REMARK    7  A    between atoms: C16_23  and  O6_24 
ROOT
HETATM    1  C3  UNL     1      45.339  28.977  57.283  1.00  0.00     0.078 A 
HETATM    2  C4  UNL     1      44.579  29.946  56.673  1.00  0.00    -0.040 A 
HETATM    3  C5  UNL     1      44.997  30.417  55.327  1.00  0.00     0.049 C 
HETATM    4  C6  UNL     1      43.472  30.433  57.334  1.00  0.00     0.045 A 
HETATM    5  C7  UNL     1      43.084  29.998  58.578  1.00  0.00     0.079 A 
HETATM    6  C15 UNL     1      43.877  29.013  59.174  1.00  0.00     0.074 A 
HETATM    7  C16 UNL     1      44.991  28.502  58.544  1.00  0.00     0.085 A 
ENDROOT
BRANCH   5   8
HETATM    8  O3  UNL     1      41.977  30.484  59.237  1.00  0.00    -0.308 OA
BRANCH   8   9
HETATM    9  C8  UNL     1      40.787  29.798  59.364  1.00  0.00     0.112 A 
HETATM   10  C9  UNL     1      40.634  29.022  60.526  1.00  0.00     0.047 A 
HETATM   11  C10 UNL     1      39.487  28.298  60.752  1.00  0.00    -0.057 A 
HETATM   12  C11 UNL     1      39.322  27.475  61.981  1.00  0.00     0.048 C 
HETATM   13  C12 UNL     1      38.491  28.356  59.808  1.00  0.00     0.046 A 
HETATM   14  C13 UNL     1      38.639  29.125  58.653  1.00  0.00     0.102 A 
HETATM   15  C14 UNL     1      39.791  29.858  58.416  1.00  0.00     0.133 A 
BRANCH  14  16
HETATM   16  O4  UNL     1      37.606  29.148  57.735  1.00  0.00    -0.358 OA
ATOM     17  H4  UNL     1      37.666  28.592  56.967  1.00  0.00     0.217 HD
ENDBRANCH  14  16
BRANCH  15  18
HETATM   18  O5  UNL     1      39.953  30.626  57.275  1.00  0.00    -0.356 OA
ATOM     19  H5  UNL     1      39.197  30.982  56.823  1.00  0.00     0.218 HD
ENDBRANCH  15  18
ENDBRANCH   8   9
ENDBRANCH   5   8
BRANCH   7  20
HETATM   20  O6  UNL     1      45.770  27.527  59.138  1.00  0.00    -0.360 OA
ATOM     21  H6  UNL     1      46.146  26.840  58.600  1.00  0.00     0.217 HD
ENDBRANCH   7  20
BRANCH   1  22
HETATM   22  C2  UNL     1      46.528  28.407  56.651  1.00  0.00     0.296 C 
HETATM   23  O2  UNL     1      47.679  28.689  57.044  1.00  0.00    -0.259 OA
BRANCH  22  24
HETATM   24  O1  UNL     1      46.442  27.526  55.582  1.00  0.00    -0.322 OA
HETATM   25  C1  UNL     1      47.363  27.601  54.483  1.00  0.00     0.213 C 
ENDBRANCH  22  24
ENDBRANCH   1  22
TORSDOF 7
ENDMDL
