MODEL 13
REMARK VINA RESULT: -7.321691369      3.883      5.517
REMARK  7 active torsions:
REMARK  status: ('A' for Active; 'I' for Inactive)
REMARK    1  A    between atoms: O1_2  and  C2_3 
REMARK    2  A    between atoms: C2_3  and  C3_5 
REMARK    3  A    between atoms: C7_9  and  O3_10 
REMARK    4  A    between atoms: O3_10  and  C8_11 
REMARK    5  A    between atoms: C13_16  and  O4_17 
REMARK    6  A    between atoms: C14_19  and  O5_20 
REMARK    7  A    between atoms: C16_23  and  O6_24 
ROOT
HETATM    1  C3  UNL     1      45.290  35.019  56.442  1.00  0.00     0.078 A 
HETATM    2  C4  UNL     1      45.723  33.946  55.700  1.00  0.00    -0.040 A 
HETATM    3  C5  UNL     1      46.509  34.220  54.469  1.00  0.00     0.049 C 
HETATM    4  C6  UNL     1      45.409  32.675  56.129  1.00  0.00     0.045 A 
HETATM    5  C7  UNL     1      44.682  32.420  57.267  1.00  0.00     0.079 A 
HETATM    6  C15 UNL     1      44.256  33.532  58.001  1.00  0.00     0.074 A 
HETATM    7  C16 UNL     1      44.550  34.818  57.602  1.00  0.00     0.085 A 
ENDROOT
BRANCH   5   8
HETATM    8  O3  UNL     1      44.371  31.150  57.696  1.00  0.00    -0.308 OA
BRANCH   8   9
HETATM    9  C8  UNL     1      43.101  30.742  58.053  1.00  0.00     0.112 A 
HETATM   10  C9  UNL     1      42.906  30.420  59.408  1.00  0.00     0.047 A 
HETATM   11  C10 UNL     1      41.682  30.002  59.871  1.00  0.00    -0.057 A 
HETATM   12  C11 UNL     1      41.471  29.661  61.304  1.00  0.00     0.048 C 
HETATM   13  C12 UNL     1      40.649  29.908  58.969  1.00  0.00     0.046 A 
HETATM   14  C13 UNL     1      40.838  30.226  57.624  1.00  0.00     0.102 A 
HETATM   15  C14 UNL     1      42.070  30.648  57.148  1.00  0.00     0.133 A 
BRANCH  14  16
HETATM   16  O4  UNL     1      39.766  30.114  56.759  1.00  0.00    -0.358 OA
ATOM     17  H4  UNL     1      39.932  29.867  55.857  1.00  0.00     0.217 HD
ENDBRANCH  14  16
BRANCH  15  18
HETATM   18  O5  UNL     1      42.273  30.968  55.816  1.00  0.00    -0.356 OA
ATOM     19  H5  UNL     1      42.943  30.522  55.310  1.00  0.00     0.218 HD
ENDBRANCH  15  18
ENDBRANCH   8   9
ENDBRANCH   5   8
BRANCH   7  20
HETATM   20  O6  UNL     1      44.125  35.912  58.333  1.00  0.00    -0.360 OA
ATOM     21  H6  UNL     1      43.505  35.786  59.040  1.00  0.00     0.217 HD
ENDBRANCH   7  20
BRANCH   1  22
HETATM   22  C2  UNL     1      45.580  36.399  56.056  1.00  0.00     0.296 C 
HETATM   23  O2  UNL     1      44.718  37.127  55.523  1.00  0.00    -0.259 OA
BRANCH  22  24
HETATM   24  O1  UNL     1      46.827  36.974  56.261  1.00  0.00    -0.322 OA
HETATM   25  C1  UNL     1      47.188  37.529  57.535  1.00  0.00     0.213 C 
ENDBRANCH  22  24
ENDBRANCH   1  22
TORSDOF 7
ENDMDL
