MODEL 8
REMARK VINA RESULT: -7.510572323      4.493      7.242
REMARK  7 active torsions:
REMARK  status: ('A' for Active; 'I' for Inactive)
REMARK    1  A    between atoms: O1_2  and  C2_3 
REMARK    2  A    between atoms: C2_3  and  C3_5 
REMARK    3  A    between atoms: C7_9  and  O3_10 
REMARK    4  A    between atoms: O3_10  and  C8_11 
REMARK    5  A    between atoms: C13_16  and  O4_17 
REMARK    6  A    between atoms: C14_19  and  O5_20 
REMARK    7  A    between atoms: C16_23  and  O6_24 
ROOT
HETATM    1  C3  UNL     1      45.099  35.047  56.072  1.00  0.00     0.078 A 
HETATM    2  C4  UNL     1      44.377  34.529  57.122  1.00  0.00    -0.040 A 
HETATM    3  C5  UNL     1      44.040  35.434  58.251  1.00  0.00     0.049 C 
HETATM    4  C6  UNL     1      44.005  33.203  57.078  1.00  0.00     0.045 A 
HETATM    5  C7  UNL     1      44.316  32.366  56.035  1.00  0.00     0.079 A 
HETATM    6  C15 UNL     1      45.050  32.921  54.982  1.00  0.00     0.074 A 
HETATM    7  C16 UNL     1      45.441  34.243  54.990  1.00  0.00     0.085 A 
ENDROOT
BRANCH   5   8
HETATM    8  O3  UNL     1      43.943  31.041  55.991  1.00  0.00    -0.308 OA
BRANCH   8   9
HETATM    9  C8  UNL     1      44.814  29.984  56.155  1.00  0.00     0.112 A 
HETATM   10  C9  UNL     1      45.451  29.514  54.994  1.00  0.00     0.047 A 
HETATM   11  C10 UNL     1      46.338  28.464  55.044  1.00  0.00    -0.057 A 
HETATM   12  C11 UNL     1      47.015  27.964  53.816  1.00  0.00     0.048 C 
HETATM   13  C12 UNL     1      46.586  27.887  56.266  1.00  0.00     0.046 A 
HETATM   14  C13 UNL     1      45.955  28.350  57.421  1.00  0.00     0.102 A 
HETATM   15  C14 UNL     1      45.059  29.407  57.380  1.00  0.00     0.133 A 
BRANCH  14  16
HETATM   16  O4  UNL     1      46.239  27.733  58.624  1.00  0.00    -0.358 OA
ATOM     17  H4  UNL     1      46.094  26.798  58.703  1.00  0.00     0.217 HD
ENDBRANCH  14  16
BRANCH  15  18
HETATM   18  O5  UNL     1      44.425  29.879  58.518  1.00  0.00    -0.356 OA
ATOM     19  H5  UNL     1      44.705  30.692  58.923  1.00  0.00     0.218 HD
ENDBRANCH  15  18
ENDBRANCH   8   9
ENDBRANCH   5   8
BRANCH   7  20
HETATM   20  O6  UNL     1      46.166  34.785  53.946  1.00  0.00    -0.360 OA
ATOM     21  H6  UNL     1      45.874  34.641  53.054  1.00  0.00     0.217 HD
ENDBRANCH   7  20
BRANCH   1  22
HETATM   22  C2  UNL     1      45.532  36.443  56.040  1.00  0.00     0.296 C 
HETATM   23  O2  UNL     1      44.917  37.307  55.381  1.00  0.00    -0.259 OA
BRANCH  22  24
HETATM   24  O1  UNL     1      46.648  36.883  56.738  1.00  0.00    -0.322 OA
HETATM   25  C1  UNL     1      47.785  36.028  56.934  1.00  0.00     0.213 C 
ENDBRANCH  22  24
ENDBRANCH   1  22
TORSDOF 7
ENDMDL
