MODEL 12
REMARK VINA RESULT: -7.359958152      3.625      5.628
REMARK  7 active torsions:
REMARK  status: ('A' for Active; 'I' for Inactive)
REMARK    1  A    between atoms: O1_2  and  C2_3 
REMARK    2  A    between atoms: C2_3  and  C3_5 
REMARK    3  A    between atoms: C7_9  and  O3_10 
REMARK    4  A    between atoms: O3_10  and  C8_11 
REMARK    5  A    between atoms: C13_16  and  O4_17 
REMARK    6  A    between atoms: C14_19  and  O5_20 
REMARK    7  A    between atoms: C16_23  and  O6_24 
ROOT
HETATM    1  C3  UNL     1      44.734  34.846  56.056  1.00  0.00     0.078 A 
HETATM    2  C4  UNL     1      43.949  34.595  57.156  1.00  0.00    -0.040 A 
HETATM    3  C5  UNL     1      43.932  35.604  58.246  1.00  0.00     0.049 C 
HETATM    4  C6  UNL     1      43.222  33.425  57.197  1.00  0.00     0.045 A 
HETATM    5  C7  UNL     1      43.237  32.491  56.190  1.00  0.00     0.079 A 
HETATM    6  C15 UNL     1      44.044  32.774  55.084  1.00  0.00     0.074 A 
HETATM    7  C16 UNL     1      44.786  33.933  55.007  1.00  0.00     0.085 A 
ENDROOT
BRANCH   5   8
HETATM    8  O3  UNL     1      42.509  31.323  56.231  1.00  0.00    -0.308 OA
BRANCH   8   9
HETATM    9  C8  UNL     1      42.504  30.449  57.299  1.00  0.00     0.112 A 
HETATM   10  C9  UNL     1      43.674  29.696  57.495  1.00  0.00     0.047 A 
HETATM   11  C10 UNL     1      43.776  28.795  58.529  1.00  0.00    -0.057 A 
HETATM   12  C11 UNL     1      45.014  27.997  58.740  1.00  0.00     0.048 C 
HETATM   13  C12 UNL     1      42.698  28.653  59.369  1.00  0.00     0.046 A 
HETATM   14  C13 UNL     1      41.534  29.399  59.177  1.00  0.00     0.102 A 
HETATM   15  C14 UNL     1      41.422  30.308  58.138  1.00  0.00     0.133 A 
BRANCH  14  16
HETATM   16  O4  UNL     1      40.479  29.216  60.051  1.00  0.00    -0.358 OA
ATOM     17  H4  UNL     1      39.606  29.104  59.694  1.00  0.00     0.217 HD
ENDBRANCH  14  16
BRANCH  15  18
HETATM   18  O5  UNL     1      40.274  31.056  57.934  1.00  0.00    -0.356 OA
ATOM     19  H5  UNL     1      39.812  31.439  58.671  1.00  0.00     0.218 HD
ENDBRANCH  15  18
ENDBRANCH   8   9
ENDBRANCH   5   8
BRANCH   7  20
HETATM   20  O6  UNL     1      45.581  34.207  53.910  1.00  0.00    -0.360 OA
ATOM     21  H6  UNL     1      46.238  33.575  53.643  1.00  0.00     0.217 HD
ENDBRANCH   7  20
BRANCH   1  22
HETATM   22  C2  UNL     1      45.536  36.062  55.934  1.00  0.00     0.296 C 
HETATM   23  O2  UNL     1      45.068  37.110  55.443  1.00  0.00    -0.259 OA
BRANCH  22  24
HETATM   24  O1  UNL     1      46.857  36.118  56.355  1.00  0.00    -0.322 OA
HETATM   25  C1  UNL     1      47.310  37.155  57.239  1.00  0.00     0.213 C 
ENDBRANCH  22  24
ENDBRANCH   1  22
TORSDOF 7
ENDMDL
