MODEL 6
REMARK VINA RESULT: -7.676815432      1.186      2.131
REMARK  7 active torsions:
REMARK  status: ('A' for Active; 'I' for Inactive)
REMARK    1  A    between atoms: O1_2  and  C2_3 
REMARK    2  A    between atoms: C2_3  and  C3_5 
REMARK    3  A    between atoms: C7_9  and  O3_10 
REMARK    4  A    between atoms: O3_10  and  C8_11 
REMARK    5  A    between atoms: C13_16  and  O4_17 
REMARK    6  A    between atoms: C14_19  and  O5_20 
REMARK    7  A    between atoms: C16_23  and  O6_24 
ROOT
HETATM    1  C3  UNL     1      45.461  28.926  57.228  1.00  0.00     0.078 A 
HETATM    2  C4  UNL     1      44.717  29.896  56.600  1.00  0.00    -0.040 A 
HETATM    3  C5  UNL     1      45.144  30.336  55.247  1.00  0.00     0.049 C 
HETATM    4  C6  UNL     1      43.618  30.414  57.251  1.00  0.00     0.045 A 
HETATM    5  C7  UNL     1      43.222  30.008  58.502  1.00  0.00     0.079 A 
HETATM    6  C15 UNL     1      43.997  29.019  59.116  1.00  0.00     0.074 A 
HETATM    7  C16 UNL     1      45.104  28.479  58.496  1.00  0.00     0.085 A 
ENDROOT
BRANCH   5   8
HETATM    8  O3  UNL     1      42.123  30.524  59.152  1.00  0.00    -0.308 OA
BRANCH   8   9
HETATM    9  C8  UNL     1      40.933  29.846  59.321  1.00  0.00     0.112 A 
HETATM   10  C9  UNL     1      40.803  29.098  60.503  1.00  0.00     0.047 A 
HETATM   11  C10 UNL     1      39.659  28.384  60.772  1.00  0.00    -0.057 A 
HETATM   12  C11 UNL     1      39.517  27.591  62.024  1.00  0.00     0.048 C 
HETATM   13  C12 UNL     1      38.642  28.425  59.849  1.00  0.00     0.046 A 
HETATM   14  C13 UNL     1      38.767  29.165  58.673  1.00  0.00     0.102 A 
HETATM   15  C14 UNL     1      39.917  29.887  58.394  1.00  0.00     0.133 A 
BRANCH  14  16
HETATM   16  O4  UNL     1      37.715  29.172  57.778  1.00  0.00    -0.358 OA
ATOM     17  H4  UNL     1      37.856  28.824  56.905  1.00  0.00     0.217 HD
ENDBRANCH  14  16
BRANCH  15  18
HETATM   18  O5  UNL     1      40.057  30.628  57.232  1.00  0.00    -0.356 OA
ATOM     19  H5  UNL     1      39.438  30.527  56.518  1.00  0.00     0.218 HD
ENDBRANCH  15  18
ENDBRANCH   8   9
ENDBRANCH   5   8
BRANCH   7  20
HETATM   20  O6  UNL     1      45.866  27.501  59.108  1.00  0.00    -0.360 OA
ATOM     21  H6  UNL     1      46.701  27.257  58.728  1.00  0.00     0.217 HD
ENDBRANCH   7  20
BRANCH   1  22
HETATM   22  C2  UNL     1      46.640  28.325  56.606  1.00  0.00     0.296 C 
HETATM   23  O2  UNL     1      46.546  27.562  55.623  1.00  0.00    -0.259 OA
BRANCH  22  24
HETATM   24  O1  UNL     1      47.923  28.570  57.075  1.00  0.00    -0.322 OA
HETATM   25  C1  UNL     1      48.399  29.910  57.268  1.00  0.00     0.213 C 
ENDBRANCH  22  24
ENDBRANCH   1  22
TORSDOF 7
ENDMDL
