MODEL 2
REMARK VINA RESULT: -9.858555832      0.733      1.125
REMARK  7 active torsions:
REMARK  status: ('A' for Active; 'I' for Inactive)
REMARK    1  A    between atoms: N1_1  and  C1_5 
REMARK    2  A    between atoms: C1_5  and  C2_6 
REMARK    3  A    between atoms: N2_15  and  C11_16 
REMARK    4  A    between atoms: C11_16  and  O1_17 
REMARK    5  A    between atoms: C11_16  and  C12_19 
REMARK    6  A    between atoms: C15_22  and  C16_23 
REMARK    7  A    between atoms: C17_24  and  C18_25 
ROOT
HETATM    1  C2  UNL     1      21.475  77.853  83.325  1.00  0.00    -0.032 A 
HETATM    2  C3  UNL     1      20.676  78.398  84.312  1.00  0.00     0.011 A 
HETATM    3  C4  UNL     1      21.160  78.742  85.552  1.00  0.00     0.038 A 
HETATM    4  C5  UNL     1      22.499  78.541  85.839  1.00  0.00     0.075 A 
HETATM    5  C6  UNL     1      23.320  77.998  84.875  1.00  0.00    -0.013 A 
HETATM    6  C7  UNL     1      22.804  77.656  83.618  1.00  0.00     0.019 A 
HETATM    7  C8  UNL     1      24.673  77.905  85.472  1.00  0.00     0.015 C 
HETATM    8  C9  UNL     1      24.816  76.509  86.038  1.00  0.00     0.036 C 
HETATM    9  C10 UNL     1      25.908  75.784  85.254  1.00  0.00     0.126 C 
HETATM   10  N2  UNL     1      27.145  76.537  85.529  1.00  0.00    -0.360 N 
HETATM   11  C24 UNL     1      27.102  77.918  85.153  1.00  0.00     0.126 C 
HETATM   12  C25 UNL     1      25.754  78.209  84.492  1.00  0.00     0.036 C 
HETATM   13  C26 UNL     1      24.615  78.943  86.577  1.00  0.00     0.190 C 
HETATM   14  O3  UNL     1      23.254  78.795  87.003  1.00  0.00    -0.349 OA
ENDROOT
BRANCH  10  15
HETATM   15  C11 UNL     1      28.208  75.828  86.116  1.00  0.00     0.172 C 
BRANCH  15  16
HETATM   16  O1  UNL     1      28.629  76.185  87.294  1.00  0.00    -0.344 OA
ATOM     17  H1  UNL     1      29.022  75.531  87.860  1.00  0.00     0.219 HD
ENDBRANCH  15  16
BRANCH  15  18
HETATM   18  C12 UNL     1      28.929  74.703  85.561  1.00  0.00     0.127 A 
HETATM   19  C13 UNL     1      29.936  73.986  86.160  1.00  0.00     0.045 A 
HETATM   20  C14 UNL     1      30.312  73.000  85.228  1.00  0.00     0.049 A 
HETATM   21  C15 UNL     1      29.514  73.177  84.124  1.00  0.00     0.129 A 
HETATM   22  O2  UNL     1      28.713  74.185  84.351  1.00  0.00    -0.297 OA
BRANCH  21  23
HETATM   23  C16 UNL     1      29.568  72.377  82.934  1.00  0.00    -0.036 C 
HETATM   24  C17 UNL     1      29.601  71.714  81.925  1.00  0.00    -0.059 C 
BRANCH  24  25
HETATM   25  C18 UNL     1      29.626  70.940  80.714  1.00  0.00     0.018 A 
HETATM   26  C19 UNL     1      29.397  69.579  80.746  1.00  0.00     0.020 A 
HETATM   27  C20 UNL     1      29.410  68.796  79.612  1.00  0.00     0.001 A 
HETATM   28  C21 UNL     1      29.661  69.376  78.383  1.00  0.00     0.000 A 
HETATM   29  C22 UNL     1      29.898  70.750  78.312  1.00  0.00     0.001 A 
HETATM   30  C23 UNL     1      29.876  71.507  79.480  1.00  0.00     0.020 A 
ENDBRANCH  24  25
ENDBRANCH  21  23
ENDBRANCH  15  18
ENDBRANCH  10  15
BRANCH   1  31
HETATM   31  C1  UNL     1      20.873  77.505  82.004  1.00  0.00     0.268 C 
BRANCH  31  32
HETATM   32  N1  UNL     1      19.806  76.518  82.186  1.00  0.00    -0.075 N 
ATOM     33  H13 UNL     1      19.596  76.017  81.323  1.00  0.00     0.274 HD
ATOM     34  H12 UNL     1      20.111  75.724  82.749  1.00  0.00     0.274 HD
ATOM     35  H11 UNL     1      18.979  76.970  82.577  1.00  0.00     0.274 HD
ENDBRANCH  31  32
ENDBRANCH   1  31
TORSDOF 7
ENDMDL
