MODEL 4
REMARK VINA RESULT: -8.923174182      1.442      1.526
REMARK  7 active torsions:
REMARK  status: ('A' for Active; 'I' for Inactive)
REMARK    1  A    between atoms: N1_1  and  C1_5 
REMARK    2  A    between atoms: C1_5  and  C2_6 
REMARK    3  A    between atoms: N2_15  and  C11_16 
REMARK    4  A    between atoms: C11_16  and  O1_17 
REMARK    5  A    between atoms: C11_16  and  C12_19 
REMARK    6  A    between atoms: C15_22  and  C16_23 
REMARK    7  A    between atoms: C17_24  and  C18_25 
ROOT
HETATM    1  C2  UNL     1      21.427  77.822  83.774  1.00  0.00    -0.032 A 
HETATM    2  C3  UNL     1      20.840  78.430  84.868  1.00  0.00     0.011 A 
HETATM    3  C4  UNL     1      21.575  79.001  85.880  1.00  0.00     0.038 A 
HETATM    4  C5  UNL     1      22.957  78.976  85.816  1.00  0.00     0.075 A 
HETATM    5  C6  UNL     1      23.569  78.376  84.737  1.00  0.00    -0.013 A 
HETATM    6  C7  UNL     1      22.800  77.800  83.718  1.00  0.00     0.019 A 
HETATM    7  C8  UNL     1      25.030  78.504  84.953  1.00  0.00     0.015 C 
HETATM    8  C9  UNL     1      25.496  77.229  85.621  1.00  0.00     0.036 C 
HETATM    9  C10 UNL     1      26.438  76.503  84.663  1.00  0.00     0.126 C 
HETATM   10  N2  UNL     1      27.594  77.404  84.501  1.00  0.00    -0.360 N 
HETATM   11  C24 UNL     1      27.273  78.702  83.988  1.00  0.00     0.126 C 
HETATM   12  C25 UNL     1      25.776  78.760  83.687  1.00  0.00     0.036 C 
HETATM   13  C26 UNL     1      25.119  79.686  85.899  1.00  0.00     0.190 C 
HETATM   14  O3  UNL     1      23.943  79.474  86.692  1.00  0.00    -0.349 OA
ENDROOT
BRANCH  10  15
HETATM   15  C11 UNL     1      28.855  76.898  84.858  1.00  0.00     0.172 C 
BRANCH  15  16
HETATM   16  O1  UNL     1      29.397  77.287  85.975  1.00  0.00    -0.344 OA
ATOM     17  H1  UNL     1      29.785  76.638  86.550  1.00  0.00     0.219 HD
ENDBRANCH  15  16
BRANCH  15  18
HETATM   18  C12 UNL     1      29.669  75.957  84.118  1.00  0.00     0.127 A 
HETATM   19  C13 UNL     1      31.039  75.863  84.122  1.00  0.00     0.045 A 
HETATM   20  C14 UNL     1      31.354  74.803  83.251  1.00  0.00     0.049 A 
HETATM   21  C15 UNL     1      30.160  74.319  82.773  1.00  0.00     0.129 A 
HETATM   22  O2  UNL     1      29.190  75.018  83.301  1.00  0.00    -0.297 OA
BRANCH  21  23
HETATM   23  C16 UNL     1      30.026  73.228  81.851  1.00  0.00    -0.036 C 
HETATM   24  C17 UNL     1      29.928  72.302  81.081  1.00  0.00    -0.059 C 
BRANCH  24  25
HETATM   25  C18 UNL     1      29.828  71.189  80.177  1.00  0.00     0.018 A 
HETATM   26  C19 UNL     1      30.028  71.365  78.822  1.00  0.00     0.020 A 
HETATM   27  C20 UNL     1      29.944  70.329  77.918  1.00  0.00     0.001 A 
HETATM   28  C21 UNL     1      29.648  69.055  78.363  1.00  0.00     0.000 A 
HETATM   29  C22 UNL     1      29.439  68.838  79.726  1.00  0.00     0.001 A 
HETATM   30  C23 UNL     1      29.534  69.911  80.609  1.00  0.00     0.020 A 
ENDBRANCH  24  25
ENDBRANCH  21  23
ENDBRANCH  15  18
ENDBRANCH  10  15
BRANCH   1  31
HETATM   31  C1  UNL     1      20.559  77.223  82.717  1.00  0.00     0.268 C 
BRANCH  31  32
HETATM   32  N1  UNL     1      19.494  76.430  83.335  1.00  0.00    -0.075 N 
ATOM     33  H13 UNL     1      19.850  75.574  83.758  1.00  0.00     0.274 HD
ATOM     34  H12 UNL     1      19.129  76.872  84.179  1.00  0.00     0.274 HD
ATOM     35  H11 UNL     1      18.759  76.243  82.652  1.00  0.00     0.274 HD
ENDBRANCH  31  32
ENDBRANCH   1  31
TORSDOF 7
ENDMDL
