MODEL 3
REMARK VINA RESULT: -9.124058714      1.032      1.316
REMARK  7 active torsions:
REMARK  status: ('A' for Active; 'I' for Inactive)
REMARK    1  A    between atoms: N1_1  and  C1_5 
REMARK    2  A    between atoms: C1_5  and  C2_6 
REMARK    3  A    between atoms: N2_15  and  C11_16 
REMARK    4  A    between atoms: C11_16  and  O1_17 
REMARK    5  A    between atoms: C11_16  and  C12_19 
REMARK    6  A    between atoms: C15_22  and  C16_23 
REMARK    7  A    between atoms: C17_24  and  C18_25 
ROOT
HETATM    1  C2  UNL     1      20.846  77.583  83.118  1.00  0.00    -0.032 A 
HETATM    2  C3  UNL     1      20.094  78.091  84.161  1.00  0.00     0.011 A 
HETATM    3  C4  UNL     1      20.662  78.660  85.275  1.00  0.00     0.038 A 
HETATM    4  C5  UNL     1      22.041  78.736  85.374  1.00  0.00     0.075 A 
HETATM    5  C6  UNL     1      22.816  78.237  84.350  1.00  0.00    -0.013 A 
HETATM    6  C7  UNL     1      22.215  77.661  83.223  1.00  0.00     0.019 A 
HETATM    7  C8  UNL     1      24.228  78.457  84.741  1.00  0.00     0.015 C 
HETATM    8  C9  UNL     1      24.711  77.185  85.405  1.00  0.00     0.036 C 
HETATM    9  C10 UNL     1      25.809  76.578  84.534  1.00  0.00     0.126 C 
HETATM   10  N2  UNL     1      26.903  77.566  84.548  1.00  0.00    -0.360 N 
HETATM   11  C24 UNL     1      26.545  78.863  84.057  1.00  0.00     0.126 C 
HETATM   12  C25 UNL     1      25.092  78.830  83.585  1.00  0.00     0.036 C 
HETATM   13  C26 UNL     1      24.118  79.592  85.741  1.00  0.00     0.190 C 
HETATM   14  O3  UNL     1      22.879  79.256  86.381  1.00  0.00    -0.349 OA
ENDROOT
BRANCH  10  15
HETATM   15  C11 UNL     1      28.150  77.133  85.030  1.00  0.00     0.172 C 
BRANCH  15  16
HETATM   16  O1  UNL     1      28.589  77.605  86.160  1.00  0.00    -0.344 OA
ATOM     17  H1  UNL     1      28.333  78.481  86.424  1.00  0.00     0.219 HD
ENDBRANCH  15  16
BRANCH  15  18
HETATM   18  C12 UNL     1      29.054  76.187  84.410  1.00  0.00     0.127 A 
HETATM   19  C13 UNL     1      30.419  76.132  84.546  1.00  0.00     0.045 A 
HETATM   20  C14 UNL     1      30.841  75.047  83.754  1.00  0.00     0.049 A 
HETATM   21  C15 UNL     1      29.711  74.511  83.188  1.00  0.00     0.129 A 
HETATM   22  O2  UNL     1      28.678  75.202  83.592  1.00  0.00    -0.297 OA
BRANCH  21  23
HETATM   23  C16 UNL     1      29.692  73.380  82.304  1.00  0.00    -0.036 C 
HETATM   24  C17 UNL     1      29.666  72.438  81.549  1.00  0.00    -0.059 C 
BRANCH  24  25
HETATM   25  C18 UNL     1      29.625  71.331  80.634  1.00  0.00     0.018 A 
HETATM   26  C19 UNL     1      29.101  70.115  81.026  1.00  0.00     0.020 A 
HETATM   27  C20 UNL     1      29.041  69.025  80.184  1.00  0.00     0.001 A 
HETATM   28  C21 UNL     1      29.517  69.132  78.892  1.00  0.00     0.000 A 
HETATM   29  C22 UNL     1      30.054  70.345  78.460  1.00  0.00     0.001 A 
HETATM   30  C23 UNL     1      30.098  71.423  79.339  1.00  0.00     0.020 A 
ENDBRANCH  24  25
ENDBRANCH  21  23
ENDBRANCH  15  18
ENDBRANCH  10  15
BRANCH   1  31
HETATM   31  C1  UNL     1      20.153  76.979  81.941  1.00  0.00     0.268 C 
BRANCH  31  32
HETATM   32  N1  UNL     1      20.627  77.609  80.706  1.00  0.00    -0.075 N 
ATOM     33  H13 UNL     1      20.894  76.920  80.003  1.00  0.00     0.274 HD
ATOM     34  H12 UNL     1      19.870  78.059  80.192  1.00  0.00     0.274 HD
ATOM     35  H11 UNL     1      21.387  78.256  80.916  1.00  0.00     0.274 HD
ENDBRANCH  31  32
ENDBRANCH   1  31
TORSDOF 7
ENDMDL
