MODEL 13
REMARK VINA RESULT: -8.347783535      3.241      4.567
REMARK  7 active torsions:
REMARK  status: ('A' for Active; 'I' for Inactive)
REMARK    1  A    between atoms: N1_1  and  C1_5 
REMARK    2  A    between atoms: C1_5  and  C2_6 
REMARK    3  A    between atoms: N2_15  and  C11_16 
REMARK    4  A    between atoms: C11_16  and  O1_17 
REMARK    5  A    between atoms: C11_16  and  C12_19 
REMARK    6  A    between atoms: C15_22  and  C16_23 
REMARK    7  A    between atoms: C17_24  and  C18_25 
ROOT
HETATM    1  C2  UNL     1      23.328  80.428  90.260  1.00  0.00    -0.032 A 
HETATM    2  C3  UNL     1      24.124  81.438  90.766  1.00  0.00     0.011 A 
HETATM    3  C4  UNL     1      25.411  81.653  90.335  1.00  0.00     0.038 A 
HETATM    4  C5  UNL     1      25.947  80.835  89.355  1.00  0.00     0.075 A 
HETATM    5  C6  UNL     1      25.176  79.819  88.834  1.00  0.00    -0.013 A 
HETATM    6  C7  UNL     1      23.867  79.618  89.288  1.00  0.00     0.019 A 
HETATM    7  C8  UNL     1      26.013  79.128  87.824  1.00  0.00     0.015 C 
HETATM    8  C9  UNL     1      26.667  77.952  88.517  1.00  0.00     0.036 C 
HETATM    9  C10 UNL     1      26.134  76.667  87.887  1.00  0.00     0.126 C 
HETATM   10  N2  UNL     1      26.589  76.707  86.485  1.00  0.00    -0.360 N 
HETATM   11  C24 UNL     1      26.139  77.845  85.741  1.00  0.00     0.126 C 
HETATM   12  C25 UNL     1      25.231  78.692  86.632  1.00  0.00     0.036 C 
HETATM   13  C26 UNL     1      27.034  80.190  87.462  1.00  0.00     0.190 C 
HETATM   14  O3  UNL     1      27.213  80.825  88.736  1.00  0.00    -0.349 OA
ENDROOT
BRANCH  10  15
HETATM   15  C11 UNL     1      27.395  75.643  86.044  1.00  0.00     0.172 C 
BRANCH  15  16
HETATM   16  O1  UNL     1      27.729  74.713  86.890  1.00  0.00    -0.344 OA
ATOM     17  H1  UNL     1      27.209  74.596  87.676  1.00  0.00     0.219 HD
ENDBRANCH  15  16
BRANCH  15  18
HETATM   18  C12 UNL     1      27.927  75.433  84.714  1.00  0.00     0.127 A 
HETATM   19  C13 UNL     1      28.457  76.380  83.873  1.00  0.00     0.045 A 
HETATM   20  C14 UNL     1      28.834  75.690  82.706  1.00  0.00     0.049 A 
HETATM   21  C15 UNL     1      28.511  74.370  82.908  1.00  0.00     0.129 A 
HETATM   22  O2  UNL     1      27.980  74.252  84.096  1.00  0.00    -0.297 OA
BRANCH  21  23
HETATM   23  C16 UNL     1      28.729  73.316  81.959  1.00  0.00    -0.036 C 
HETATM   24  C17 UNL     1      28.930  72.427  81.166  1.00  0.00    -0.059 C 
BRANCH  24  25
HETATM   25  C18 UNL     1      29.189  71.366  80.233  1.00  0.00     0.018 A 
HETATM   26  C19 UNL     1      29.073  70.046  80.620  1.00  0.00     0.020 A 
HETATM   27  C20 UNL     1      29.312  68.995  79.761  1.00  0.00     0.001 A 
HETATM   28  C21 UNL     1      29.682  69.249  78.455  1.00  0.00     0.000 A 
HETATM   29  C22 UNL     1      29.809  70.572  78.026  1.00  0.00     0.001 A 
HETATM   30  C23 UNL     1      29.560  71.606  78.924  1.00  0.00     0.020 A 
ENDBRANCH  24  25
ENDBRANCH  21  23
ENDBRANCH  15  18
ENDBRANCH  10  15
BRANCH   1  31
HETATM   31  C1  UNL     1      21.939  80.258  90.782  1.00  0.00     0.268 C 
BRANCH  31  32
HETATM   32  N1  UNL     1      21.356  81.567  91.084  1.00  0.00    -0.075 N 
ATOM     33  H13 UNL     1      21.817  82.319  90.572  1.00  0.00     0.274 HD
ATOM     34  H12 UNL     1      20.421  81.670  90.689  1.00  0.00     0.274 HD
ATOM     35  H11 UNL     1      21.366  81.728  92.091  1.00  0.00     0.274 HD
ENDBRANCH  31  32
ENDBRANCH   1  31
TORSDOF 7
ENDMDL
