MODEL 1
REMARK VINA RESULT: -10.014502165      0.000      0.000
REMARK  7 active torsions:
REMARK  status: ('A' for Active; 'I' for Inactive)
REMARK    1  A    between atoms: N1_1  and  C1_5 
REMARK    2  A    between atoms: C1_5  and  C2_6 
REMARK    3  A    between atoms: N2_15  and  C11_16 
REMARK    4  A    between atoms: C11_16  and  O1_17 
REMARK    5  A    between atoms: C11_16  and  C12_19 
REMARK    6  A    between atoms: C15_22  and  C16_23 
REMARK    7  A    between atoms: C17_24  and  C18_25 
ROOT
HETATM    1  C2  UNL     1      20.934  77.683  83.166  1.00  0.00    -0.032 A 
HETATM    2  C3  UNL     1      20.069  78.154  84.137  1.00  0.00     0.011 A 
HETATM    3  C4  UNL     1      20.498  78.557  85.379  1.00  0.00     0.038 A 
HETATM    4  C5  UNL     1      21.846  78.496  85.686  1.00  0.00     0.075 A 
HETATM    5  C6  UNL     1      22.731  78.031  84.739  1.00  0.00    -0.013 A 
HETATM    6  C7  UNL     1      22.271  77.625  83.479  1.00  0.00     0.019 A 
HETATM    7  C8  UNL     1      24.078  78.082  85.355  1.00  0.00     0.015 C 
HETATM    8  C9  UNL     1      24.354  76.713  85.938  1.00  0.00     0.036 C 
HETATM    9  C10 UNL     1      25.525  76.095  85.177  1.00  0.00     0.126 C 
HETATM   10  N2  UNL     1      26.676  76.973  85.460  1.00  0.00    -0.360 N 
HETATM   11  C24 UNL     1      26.497  78.339  85.068  1.00  0.00     0.126 C 
HETATM   12  C25 UNL     1      25.137  78.485  84.387  1.00  0.00     0.036 C 
HETATM   13  C26 UNL     1      23.899  79.119  86.448  1.00  0.00     0.190 C 
HETATM   14  O3  UNL     1      22.554  78.837  86.857  1.00  0.00    -0.349 OA
ENDROOT
BRANCH  10  15
HETATM   15  C11 UNL     1      27.796  76.382  86.069  1.00  0.00     0.172 C 
BRANCH  15  16
HETATM   16  O1  UNL     1      28.255  76.892  87.175  1.00  0.00    -0.344 OA
ATOM     17  H1  UNL     1      29.138  76.675  87.451  1.00  0.00     0.219 HD
ENDBRANCH  15  16
BRANCH  15  18
HETATM   18  C12 UNL     1      28.542  75.229  85.612  1.00  0.00     0.127 A 
HETATM   19  C13 UNL     1      29.515  74.544  86.298  1.00  0.00     0.045 A 
HETATM   20  C14 UNL     1      29.935  73.511  85.439  1.00  0.00     0.049 A 
HETATM   21  C15 UNL     1      29.195  73.630  84.289  1.00  0.00     0.129 A 
HETATM   22  O2  UNL     1      28.387  74.648  84.421  1.00  0.00    -0.297 OA
BRANCH  21  23
HETATM   23  C16 UNL     1      29.308  72.769  83.146  1.00  0.00    -0.036 C 
HETATM   24  C17 UNL     1      29.391  72.054  82.176  1.00  0.00    -0.059 C 
BRANCH  24  25
HETATM   25  C18 UNL     1      29.477  71.219  81.010  1.00  0.00     0.018 A 
HETATM   26  C19 UNL     1      29.708  71.771  79.766  1.00  0.00     0.020 A 
HETATM   27  C20 UNL     1      29.798  71.010  78.620  1.00  0.00     0.001 A 
HETATM   28  C21 UNL     1      29.656  69.638  78.697  1.00  0.00     0.000 A 
HETATM   29  C22 UNL     1      29.421  69.044  79.938  1.00  0.00     0.001 A 
HETATM   30  C23 UNL     1      29.337  69.846  81.073  1.00  0.00     0.020 A 
ENDBRANCH  24  25
ENDBRANCH  21  23
ENDBRANCH  15  18
ENDBRANCH  10  15
BRANCH   1  31
HETATM   31  C1  UNL     1      20.389  77.263  81.841  1.00  0.00     0.268 C 
BRANCH  31  32
HETATM   32  N1  UNL     1      20.828  78.198  80.802  1.00  0.00    -0.075 N 
ATOM     33  H13 UNL     1      21.299  77.722  80.033  1.00  0.00     0.274 HD
ATOM     34  H12 UNL     1      20.042  78.585  80.279  1.00  0.00     0.274 HD
ATOM     35  H11 UNL     1      21.410  78.927  81.215  1.00  0.00     0.274 HD
ENDBRANCH  31  32
ENDBRANCH   1  31
TORSDOF 7
ENDMDL
