MODEL 8
REMARK VINA RESULT: -8.675734357      3.285      9.381
REMARK  7 active torsions:
REMARK  status: ('A' for Active; 'I' for Inactive)
REMARK    1  A    between atoms: N1_1  and  C1_5 
REMARK    2  A    between atoms: C1_5  and  C2_6 
REMARK    3  A    between atoms: N2_15  and  C11_16 
REMARK    4  A    between atoms: C11_16  and  O1_17 
REMARK    5  A    between atoms: C11_16  and  C12_19 
REMARK    6  A    between atoms: C15_22  and  C16_23 
REMARK    7  A    between atoms: C17_24  and  C18_25 
ROOT
HETATM    1  C2  UNL     1      29.936  69.695  79.836  1.00  0.00    -0.032 A 
HETATM    2  C3  UNL     1      29.254  70.537  78.978  1.00  0.00     0.011 A 
HETATM    3  C4  UNL     1      29.028  71.862  79.265  1.00  0.00     0.038 A 
HETATM    4  C5  UNL     1      29.494  72.390  80.457  1.00  0.00     0.075 A 
HETATM    5  C6  UNL     1      30.176  71.573  81.332  1.00  0.00    -0.013 A 
HETATM    6  C7  UNL     1      30.395  70.226  81.018  1.00  0.00     0.019 A 
HETATM    7  C8  UNL     1      30.539  72.412  82.499  1.00  0.00     0.015 C 
HETATM    8  C9  UNL     1      29.457  72.220  83.540  1.00  0.00     0.036 C 
HETATM    9  C10 UNL     1      30.078  71.540  84.758  1.00  0.00     0.126 C 
HETATM   10  N2  UNL     1      31.069  72.503  85.274  1.00  0.00    -0.360 N 
HETATM   11  C24 UNL     1      32.090  72.871  84.339  1.00  0.00     0.126 C 
HETATM   12  C25 UNL     1      31.885  72.081  83.046  1.00  0.00     0.036 C 
HETATM   13  C26 UNL     1      30.503  73.813  81.919  1.00  0.00     0.190 C 
HETATM   14  O3  UNL     1      29.408  73.687  81.001  1.00  0.00    -0.349 OA
ENDROOT
BRANCH  10  15
HETATM   15  C11 UNL     1      30.904  72.941  86.599  1.00  0.00     0.172 C 
BRANCH  15  16
HETATM   16  O1  UNL     1      31.692  72.472  87.521  1.00  0.00    -0.344 OA
ATOM     17  H1  UNL     1      31.723  71.533  87.667  1.00  0.00     0.219 HD
ENDBRANCH  15  16
BRANCH  15  18
HETATM   18  C12 UNL     1      29.931  73.890  87.099  1.00  0.00     0.127 A 
HETATM   19  C13 UNL     1      29.957  74.547  88.304  1.00  0.00     0.045 A 
HETATM   20  C14 UNL     1      28.802  75.353  88.327  1.00  0.00     0.049 A 
HETATM   21  C15 UNL     1      28.149  75.137  87.138  1.00  0.00     0.129 A 
HETATM   22  O2  UNL     1      28.836  74.273  86.440  1.00  0.00    -0.297 OA
BRANCH  21  23
HETATM   23  C16 UNL     1      26.919  75.766  86.751  1.00  0.00    -0.036 C 
HETATM   24  C17 UNL     1      25.875  76.280  86.427  1.00  0.00    -0.059 C 
BRANCH  24  25
HETATM   25  C18 UNL     1      24.622  76.872  86.047  1.00  0.00     0.018 A 
HETATM   26  C19 UNL     1      23.628  77.077  86.984  1.00  0.00     0.020 A 
HETATM   27  C20 UNL     1      22.412  77.641  86.667  1.00  0.00     0.001 A 
HETATM   28  C21 UNL     1      22.154  78.025  85.366  1.00  0.00     0.000 A 
HETATM   29  C22 UNL     1      23.134  77.834  84.390  1.00  0.00     0.001 A 
HETATM   30  C23 UNL     1      24.351  77.262  84.750  1.00  0.00     0.020 A 
ENDBRANCH  24  25
ENDBRANCH  21  23
ENDBRANCH  15  18
ENDBRANCH  10  15
BRANCH   1  31
HETATM   31  C1  UNL     1      30.140  68.266  79.452  1.00  0.00     0.268 C 
BRANCH  31  32
HETATM   32  N1  UNL     1      31.094  68.179  78.344  1.00  0.00    -0.075 N 
ATOM     33  H13 UNL     1      30.687  67.734  77.522  1.00  0.00     0.274 HD
ATOM     34  H12 UNL     1      31.291  69.093  77.936  1.00  0.00     0.274 HD
ATOM     35  H11 UNL     1      31.944  67.707  78.654  1.00  0.00     0.274 HD
ENDBRANCH  31  32
ENDBRANCH   1  31
TORSDOF 7
ENDMDL
