MODEL 9
REMARK VINA RESULT: -8.577717279      2.897      4.204
REMARK  7 active torsions:
REMARK  status: ('A' for Active; 'I' for Inactive)
REMARK    1  A    between atoms: N1_1  and  C1_5 
REMARK    2  A    between atoms: C1_5  and  C2_6 
REMARK    3  A    between atoms: N2_15  and  C11_16 
REMARK    4  A    between atoms: C11_16  and  O1_17 
REMARK    5  A    between atoms: C11_16  and  C12_19 
REMARK    6  A    between atoms: C15_22  and  C16_23 
REMARK    7  A    between atoms: C17_24  and  C18_25 
ROOT
HETATM    1  C2  UNL     1      23.729  79.624  90.234  1.00  0.00    -0.032 A 
HETATM    2  C3  UNL     1      22.899  80.285  89.348  1.00  0.00     0.011 A 
HETATM    3  C4  UNL     1      22.799  79.932  88.024  1.00  0.00     0.038 A 
HETATM    4  C5  UNL     1      23.552  78.875  87.541  1.00  0.00     0.075 A 
HETATM    5  C6  UNL     1      24.388  78.199  88.402  1.00  0.00    -0.013 A 
HETATM    6  C7  UNL     1      24.475  78.576  89.748  1.00  0.00     0.019 A 
HETATM    7  C8  UNL     1      25.051  77.140  87.603  1.00  0.00     0.015 C 
HETATM    8  C9  UNL     1      26.377  77.698  87.135  1.00  0.00     0.036 C 
HETATM    9  C10 UNL     1      27.496  76.889  87.788  1.00  0.00     0.126 C 
HETATM   10  N2  UNL     1      27.342  75.521  87.259  1.00  0.00    -0.360 N 
HETATM   11  C24 UNL     1      26.072  74.915  87.526  1.00  0.00     0.126 C 
HETATM   12  C25 UNL     1      25.233  75.874  88.369  1.00  0.00     0.036 C 
HETATM   13  C26 UNL     1      24.091  76.955  86.444  1.00  0.00     0.190 C 
HETATM   14  O3  UNL     1      23.647  78.306  86.255  1.00  0.00    -0.349 OA
ENDROOT
BRANCH  10  15
HETATM   15  C11 UNL     1      28.437  74.977  86.566  1.00  0.00     0.172 C 
BRANCH  15  16
HETATM   16  O1  UNL     1      29.437  74.496  87.246  1.00  0.00    -0.344 OA
ATOM     17  H1  UNL     1      29.994  73.840  86.845  1.00  0.00     0.219 HD
ENDBRANCH  15  16
BRANCH  15  18
HETATM   18  C12 UNL     1      28.610  74.873  85.133  1.00  0.00     0.127 A 
HETATM   19  C13 UNL     1      28.687  75.904  84.230  1.00  0.00     0.045 A 
HETATM   20  C14 UNL     1      28.854  75.299  82.969  1.00  0.00     0.049 A 
HETATM   21  C15 UNL     1      28.869  73.942  83.184  1.00  0.00     0.129 A 
HETATM   22  O2  UNL     1      28.724  73.724  84.463  1.00  0.00    -0.297 OA
BRANCH  21  23
HETATM   23  C16 UNL     1      29.021  72.951  82.158  1.00  0.00    -0.036 C 
HETATM   24  C17 UNL     1      29.164  72.109  81.302  1.00  0.00    -0.059 C 
BRANCH  24  25
HETATM   25  C18 UNL     1      29.350  71.099  80.298  1.00  0.00     0.018 A 
HETATM   26  C19 UNL     1      29.609  71.450  78.988  1.00  0.00     0.020 A 
HETATM   27  C20 UNL     1      29.795  70.518  77.990  1.00  0.00     0.001 A 
HETATM   28  C21 UNL     1      29.725  69.171  78.291  1.00  0.00     0.000 A 
HETATM   29  C22 UNL     1      29.465  68.777  79.605  1.00  0.00     0.001 A 
HETATM   30  C23 UNL     1      29.283  69.750  80.585  1.00  0.00     0.020 A 
ENDBRANCH  24  25
ENDBRANCH  21  23
ENDBRANCH  15  18
ENDBRANCH  10  15
BRANCH   1  31
HETATM   31  C1  UNL     1      23.783  80.068  91.659  1.00  0.00     0.268 C 
BRANCH  31  32
HETATM   32  N1  UNL     1      22.443  80.019  92.248  1.00  0.00    -0.075 N 
ATOM     33  H13 UNL     1      22.151  80.926  92.612  1.00  0.00     0.274 HD
ATOM     34  H12 UNL     1      21.718  79.902  91.540  1.00  0.00     0.274 HD
ATOM     35  H11 UNL     1      22.404  79.290  92.961  1.00  0.00     0.274 HD
ENDBRANCH  31  32
ENDBRANCH   1  31
TORSDOF 7
ENDMDL
