MODEL 3
REMARK VINA RESULT: -10.787607211      1.083      1.676
REMARK  5 active torsions:
REMARK  status: ('A' for Active; 'I' for Inactive)
REMARK    1  A    between atoms: C3_7  and  C4_8 
REMARK    2  A    between atoms: C9_13  and  C10_14 
REMARK    3  A    between atoms: C13_17  and  C14_18 
REMARK       I    between atoms: C14_18  and  N3_20 
REMARK    4  A    between atoms: N3_20  and  C15_22 
REMARK    5  A    between atoms: C15_22  and  C16_23 
ROOT
HETATM    1  C4  UNL     1      39.049  29.072  32.473  1.00  0.00     0.018 A 
HETATM    2  C5  UNL     1      38.072  29.467  31.575  1.00  0.00     0.016 A 
HETATM    3  C6  UNL     1      38.300  30.463  30.653  1.00  0.00     0.008 A 
HETATM    4  C7  UNL     1      39.543  31.090  30.621  1.00  0.00    -0.051 A 
HETATM    5  C8  UNL     1      39.758  32.153  29.636  1.00  0.00     0.049 C 
HETATM    6  C9  UNL     1      40.524  30.722  31.490  1.00  0.00    -0.019 A 
HETATM    7  C21 UNL     1      40.271  29.704  32.424  1.00  0.00     0.028 A 
ENDROOT
BRANCH   6   8
HETATM    8  C10 UNL     1      41.823  31.380  31.440  1.00  0.00    -0.025 A 
HETATM    9  C11 UNL     1      42.872  30.951  30.664  1.00  0.00     0.013 A 
HETATM   10  C12 UNL     1      44.093  31.618  30.648  1.00  0.00     0.018 A 
HETATM   11  C13 UNL     1      44.319  32.742  31.404  1.00  0.00     0.032 A 
HETATM   12  C19 UNL     1      43.246  33.177  32.194  1.00  0.00     0.018 A 
HETATM   13  C20 UNL     1      42.041  32.516  32.209  1.00  0.00     0.013 A 
BRANCH  11  14
HETATM   14  C14 UNL     1      45.573  33.485  31.431  1.00  0.00     0.251 C 
HETATM   15  O1  UNL     1      45.548  34.762  31.488  1.00  0.00    -0.268 OA
HETATM   16  N3  UNL     1      46.829  32.831  31.397  1.00  0.00    -0.356 N 
ATOM     17  H3  UNL     1      46.853  31.813  31.351  1.00  0.00     0.162 HD
BRANCH  16  18
HETATM   18  C15 UNL     1      48.085  33.562  31.424  1.00  0.00     0.127 C 
BRANCH  18  19
HETATM   19  C16 UNL     1      48.781  33.477  30.088  1.00  0.00     0.003 A 
HETATM   20  C17 UNL     1      48.362  34.480  29.072  1.00  0.00     0.007 A 
HETATM   21  C18 UNL     1      48.033  33.029  28.873  1.00  0.00     0.007 A 
ENDBRANCH  18  19
ENDBRANCH  16  18
ENDBRANCH  11  14
ENDBRANCH   6   8
BRANCH   1  22
HETATM   22  C3  UNL     1      38.790  28.017  33.442  1.00  0.00     0.174 A 
HETATM   23  N2  UNL     1      39.377  26.809  33.431  1.00  0.00    -0.277 N 
HETATM   24  N1  UNL     1      38.914  26.099  34.449  1.00  0.00    -0.281 N 
ATOM     25  H2  UNL     1      40.066  26.490  32.750  1.00  0.00     0.189 HD
HETATM   26  C2  UNL     1      38.024  26.874  35.105  1.00  0.00     0.136 A 
ATOM     27  H1  UNL     1      39.181  25.145  34.692  1.00  0.00     0.189 HD
HETATM   28  C1  UNL     1      37.276  26.441  36.314  1.00  0.00     0.099 C 
HETATM   29  O2  UNL     1      37.981  28.012  34.468  1.00  0.00    -0.278 OA
ENDBRANCH   1  22
TORSDOF 5
ENDMDL
