MODEL 5
REMARK VINA RESULT: -10.645951662      1.368      1.593
REMARK  5 active torsions:
REMARK  status: ('A' for Active; 'I' for Inactive)
REMARK    1  A    between atoms: C3_7  and  C4_8 
REMARK    2  A    between atoms: C9_13  and  C10_14 
REMARK    3  A    between atoms: C13_17  and  C14_18 
REMARK       I    between atoms: C14_18  and  N3_20 
REMARK    4  A    between atoms: N3_20  and  C15_22 
REMARK    5  A    between atoms: C15_22  and  C16_23 
ROOT
HETATM    1  C4  UNL     1      39.158  29.146  32.435  1.00  0.00     0.018 A 
HETATM    2  C5  UNL     1      38.131  29.556  31.603  1.00  0.00     0.016 A 
HETATM    3  C6  UNL     1      38.310  30.552  30.670  1.00  0.00     0.008 A 
HETATM    4  C7  UNL     1      39.557  31.164  30.560  1.00  0.00    -0.051 A 
HETATM    5  C8  UNL     1      39.720  32.228  29.566  1.00  0.00     0.049 C 
HETATM    6  C9  UNL     1      40.587  30.782  31.363  1.00  0.00    -0.019 A 
HETATM    7  C21 UNL     1      40.382  29.764  32.309  1.00  0.00     0.028 A 
ENDROOT
BRANCH   6   8
HETATM    8  C10 UNL     1      41.888  31.424  31.231  1.00  0.00    -0.025 A 
HETATM    9  C11 UNL     1      42.310  32.473  32.011  1.00  0.00     0.013 A 
HETATM   10  C12 UNL     1      43.565  33.050  31.848  1.00  0.00     0.018 A 
HETATM   11  C13 UNL     1      44.454  32.605  30.901  1.00  0.00     0.032 A 
HETATM   12  C19 UNL     1      44.020  31.534  30.107  1.00  0.00     0.018 A 
HETATM   13  C20 UNL     1      42.779  30.966  30.269  1.00  0.00     0.013 A 
BRANCH  11  14
HETATM   14  C14 UNL     1      45.782  33.165  30.680  1.00  0.00     0.251 C 
HETATM   15  O1  UNL     1      46.488  33.524  31.683  1.00  0.00    -0.268 OA
HETATM   16  N3  UNL     1      46.318  33.325  29.379  1.00  0.00    -0.356 N 
ATOM     17  H3  UNL     1      45.756  33.040  28.577  1.00  0.00     0.162 HD
BRANCH  16  18
HETATM   18  C15 UNL     1      47.639  33.882  29.148  1.00  0.00     0.127 C 
BRANCH  18  19
HETATM   19  C16 UNL     1      48.607  32.804  28.726  1.00  0.00     0.003 A 
HETATM   20  C17 UNL     1      49.913  32.789  29.440  1.00  0.00     0.007 A 
HETATM   21  C18 UNL     1      49.856  33.158  27.986  1.00  0.00     0.007 A 
ENDBRANCH  18  19
ENDBRANCH  16  18
ENDBRANCH  11  14
ENDBRANCH   6   8
BRANCH   1  22
HETATM   22  C3  UNL     1      38.949  28.091  33.416  1.00  0.00     0.174 A 
HETATM   23  N2  UNL     1      39.645  26.944  33.463  1.00  0.00    -0.277 N 
HETATM   24  N1  UNL     1      39.200  26.214  34.475  1.00  0.00    -0.281 N 
ATOM     25  H2  UNL     1      40.395  26.677  32.825  1.00  0.00     0.189 HD
HETATM   26  C2  UNL     1      38.209  26.915  35.068  1.00  0.00     0.136 A 
ATOM     27  H1  UNL     1      39.541  25.294  34.754  1.00  0.00     0.189 HD
HETATM   28  C1  UNL     1      37.444  26.438  36.249  1.00  0.00     0.099 C 
HETATM   29  O2  UNL     1      38.094  28.031  34.402  1.00  0.00    -0.278 OA
ENDBRANCH   1  22
TORSDOF 5
ENDMDL
