MODEL 4
REMARK VINA RESULT: -10.650771935      0.964      1.038
REMARK  5 active torsions:
REMARK  status: ('A' for Active; 'I' for Inactive)
REMARK    1  A    between atoms: C3_7  and  C4_8 
REMARK    2  A    between atoms: C9_13  and  C10_14 
REMARK    3  A    between atoms: C13_17  and  C14_18 
REMARK       I    between atoms: C14_18  and  N3_20 
REMARK    4  A    between atoms: N3_20  and  C15_22 
REMARK    5  A    between atoms: C15_22  and  C16_23 
ROOT
HETATM    1  C4  UNL     1      39.095  28.934  32.213  1.00  0.00     0.018 A 
HETATM    2  C5  UNL     1      38.010  29.476  31.545  1.00  0.00     0.016 A 
HETATM    3  C6  UNL     1      38.133  30.598  30.757  1.00  0.00     0.008 A 
HETATM    4  C7  UNL     1      39.381  31.203  30.628  1.00  0.00    -0.051 A 
HETATM    5  C8  UNL     1      39.485  32.401  29.790  1.00  0.00     0.049 C 
HETATM    6  C9  UNL     1      40.466  30.693  31.270  1.00  0.00    -0.019 A 
HETATM    7  C21 UNL     1      40.318  29.549  32.070  1.00  0.00     0.028 A 
ENDROOT
BRANCH   6   8
HETATM    8  C10 UNL     1      41.767  31.332  31.118  1.00  0.00    -0.025 A 
HETATM    9  C11 UNL     1      42.207  32.375  31.897  1.00  0.00     0.013 A 
HETATM   10  C12 UNL     1      43.461  32.948  31.715  1.00  0.00     0.018 A 
HETATM   11  C13 UNL     1      44.331  32.506  30.749  1.00  0.00     0.032 A 
HETATM   12  C19 UNL     1      43.879  31.442  29.956  1.00  0.00     0.018 A 
HETATM   13  C20 UNL     1      42.639  30.877  30.137  1.00  0.00     0.013 A 
BRANCH  11  14
HETATM   14  C14 UNL     1      45.656  33.063  30.508  1.00  0.00     0.251 C 
HETATM   15  O1  UNL     1      46.296  32.732  29.451  1.00  0.00    -0.268 OA
HETATM   16  N3  UNL     1      46.262  33.967  31.414  1.00  0.00    -0.356 N 
ATOM     17  H3  UNL     1      45.755  34.233  32.258  1.00  0.00     0.162 HD
BRANCH  16  18
HETATM   18  C15 UNL     1      47.582  34.528  31.184  1.00  0.00     0.127 C 
BRANCH  18  19
HETATM   19  C16 UNL     1      48.500  34.230  32.344  1.00  0.00     0.003 A 
HETATM   20  C17 UNL     1      49.449  33.101  32.147  1.00  0.00     0.007 A 
HETATM   21  C18 UNL     1      48.329  32.975  33.138  1.00  0.00     0.007 A 
ENDBRANCH  18  19
ENDBRANCH  16  18
ENDBRANCH  11  14
ENDBRANCH   6   8
BRANCH   1  22
HETATM   22  C3  UNL     1      38.945  27.748  33.042  1.00  0.00     0.174 A 
HETATM   23  N2  UNL     1      37.960  27.561  33.936  1.00  0.00    -0.277 N 
HETATM   24  N1  UNL     1      38.124  26.380  34.513  1.00  0.00    -0.281 N 
ATOM     25  H2  UNL     1      37.208  28.220  34.137  1.00  0.00     0.189 HD
HETATM   26  C2  UNL     1      39.229  25.822  33.974  1.00  0.00     0.136 A 
ATOM     27  H1  UNL     1      37.526  25.969  35.231  1.00  0.00     0.189 HD
HETATM   28  C1  UNL     1      39.758  24.486  34.357  1.00  0.00     0.099 C 
HETATM   29  O2  UNL     1      39.687  26.674  33.100  1.00  0.00    -0.278 OA
ENDBRANCH   1  22
TORSDOF 5
ENDMDL
