MODEL 1
REMARK VINA RESULT: -10.997997867      0.000      0.000
REMARK  5 active torsions:
REMARK  status: ('A' for Active; 'I' for Inactive)
REMARK    1  A    between atoms: C3_7  and  C4_8 
REMARK    2  A    between atoms: C9_13  and  C10_14 
REMARK    3  A    between atoms: C13_17  and  C14_18 
REMARK       I    between atoms: C14_18  and  N3_20 
REMARK    4  A    between atoms: N3_20  and  C15_22 
REMARK    5  A    between atoms: C15_22  and  C16_23 
ROOT
HETATM    1  C4  UNL     1      39.073  29.111  32.494  1.00  0.00     0.018 A 
HETATM    2  C5  UNL     1      38.022  29.540  31.701  1.00  0.00     0.016 A 
HETATM    3  C6  UNL     1      38.183  30.536  30.765  1.00  0.00     0.008 A 
HETATM    4  C7  UNL     1      39.435  31.128  30.611  1.00  0.00    -0.051 A 
HETATM    5  C8  UNL     1      39.579  32.191  29.613  1.00  0.00     0.049 C 
HETATM    6  C9  UNL     1      40.487  30.727  31.374  1.00  0.00    -0.019 A 
HETATM    7  C21 UNL     1      40.301  29.710  32.324  1.00  0.00     0.028 A 
ENDROOT
BRANCH   6   8
HETATM    8  C10 UNL     1      41.792  31.349  31.196  1.00  0.00    -0.025 A 
HETATM    9  C11 UNL     1      42.250  32.404  31.947  1.00  0.00     0.013 A 
HETATM   10  C12 UNL     1      43.508  32.960  31.740  1.00  0.00     0.018 A 
HETATM   11  C13 UNL     1      44.364  32.488  30.776  1.00  0.00     0.032 A 
HETATM   12  C19 UNL     1      43.894  31.411  30.011  1.00  0.00     0.018 A 
HETATM   13  C20 UNL     1      42.650  30.863  30.217  1.00  0.00     0.013 A 
BRANCH  11  14
HETATM   14  C14 UNL     1      45.693  33.026  30.510  1.00  0.00     0.251 C 
HETATM   15  O1  UNL     1      46.319  32.665  29.456  1.00  0.00    -0.268 OA
HETATM   16  N3  UNL     1      46.317  33.944  31.390  1.00  0.00    -0.356 N 
ATOM     17  H3  UNL     1      45.820  34.233  32.233  1.00  0.00     0.162 HD
BRANCH  16  18
HETATM   18  C15 UNL     1      47.640  34.486  31.135  1.00  0.00     0.127 C 
BRANCH  18  19
HETATM   19  C16 UNL     1      48.553  34.244  32.311  1.00  0.00     0.003 A 
HETATM   20  C17 UNL     1      49.541  33.143  32.150  1.00  0.00     0.007 A 
HETATM   21  C18 UNL     1      48.414  33.002  33.132  1.00  0.00     0.007 A 
ENDBRANCH  18  19
ENDBRANCH  16  18
ENDBRANCH  11  14
ENDBRANCH   6   8
BRANCH   1  22
HETATM   22  C3  UNL     1      38.883  28.057  33.479  1.00  0.00     0.174 A 
HETATM   23  N2  UNL     1      39.601  26.924  33.533  1.00  0.00    -0.277 N 
HETATM   24  N1  UNL     1      39.168  26.190  34.548  1.00  0.00    -0.281 N 
ATOM     25  H2  UNL     1      40.357  26.669  32.897  1.00  0.00     0.189 HD
HETATM   26  C2  UNL     1      38.163  26.874  35.135  1.00  0.00     0.136 A 
ATOM     27  H1  UNL     1      39.528  25.278  34.832  1.00  0.00     0.189 HD
HETATM   28  C1  UNL     1      37.406  26.388  36.318  1.00  0.00     0.099 C 
HETATM   29  O2  UNL     1      38.027  27.984  34.464  1.00  0.00    -0.278 OA
ENDBRANCH   1  22
TORSDOF 5
ENDMDL
