MODEL 8
REMARK VINA RESULT: -9.401070317      2.705      9.677
REMARK  5 active torsions:
REMARK  status: ('A' for Active; 'I' for Inactive)
REMARK    1  A    between atoms: C3_7  and  C4_8 
REMARK    2  A    between atoms: C9_13  and  C10_14 
REMARK    3  A    between atoms: C13_17  and  C14_18 
REMARK       I    between atoms: C14_18  and  N3_20 
REMARK    4  A    between atoms: N3_20  and  C15_22 
REMARK    5  A    between atoms: C15_22  and  C16_23 
ROOT
HETATM    1  C4  UNL     1      48.460  33.337  31.428  1.00  0.00     0.018 A 
HETATM    2  C5  UNL     1      48.441  34.367  32.352  1.00  0.00     0.016 A 
HETATM    3  C6  UNL     1      47.279  34.754  32.980  1.00  0.00     0.008 A 
HETATM    4  C7  UNL     1      46.091  34.092  32.677  1.00  0.00    -0.051 A 
HETATM    5  C8  UNL     1      44.865  34.528  33.352  1.00  0.00     0.049 C 
HETATM    6  C9  UNL     1      46.078  33.075  31.774  1.00  0.00    -0.019 A 
HETATM    7  C21 UNL     1      47.274  32.697  31.144  1.00  0.00     0.028 A 
ENDROOT
BRANCH   6   8
HETATM    8  C10 UNL     1      44.829  32.387  31.474  1.00  0.00    -0.025 A 
HETATM    9  C11 UNL     1      43.978  32.746  30.457  1.00  0.00     0.013 A 
HETATM   10  C12 UNL     1      42.798  32.052  30.208  1.00  0.00     0.018 A 
HETATM   11  C13 UNL     1      42.416  30.970  30.962  1.00  0.00     0.032 A 
HETATM   12  C19 UNL     1      43.286  30.607  31.999  1.00  0.00     0.018 A 
HETATM   13  C20 UNL     1      44.452  31.293  32.244  1.00  0.00     0.013 A 
BRANCH  11  14
HETATM   14  C14 UNL     1      41.195  30.202  30.753  1.00  0.00     0.251 C 
HETATM   15  O1  UNL     1      41.254  29.076  30.151  1.00  0.00    -0.268 OA
HETATM   16  N3  UNL     1      39.934  30.669  31.199  1.00  0.00    -0.356 N 
ATOM     17  H3  UNL     1      39.883  31.568  31.679  1.00  0.00     0.162 HD
BRANCH  16  18
HETATM   18  C15 UNL     1      38.711  29.912  30.997  1.00  0.00     0.127 C 
BRANCH  18  19
HETATM   19  C16 UNL     1      38.151  29.438  32.315  1.00  0.00     0.003 A 
HETATM   20  C17 UNL     1      38.850  29.932  33.532  1.00  0.00     0.007 A 
HETATM   21  C18 UNL     1      38.922  28.479  33.162  1.00  0.00     0.007 A 
ENDBRANCH  18  19
ENDBRANCH  16  18
ENDBRANCH  11  14
ENDBRANCH   6   8
BRANCH   1  22
HETATM   22  C3  UNL     1      49.698  32.943  30.773  1.00  0.00     0.174 A 
HETATM   23  N2  UNL     1      50.814  32.562  31.416  1.00  0.00    -0.277 N 
HETATM   24  N1  UNL     1      51.747  32.273  30.521  1.00  0.00    -0.281 N 
ATOM     25  H2  UNL     1      50.925  32.504  32.429  1.00  0.00     0.189 HD
HETATM   26  C2  UNL     1      51.207  32.479  29.301  1.00  0.00     0.136 A 
ATOM     27  H1  UNL     1      52.696  31.955  30.718  1.00  0.00     0.189 HD
HETATM   28  C1  UNL     1      51.936  32.268  28.023  1.00  0.00     0.099 C 
HETATM   29  O2  UNL     1      49.982  32.878  29.499  1.00  0.00    -0.278 OA
ENDBRANCH   1  22
TORSDOF 5
ENDMDL
