MODEL 2
REMARK VINA RESULT: -10.866909141      0.830      1.349
REMARK  5 active torsions:
REMARK  status: ('A' for Active; 'I' for Inactive)
REMARK    1  A    between atoms: C3_7  and  C4_8 
REMARK    2  A    between atoms: C9_13  and  C10_14 
REMARK    3  A    between atoms: C13_17  and  C14_18 
REMARK       I    between atoms: C14_18  and  N3_20 
REMARK    4  A    between atoms: N3_20  and  C15_22 
REMARK    5  A    between atoms: C15_22  and  C16_23 
ROOT
HETATM    1  C4  UNL     1      39.155  29.133  32.408  1.00  0.00     0.018 A 
HETATM    2  C5  UNL     1      38.136  29.524  31.556  1.00  0.00     0.016 A 
HETATM    3  C6  UNL     1      38.321  30.510  30.614  1.00  0.00     0.008 A 
HETATM    4  C7  UNL     1      39.563  31.132  30.515  1.00  0.00    -0.051 A 
HETATM    5  C8  UNL     1      39.731  32.185  29.510  1.00  0.00     0.049 C 
HETATM    6  C9  UNL     1      40.584  30.769  31.337  1.00  0.00    -0.019 A 
HETATM    7  C21 UNL     1      40.375  29.761  32.292  1.00  0.00     0.028 A 
ENDROOT
BRANCH   6   8
HETATM    8  C10 UNL     1      41.881  31.422  31.216  1.00  0.00    -0.025 A 
HETATM    9  C11 UNL     1      42.844  31.057  30.307  1.00  0.00     0.013 A 
HETATM   10  C12 UNL     1      44.066  31.716  30.228  1.00  0.00     0.018 A 
HETATM   11  C13 UNL     1      44.381  32.768  31.052  1.00  0.00     0.032 A 
HETATM   12  C19 UNL     1      43.397  33.138  31.979  1.00  0.00     0.018 A 
HETATM   13  C20 UNL     1      42.190  32.485  32.056  1.00  0.00     0.013 A 
BRANCH  11  14
HETATM   14  C14 UNL     1      45.642  33.499  31.020  1.00  0.00     0.251 C 
HETATM   15  O1  UNL     1      45.802  34.513  31.781  1.00  0.00    -0.268 OA
HETATM   16  N3  UNL     1      46.704  33.118  30.164  1.00  0.00    -0.356 N 
ATOM     17  H3  UNL     1      46.580  32.309  29.554  1.00  0.00     0.162 HD
BRANCH  16  18
HETATM   18  C15 UNL     1      47.965  33.839  30.124  1.00  0.00     0.127 C 
BRANCH  18  19
HETATM   19  C16 UNL     1      49.045  33.067  30.841  1.00  0.00     0.003 A 
HETATM   20  C17 UNL     1      49.169  33.329  32.301  1.00  0.00     0.007 A 
HETATM   21  C18 UNL     1      50.256  33.771  31.364  1.00  0.00     0.007 A 
ENDBRANCH  18  19
ENDBRANCH  16  18
ENDBRANCH  11  14
ENDBRANCH   6   8
BRANCH   1  22
HETATM   22  C3  UNL     1      38.942  28.089  33.398  1.00  0.00     0.174 A 
HETATM   23  N2  UNL     1      39.665  26.961  33.486  1.00  0.00    -0.277 N 
HETATM   24  N1  UNL     1      39.205  26.235  34.495  1.00  0.00    -0.281 N 
ATOM     25  H2  UNL     1      40.441  26.704  32.877  1.00  0.00     0.189 HD
HETATM   26  C2  UNL     1      38.178  26.918  35.044  1.00  0.00     0.136 A 
ATOM     27  H1  UNL     1      39.561  25.328  34.800  1.00  0.00     0.189 HD
HETATM   28  C1  UNL     1      37.388  26.440  36.208  1.00  0.00     0.099 C 
HETATM   29  O2  UNL     1      38.056  28.020  34.357  1.00  0.00    -0.278 OA
ENDBRANCH   1  22
TORSDOF 5
ENDMDL
