MODEL 9
REMARK VINA RESULT: -9.298903010      2.217      9.523
REMARK  5 active torsions:
REMARK  status: ('A' for Active; 'I' for Inactive)
REMARK    1  A    between atoms: C3_7  and  C4_8 
REMARK    2  A    between atoms: C9_13  and  C10_14 
REMARK    3  A    between atoms: C13_17  and  C14_18 
REMARK       I    between atoms: C14_18  and  N3_20 
REMARK    4  A    between atoms: N3_20  and  C15_22 
REMARK    5  A    between atoms: C15_22  and  C16_23 
ROOT
HETATM    1  C4  UNL     1      47.182  33.386  30.817  1.00  0.00     0.018 A 
HETATM    2  C5  UNL     1      47.292  34.496  31.638  1.00  0.00     0.016 A 
HETATM    3  C6  UNL     1      46.289  34.851  32.510  1.00  0.00     0.008 A 
HETATM    4  C7  UNL     1      45.133  34.077  32.570  1.00  0.00    -0.051 A 
HETATM    5  C8  UNL     1      44.076  34.481  33.500  1.00  0.00     0.049 C 
HETATM    6  C9  UNL     1      44.996  32.980  31.776  1.00  0.00    -0.019 A 
HETATM    7  C21 UNL     1      46.031  32.635  30.893  1.00  0.00     0.028 A 
ENDROOT
BRANCH   6   8
HETATM    8  C10 UNL     1      43.785  32.174  31.855  1.00  0.00    -0.025 A 
HETATM    9  C11 UNL     1      42.525  32.650  31.584  1.00  0.00     0.013 A 
HETATM   10  C12 UNL     1      41.399  31.837  31.669  1.00  0.00     0.018 A 
HETATM   11  C13 UNL     1      41.481  30.514  32.029  1.00  0.00     0.032 A 
HETATM   12  C19 UNL     1      42.768  30.032  32.305  1.00  0.00     0.018 A 
HETATM   13  C20 UNL     1      43.879  30.836  32.221  1.00  0.00     0.013 A 
BRANCH  11  14
HETATM   14  C14 UNL     1      40.342  29.611  32.137  1.00  0.00     0.251 C 
HETATM   15  O1  UNL     1      39.433  29.634  31.238  1.00  0.00    -0.268 OA
HETATM   16  N3  UNL     1      40.209  28.703  33.215  1.00  0.00    -0.356 N 
ATOM     17  H3  UNL     1      40.932  28.683  33.934  1.00  0.00     0.162 HD
BRANCH  16  18
HETATM   18  C15 UNL     1      39.077  27.799  33.332  1.00  0.00     0.127 C 
BRANCH  18  19
HETATM   19  C16 UNL     1      39.144  27.025  34.626  1.00  0.00     0.003 A 
HETATM   20  C17 UNL     1      37.837  26.724  35.270  1.00  0.00     0.007 A 
HETATM   21  C18 UNL     1      38.790  27.685  35.920  1.00  0.00     0.007 A 
ENDBRANCH  18  19
ENDBRANCH  16  18
ENDBRANCH  11  14
ENDBRANCH   6   8
BRANCH   1  22
HETATM   22  C3  UNL     1      48.253  33.026  29.900  1.00  0.00     0.174 A 
HETATM   23  N2  UNL     1      48.070  32.639  28.627  1.00  0.00    -0.277 N 
HETATM   24  N1  UNL     1      49.251  32.388  28.082  1.00  0.00    -0.281 N 
ATOM     25  H2  UNL     1      47.169  32.552  28.157  1.00  0.00     0.189 HD
HETATM   26  C2  UNL     1      50.185  32.620  29.028  1.00  0.00     0.136 A 
ATOM     27  H1  UNL     1      49.422  32.078  27.125  1.00  0.00     0.189 HD
HETATM   28  C1  UNL     1      51.647  32.453  28.814  1.00  0.00     0.099 C 
HETATM   29  O2  UNL     1      49.544  33.000  30.099  1.00  0.00    -0.278 OA
ENDBRANCH   1  22
TORSDOF 5
ENDMDL
