MODEL 7
REMARK VINA RESULT: -9.547073558      3.096     10.629
REMARK  5 active torsions:
REMARK  status: ('A' for Active; 'I' for Inactive)
REMARK    1  A    between atoms: C3_7  and  C4_8 
REMARK    2  A    between atoms: C9_13  and  C10_14 
REMARK    3  A    between atoms: C13_17  and  C14_18 
REMARK       I    between atoms: C14_18  and  N3_20 
REMARK    4  A    between atoms: N3_20  and  C15_22 
REMARK    5  A    between atoms: C15_22  and  C16_23 
ROOT
HETATM    1  C4  UNL     1      49.006  34.911  30.252  1.00  0.00     0.018 A 
HETATM    2  C5  UNL     1      49.858  34.435  31.235  1.00  0.00     0.016 A 
HETATM    3  C6  UNL     1      49.413  33.596  32.231  1.00  0.00     0.008 A 
HETATM    4  C7  UNL     1      48.074  33.216  32.253  1.00  0.00    -0.051 A 
HETATM    5  C8  UNL     1      47.623  32.329  33.329  1.00  0.00     0.049 C 
HETATM    6  C9  UNL     1      47.213  33.666  31.300  1.00  0.00    -0.019 A 
HETATM    7  C21 UNL     1      47.686  34.522  30.293  1.00  0.00     0.028 A 
ENDROOT
BRANCH   6   8
HETATM    8  C10 UNL     1      45.816  33.253  31.330  1.00  0.00    -0.025 A 
HETATM    9  C11 UNL     1      45.327  32.146  30.680  1.00  0.00     0.013 A 
HETATM   10  C12 UNL     1      43.984  31.791  30.744  1.00  0.00     0.018 A 
HETATM   11  C13 UNL     1      43.069  32.525  31.459  1.00  0.00     0.032 A 
HETATM   12  C19 UNL     1      43.571  33.654  32.122  1.00  0.00     0.018 A 
HETATM   13  C20 UNL     1      44.899  34.003  32.057  1.00  0.00     0.013 A 
BRANCH  11  14
HETATM   14  C14 UNL     1      41.651  32.207  31.566  1.00  0.00     0.251 C 
HETATM   15  O1  UNL     1      41.063  32.319  32.695  1.00  0.00    -0.268 OA
HETATM   16  N3  UNL     1      40.897  31.773  30.447  1.00  0.00    -0.356 N 
ATOM     17  H3  UNL     1      41.363  31.682  29.545  1.00  0.00     0.162 HD
BRANCH  16  18
HETATM   18  C15 UNL     1      39.483  31.454  30.542  1.00  0.00     0.127 C 
BRANCH  18  19
HETATM   19  C16 UNL     1      39.286  30.037  31.023  1.00  0.00     0.003 A 
HETATM   20  C17 UNL     1      37.875  29.610  31.223  1.00  0.00     0.007 A 
HETATM   21  C18 UNL     1      38.785  29.772  32.406  1.00  0.00     0.007 A 
ENDBRANCH  18  19
ENDBRANCH  16  18
ENDBRANCH  11  14
ENDBRANCH   6   8
BRANCH   1  22
HETATM   22  C3  UNL     1      49.494  35.798  29.207  1.00  0.00     0.174 A 
HETATM   23  N2  UNL     1      50.790  36.041  28.955  1.00  0.00    -0.277 N 
HETATM   24  N1  UNL     1      50.878  36.891  27.942  1.00  0.00    -0.281 N 
ATOM     25  H2  UNL     1      51.579  35.637  29.460  1.00  0.00     0.189 HD
HETATM   26  C2  UNL     1      49.618  37.184  27.557  1.00  0.00     0.136 A 
ATOM     27  H1  UNL     1      51.738  37.255  27.531  1.00  0.00     0.189 HD
HETATM   28  C1  UNL     1      49.282  38.110  26.443  1.00  0.00     0.099 C 
HETATM   29  O2  UNL     1      48.822  36.509  28.340  1.00  0.00    -0.278 OA
ENDBRANCH   1  22
TORSDOF 5
ENDMDL
