MODEL 8
REMARK VINA RESULT: -8.423514693      2.526      7.031
REMARK  9 active torsions:
REMARK  status: ('A' for Active; 'I' for Inactive)
REMARK    1  A    between atoms: N1_1  and  C1_5 
REMARK    2  A    between atoms: C1_5  and  C2_6 
REMARK    3  A    between atoms: C1_5  and  C9_13 
REMARK    4  A    between atoms: C2_6  and  C3_7 
REMARK    5  A    between atoms: C9_13  and  O1_14 
REMARK    6  A    between atoms: C9_13  and  N2_16 
REMARK    7  A    between atoms: C13_20  and  C14_21 
REMARK       I    between atoms: C14_21  and  N3_23 
REMARK    8  A    between atoms: N3_23  and  C15_25 
REMARK    9  A    between atoms: C15_25  and  C16_26 
ROOT
HETATM    1  N2  UNL     1      14.870 -12.226  20.093  1.00  0.00    -0.350 N 
HETATM    2  C10 UNL     1      14.187 -11.387  19.160  1.00  0.00     0.126 C 
HETATM    3  C11 UNL     1      14.663 -11.896  17.777  1.00  0.00     0.022 C 
HETATM    4  C12 UNL     1      16.114 -12.108  18.103  1.00  0.00     0.037 C 
HETATM    5  C13 UNL     1      16.084 -12.698  19.463  1.00  0.00     0.178 C 
ENDROOT
BRANCH   1   6
HETATM    6  C9  UNL     1      14.530 -12.583  21.409  1.00  0.00     0.145 C 
BRANCH   6   7
HETATM    7  C1  UNL     1      13.235 -13.060  21.875  1.00  0.00     0.261 C 
BRANCH   7   8
HETATM    8  N1  UNL     1      12.855 -14.364  21.508  1.00  0.00    -0.067 N 
ATOM      9  H13 UNL     1      12.310 -14.365  20.646  1.00  0.00     0.275 HD
ATOM     10  H12 UNL     1      13.655 -14.911  21.191  1.00  0.00     0.275 HD
ATOM     11  H11 UNL     1      12.358 -14.834  22.265  1.00  0.00     0.275 HD
ENDBRANCH   7   8
BRANCH   7  12
HETATM   12  C2  UNL     1      12.174 -12.031  21.470  1.00  0.00     0.079 C 
BRANCH  12  13
HETATM   13  C3  UNL     1      12.086 -10.914  22.411  1.00  0.00    -0.056 A 
HETATM   14  C4  UNL     1      12.789  -9.741  22.270  1.00  0.00     0.007 A 
HETATM   15  C5  UNL     1      12.626  -8.746  23.210  1.00  0.00     0.001 A 
HETATM   16  C6  UNL     1      11.788  -8.873  24.288  1.00  0.00     0.000 A 
HETATM   17  C7  UNL     1      11.088 -10.038  24.429  1.00  0.00     0.001 A 
HETATM   18  C8  UNL     1      11.227 -11.051  23.509  1.00  0.00     0.007 A 
ENDBRANCH  12  13
ENDBRANCH   7  12
ENDBRANCH   6   7
BRANCH   6  19
HETATM   19  O1  UNL     1      15.461 -12.479  22.313  1.00  0.00    -0.348 OA
ATOM     20  H1  UNL     1      15.734 -13.289  22.727  1.00  0.00     0.219 HD
ENDBRANCH   6  19
ENDBRANCH   1   6
BRANCH   5  21
HETATM   21  C14 UNL     1      17.293 -12.371  20.259  1.00  0.00     0.240 C 
HETATM   22  O2  UNL     1      17.550 -11.151  20.442  1.00  0.00    -0.271 OA
HETATM   23  N3  UNL     1      18.159 -13.324  20.818  1.00  0.00    -0.355 N 
ATOM     24  H3  UNL     1      17.951 -14.313  20.678  1.00  0.00     0.162 HD
BRANCH  23  25
HETATM   25  C15 UNL     1      19.351 -12.960  21.595  1.00  0.00     0.161 C 
BRANCH  25  26
HETATM   26  C16 UNL     1      19.136 -13.382  23.004  1.00  0.00    -0.039 A 
HETATM   27  C17 UNL     1      18.145 -14.282  23.334  1.00  0.00     0.009 A 
HETATM   28  C18 UNL     1      17.942 -14.675  24.641  1.00  0.00     0.002 A 
HETATM   29  C19 UNL     1      18.729 -14.179  25.677  1.00  0.00     0.024 A 
HETATM   30  C20 UNL     1      19.713 -13.281  25.330  1.00  0.00     0.034 A 
HETATM   31 CL1  UNL     1      20.761 -12.598  26.581  1.00  0.00    -0.084 Cl
HETATM   32  C21 UNL     1      19.933 -12.874  24.034  1.00  0.00     0.032 A 
ENDBRANCH  25  26
ENDBRANCH  23  25
ENDBRANCH   5  21
TORSDOF 9
ENDMDL
