MODEL 1
REMARK VINA RESULT: -9.433017264      0.000      0.000
REMARK  9 active torsions:
REMARK  status: ('A' for Active; 'I' for Inactive)
REMARK    1  A    between atoms: N1_1  and  C1_5 
REMARK    2  A    between atoms: C1_5  and  C2_6 
REMARK    3  A    between atoms: C1_5  and  C9_13 
REMARK    4  A    between atoms: C2_6  and  C3_7 
REMARK    5  A    between atoms: C9_13  and  O1_14 
REMARK    6  A    between atoms: C9_13  and  N2_16 
REMARK    7  A    between atoms: C13_20  and  C14_21 
REMARK       I    between atoms: C14_21  and  N3_23 
REMARK    8  A    between atoms: N3_23  and  C15_25 
REMARK    9  A    between atoms: C15_25  and  C16_26 
ROOT
HETATM    1  N2  UNL     1      18.096 -13.200  21.796  1.00  0.00    -0.350 N 
HETATM    2  C10 UNL     1      19.241 -13.763  21.154  1.00  0.00     0.126 C 
HETATM    3  C11 UNL     1      20.037 -12.531  20.657  1.00  0.00     0.022 C 
HETATM    4  C12 UNL     1      18.885 -11.700  20.167  1.00  0.00     0.037 C 
HETATM    5  C13 UNL     1      17.843 -11.904  21.203  1.00  0.00     0.178 C 
ENDROOT
BRANCH   1   6
HETATM    6  C9  UNL     1      17.278 -13.723  22.812  1.00  0.00     0.145 C 
BRANCH   6   7
HETATM    7  C1  UNL     1      17.596 -14.830  23.703  1.00  0.00     0.261 C 
BRANCH   7   8
HETATM    8  N1  UNL     1      16.567 -15.746  23.991  1.00  0.00    -0.067 N 
ATOM      9  H13 UNL     1      16.894 -16.496  24.600  1.00  0.00     0.275 HD
ATOM     10  H12 UNL     1      15.864 -15.337  24.606  1.00  0.00     0.275 HD
ATOM     11  H11 UNL     1      16.146 -16.115  23.137  1.00  0.00     0.275 HD
ENDBRANCH   7   8
BRANCH   7  12
HETATM   12  C2  UNL     1      18.206 -14.252  24.984  1.00  0.00     0.079 C 
BRANCH  12  13
HETATM   13  C3  UNL     1      19.636 -13.972  24.849  1.00  0.00    -0.056 A 
HETATM   14  C4  UNL     1      20.545 -14.871  24.344  1.00  0.00     0.007 A 
HETATM   15  C5  UNL     1      21.870 -14.502  24.251  1.00  0.00     0.001 A 
HETATM   16  C6  UNL     1      22.328 -13.270  24.642  1.00  0.00     0.000 A 
HETATM   17  C7  UNL     1      21.425 -12.375  25.143  1.00  0.00     0.001 A 
HETATM   18  C8  UNL     1      20.096 -12.710  25.250  1.00  0.00     0.007 A 
ENDBRANCH  12  13
ENDBRANCH   7  12
ENDBRANCH   6   7
BRANCH   6  19
HETATM   19  O1  UNL     1      16.113 -13.167  22.983  1.00  0.00    -0.348 OA
ATOM     20  H1  UNL     1      16.070 -12.478  23.635  1.00  0.00     0.219 HD
ENDBRANCH   6  19
ENDBRANCH   1   6
BRANCH   5  21
HETATM   21  C14 UNL     1      16.466 -11.793  20.663  1.00  0.00     0.240 C 
HETATM   22  O2  UNL     1      16.115 -12.640  19.799  1.00  0.00    -0.271 OA
HETATM   23  N3  UNL     1      15.536 -10.815  21.052  1.00  0.00    -0.355 N 
ATOM     24  H3  UNL     1      15.813 -10.132  21.757  1.00  0.00     0.162 HD
BRANCH  23  25
HETATM   25  C15 UNL     1      14.182 -10.734  20.488  1.00  0.00     0.161 C 
BRANCH  25  26
HETATM   26  C16 UNL     1      13.220 -10.564  21.609  1.00  0.00    -0.039 A 
HETATM   27  C17 UNL     1      12.334 -11.566  21.946  1.00  0.00     0.009 A 
HETATM   28  C18 UNL     1      11.441 -11.412  22.985  1.00  0.00     0.002 A 
HETATM   29  C19 UNL     1      11.397 -10.239  23.734  1.00  0.00     0.024 A 
HETATM   30  C20 UNL     1      12.287  -9.249  23.385  1.00  0.00     0.034 A 
HETATM   31 CL1  UNL     1      12.303  -7.725  24.283  1.00  0.00    -0.084 Cl
HETATM   32  C21 UNL     1      13.187  -9.381  22.352  1.00  0.00     0.032 A 
ENDBRANCH  25  26
ENDBRANCH  23  25
ENDBRANCH   5  21
TORSDOF 9
ENDMDL
