MODEL 9
REMARK VINA RESULT: -8.364790172      3.352      6.096
REMARK  9 active torsions:
REMARK  status: ('A' for Active; 'I' for Inactive)
REMARK    1  A    between atoms: N1_1  and  C1_5 
REMARK    2  A    between atoms: C1_5  and  C2_6 
REMARK    3  A    between atoms: C1_5  and  C9_13 
REMARK    4  A    between atoms: C2_6  and  C3_7 
REMARK    5  A    between atoms: C9_13  and  O1_14 
REMARK    6  A    between atoms: C9_13  and  N2_16 
REMARK    7  A    between atoms: C13_20  and  C14_21 
REMARK       I    between atoms: C14_21  and  N3_23 
REMARK    8  A    between atoms: N3_23  and  C15_25 
REMARK    9  A    between atoms: C15_25  and  C16_26 
ROOT
HETATM    1  N2  UNL     1      13.955 -10.907  20.804  1.00  0.00    -0.350 N 
HETATM    2  C10 UNL     1      13.172  -9.736  20.564  1.00  0.00     0.126 C 
HETATM    3  C11 UNL     1      12.305  -9.595  21.839  1.00  0.00     0.022 C 
HETATM    4  C12 UNL     1      11.958 -11.044  22.037  1.00  0.00     0.037 C 
HETATM    5  C13 UNL     1      13.224 -11.751  21.726  1.00  0.00     0.178 C 
ENDROOT
BRANCH   1   6
HETATM    6  C9  UNL     1      15.205 -11.284  20.285  1.00  0.00     0.145 C 
BRANCH   6   7
HETATM    7  C1  UNL     1      16.366 -11.727  21.045  1.00  0.00     0.261 C 
BRANCH   7   8
HETATM    8  N1  UNL     1      17.514 -10.916  21.005  1.00  0.00    -0.067 N 
ATOM      9  H13 UNL     1      18.054 -11.075  20.154  1.00  0.00     0.275 HD
ATOM     10  H12 UNL     1      17.275  -9.936  20.859  1.00  0.00     0.275 HD
ATOM     11  H11 UNL     1      18.088 -11.040  21.839  1.00  0.00     0.275 HD
ENDBRANCH   7   8
BRANCH   7  12
HETATM   12  C2  UNL     1      16.682 -13.169  20.634  1.00  0.00     0.079 C 
BRANCH  12  13
HETATM   13  C3  UNL     1      17.459 -13.885  21.647  1.00  0.00    -0.056 A 
HETATM   14  C4  UNL     1      18.611 -14.584  21.372  1.00  0.00     0.007 A 
HETATM   15  C5  UNL     1      19.272 -15.215  22.403  1.00  0.00     0.001 A 
HETATM   16  C6  UNL     1      18.831 -15.179  23.701  1.00  0.00     0.000 A 
HETATM   17  C7  UNL     1      17.687 -14.483  23.976  1.00  0.00     0.001 A 
HETATM   18  C8  UNL     1      17.003 -13.842  22.971  1.00  0.00     0.007 A 
ENDBRANCH  12  13
ENDBRANCH   7  12
ENDBRANCH   6   7
BRANCH   6  19
HETATM   19  O1  UNL     1      15.352 -11.235  18.992  1.00  0.00    -0.348 OA
ATOM     20  H1  UNL     1      14.851 -11.867  18.490  1.00  0.00     0.219 HD
ENDBRANCH   6  19
ENDBRANCH   1   6
BRANCH   5  21
HETATM   21  C14 UNL     1      13.003 -13.114  21.184  1.00  0.00     0.240 C 
HETATM   22  O2  UNL     1      12.323 -13.211  20.127  1.00  0.00    -0.271 OA
HETATM   23  N3  UNL     1      13.501 -14.291  21.765  1.00  0.00    -0.355 N 
ATOM     24  H3  UNL     1      14.058 -14.217  22.616  1.00  0.00     0.162 HD
BRANCH  23  25
HETATM   25  C15 UNL     1      13.255 -15.625  21.201  1.00  0.00     0.161 C 
BRANCH  25  26
HETATM   26  C16 UNL     1      14.525 -16.396  21.256  1.00  0.00    -0.039 A 
HETATM   27  C17 UNL     1      15.254 -16.649  20.112  1.00  0.00     0.009 A 
HETATM   28  C18 UNL     1      16.432 -17.364  20.159  1.00  0.00     0.002 A 
HETATM   29  C19 UNL     1      16.932 -17.858  21.361  1.00  0.00     0.024 A 
HETATM   30  C20 UNL     1      16.193 -17.597  22.493  1.00  0.00     0.034 A 
HETATM   31 CL1  UNL     1      16.752 -18.186  24.064  1.00  0.00    -0.084 Cl
HETATM   32  C21 UNL     1      15.014 -16.886  22.470  1.00  0.00     0.032 A 
ENDBRANCH  25  26
ENDBRANCH  23  25
ENDBRANCH   5  21
TORSDOF 9
ENDMDL
