MODEL 7
REMARK VINA RESULT: -8.583698654      0.948      1.594
REMARK  9 active torsions:
REMARK  status: ('A' for Active; 'I' for Inactive)
REMARK    1  A    between atoms: N1_1  and  C1_5 
REMARK    2  A    between atoms: C1_5  and  C2_6 
REMARK    3  A    between atoms: C1_5  and  C9_13 
REMARK    4  A    between atoms: C2_6  and  C3_7 
REMARK    5  A    between atoms: C9_13  and  O1_14 
REMARK    6  A    between atoms: C9_13  and  N2_16 
REMARK    7  A    between atoms: C13_20  and  C14_21 
REMARK       I    between atoms: C14_21  and  N3_23 
REMARK    8  A    between atoms: N3_23  and  C15_25 
REMARK    9  A    between atoms: C15_25  and  C16_26 
ROOT
HETATM    1  N2  UNL     1      18.125 -13.303  21.817  1.00  0.00    -0.350 N 
HETATM    2  C10 UNL     1      19.232 -13.917  21.156  1.00  0.00     0.126 C 
HETATM    3  C11 UNL     1      20.038 -12.725  20.583  1.00  0.00     0.022 C 
HETATM    4  C12 UNL     1      18.888 -11.885  20.104  1.00  0.00     0.037 C 
HETATM    5  C13 UNL     1      17.881 -12.024  21.184  1.00  0.00     0.178 C 
ENDROOT
BRANCH   1   6
HETATM    6  C9  UNL     1      17.335 -13.766  22.883  1.00  0.00     0.145 C 
BRANCH   6   7
HETATM    7  C1  UNL     1      17.688 -14.801  23.844  1.00  0.00     0.261 C 
BRANCH   7   8
HETATM    8  N1  UNL     1      16.688 -15.724  24.200  1.00  0.00    -0.067 N 
ATOM      9  H13 UNL     1      16.407 -15.613  25.174  1.00  0.00     0.275 HD
ATOM     10  H12 UNL     1      15.799 -15.502  23.752  1.00  0.00     0.275 HD
ATOM     11  H11 UNL     1      16.977 -16.682  24.002  1.00  0.00     0.275 HD
ENDBRANCH   7   8
BRANCH   7  12
HETATM   12  C2  UNL     1      18.287 -14.119  25.080  1.00  0.00     0.079 C 
BRANCH  12  13
HETATM   13  C3  UNL     1      19.715 -13.836  24.929  1.00  0.00    -0.056 A 
HETATM   14  C4  UNL     1      20.294 -12.633  25.258  1.00  0.00     0.007 A 
HETATM   15  C5  UNL     1      21.652 -12.475  25.086  1.00  0.00     0.001 A 
HETATM   16  C6  UNL     1      22.460 -13.469  24.597  1.00  0.00     0.000 A 
HETATM   17  C7  UNL     1      21.886 -14.666  24.271  1.00  0.00     0.001 A 
HETATM   18  C8  UNL     1      20.534 -14.858  24.430  1.00  0.00     0.007 A 
ENDBRANCH  12  13
ENDBRANCH   7  12
ENDBRANCH   6   7
BRANCH   6  19
HETATM   19  O1  UNL     1      16.162 -13.221  23.033  1.00  0.00    -0.348 OA
ATOM     20  H1  UNL     1      15.972 -12.867  23.894  1.00  0.00     0.219 HD
ENDBRANCH   6  19
ENDBRANCH   1   6
BRANCH   5  21
HETATM   21  C14 UNL     1      16.488 -11.898  20.692  1.00  0.00     0.240 C 
HETATM   22  O2  UNL     1      16.078 -12.780  19.890  1.00  0.00    -0.271 OA
HETATM   23  N3  UNL     1      15.603 -10.872  21.061  1.00  0.00    -0.355 N 
ATOM     24  H3  UNL     1      15.928 -10.160  21.715  1.00  0.00     0.162 HD
BRANCH  23  25
HETATM   25  C15 UNL     1      14.231 -10.778  20.545  1.00  0.00     0.161 C 
BRANCH  25  26
HETATM   26  C16 UNL     1      13.342 -10.356  21.660  1.00  0.00    -0.039 A 
HETATM   27  C17 UNL     1      13.410  -9.081  22.181  1.00  0.00     0.009 A 
HETATM   28  C18 UNL     1      12.587  -8.687  23.215  1.00  0.00     0.002 A 
HETATM   29  C19 UNL     1      11.656  -9.559  23.774  1.00  0.00     0.024 A 
HETATM   30  C20 UNL     1      11.602 -10.828  23.242  1.00  0.00     0.034 A 
HETATM   31 CL1  UNL     1      10.449 -12.004  23.889  1.00  0.00    -0.084 Cl
HETATM   32  C21 UNL     1      12.413 -11.244  22.211  1.00  0.00     0.032 A 
ENDBRANCH  25  26
ENDBRANCH  23  25
ENDBRANCH   5  21
TORSDOF 9
ENDMDL
