MODEL 13
REMARK VINA RESULT: -8.236061112      1.241      1.853
REMARK  9 active torsions:
REMARK  status: ('A' for Active; 'I' for Inactive)
REMARK    1  A    between atoms: N1_1  and  C1_5 
REMARK    2  A    between atoms: C1_5  and  C2_6 
REMARK    3  A    between atoms: C1_5  and  C9_13 
REMARK    4  A    between atoms: C2_6  and  C3_7 
REMARK    5  A    between atoms: C9_13  and  O1_14 
REMARK    6  A    between atoms: C9_13  and  N2_16 
REMARK    7  A    between atoms: C13_20  and  C14_21 
REMARK       I    between atoms: C14_21  and  N3_23 
REMARK    8  A    between atoms: N3_23  and  C15_25 
REMARK    9  A    between atoms: C15_25  and  C16_26 
ROOT
HETATM    1  N2  UNL     1      18.023 -13.184  21.657  1.00  0.00    -0.350 N 
HETATM    2  C10 UNL     1      19.164 -13.751  21.011  1.00  0.00     0.126 C 
HETATM    3  C11 UNL     1      20.036 -12.526  20.643  1.00  0.00     0.022 C 
HETATM    4  C12 UNL     1      18.945 -11.601  20.183  1.00  0.00     0.037 C 
HETATM    5  C13 UNL     1      17.855 -11.834  21.162  1.00  0.00     0.178 C 
ENDROOT
BRANCH   1   6
HETATM    6  C9  UNL     1      17.143 -13.743  22.599  1.00  0.00     0.145 C 
BRANCH   6   7
HETATM    7  C1  UNL     1      17.277 -15.036  23.256  1.00  0.00     0.261 C 
BRANCH   7   8
HETATM    8  N1  UNL     1      16.229 -15.959  23.089  1.00  0.00    -0.067 N 
ATOM      9  H13 UNL     1      15.969 -16.393  23.975  1.00  0.00     0.275 HD
ATOM     10  H12 UNL     1      15.349 -15.491  22.877  1.00  0.00     0.275 HD
ATOM     11  H11 UNL     1      16.458 -16.660  22.384  1.00  0.00     0.275 HD
ENDBRANCH   7   8
BRANCH   7  12
HETATM   12  C2  UNL     1      17.576 -14.789  24.739  1.00  0.00     0.079 C 
BRANCH  12  13
HETATM   13  C3  UNL     1      18.643 -15.650  25.249  1.00  0.00    -0.056 A 
HETATM   14  C4  UNL     1      19.978 -15.323  25.198  1.00  0.00     0.007 A 
HETATM   15  C5  UNL     1      20.902 -16.204  25.716  1.00  0.00     0.001 A 
HETATM   16  C6  UNL     1      20.551 -17.401  26.285  1.00  0.00     0.000 A 
HETATM   17  C7  UNL     1      19.225 -17.728  26.337  1.00  0.00     0.001 A 
HETATM   18  C8  UNL     1      18.276 -16.871  25.829  1.00  0.00     0.007 A 
ENDBRANCH  12  13
ENDBRANCH   7  12
ENDBRANCH   6   7
BRANCH   6  19
HETATM   19  O1  UNL     1      16.096 -13.042  22.924  1.00  0.00    -0.348 OA
ATOM     20  H1  UNL     1      16.024 -12.185  22.520  1.00  0.00     0.219 HD
ENDBRANCH   6  19
ENDBRANCH   1   6
BRANCH   5  21
HETATM   21  C14 UNL     1      16.507 -11.610  20.587  1.00  0.00     0.240 C 
HETATM   22  O2  UNL     1      16.250 -12.168  19.486  1.00  0.00    -0.271 OA
HETATM   23  N3  UNL     1      15.506 -10.827  21.186  1.00  0.00    -0.355 N 
ATOM     24  H3  UNL     1      15.707 -10.380  22.080  1.00  0.00     0.162 HD
BRANCH  23  25
HETATM   25  C15 UNL     1      14.183 -10.624  20.580  1.00  0.00     0.161 C 
BRANCH  25  26
HETATM   26  C16 UNL     1      13.186 -10.487  21.674  1.00  0.00    -0.039 A 
HETATM   27  C17 UNL     1      12.297 -11.502  21.959  1.00  0.00     0.009 A 
HETATM   28  C18 UNL     1      11.371 -11.377  22.973  1.00  0.00     0.002 A 
HETATM   29  C19 UNL     1      11.296 -10.224  23.748  1.00  0.00     0.024 A 
HETATM   30  C20 UNL     1      12.190  -9.220  23.452  1.00  0.00     0.034 A 
HETATM   31 CL1  UNL     1      12.169  -7.718  24.385  1.00  0.00    -0.084 Cl
HETATM   32  C21 UNL     1      13.123  -9.322  22.444  1.00  0.00     0.032 A 
ENDBRANCH  25  26
ENDBRANCH  23  25
ENDBRANCH   5  21
TORSDOF 9
ENDMDL
