MODEL 6
REMARK VINA RESULT: -8.591279241      2.620      7.239
REMARK  9 active torsions:
REMARK  status: ('A' for Active; 'I' for Inactive)
REMARK    1  A    between atoms: N1_1  and  C1_5 
REMARK    2  A    between atoms: C1_5  and  C2_6 
REMARK    3  A    between atoms: C1_5  and  C9_13 
REMARK    4  A    between atoms: C2_6  and  C3_7 
REMARK    5  A    between atoms: C9_13  and  O1_14 
REMARK    6  A    between atoms: C9_13  and  N2_16 
REMARK    7  A    between atoms: C13_20  and  C14_21 
REMARK       I    between atoms: C14_21  and  N3_23 
REMARK    8  A    between atoms: N3_23  and  C15_25 
REMARK    9  A    between atoms: C15_25  and  C16_26 
ROOT
HETATM    1  N2  UNL     1      15.260 -13.003  19.776  1.00  0.00    -0.350 N 
HETATM    2  C10 UNL     1      15.169 -11.800  19.011  1.00  0.00     0.126 C 
HETATM    3  C11 UNL     1      16.572 -11.652  18.373  1.00  0.00     0.022 C 
HETATM    4  C12 UNL     1      17.403 -12.061  19.557  1.00  0.00     0.037 C 
HETATM    5  C13 UNL     1      16.649 -13.199  20.136  1.00  0.00     0.178 C 
ENDROOT
BRANCH   1   6
HETATM    6  C9  UNL     1      14.256 -13.899  20.181  1.00  0.00     0.145 C 
BRANCH   6   7
HETATM    7  C1  UNL     1      13.323 -13.721  21.285  1.00  0.00     0.261 C 
BRANCH   7   8
HETATM    8  N1  UNL     1      12.723 -14.876  21.819  1.00  0.00    -0.067 N 
ATOM      9  H13 UNL     1      13.393 -15.434  22.348  1.00  0.00     0.275 HD
ATOM     10  H12 UNL     1      12.077 -14.647  22.574  1.00  0.00     0.275 HD
ATOM     11  H11 UNL     1      12.267 -15.429  21.093  1.00  0.00     0.275 HD
ENDBRANCH   7   8
BRANCH   7  12
HETATM   12  C2  UNL     1      12.273 -12.689  20.860  1.00  0.00     0.079 C 
BRANCH  12  13
HETATM   13  C3  UNL     1      12.167 -11.574  21.803  1.00  0.00    -0.056 A 
HETATM   14  C4  UNL     1      11.296 -11.555  22.866  1.00  0.00     0.007 A 
HETATM   15  C5  UNL     1      11.284 -10.457  23.700  1.00  0.00     0.001 A 
HETATM   16  C6  UNL     1      12.105  -9.375  23.517  1.00  0.00     0.000 A 
HETATM   17  C7  UNL     1      12.972  -9.393  22.460  1.00  0.00     0.001 A 
HETATM   18  C8  UNL     1      13.010 -10.473  21.609  1.00  0.00     0.007 A 
ENDBRANCH  12  13
ENDBRANCH   7  12
ENDBRANCH   6   7
BRANCH   6  19
HETATM   19  O1  UNL     1      14.140 -15.006  19.506  1.00  0.00    -0.348 OA
ATOM     20  H1  UNL     1      14.036 -15.799  20.018  1.00  0.00     0.219 HD
ENDBRANCH   6  19
ENDBRANCH   1   6
BRANCH   5  21
HETATM   21  C14 UNL     1      16.836 -13.328  21.601  1.00  0.00     0.240 C 
HETATM   22  O2  UNL     1      16.357 -12.416  22.326  1.00  0.00    -0.271 OA
HETATM   23  N3  UNL     1      17.505 -14.393  22.227  1.00  0.00    -0.355 N 
ATOM     24  H3  UNL     1      17.889 -15.137  21.645  1.00  0.00     0.162 HD
BRANCH  23  25
HETATM   25  C15 UNL     1      17.677 -14.481  23.684  1.00  0.00     0.161 C 
BRANCH  25  26
HETATM   26  C16 UNL     1      19.003 -13.907  24.032  1.00  0.00    -0.039 A 
HETATM   27  C17 UNL     1      19.996 -13.780  23.084  1.00  0.00     0.009 A 
HETATM   28  C18 UNL     1      21.227 -13.248  23.404  1.00  0.00     0.002 A 
HETATM   29  C19 UNL     1      21.517 -12.819  24.696  1.00  0.00     0.024 A 
HETATM   30  C20 UNL     1      20.515 -12.952  25.631  1.00  0.00     0.034 A 
HETATM   31 CL1  UNL     1      20.793 -12.432  27.299  1.00  0.00    -0.084 Cl
HETATM   32  C21 UNL     1      19.279 -13.480  25.334  1.00  0.00     0.032 A 
ENDBRANCH  25  26
ENDBRANCH  23  25
ENDBRANCH   5  21
TORSDOF 9
ENDMDL
