MODEL 1
REMARK VINA RESULT: -9.798410734      0.000      0.000
REMARK  8 active torsions:
REMARK  status: ('A' for Active; 'I' for Inactive)
REMARK    1  A    between atoms: P1_2  and  C1_5 
REMARK    2  A    between atoms: C1_5  and  C2_6 
REMARK    3  A    between atoms: C1_5  and  S1_22 
REMARK    4  A    between atoms: C2_6  and  C3_7 
REMARK    5  A    between atoms: C3_7  and  C4_8 
REMARK    6  A    between atoms: C4_8  and  C5_9 
REMARK    7  A    between atoms: C9_13  and  O4_14 
REMARK    8  A    between atoms: O4_14  and  C10_15 
ROOT
HETATM    1  C5  UNL     1      14.954  55.846  39.563  1.00  0.00    -0.056 A 
HETATM    2  C6  UNL     1      14.763  55.700  40.934  1.00  0.00     0.007 A 
HETATM    3  C7  UNL     1      14.338  56.769  41.696  1.00  0.00     0.003 A 
HETATM    4  C8  UNL     1      14.101  57.997  41.094  1.00  0.00     0.037 A 
HETATM    5  C9  UNL     1      14.284  58.161  39.739  1.00  0.00     0.076 A 
HETATM    6  C16 UNL     1      14.708  57.071  39.014  1.00  0.00     0.044 A 
ENDROOT
BRANCH   1   7
HETATM    7  C4  UNL     1      15.405  54.713  38.721  1.00  0.00     0.039 C 
BRANCH   7   8
HETATM    8  C3  UNL     1      16.735  54.237  39.269  1.00  0.00     0.007 C 
BRANCH   8   9
HETATM    9  C2  UNL     1      17.861  54.443  38.336  1.00  0.00     0.037 C 
BRANCH   9  10
HETATM   10  C1  UNL     1      19.058  53.601  38.671  1.00  0.00     0.259 C 
BRANCH  10  11
HETATM   11  P1  UNL     1      20.434  54.488  38.959  1.00  0.00     0.281 P 
HETATM   12  O1  UNL     1      21.470  53.330  38.454  1.00  0.00    -0.639 OA
HETATM   13  O2  UNL     1      19.989  54.599  40.573  1.00  0.00    -0.639 OA
HETATM   14  O3  UNL     1      19.959  55.659  37.919  1.00  0.00    -0.639 OA
ENDBRANCH  10  11
BRANCH  10  15
HETATM   15  S1  UNL     1      19.329  52.527  37.161  1.00  0.00     0.119 S 
HETATM   16  O5  UNL     1      19.915  51.173  37.686  1.00  0.00    -0.594 OA
HETATM   17  O6  UNL     1      20.014  53.284  36.084  1.00  0.00    -0.594 OA
HETATM   18  O7  UNL     1      17.738  52.266  36.710  1.00  0.00    -0.594 OA
ENDBRANCH  10  15
ENDBRANCH   9  10
ENDBRANCH   8   9
ENDBRANCH   7   8
ENDBRANCH   1   7
BRANCH   5  19
HETATM   19  O4  UNL     1      14.048  59.386  39.132  1.00  0.00    -0.311 OA
BRANCH  19  20
HETATM   20  C10 UNL     1      12.806  59.649  38.572  1.00  0.00     0.076 A 
HETATM   21  C11 UNL     1      12.543  59.400  37.251  1.00  0.00     0.037 A 
HETATM   22  C12 UNL     1      11.282  59.689  36.766  1.00  0.00     0.003 A 
HETATM   23  C13 UNL     1      10.287  60.221  37.576  1.00  0.00     0.000 A 
HETATM   24  C14 UNL     1      10.552  60.468  38.891  1.00  0.00     0.003 A 
HETATM   25  C15 UNL     1      11.810  60.182  39.385  1.00  0.00     0.037 A 
ENDBRANCH  19  20
ENDBRANCH   5  19
TORSDOF 8
ENDMDL
