MODEL 3
REMARK VINA RESULT: -9.601273088      1.020      2.293
REMARK  8 active torsions:
REMARK  status: ('A' for Active; 'I' for Inactive)
REMARK    1  A    between atoms: P1_2  and  C1_5 
REMARK    2  A    between atoms: C1_5  and  C2_6 
REMARK    3  A    between atoms: C1_5  and  S1_22 
REMARK    4  A    between atoms: C2_6  and  C3_7 
REMARK    5  A    between atoms: C3_7  and  C4_8 
REMARK    6  A    between atoms: C4_8  and  C5_9 
REMARK    7  A    between atoms: C9_13  and  O4_14 
REMARK    8  A    between atoms: O4_14  and  C10_15 
ROOT
HETATM    1  C5  UNL     1      15.381  55.739  39.311  1.00  0.00    -0.056 A 
HETATM    2  C6  UNL     1      14.973  55.398  40.598  1.00  0.00     0.007 A 
HETATM    3  C7  UNL     1      14.311  56.318  41.385  1.00  0.00     0.003 A 
HETATM    4  C8  UNL     1      14.050  57.590  40.892  1.00  0.00     0.037 A 
HETATM    5  C9  UNL     1      14.446  57.945  39.622  1.00  0.00     0.076 A 
HETATM    6  C16 UNL     1      15.103  57.000  38.869  1.00  0.00     0.044 A 
ENDROOT
BRANCH   1   7
HETATM    7  C4  UNL     1      16.089  54.768  38.443  1.00  0.00     0.039 C 
BRANCH   7   8
HETATM    8  C3  UNL     1      16.303  53.504  39.251  1.00  0.00     0.007 C 
BRANCH   8   9
HETATM    9  C2  UNL     1      17.654  52.930  39.095  1.00  0.00     0.037 C 
BRANCH   9  10
HETATM   10  C1  UNL     1      18.360  53.424  37.865  1.00  0.00     0.259 C 
BRANCH  10  11
HETATM   11  P1  UNL     1      18.781  52.212  36.809  1.00  0.00     0.281 P 
HETATM   12  O1  UNL     1      19.931  53.076  36.035  1.00  0.00    -0.639 OA
HETATM   13  O2  UNL     1      17.200  52.189  36.249  1.00  0.00    -0.639 OA
HETATM   14  O3  UNL     1      19.205  51.218  38.039  1.00  0.00    -0.639 OA
ENDBRANCH  10  11
BRANCH  10  15
HETATM   15  S1  UNL     1      19.916  54.249  38.500  1.00  0.00     0.119 S 
HETATM   16  O5  UNL     1      19.923  55.695  37.900  1.00  0.00    -0.594 OA
HETATM   17  O6  UNL     1      21.092  53.358  38.347  1.00  0.00    -0.594 OA
HETATM   18  O7  UNL     1      19.533  54.362  40.127  1.00  0.00    -0.594 OA
ENDBRANCH  10  15
ENDBRANCH   9  10
ENDBRANCH   8   9
ENDBRANCH   7   8
ENDBRANCH   1   7
BRANCH   5  19
HETATM   19  O4  UNL     1      14.187  59.214  39.125  1.00  0.00    -0.311 OA
BRANCH  19  20
HETATM   20  C10 UNL     1      12.940  59.503  38.588  1.00  0.00     0.076 A 
HETATM   21  C11 UNL     1      12.639  59.236  37.280  1.00  0.00     0.037 A 
HETATM   22  C12 UNL     1      11.376  59.553  36.818  1.00  0.00     0.003 A 
HETATM   23  C13 UNL     1      10.417  60.130  37.640  1.00  0.00     0.000 A 
HETATM   24  C14 UNL     1      10.719  60.394  38.943  1.00  0.00     0.003 A 
HETATM   25  C15 UNL     1      11.980  60.081  39.413  1.00  0.00     0.037 A 
ENDBRANCH  19  20
ENDBRANCH   5  19
TORSDOF 8
ENDMDL
