MODEL 2
REMARK VINA RESULT: -9.621059134      1.189      2.068
REMARK  8 active torsions:
REMARK  status: ('A' for Active; 'I' for Inactive)
REMARK    1  A    between atoms: P1_2  and  C1_5 
REMARK    2  A    between atoms: C1_5  and  C2_6 
REMARK    3  A    between atoms: C1_5  and  S1_22 
REMARK    4  A    between atoms: C2_6  and  C3_7 
REMARK    5  A    between atoms: C3_7  and  C4_8 
REMARK    6  A    between atoms: C4_8  and  C5_9 
REMARK    7  A    between atoms: C9_13  and  O4_14 
REMARK    8  A    between atoms: O4_14  and  C10_15 
ROOT
HETATM    1  C5  UNL     1      14.792  55.779  39.177  1.00  0.00    -0.056 A 
HETATM    2  C6  UNL     1      14.779  55.546  40.549  1.00  0.00     0.007 A 
HETATM    3  C7  UNL     1      14.512  56.576  41.428  1.00  0.00     0.003 A 
HETATM    4  C8  UNL     1      14.255  57.852  40.941  1.00  0.00     0.037 A 
HETATM    5  C9  UNL     1      14.263  58.100  39.587  1.00  0.00     0.076 A 
HETATM    6  C16 UNL     1      14.533  57.047  38.744  1.00  0.00     0.044 A 
ENDROOT
BRANCH   1   7
HETATM    7  C4  UNL     1      15.071  54.689  38.212  1.00  0.00     0.039 C 
BRANCH   7   8
HETATM    8  C3  UNL     1      16.431  54.956  37.600  1.00  0.00     0.007 C 
BRANCH   8   9
HETATM    9  C2  UNL     1      17.540  54.313  38.333  1.00  0.00     0.037 C 
BRANCH   9  10
HETATM   10  C1  UNL     1      18.121  53.140  37.598  1.00  0.00     0.259 C 
BRANCH  10  11
HETATM   11  P1  UNL     1      17.979  51.703  38.422  1.00  0.00     0.281 P 
HETATM   12  O1  UNL     1      19.320  51.026  37.781  1.00  0.00    -0.639 OA
HETATM   13  O2  UNL     1      16.477  51.477  37.708  1.00  0.00    -0.639 OA
HETATM   14  O3  UNL     1      18.067  52.464  39.868  1.00  0.00    -0.639 OA
ENDBRANCH  10  11
BRANCH  10  15
HETATM   15  S1  UNL     1      19.937  53.550  37.396  1.00  0.00     0.119 S 
HETATM   16  O5  UNL     1      20.380  52.922  36.032  1.00  0.00    -0.594 OA
HETATM   17  O6  UNL     1      20.690  53.264  38.643  1.00  0.00    -0.594 OA
HETATM   18  O7  UNL     1      19.832  55.209  37.197  1.00  0.00    -0.594 OA
ENDBRANCH  10  15
ENDBRANCH   9  10
ENDBRANCH   8   9
ENDBRANCH   7   8
ENDBRANCH   1   7
BRANCH   5  19
HETATM   19  O4  UNL     1      14.006  59.372  39.096  1.00  0.00    -0.311 OA
BRANCH  19  20
HETATM   20  C10 UNL     1      12.761  59.664  38.557  1.00  0.00     0.076 A 
HETATM   21  C11 UNL     1      12.485  59.466  37.231  1.00  0.00     0.037 A 
HETATM   22  C12 UNL     1      11.222  59.781  36.768  1.00  0.00     0.003 A 
HETATM   23  C13 UNL     1      10.238  60.289  37.606  1.00  0.00     0.000 A 
HETATM   24  C14 UNL     1      10.515  60.485  38.927  1.00  0.00     0.003 A 
HETATM   25  C15 UNL     1      11.776  60.173  39.398  1.00  0.00     0.037 A 
ENDBRANCH  19  20
ENDBRANCH   5  19
TORSDOF 8
ENDMDL
