MODEL 5
REMARK VINA RESULT: -10.247364724      0.510      1.348
REMARK  10 active torsions:
REMARK  status: ('A' for Active; 'I' for Inactive)
REMARK    1  A    between atoms: C2_2  and  C3_3 
REMARK    2  A    between atoms: C3_3  and  C4_4 
REMARK    3  A    between atoms: C4_4  and  C5_5 
REMARK    4  A    between atoms: C8_8  and  C9_9 
REMARK    5  A    between atoms: C12_12  and  C13_13 
REMARK    6  A    between atoms: C13_13  and  C14_14 
REMARK    7  A    between atoms: C14_14  and  C15_15 
REMARK    8  A    between atoms: C15_15  and  C16_16 
REMARK    9  A    between atoms: C16_16  and  P1_17 
REMARK   10  A    between atoms: C16_16  and  S1_21 
ROOT
HETATM    1  C9  UNL     1      16.104  55.820  37.979  1.00  0.00    -0.026 A 
HETATM    2  C10 UNL     1      17.074  56.004  37.016  1.00  0.00     0.013 A 
HETATM    3  C11 UNL     1      18.187  55.193  36.886  1.00  0.00     0.008 A 
HETATM    4  C12 UNL     1      18.340  54.148  37.760  1.00  0.00    -0.058 A 
HETATM    5  C17 UNL     1      17.390  53.943  38.727  1.00  0.00     0.008 A 
HETATM    6  C18 UNL     1      16.277  54.763  38.848  1.00  0.00     0.013 A 
ENDROOT
BRANCH   4   7
HETATM    7  C13 UNL     1      19.496  53.271  37.662  1.00  0.00     0.038 C 
BRANCH   7   8
HETATM    8  C14 UNL     1      19.960  53.047  36.216  1.00  0.00     0.007 C 
BRANCH   8   9
HETATM    9  C15 UNL     1      20.402  51.631  36.137  1.00  0.00     0.037 C 
BRANCH   9  10
HETATM   10  C16 UNL     1      21.758  51.386  35.564  1.00  0.00     0.259 C 
BRANCH  10  11
HETATM   11  P1  UNL     1      21.722  50.052  34.469  1.00  0.00     0.281 P 
HETATM   12  O1  UNL     1      22.712  48.737  34.661  1.00  0.00    -0.639 OA
HETATM   13  O2  UNL     1      22.615  50.630  33.364  1.00  0.00    -0.639 OA
HETATM   14  O3  UNL     1      20.515  49.927  33.295  1.00  0.00    -0.639 OA
ENDBRANCH  10  11
BRANCH  10  15
HETATM   15  S1  UNL     1      22.849  51.035  37.006  1.00  0.00     0.119 S 
HETATM   16  O4  UNL     1      24.414  51.047  36.162  1.00  0.00    -0.594 OA
HETATM   17  O5  UNL     1      22.930  52.558  37.736  1.00  0.00    -0.594 OA
HETATM   18  O6  UNL     1      22.654  49.944  37.744  1.00  0.00    -0.594 OA
ENDBRANCH  10  15
ENDBRANCH   9  10
ENDBRANCH   8   9
ENDBRANCH   7   8
ENDBRANCH   4   7
BRANCH   1  19
HETATM   19  C8  UNL     1      14.950  56.714  38.067  1.00  0.00    -0.026 A 
HETATM   20  C7  UNL     1      14.754  57.575  39.127  1.00  0.00     0.013 A 
HETATM   21  C6  UNL     1      13.660  58.415  39.201  1.00  0.00     0.008 A 
HETATM   22  C5  UNL     1      12.708  58.425  38.203  1.00  0.00    -0.058 A 
HETATM   23  C20 UNL     1      12.892  57.570  37.137  1.00  0.00     0.008 A 
HETATM   24  C19 UNL     1      13.985  56.732  37.067  1.00  0.00     0.013 A 
BRANCH  22  25
HETATM   25  C4  UNL     1      11.511  59.309  38.234  1.00  0.00     0.038 C 
BRANCH  25  26
HETATM   26  C3  UNL     1      11.822  60.664  38.824  1.00  0.00     0.004 C 
BRANCH  26  27
HETATM   27  C2  UNL     1      10.495  61.398  38.956  1.00  0.00    -0.004 C 
HETATM   28  C1  UNL     1       9.743  61.413  37.657  1.00  0.00     0.005 C 
ENDBRANCH  26  27
ENDBRANCH  25  26
ENDBRANCH  22  25
ENDBRANCH   1  19
TORSDOF 10
ENDMDL
