MODEL 9
REMARK VINA RESULT: -10.212240202      0.914      1.486
REMARK  10 active torsions:
REMARK  status: ('A' for Active; 'I' for Inactive)
REMARK    1  A    between atoms: C2_2  and  C3_3 
REMARK    2  A    between atoms: C3_3  and  C4_4 
REMARK    3  A    between atoms: C4_4  and  C5_5 
REMARK    4  A    between atoms: C8_8  and  C9_9 
REMARK    5  A    between atoms: C12_12  and  C13_13 
REMARK    6  A    between atoms: C13_13  and  C14_14 
REMARK    7  A    between atoms: C14_14  and  C15_15 
REMARK    8  A    between atoms: C15_15  and  C16_16 
REMARK    9  A    between atoms: C16_16  and  P1_17 
REMARK   10  A    between atoms: C16_16  and  S1_21 
ROOT
HETATM    1  C9  UNL     1      15.789  55.320  37.809  1.00  0.00    -0.026 A 
HETATM    2  C10 UNL     1      15.731  54.723  36.567  1.00  0.00     0.013 A 
HETATM    3  C11 UNL     1      16.485  53.619  36.213  1.00  0.00     0.008 A 
HETATM    4  C12 UNL     1      17.339  53.085  37.142  1.00  0.00    -0.058 A 
HETATM    5  C17 UNL     1      17.416  53.659  38.385  1.00  0.00     0.008 A 
HETATM    6  C18 UNL     1      16.655  54.767  38.730  1.00  0.00     0.013 A 
ENDROOT
BRANCH   4   7
HETATM    7  C13 UNL     1      18.152  51.925  36.813  1.00  0.00     0.038 C 
BRANCH   7   8
HETATM    8  C14 UNL     1      19.659  52.217  36.851  1.00  0.00     0.007 C 
BRANCH   8   9
HETATM    9  C15 UNL     1      20.307  51.159  36.033  1.00  0.00     0.037 C 
BRANCH   9  10
HETATM   10  C16 UNL     1      21.648  51.484  35.464  1.00  0.00     0.259 C 
BRANCH  10  11
HETATM   11  P1  UNL     1      22.117  50.297  34.302  1.00  0.00     0.281 P 
HETATM   12  O1  UNL     1      22.838  50.715  32.869  1.00  0.00    -0.639 OA
HETATM   13  O2  UNL     1      20.760  50.087  33.620  1.00  0.00    -0.639 OA
HETATM   14  O3  UNL     1      22.074  48.652  34.678  1.00  0.00    -0.639 OA
ENDBRANCH  10  11
BRANCH  10  15
HETATM   15  S1  UNL     1      22.803  51.505  36.899  1.00  0.00     0.119 S 
HETATM   16  O4  UNL     1      22.241  50.027  37.712  1.00  0.00    -0.594 OA
HETATM   17  O5  UNL     1      24.216  50.899  36.195  1.00  0.00    -0.594 OA
HETATM   18  O6  UNL     1      22.853  52.565  37.704  1.00  0.00    -0.594 OA
ENDBRANCH  10  15
ENDBRANCH   9  10
ENDBRANCH   8   9
ENDBRANCH   7   8
ENDBRANCH   4   7
BRANCH   1  19
HETATM   19  C8  UNL     1      14.968  56.488  38.122  1.00  0.00    -0.026 A 
HETATM   20  C7  UNL     1      13.882  56.862  37.358  1.00  0.00     0.013 A 
HETATM   21  C6  UNL     1      13.113  57.968  37.663  1.00  0.00     0.008 A 
HETATM   22  C5  UNL     1      13.405  58.753  38.759  1.00  0.00    -0.058 A 
HETATM   23  C20 UNL     1      14.489  58.390  39.532  1.00  0.00     0.008 A 
HETATM   24  C19 UNL     1      15.254  57.286  39.224  1.00  0.00     0.013 A 
BRANCH  22  25
HETATM   25  C4  UNL     1      12.610  59.955  39.132  1.00  0.00     0.038 C 
BRANCH  25  26
HETATM   26  C3  UNL     1      11.140  59.774  38.839  1.00  0.00     0.004 C 
BRANCH  26  27
HETATM   27  C2  UNL     1      10.510  61.159  38.895  1.00  0.00    -0.004 C 
HETATM   28  C1  UNL     1       9.737  61.463  37.646  1.00  0.00     0.005 C 
ENDBRANCH  26  27
ENDBRANCH  25  26
ENDBRANCH  22  25
ENDBRANCH   1  19
TORSDOF 10
ENDMDL
