MODEL 2
REMARK VINA RESULT: -10.345490613      0.807      1.203
REMARK  10 active torsions:
REMARK  status: ('A' for Active; 'I' for Inactive)
REMARK    1  A    between atoms: C2_2  and  C3_3 
REMARK    2  A    between atoms: C3_3  and  C4_4 
REMARK    3  A    between atoms: C4_4  and  C5_5 
REMARK    4  A    between atoms: C8_8  and  C9_9 
REMARK    5  A    between atoms: C12_12  and  C13_13 
REMARK    6  A    between atoms: C13_13  and  C14_14 
REMARK    7  A    between atoms: C14_14  and  C15_15 
REMARK    8  A    between atoms: C15_15  and  C16_16 
REMARK    9  A    between atoms: C16_16  and  P1_17 
REMARK   10  A    between atoms: C16_16  and  S1_21 
ROOT
HETATM    1  C9  UNL     1      15.663  55.428  37.772  1.00  0.00    -0.026 A 
HETATM    2  C10 UNL     1      16.542  55.013  38.751  1.00  0.00     0.013 A 
HETATM    3  C11 UNL     1      17.441  53.977  38.582  1.00  0.00     0.008 A 
HETATM    4  C12 UNL     1      17.466  53.322  37.378  1.00  0.00    -0.058 A 
HETATM    5  C17 UNL     1      16.602  53.715  36.388  1.00  0.00     0.008 A 
HETATM    6  C18 UNL     1      15.703  54.756  36.568  1.00  0.00     0.013 A 
ENDROOT
BRANCH   4   7
HETATM    7  C13 UNL     1      18.394  52.225  37.156  1.00  0.00     0.038 C 
BRANCH   7   8
HETATM    8  C14 UNL     1      19.759  52.690  36.627  1.00  0.00     0.007 C 
BRANCH   8   9
HETATM    9  C15 UNL     1      20.683  51.538  36.796  1.00  0.00     0.037 C 
BRANCH   9  10
HETATM   10  C16 UNL     1      21.814  51.442  35.826  1.00  0.00     0.259 C 
BRANCH  10  11
HETATM   11  P1  UNL     1      21.565  50.130  34.733  1.00  0.00     0.281 P 
HETATM   12  O1  UNL     1      22.507  48.767  34.775  1.00  0.00    -0.639 OA
HETATM   13  O2  UNL     1      22.328  50.685  33.523  1.00  0.00    -0.639 OA
HETATM   14  O3  UNL     1      20.206  50.082  33.733  1.00  0.00    -0.639 OA
ENDBRANCH  10  11
BRANCH  10  15
HETATM   15  S1  UNL     1      23.323  51.181  36.850  1.00  0.00     0.119 S 
HETATM   16  O4  UNL     1      23.159  52.586  37.926  1.00  0.00    -0.594 OA
HETATM   17  O5  UNL     1      22.797  49.973  37.910  1.00  0.00    -0.594 OA
HETATM   18  O6  UNL     1      24.519  51.093  36.270  1.00  0.00    -0.594 OA
ENDBRANCH  10  15
ENDBRANCH   9  10
ENDBRANCH   8   9
ENDBRANCH   7   8
ENDBRANCH   4   7
BRANCH   1  19
HETATM   19  C8  UNL     1      14.732  56.530  38.013  1.00  0.00    -0.026 A 
HETATM   20  C7  UNL     1      13.675  56.809  37.171  1.00  0.00     0.013 A 
HETATM   21  C6  UNL     1      12.802  57.853  37.408  1.00  0.00     0.008 A 
HETATM   22  C5  UNL     1      12.955  58.668  38.509  1.00  0.00    -0.058 A 
HETATM   23  C20 UNL     1      14.008  58.400  39.359  1.00  0.00     0.008 A 
HETATM   24  C19 UNL     1      14.878  57.357  39.120  1.00  0.00     0.013 A 
BRANCH  22  25
HETATM   25  C4  UNL     1      12.044  59.806  38.810  1.00  0.00     0.038 C 
BRANCH  25  26
HETATM   26  C3  UNL     1      10.598  59.458  38.547  1.00  0.00     0.004 C 
BRANCH  26  27
HETATM   27  C2  UNL     1      10.098  60.440  37.496  1.00  0.00    -0.004 C 
HETATM   28  C1  UNL     1       9.754  61.768  38.103  1.00  0.00     0.005 C 
ENDBRANCH  26  27
ENDBRANCH  25  26
ENDBRANCH  22  25
ENDBRANCH   1  19
TORSDOF 10
ENDMDL
