MODEL 8
REMARK VINA RESULT: -10.217727986      0.723      1.516
REMARK  10 active torsions:
REMARK  status: ('A' for Active; 'I' for Inactive)
REMARK    1  A    between atoms: C2_2  and  C3_3 
REMARK    2  A    between atoms: C3_3  and  C4_4 
REMARK    3  A    between atoms: C4_4  and  C5_5 
REMARK    4  A    between atoms: C8_8  and  C9_9 
REMARK    5  A    between atoms: C12_12  and  C13_13 
REMARK    6  A    between atoms: C13_13  and  C14_14 
REMARK    7  A    between atoms: C14_14  and  C15_15 
REMARK    8  A    between atoms: C15_15  and  C16_16 
REMARK    9  A    between atoms: C16_16  and  P1_17 
REMARK   10  A    between atoms: C16_16  and  S1_21 
ROOT
HETATM    1  C9  UNL     1      15.909  55.626  38.039  1.00  0.00    -0.026 A 
HETATM    2  C10 UNL     1      15.805  54.493  38.819  1.00  0.00     0.013 A 
HETATM    3  C11 UNL     1      16.686  53.430  38.744  1.00  0.00     0.008 A 
HETATM    4  C12 UNL     1      17.720  53.499  37.848  1.00  0.00    -0.058 A 
HETATM    5  C17 UNL     1      17.846  54.614  37.060  1.00  0.00     0.008 A 
HETATM    6  C18 UNL     1      16.957  55.676  37.143  1.00  0.00     0.013 A 
ENDROOT
BRANCH   4   7
HETATM    7  C13 UNL     1      18.668  52.403  37.733  1.00  0.00     0.038 C 
BRANCH   7   8
HETATM    8  C14 UNL     1      19.905  52.762  36.898  1.00  0.00     0.007 C 
BRANCH   8   9
HETATM    9  C15 UNL     1      20.811  51.586  36.972  1.00  0.00     0.037 C 
BRANCH   9  10
HETATM   10  C16 UNL     1      21.916  51.532  35.969  1.00  0.00     0.259 C 
BRANCH  10  11
HETATM   11  P1  UNL     1      21.664  50.235  34.859  1.00  0.00     0.281 P 
HETATM   12  O1  UNL     1      22.618  48.879  34.869  1.00  0.00    -0.639 OA
HETATM   13  O2  UNL     1      22.407  50.814  33.649  1.00  0.00    -0.639 OA
HETATM   14  O3  UNL     1      20.294  50.191  33.875  1.00  0.00    -0.639 OA
ENDBRANCH  10  11
BRANCH  10  15
HETATM   15  S1  UNL     1      23.458  51.284  36.946  1.00  0.00     0.119 S 
HETATM   16  O4  UNL     1      23.302  52.672  38.045  1.00  0.00    -0.594 OA
HETATM   17  O5  UNL     1      22.984  50.053  38.004  1.00  0.00    -0.594 OA
HETATM   18  O6  UNL     1      24.639  51.225  36.331  1.00  0.00    -0.594 OA
ENDBRANCH  10  15
ENDBRANCH   9  10
ENDBRANCH   8   9
ENDBRANCH   7   8
ENDBRANCH   4   7
BRANCH   1  19
HETATM   19  C8  UNL     1      14.944  56.718  38.163  1.00  0.00    -0.026 A 
HETATM   20  C7  UNL     1      14.940  57.590  39.232  1.00  0.00     0.013 A 
HETATM   21  C6  UNL     1      14.023  58.618  39.340  1.00  0.00     0.008 A 
HETATM   22  C5  UNL     1      13.063  58.814  38.370  1.00  0.00    -0.058 A 
HETATM   23  C20 UNL     1      13.056  57.949  37.295  1.00  0.00     0.008 A 
HETATM   24  C19 UNL     1      13.973  56.924  37.191  1.00  0.00     0.013 A 
BRANCH  22  25
HETATM   25  C4  UNL     1      12.052  59.905  38.437  1.00  0.00     0.038 C 
BRANCH  25  26
HETATM   26  C3  UNL     1      11.136  59.901  37.237  1.00  0.00     0.004 C 
BRANCH  26  27
HETATM   27  C2  UNL     1       9.771  60.362  37.729  1.00  0.00    -0.004 C 
HETATM   28  C1  UNL     1       9.837  61.736  38.330  1.00  0.00     0.005 C 
ENDBRANCH  26  27
ENDBRANCH  25  26
ENDBRANCH  22  25
ENDBRANCH   1  19
TORSDOF 10
ENDMDL
