MODEL 1
REMARK VINA RESULT: -10.486667067      0.000      0.000
REMARK  10 active torsions:
REMARK  status: ('A' for Active; 'I' for Inactive)
REMARK    1  A    between atoms: C2_2  and  C3_3 
REMARK    2  A    between atoms: C3_3  and  C4_4 
REMARK    3  A    between atoms: C4_4  and  C5_5 
REMARK    4  A    between atoms: C8_8  and  C9_9 
REMARK    5  A    between atoms: C12_12  and  C13_13 
REMARK    6  A    between atoms: C13_13  and  C14_14 
REMARK    7  A    between atoms: C14_14  and  C15_15 
REMARK    8  A    between atoms: C15_15  and  C16_16 
REMARK    9  A    between atoms: C16_16  and  P1_17 
REMARK   10  A    between atoms: C16_16  and  S1_21 
ROOT
HETATM    1  C9  UNL     1      16.269  55.923  37.733  1.00  0.00    -0.026 A 
HETATM    2  C10 UNL     1      17.035  56.139  36.606  1.00  0.00     0.013 A 
HETATM    3  C11 UNL     1      18.160  55.399  36.292  1.00  0.00     0.008 A 
HETATM    4  C12 UNL     1      18.540  54.394  37.142  1.00  0.00    -0.058 A 
HETATM    5  C17 UNL     1      17.796  54.157  38.270  1.00  0.00     0.008 A 
HETATM    6  C18 UNL     1      16.668  54.906  38.576  1.00  0.00     0.013 A 
ENDROOT
BRANCH   4   7
HETATM    7  C13 UNL     1      19.717  53.591  36.852  1.00  0.00     0.038 C 
BRANCH   7   8
HETATM    8  C14 UNL     1      19.389  52.115  36.586  1.00  0.00     0.007 C 
BRANCH   8   9
HETATM    9  C15 UNL     1      20.625  51.353  36.899  1.00  0.00     0.037 C 
BRANCH   9  10
HETATM   10  C16 UNL     1      21.742  51.460  35.914  1.00  0.00     0.259 C 
BRANCH  10  11
HETATM   11  P1  UNL     1      21.669  50.169  34.771  1.00  0.00     0.281 P 
HETATM   12  O1  UNL     1      22.697  48.870  34.854  1.00  0.00    -0.639 OA
HETATM   13  O2  UNL     1      22.484  50.809  33.641  1.00  0.00    -0.639 OA
HETATM   14  O3  UNL     1      20.399  50.061  33.665  1.00  0.00    -0.639 OA
ENDBRANCH  10  11
BRANCH  10  15
HETATM   15  S1  UNL     1      23.290  51.383  36.910  1.00  0.00     0.119 S 
HETATM   16  O4  UNL     1      22.976  52.758  37.992  1.00  0.00    -0.594 OA
HETATM   17  O5  UNL     1      22.933  50.120  37.976  1.00  0.00    -0.594 OA
HETATM   18  O6  UNL     1      24.477  51.441  36.309  1.00  0.00    -0.594 OA
ENDBRANCH  10  15
ENDBRANCH   9  10
ENDBRANCH   8   9
ENDBRANCH   7   8
ENDBRANCH   4   7
BRANCH   1  19
HETATM   19  C8  UNL     1      15.091  56.742  38.012  1.00  0.00    -0.026 A 
HETATM   20  C7  UNL     1      14.012  56.811  37.155  1.00  0.00     0.013 A 
HETATM   21  C6  UNL     1      12.904  57.589  37.428  1.00  0.00     0.008 A 
HETATM   22  C5  UNL     1      12.831  58.336  38.585  1.00  0.00    -0.058 A 
HETATM   23  C20 UNL     1      13.903  58.276  39.451  1.00  0.00     0.008 A 
HETATM   24  C19 UNL     1      15.008  57.498  39.175  1.00  0.00     0.013 A 
BRANCH  22  25
HETATM   25  C4  UNL     1      11.661  59.191  38.927  1.00  0.00     0.038 C 
BRANCH  25  26
HETATM   26  C3  UNL     1      11.986  60.662  38.822  1.00  0.00     0.004 C 
BRANCH  26  27
HETATM   27  C2  UNL     1      10.712  61.416  39.178  1.00  0.00    -0.004 C 
HETATM   28  C1  UNL     1       9.774  61.496  38.009  1.00  0.00     0.005 C 
ENDBRANCH  26  27
ENDBRANCH  25  26
ENDBRANCH  22  25
ENDBRANCH   1  19
TORSDOF 10
ENDMDL
