MODEL 8
REMARK VINA RESULT: -10.202831737      1.680      3.064
REMARK  7 active torsions:
REMARK  status: ('A' for Active; 'I' for Inactive)
REMARK    1  A    between atoms: P1_2  and  C1_5 
REMARK    2  A    between atoms: C1_5  and  C2_6 
REMARK    3  A    between atoms: C1_5  and  S1_21 
REMARK    4  A    between atoms: C2_6  and  C3_7 
REMARK    5  A    between atoms: C3_7  and  C4_8 
REMARK    6  A    between atoms: C4_8  and  C5_9 
REMARK    7  A    between atoms: C8_12  and  C9_13 
ROOT
HETATM    1  C5  UNL     1      56.541  15.126  53.863  1.00  0.00    -0.058 A 
HETATM    2  C6  UNL     1      57.246  15.792  54.864  1.00  0.00     0.008 A 
HETATM    3  C7  UNL     1      57.570  17.114  54.723  1.00  0.00     0.013 A 
HETATM    4  C8  UNL     1      57.226  17.844  53.613  1.00  0.00    -0.026 A 
HETATM    5  C15 UNL     1      56.529  17.175  52.631  1.00  0.00     0.013 A 
HETATM    6  C16 UNL     1      56.185  15.825  52.747  1.00  0.00     0.008 A 
ENDROOT
BRANCH   1   7
HETATM    7  C4  UNL     1      56.238  13.693  54.080  1.00  0.00     0.038 C 
BRANCH   7   8
HETATM    8  C3  UNL     1      56.261  12.992  52.745  1.00  0.00     0.007 C 
BRANCH   8   9
HETATM    9  C2  UNL     1      56.793  11.609  52.898  1.00  0.00     0.037 C 
BRANCH   9  10
HETATM   10  C1  UNL     1      55.950  10.498  52.389  1.00  0.00     0.259 C 
BRANCH  10  11
HETATM   11  P1  UNL     1      54.577  10.048  53.419  1.00  0.00     0.281 P 
HETATM   12  O1  UNL     1      53.517  10.418  52.392  1.00  0.00    -0.639 OA
HETATM   13  O2  UNL     1      53.998   8.427  53.267  1.00  0.00    -0.639 OA
HETATM   14  O3  UNL     1      54.103  10.956  54.630  1.00  0.00    -0.639 OA
ENDBRANCH  10  11
BRANCH  10  15
HETATM   15  S1  UNL     1      57.104   9.104  52.215  1.00  0.00     0.119 S 
HETATM   16  O4  UNL     1      57.160   8.487  53.708  1.00  0.00    -0.594 OA
HETATM   17  O5  UNL     1      58.559   9.749  51.823  1.00  0.00    -0.594 OA
HETATM   18  O6  UNL     1      56.627   8.073  51.209  1.00  0.00    -0.594 OA
ENDBRANCH  10  15
ENDBRANCH   9  10
ENDBRANCH   8   9
ENDBRANCH   7   8
ENDBRANCH   1   7
BRANCH   4  19
HETATM   19  C9  UNL     1      57.588  19.256  53.494  1.00  0.00    -0.026 A 
HETATM   20  C10 UNL     1      58.343  19.849  54.493  1.00  0.00     0.012 A 
HETATM   21  C11 UNL     1      58.714  21.159  54.442  1.00  0.00     0.001 A 
HETATM   22  C12 UNL     1      58.316  21.914  53.346  1.00  0.00     0.000 A 
HETATM   23  C13 UNL     1      57.561  21.323  52.348  1.00  0.00     0.001 A 
HETATM   24  C14 UNL     1      57.199  20.011  52.415  1.00  0.00     0.012 A 
ENDBRANCH   4  19
TORSDOF 7
ENDMDL
