MODEL 6
REMARK VINA RESULT: -10.363842628      1.695      3.086
REMARK  7 active torsions:
REMARK  status: ('A' for Active; 'I' for Inactive)
REMARK    1  A    between atoms: P1_2  and  C1_5 
REMARK    2  A    between atoms: C1_5  and  C2_6 
REMARK    3  A    between atoms: C1_5  and  S1_21 
REMARK    4  A    between atoms: C2_6  and  C3_7 
REMARK    5  A    between atoms: C3_7  and  C4_8 
REMARK    6  A    between atoms: C4_8  and  C5_9 
REMARK    7  A    between atoms: C8_12  and  C9_13 
ROOT
HETATM    1  C5  UNL     1      56.410  14.979  53.915  1.00  0.00    -0.058 A 
HETATM    2  C6  UNL     1      57.121  15.645  54.912  1.00  0.00     0.008 A 
HETATM    3  C7  UNL     1      57.458  16.963  54.763  1.00  0.00     0.013 A 
HETATM    4  C8  UNL     1      57.120  17.688  53.648  1.00  0.00    -0.026 A 
HETATM    5  C15 UNL     1      56.417  17.019  52.670  1.00  0.00     0.013 A 
HETATM    6  C16 UNL     1      56.061  15.673  52.795  1.00  0.00     0.008 A 
ENDROOT
BRANCH   1   7
HETATM    7  C4  UNL     1      56.094  13.550  54.143  1.00  0.00     0.038 C 
BRANCH   7   8
HETATM    8  C3  UNL     1      56.323  12.799  52.855  1.00  0.00     0.007 C 
BRANCH   8   9
HETATM    9  C2  UNL     1      56.688  11.383  53.141  1.00  0.00     0.037 C 
BRANCH   9  10
HETATM   10  C1  UNL     1      55.934  10.330  52.416  1.00  0.00     0.259 C 
BRANCH  10  11
HETATM   11  P1  UNL     1      54.400   9.839  53.160  1.00  0.00     0.281 P 
HETATM   12  O1  UNL     1      54.838  10.158  54.583  1.00  0.00    -0.639 OA
HETATM   13  O2  UNL     1      53.213  11.077  53.368  1.00  0.00    -0.639 OA
HETATM   14  O3  UNL     1      54.004   8.313  53.340  1.00  0.00    -0.639 OA
ENDBRANCH  10  11
BRANCH  10  15
HETATM   15  S1  UNL     1      57.087   8.927  52.339  1.00  0.00     0.119 S 
HETATM   16  O4  UNL     1      58.474   9.618  51.878  1.00  0.00    -0.594 OA
HETATM   17  O5  UNL     1      56.538   7.935  51.156  1.00  0.00    -0.594 OA
HETATM   18  O6  UNL     1      57.239   8.222  53.675  1.00  0.00    -0.594 OA
ENDBRANCH  10  15
ENDBRANCH   9  10
ENDBRANCH   8   9
ENDBRANCH   7   8
ENDBRANCH   1   7
BRANCH   4  19
HETATM   19  C9  UNL     1      57.495  19.096  53.519  1.00  0.00    -0.026 A 
HETATM   20  C10 UNL     1      58.206  19.705  54.542  1.00  0.00     0.012 A 
HETATM   21  C11 UNL     1      58.587  21.011  54.484  1.00  0.00     0.001 A 
HETATM   22  C12 UNL     1      58.245  21.748  53.356  1.00  0.00     0.000 A 
HETATM   23  C13 UNL     1      57.534  21.142  52.335  1.00  0.00     0.001 A 
HETATM   24  C14 UNL     1      57.161  19.832  52.409  1.00  0.00     0.012 A 
ENDBRANCH   4  19
TORSDOF 7
ENDMDL
