MODEL 10
REMARK VINA RESULT: -10.155193327      1.693      3.224
REMARK  7 active torsions:
REMARK  status: ('A' for Active; 'I' for Inactive)
REMARK    1  A    between atoms: P1_2  and  C1_5 
REMARK    2  A    between atoms: C1_5  and  C2_6 
REMARK    3  A    between atoms: C1_5  and  S1_21 
REMARK    4  A    between atoms: C2_6  and  C3_7 
REMARK    5  A    between atoms: C3_7  and  C4_8 
REMARK    6  A    between atoms: C4_8  and  C5_9 
REMARK    7  A    between atoms: C8_12  and  C9_13 
ROOT
HETATM    1  C5  UNL     1      56.550  15.090  53.873  1.00  0.00    -0.058 A 
HETATM    2  C6  UNL     1      57.303  15.722  54.860  1.00  0.00     0.008 A 
HETATM    3  C7  UNL     1      57.634  17.045  54.741  1.00  0.00     0.013 A 
HETATM    4  C8  UNL     1      57.249  17.807  53.668  1.00  0.00    -0.026 A 
HETATM    5  C15 UNL     1      56.504  17.172  52.699  1.00  0.00     0.013 A 
HETATM    6  C16 UNL     1      56.153  15.822  52.793  1.00  0.00     0.008 A 
ENDROOT
BRANCH   1   7
HETATM    7  C4  UNL     1      56.242  13.654  54.064  1.00  0.00     0.038 C 
BRANCH   7   8
HETATM    8  C3  UNL     1      56.410  12.949  52.741  1.00  0.00     0.007 C 
BRANCH   8   9
HETATM    9  C2  UNL     1      56.875  11.550  52.957  1.00  0.00     0.037 C 
BRANCH   9  10
HETATM   10  C1  UNL     1      56.007  10.461  52.444  1.00  0.00     0.259 C 
BRANCH  10  11
HETATM   11  P1  UNL     1      54.594  10.075  53.445  1.00  0.00     0.281 P 
HETATM   12  O1  UNL     1      53.577  10.357  52.348  1.00  0.00    -0.639 OA
HETATM   13  O2  UNL     1      54.033   8.441  53.391  1.00  0.00    -0.639 OA
HETATM   14  O3  UNL     1      54.060  11.067  54.563  1.00  0.00    -0.639 OA
ENDBRANCH  10  11
BRANCH  10  15
HETATM   15  S1  UNL     1      57.116   9.025  52.322  1.00  0.00     0.119 S 
HETATM   16  O4  UNL     1      58.515   9.684  51.850  1.00  0.00    -0.594 OA
HETATM   17  O5  UNL     1      56.517   8.073  51.130  1.00  0.00    -0.594 OA
HETATM   18  O6  UNL     1      57.269   8.291  53.641  1.00  0.00    -0.594 OA
ENDBRANCH  10  15
ENDBRANCH   9  10
ENDBRANCH   8   9
ENDBRANCH   7   8
ENDBRANCH   1   7
BRANCH   4  19
HETATM   19  C9  UNL     1      57.619  19.219  53.571  1.00  0.00    -0.026 A 
HETATM   20  C10 UNL     1      57.243  19.944  52.451  1.00  0.00     0.012 A 
HETATM   21  C11 UNL     1      57.554  21.261  52.300  1.00  0.00     0.001 A 
HETATM   22  C12 UNL     1      58.273  21.888  53.310  1.00  0.00     0.000 A 
HETATM   23  C13 UNL     1      58.650  21.166  54.428  1.00  0.00     0.001 A 
HETATM   24  C14 UNL     1      58.329  19.848  54.564  1.00  0.00     0.012 A 
ENDBRANCH   4  19
TORSDOF 7
ENDMDL
