MODEL 14
REMARK VINA RESULT: -9.527649814      2.244      2.971
REMARK  7 active torsions:
REMARK  status: ('A' for Active; 'I' for Inactive)
REMARK    1  A    between atoms: P1_2  and  C1_5 
REMARK    2  A    between atoms: C1_5  and  C2_6 
REMARK    3  A    between atoms: C1_5  and  S1_21 
REMARK    4  A    between atoms: C2_6  and  C3_7 
REMARK    5  A    between atoms: C3_7  and  C4_8 
REMARK    6  A    between atoms: C4_8  and  C5_9 
REMARK    7  A    between atoms: C8_12  and  C9_13 
ROOT
HETATM    1  C5  UNL     1      55.845  13.926  53.475  1.00  0.00    -0.058 A 
HETATM    2  C6  UNL     1      56.456  14.559  54.556  1.00  0.00     0.008 A 
HETATM    3  C7  UNL     1      56.859  15.863  54.460  1.00  0.00     0.013 A 
HETATM    4  C8  UNL     1      56.688  16.606  53.320  1.00  0.00    -0.026 A 
HETATM    5  C15 UNL     1      56.082  15.970  52.258  1.00  0.00     0.013 A 
HETATM    6  C16 UNL     1      55.661  14.639  52.327  1.00  0.00     0.008 A 
ENDROOT
BRANCH   1   7
HETATM    7  C4  UNL     1      55.447  12.511  53.649  1.00  0.00     0.038 C 
BRANCH   7   8
HETATM    8  C3  UNL     1      54.831  12.026  52.361  1.00  0.00     0.007 C 
BRANCH   8   9
HETATM    9  C2  UNL     1      55.538  10.806  51.877  1.00  0.00     0.037 C 
BRANCH   9  10
HETATM   10  C1  UNL     1      55.610   9.651  52.807  1.00  0.00     0.259 C 
BRANCH  10  11
HETATM   11  P1  UNL     1      57.247   9.141  53.264  1.00  0.00     0.281 P 
HETATM   12  O1  UNL     1      57.117   9.573  54.717  1.00  0.00    -0.639 OA
HETATM   13  O2  UNL     1      57.410   7.532  53.873  1.00  0.00    -0.639 OA
HETATM   14  O3  UNL     1      58.532   9.974  52.852  1.00  0.00    -0.639 OA
ENDBRANCH  10  11
BRANCH  10  15
HETATM   15  S1  UNL     1      54.744   8.316  51.929  1.00  0.00     0.119 S 
HETATM   16  O4  UNL     1      55.872   7.752  50.917  1.00  0.00    -0.594 OA
HETATM   17  O5  UNL     1      53.534   9.023  51.078  1.00  0.00    -0.594 OA
HETATM   18  O6  UNL     1      54.248   7.228  52.864  1.00  0.00    -0.594 OA
ENDBRANCH  10  15
ENDBRANCH   9  10
ENDBRANCH   8   9
ENDBRANCH   7   8
ENDBRANCH   1   7
BRANCH   4  19
HETATM   19  C9  UNL     1      57.130  17.999  53.250  1.00  0.00    -0.026 A 
HETATM   20  C10 UNL     1      57.724  18.578  54.360  1.00  0.00     0.012 A 
HETATM   21  C11 UNL     1      58.159  19.869  54.361  1.00  0.00     0.001 A 
HETATM   22  C12 UNL     1      57.997  20.619  53.203  1.00  0.00     0.000 A 
HETATM   23  C13 UNL     1      57.403  20.042  52.094  1.00  0.00     0.001 A 
HETATM   24  C14 UNL     1      56.974  18.748  52.110  1.00  0.00     0.012 A 
ENDBRANCH   4  19
TORSDOF 7
ENDMDL
