MODEL 4
REMARK VINA RESULT: -10.513213590      1.262      1.900
REMARK  7 active torsions:
REMARK  status: ('A' for Active; 'I' for Inactive)
REMARK    1  A    between atoms: P1_2  and  C1_5 
REMARK    2  A    between atoms: C1_5  and  C2_6 
REMARK    3  A    between atoms: C1_5  and  S1_21 
REMARK    4  A    between atoms: C2_6  and  C3_7 
REMARK    5  A    between atoms: C3_7  and  C4_8 
REMARK    6  A    between atoms: C4_8  and  C5_9 
REMARK    7  A    between atoms: C8_12  and  C9_13 
ROOT
HETATM    1  C5  UNL     1      56.685  15.099  53.762  1.00  0.00    -0.058 A 
HETATM    2  C6  UNL     1      56.226  15.879  52.702  1.00  0.00     0.008 A 
HETATM    3  C7  UNL     1      56.542  17.209  52.630  1.00  0.00     0.013 A 
HETATM    4  C8  UNL     1      57.313  17.836  53.575  1.00  0.00    -0.026 A 
HETATM    5  C15 UNL     1      57.762  17.055  54.618  1.00  0.00     0.013 A 
HETATM    6  C16 UNL     1      57.454  15.695  54.718  1.00  0.00     0.008 A 
ENDROOT
BRANCH   1   7
HETATM    7  C4  UNL     1      56.292  13.672  53.779  1.00  0.00     0.038 C 
BRANCH   7   8
HETATM    8  C3  UNL     1      56.640  13.065  52.443  1.00  0.00     0.007 C 
BRANCH   8   9
HETATM    9  C2  UNL     1      55.765  11.891  52.166  1.00  0.00     0.037 C 
BRANCH   9  10
HETATM   10  C1  UNL     1      55.669  10.853  53.223  1.00  0.00     0.259 C 
BRANCH  10  11
HETATM   11  P1  UNL     1      56.944   9.619  53.199  1.00  0.00     0.281 P 
HETATM   12  O1  UNL     1      57.118   9.583  54.711  1.00  0.00    -0.639 OA
HETATM   13  O2  UNL     1      56.429   7.975  53.331  1.00  0.00    -0.639 OA
HETATM   14  O3  UNL     1      58.433   9.958  52.769  1.00  0.00    -0.639 OA
ENDBRANCH  10  11
BRANCH  10  15
HETATM   15  S1  UNL     1      54.039  10.094  52.958  1.00  0.00     0.119 S 
HETATM   16  O4  UNL     1      53.052  11.371  52.867  1.00  0.00    -0.594 OA
HETATM   17  O5  UNL     1      53.704   9.225  54.307  1.00  0.00    -0.594 OA
HETATM   18  O6  UNL     1      53.981   9.261  51.691  1.00  0.00    -0.594 OA
ENDBRANCH  10  15
ENDBRANCH   9  10
ENDBRANCH   8   9
ENDBRANCH   7   8
ENDBRANCH   1   7
BRANCH   4  19
HETATM   19  C9  UNL     1      57.633  19.259  53.468  1.00  0.00    -0.026 A 
HETATM   20  C10 UNL     1      58.333  19.876  54.494  1.00  0.00     0.012 A 
HETATM   21  C11 UNL     1      58.663  21.196  54.456  1.00  0.00     0.001 A 
HETATM   22  C12 UNL     1      58.280  21.940  53.346  1.00  0.00     0.000 A 
HETATM   23  C13 UNL     1      57.580  21.326  52.322  1.00  0.00     0.001 A 
HETATM   24  C14 UNL     1      57.258  20.002  52.376  1.00  0.00     0.012 A 
ENDBRANCH   4  19
TORSDOF 7
ENDMDL
