MODEL 9
REMARK VINA RESULT: -8.478721130      3.338      6.537
REMARK  8 active torsions:
REMARK  status: ('A' for Active; 'I' for Inactive)
REMARK    1  A    between atoms: C1_2  and  C2_6 
REMARK    2  A    between atoms: C5_9  and  C6_10 
REMARK    3  A    between atoms: C6_10  and  N3_11 
REMARK       I    between atoms: N3_11  and  C7_13 
REMARK    4  A    between atoms: C7_13  and  C8_15 
REMARK       I    between atoms: N4_19  and  C12_20 
REMARK    5  A    between atoms: C12_20  and  C13_22 
REMARK    6  A    between atoms: C13_22  and  N5_23 
REMARK    7  A    between atoms: C13_22  and  C14_27 
REMARK    8  A    between atoms: C14_27  and  C15_28 
ROOT
HETATM    1  C8  UNL     1      14.925 -14.866  20.970  1.00  0.00     0.179 C 
HETATM    2  C9  UNL     1      13.694 -15.776  21.135  1.00  0.00     0.037 C 
HETATM    3  C10 UNL     1      14.040 -16.825  20.116  1.00  0.00     0.022 C 
HETATM    4  C11 UNL     1      14.572 -16.018  18.995  1.00  0.00     0.127 C 
HETATM    5  N4  UNL     1      14.974 -14.698  19.544  1.00  0.00    -0.337 N 
HETATM    6  C12 UNL     1      15.303 -13.586  18.721  1.00  0.00     0.251 C 
HETATM    7  O2  UNL     1      15.198 -13.800  17.447  1.00  0.00    -0.271 OA
ENDROOT
BRANCH   1   8
HETATM    8  C7  UNL     1      16.058 -15.612  21.547  1.00  0.00     0.240 C 
HETATM    9  N3  UNL     1      16.136 -16.126  22.854  1.00  0.00    -0.355 N 
ATOM     10  H3  UNL     1      15.338 -15.976  23.471  1.00  0.00     0.162 HD
HETATM   11  O1  UNL     1      17.047 -15.803  20.792  1.00  0.00    -0.271 OA
BRANCH   9  12
HETATM   12  C6  UNL     1      17.278 -16.860  23.388  1.00  0.00     0.161 C 
BRANCH  12  13
HETATM   13  C5  UNL     1      18.333 -15.978  23.884  1.00  0.00    -0.040 A 
HETATM   14  C4  UNL     1      18.007 -14.868  24.631  1.00  0.00     0.010 A 
HETATM   15  C3  UNL     1      18.957 -14.002  25.120  1.00  0.00     0.015 A 
HETATM   16  C2  UNL     1      20.300 -14.263  24.845  1.00  0.00     0.004 A 
HETATM   17  C22 UNL     1      20.637 -15.363  24.104  1.00  0.00     0.015 A 
HETATM   18  C21 UNL     1      19.662 -16.205  23.632  1.00  0.00     0.010 A 
BRANCH  16  19
HETATM   19  C1  UNL     1      21.293 -13.333  25.376  1.00  0.00     0.120 C 
HETATM   20  N1  UNL     1      20.890 -12.461  26.434  1.00  0.00    -0.082 NA
HETATM   21  N2  UNL     1      22.494 -13.261  24.951  1.00  0.00    -0.387 N 
ATOM     22  H22 UNL     1      23.187 -12.610  25.321  1.00  0.00     0.157 HD
ATOM     23  H21 UNL     1      22.781 -13.883  24.195  1.00  0.00     0.157 HD
ENDBRANCH  16  19
ENDBRANCH  12  13
ENDBRANCH   9  12
ENDBRANCH   1   8
BRANCH   6  24
HETATM   24  C13 UNL     1      15.736 -12.254  19.131  1.00  0.00     0.279 C 
BRANCH  24  25
HETATM   25  N5  UNL     1      14.811 -11.179  18.952  1.00  0.00    -0.066 N 
ATOM     26  H53 UNL     1      14.204 -11.383  18.158  1.00  0.00     0.275 HD
ATOM     27  H52 UNL     1      14.133 -11.184  19.715  1.00  0.00     0.275 HD
ATOM     28  H51 UNL     1      15.197 -10.241  18.849  1.00  0.00     0.275 HD
ENDBRANCH  24  25
BRANCH  24  29
HETATM   29  C14 UNL     1      17.111 -11.890  18.565  1.00  0.00     0.081 C 
BRANCH  29  30
HETATM   30  C15 UNL     1      18.217 -12.209  19.480  1.00  0.00    -0.056 A 
HETATM   31  C16 UNL     1      19.542 -12.173  19.066  1.00  0.00     0.007 A 
HETATM   32  C17 UNL     1      20.603 -12.475  19.893  1.00  0.00     0.001 A 
HETATM   33  C18 UNL     1      20.343 -12.837  21.212  1.00  0.00     0.000 A 
HETATM   34  C19 UNL     1      19.038 -12.879  21.642  1.00  0.00     0.001 A 
HETATM   35  C20 UNL     1      18.000 -12.571  20.788  1.00  0.00     0.007 A 
ENDBRANCH  29  30
ENDBRANCH  24  29
ENDBRANCH   6  24
TORSDOF 8
ENDMDL
