MODEL 13
REMARK VINA RESULT: -8.430476669      3.404      6.450
REMARK  8 active torsions:
REMARK  status: ('A' for Active; 'I' for Inactive)
REMARK    1  A    between atoms: C1_2  and  C2_6 
REMARK    2  A    between atoms: C5_9  and  C6_10 
REMARK    3  A    between atoms: C6_10  and  N3_11 
REMARK       I    between atoms: N3_11  and  C7_13 
REMARK    4  A    between atoms: C7_13  and  C8_15 
REMARK       I    between atoms: N4_19  and  C12_20 
REMARK    5  A    between atoms: C12_20  and  C13_22 
REMARK    6  A    between atoms: C13_22  and  N5_23 
REMARK    7  A    between atoms: C13_22  and  C14_27 
REMARK    8  A    between atoms: C14_27  and  C15_28 
ROOT
HETATM    1  C8  UNL     1      15.037 -14.997  20.785  1.00  0.00     0.179 C 
HETATM    2  C9  UNL     1      13.877 -16.006  20.880  1.00  0.00     0.037 C 
HETATM    3  C10 UNL     1      14.374 -17.026  19.895  1.00  0.00     0.022 C 
HETATM    4  C11 UNL     1      14.907 -16.181  18.802  1.00  0.00     0.127 C 
HETATM    5  N4  UNL     1      15.162 -14.830  19.363  1.00  0.00    -0.337 N 
HETATM    6  C12 UNL     1      15.449 -13.698  18.553  1.00  0.00     0.251 C 
HETATM    7  O2  UNL     1      15.444 -13.924  17.277  1.00  0.00    -0.271 OA
ENDROOT
BRANCH   1   8
HETATM    8  C7  UNL     1      16.188 -15.643  21.439  1.00  0.00     0.240 C 
HETATM    9  N3  UNL     1      16.218 -16.168  22.744  1.00  0.00    -0.355 N 
ATOM     10  H3  UNL     1      15.366 -16.101  23.301  1.00  0.00     0.162 HD
HETATM   11  O1  UNL     1      17.244 -15.731  20.759  1.00  0.00    -0.271 OA
BRANCH   9  12
HETATM   12  C6  UNL     1      17.381 -16.800  23.356  1.00  0.00     0.161 C 
BRANCH  12  13
HETATM   13  C5  UNL     1      18.322 -15.831  23.914  1.00  0.00    -0.040 A 
HETATM   14  C4  UNL     1      19.673 -15.977  23.690  1.00  0.00     0.010 A 
HETATM   15  C3  UNL     1      20.604 -15.098  24.193  1.00  0.00     0.015 A 
HETATM   16  C2  UNL     1      20.156 -14.019  24.957  1.00  0.00     0.004 A 
HETATM   17  C22 UNL     1      18.816 -13.864  25.186  1.00  0.00     0.015 A 
HETATM   18  C21 UNL     1      17.916 -14.761  24.670  1.00  0.00     0.010 A 
BRANCH  16  19
HETATM   19  C1  UNL     1      21.161 -13.096  25.480  1.00  0.00     0.120 C 
HETATM   20  N1  UNL     1      22.408 -13.012  24.790  1.00  0.00    -0.082 NA
HETATM   21  N2  UNL     1      20.981 -12.364  26.509  1.00  0.00    -0.387 N 
ATOM     22  H22 UNL     1      21.683 -11.720  26.873  1.00  0.00     0.157 HD
ATOM     23  H21 UNL     1      20.090 -12.425  27.001  1.00  0.00     0.157 HD
ENDBRANCH  16  19
ENDBRANCH  12  13
ENDBRANCH   9  12
ENDBRANCH   1   8
BRANCH   6  24
HETATM   24  C13 UNL     1      15.743 -12.333  18.978  1.00  0.00     0.279 C 
BRANCH  24  25
HETATM   25  N5  UNL     1      14.751 -11.336  18.717  1.00  0.00    -0.066 N 
ATOM     26  H53 UNL     1      13.854 -11.790  18.544  1.00  0.00     0.275 HD
ATOM     27  H52 UNL     1      14.546 -10.830  19.579  1.00  0.00     0.275 HD
ATOM     28  H51 UNL     1      14.943 -10.669  17.971  1.00  0.00     0.275 HD
ENDBRANCH  24  25
BRANCH  24  29
HETATM   29  C14 UNL     1      17.123 -11.864  18.510  1.00  0.00     0.081 C 
BRANCH  29  30
HETATM   30  C15 UNL     1      18.198 -12.191  19.458  1.00  0.00    -0.056 A 
HETATM   31  C16 UNL     1      17.936 -12.476  20.792  1.00  0.00     0.007 A 
HETATM   32  C17 UNL     1      18.919 -12.777  21.710  1.00  0.00     0.001 A 
HETATM   33  C18 UNL     1      20.245 -12.799  21.289  1.00  0.00     0.000 A 
HETATM   34  C19 UNL     1      20.527 -12.520  19.973  1.00  0.00     0.001 A 
HETATM   35  C20 UNL     1      19.519 -12.222  19.080  1.00  0.00     0.007 A 
ENDBRANCH  29  30
ENDBRANCH  24  29
ENDBRANCH   6  24
TORSDOF 8
ENDMDL
