MODEL 15
REMARK VINA RESULT: -8.379812172      2.096      7.478
REMARK  8 active torsions:
REMARK  status: ('A' for Active; 'I' for Inactive)
REMARK    1  A    between atoms: C1_2  and  C2_6 
REMARK    2  A    between atoms: C5_9  and  C6_10 
REMARK    3  A    between atoms: C6_10  and  N3_11 
REMARK       I    between atoms: N3_11  and  C7_13 
REMARK    4  A    between atoms: C7_13  and  C8_15 
REMARK       I    between atoms: N4_19  and  C12_20 
REMARK    5  A    between atoms: C12_20  and  C13_22 
REMARK    6  A    between atoms: C13_22  and  N5_23 
REMARK    7  A    between atoms: C13_22  and  C14_27 
REMARK    8  A    between atoms: C14_27  and  C15_28 
ROOT
HETATM    1  C8  UNL     1      14.417 -14.059  20.020  1.00  0.00     0.179 C 
HETATM    2  C9  UNL     1      13.543 -15.007  19.178  1.00  0.00     0.037 C 
HETATM    3  C10 UNL     1      14.527 -15.325  18.087  1.00  0.00     0.022 C 
HETATM    4  C11 UNL     1      15.151 -14.008  17.827  1.00  0.00     0.127 C 
HETATM    5  N4  UNL     1      14.914 -13.155  19.019  1.00  0.00    -0.337 N 
HETATM    6  C12 UNL     1      15.160 -11.755  19.030  1.00  0.00     0.251 C 
HETATM    7  O2  UNL     1      15.583 -11.266  17.907  1.00  0.00    -0.271 OA
ENDROOT
BRANCH   1   8
HETATM    8  C7  UNL     1      15.440 -14.909  20.653  1.00  0.00     0.240 C 
HETATM    9  N3  UNL     1      16.814 -14.624  20.753  1.00  0.00    -0.355 N 
ATOM     10  H3  UNL     1      17.146 -13.747  20.352  1.00  0.00     0.162 HD
HETATM   11  O1  UNL     1      15.039 -15.994  21.152  1.00  0.00    -0.271 OA
BRANCH   9  12
HETATM   12  C6  UNL     1      17.797 -15.495  21.389  1.00  0.00     0.161 C 
BRANCH  12  13
HETATM   13  C5  UNL     1      18.664 -14.779  22.322  1.00  0.00    -0.040 A 
HETATM   14  C4  UNL     1      19.884 -14.299  21.897  1.00  0.00     0.010 A 
HETATM   15  C3  UNL     1      20.741 -13.622  22.732  1.00  0.00     0.015 A 
HETATM   16  C2  UNL     1      20.357 -13.416  24.058  1.00  0.00     0.004 A 
HETATM   17  C22 UNL     1      19.147 -13.887  24.491  1.00  0.00     0.015 A 
HETATM   18  C21 UNL     1      18.317 -14.559  23.631  1.00  0.00     0.010 A 
BRANCH  16  19
HETATM   19  C1  UNL     1      21.282 -12.692  24.926  1.00  0.00     0.120 C 
HETATM   20  N1  UNL     1      22.671 -12.733  24.600  1.00  0.00    -0.082 NA
HETATM   21  N2  UNL     1      20.915 -12.027  25.951  1.00  0.00    -0.387 N 
ATOM     22  H22 UNL     1      21.561 -11.522  26.558  1.00  0.00     0.157 HD
ATOM     23  H21 UNL     1      19.923 -11.997  26.184  1.00  0.00     0.157 HD
ENDBRANCH  16  19
ENDBRANCH  12  13
ENDBRANCH   9  12
ENDBRANCH   1   8
BRANCH   6  24
HETATM   24  C13 UNL     1      14.996 -10.817  20.135  1.00  0.00     0.279 C 
BRANCH  24  25
HETATM   25  N5  UNL     1      15.321 -11.284  21.447  1.00  0.00    -0.066 N 
ATOM     26  H53 UNL     1      16.334 -11.284  21.565  1.00  0.00     0.275 HD
ATOM     27  H52 UNL     1      15.048 -10.581  22.134  1.00  0.00     0.275 HD
ATOM     28  H51 UNL     1      14.948 -12.191  21.726  1.00  0.00     0.275 HD
ENDBRANCH  24  25
BRANCH  24  29
HETATM   29  C14 UNL     1      13.625 -10.137  20.123  1.00  0.00     0.081 C 
BRANCH  29  30
HETATM   30  C15 UNL     1      12.831 -10.411  21.329  1.00  0.00    -0.056 A 
HETATM   31  C16 UNL     1      12.294 -11.666  21.581  1.00  0.00     0.007 A 
HETATM   32  C17 UNL     1      11.537 -11.956  22.696  1.00  0.00     0.001 A 
HETATM   33  C18 UNL     1      11.293 -10.947  23.622  1.00  0.00     0.000 A 
HETATM   34  C19 UNL     1      11.815  -9.697  23.392  1.00  0.00     0.001 A 
HETATM   35  C20 UNL     1      12.569  -9.440  22.266  1.00  0.00     0.007 A 
ENDBRANCH  29  30
ENDBRANCH  24  29
ENDBRANCH   6  24
TORSDOF 8
ENDMDL
