MODEL 8
REMARK VINA RESULT: -8.587563509      1.784      2.685
REMARK  8 active torsions:
REMARK  status: ('A' for Active; 'I' for Inactive)
REMARK    1  A    between atoms: C1_2  and  C2_6 
REMARK    2  A    between atoms: C5_9  and  C6_10 
REMARK    3  A    between atoms: C6_10  and  N3_11 
REMARK       I    between atoms: N3_11  and  C7_13 
REMARK    4  A    between atoms: C7_13  and  C8_15 
REMARK       I    between atoms: N4_19  and  C12_20 
REMARK    5  A    between atoms: C12_20  and  C13_22 
REMARK    6  A    between atoms: C13_22  and  N5_23 
REMARK    7  A    between atoms: C13_22  and  C14_27 
REMARK    8  A    between atoms: C14_27  and  C15_28 
ROOT
HETATM    1  C8  UNL     1      18.725 -13.157  21.775  1.00  0.00     0.179 C 
HETATM    2  C9  UNL     1      19.578 -11.889  21.586  1.00  0.00     0.037 C 
HETATM    3  C10 UNL     1      19.938 -12.063  20.137  1.00  0.00     0.022 C 
HETATM    4  C11 UNL     1      20.227 -13.513  20.053  1.00  0.00     0.127 C 
HETATM    5  N4  UNL     1      19.578 -14.169  21.216  1.00  0.00    -0.337 N 
HETATM    6  C12 UNL     1      19.842 -15.514  21.592  1.00  0.00     0.251 C 
HETATM    7  O2  UNL     1      20.717 -16.125  20.857  1.00  0.00    -0.271 OA
ENDROOT
BRANCH   1   8
HETATM    8  C7  UNL     1      17.476 -12.916  21.031  1.00  0.00     0.240 C 
HETATM    9  N3  UNL     1      16.889 -11.665  20.771  1.00  0.00    -0.355 N 
ATOM     10  H3  UNL     1      17.365 -10.835  21.126  1.00  0.00     0.162 HD
HETATM   11  O1  UNL     1      16.881 -13.935  20.588  1.00  0.00    -0.271 OA
BRANCH   9  12
HETATM   12  C6  UNL     1      15.648 -11.469  20.029  1.00  0.00     0.161 C 
BRANCH  12  13
HETATM   13  C5  UNL     1      14.482 -11.353  20.902  1.00  0.00    -0.040 A 
HETATM   14  C4  UNL     1      14.031 -10.109  21.285  1.00  0.00     0.010 A 
HETATM   15  C3  UNL     1      12.941  -9.941  22.107  1.00  0.00     0.015 A 
HETATM   16  C2  UNL     1      12.272 -11.075  22.567  1.00  0.00     0.004 A 
HETATM   17  C22 UNL     1      12.710 -12.316  22.193  1.00  0.00     0.015 A 
HETATM   18  C21 UNL     1      13.801 -12.447  21.372  1.00  0.00     0.010 A 
BRANCH  16  19
HETATM   19  C1  UNL     1      11.115 -10.873  23.437  1.00  0.00     0.120 C 
HETATM   20  N1  UNL     1      10.950  -9.587  24.035  1.00  0.00    -0.082 NA
HETATM   21  N2  UNL     1      10.251 -11.778  23.685  1.00  0.00    -0.387 N 
ATOM     22  H22 UNL     1       9.444 -11.636  24.293  1.00  0.00     0.157 HD
ATOM     23  H21 UNL     1      10.369 -12.696  23.257  1.00  0.00     0.157 HD
ENDBRANCH  16  19
ENDBRANCH  12  13
ENDBRANCH   9  12
ENDBRANCH   1   8
BRANCH   6  24
HETATM   24  C13 UNL     1      19.254 -16.279  22.687  1.00  0.00     0.279 C 
BRANCH  24  25
HETATM   25  N5  UNL     1      17.905 -15.974  23.052  1.00  0.00    -0.066 N 
ATOM     26  H53 UNL     1      17.792 -14.962  23.110  1.00  0.00     0.275 HD
ATOM     27  H52 UNL     1      17.286 -16.190  22.270  1.00  0.00     0.275 HD
ATOM     28  H51 UNL     1      17.541 -16.405  23.901  1.00  0.00     0.275 HD
ENDBRANCH  24  25
BRANCH  24  29
HETATM   29  C14 UNL     1      20.158 -16.313  23.922  1.00  0.00     0.081 C 
BRANCH  29  30
HETATM   30  C15 UNL     1      20.621 -14.982  24.338  1.00  0.00    -0.056 A 
HETATM   31  C16 UNL     1      21.889 -14.515  24.017  1.00  0.00     0.007 A 
HETATM   32  C17 UNL     1      22.360 -13.277  24.398  1.00  0.00     0.001 A 
HETATM   33  C18 UNL     1      21.531 -12.445  25.144  1.00  0.00     0.000 A 
HETATM   34  C19 UNL     1      20.272 -12.887  25.473  1.00  0.00     0.001 A 
HETATM   35  C20 UNL     1      19.832 -14.132  25.075  1.00  0.00     0.007 A 
ENDBRANCH  29  30
ENDBRANCH  24  29
ENDBRANCH   6  24
TORSDOF 8
ENDMDL
