MODEL 3
REMARK VINA RESULT: -8.218857190      1.344      1.745
REMARK  7 active torsions:
REMARK  status: ('A' for Active; 'I' for Inactive)
REMARK    1  A    between atoms: C1_2  and  C2_6 
REMARK    2  A    between atoms: C5_9  and  C6_10 
REMARK    3  A    between atoms: C6_10  and  N3_11 
REMARK       I    between atoms: N3_11  and  C7_13 
REMARK    4  A    between atoms: C7_13  and  C8_15 
REMARK       I    between atoms: N4_19  and  C12_20 
REMARK    5  A    between atoms: C12_20  and  C13_22 
REMARK    6  A    between atoms: C13_22  and  C14_23 
REMARK    7  A    between atoms: C14_23  and  C15_24 
ROOT
HETATM    1  N3  UNL     1     -25.641   2.195  14.236  1.00  0.00    -0.355 N 
ATOM      2  H3  UNL     1     -25.464   2.983  14.859  1.00  0.00     0.162 HD
HETATM    3  C7  UNL     1     -26.970   1.708  14.098  1.00  0.00     0.240 C 
HETATM    4  O1  UNL     1     -27.151   0.737  13.323  1.00  0.00    -0.271 OA
ENDROOT
BRANCH   3   5
HETATM    5  C8  UNL     1     -28.096   2.330  14.845  1.00  0.00     0.179 C 
HETATM    6  C9  UNL     1     -28.745   3.440  14.030  1.00  0.00     0.037 C 
HETATM    7  C10 UNL     1     -28.838   4.586  15.015  1.00  0.00     0.022 C 
HETATM    8  C11 UNL     1     -27.571   4.361  15.845  1.00  0.00     0.127 C 
HETATM    9  N4  UNL     1     -27.663   2.940  16.072  1.00  0.00    -0.339 N 
HETATM   10  C12 UNL     1     -27.378   2.276  17.281  1.00  0.00     0.220 C 
HETATM   11  O2  UNL     1     -27.002   3.002  18.264  1.00  0.00    -0.273 OA
BRANCH  10  12
HETATM   12  C13 UNL     1     -27.525   0.817  17.342  1.00  0.00     0.103 C 
BRANCH  12  13
HETATM   13  C14 UNL     1     -28.968   0.466  17.545  1.00  0.00     0.014 C 
BRANCH  13  14
HETATM   14  C15 UNL     1     -29.067  -0.847  18.281  1.00  0.00    -0.014 C 
HETATM   15  C16 UNL     1     -30.539  -1.263  18.417  1.00  0.00     0.004 C 
HETATM   16  C17 UNL     1     -30.510  -2.760  18.686  1.00  0.00     0.000 C 
HETATM   17  C18 UNL     1     -29.346  -3.092  19.611  1.00  0.00     0.000 C 
HETATM   18  C19 UNL     1     -29.021  -1.903  20.493  1.00  0.00     0.000 C 
HETATM   19  C20 UNL     1     -28.513  -0.741  19.680  1.00  0.00     0.004 C 
ENDBRANCH  13  14
ENDBRANCH  12  13
ENDBRANCH  10  12
ENDBRANCH   3   5
BRANCH   1  20
HETATM   20  C6  UNL     1     -24.533   1.603  13.516  1.00  0.00     0.161 C 
BRANCH  20  21
HETATM   21  C5  UNL     1     -23.381   1.516  14.456  1.00  0.00    -0.040 A 
HETATM   22  C4  UNL     1     -23.475   1.908  15.775  1.00  0.00     0.010 A 
HETATM   23  C3  UNL     1     -22.385   1.821  16.647  1.00  0.00     0.015 A 
HETATM   24  C2  UNL     1     -21.166   1.339  16.223  1.00  0.00     0.004 A 
HETATM   25  C22 UNL     1     -21.091   0.947  14.885  1.00  0.00     0.015 A 
HETATM   26  C21 UNL     1     -22.163   1.032  14.027  1.00  0.00     0.010 A 
BRANCH  24  27
HETATM   27  C1  UNL     1     -20.006   1.232  17.101  1.00  0.00     0.120 C 
HETATM   28  N1  UNL     1     -19.212   0.067  17.004  1.00  0.00    -0.082 NA
HETATM   29  N2  UNL     1     -19.717   2.152  17.927  1.00  0.00    -0.387 N 
ATOM     30  H22 UNL     1     -18.906   2.078  18.541  1.00  0.00     0.157 HD
ATOM     31  H21 UNL     1     -20.290   2.993  17.997  1.00  0.00     0.157 HD
ENDBRANCH  24  27
ENDBRANCH  20  21
ENDBRANCH   1  20
TORSDOF 7
ENDMDL
