MODEL 9
REMARK VINA RESULT: -7.636275497      2.718      5.628
REMARK  7 active torsions:
REMARK  status: ('A' for Active; 'I' for Inactive)
REMARK    1  A    between atoms: C1_2  and  C2_6 
REMARK    2  A    between atoms: C5_9  and  C6_10 
REMARK    3  A    between atoms: C6_10  and  N3_11 
REMARK       I    between atoms: N3_11  and  C7_13 
REMARK    4  A    between atoms: C7_13  and  C8_15 
REMARK       I    between atoms: N4_19  and  C12_20 
REMARK    5  A    between atoms: C12_20  and  C13_22 
REMARK    6  A    between atoms: C13_22  and  C14_23 
REMARK    7  A    between atoms: C14_23  and  C15_24 
ROOT
HETATM    1  N3  UNL     1     -25.048   2.343  14.205  1.00  0.00    -0.355 N 
ATOM      2  H3  UNL     1     -25.075   2.716  15.154  1.00  0.00     0.162 HD
HETATM    3  C7  UNL     1     -26.263   1.938  13.587  1.00  0.00     0.240 C 
HETATM    4  O1  UNL     1     -26.194   1.484  12.419  1.00  0.00    -0.271 OA
ENDROOT
BRANCH   3   5
HETATM    5  C8  UNL     1     -27.563   2.052  14.303  1.00  0.00     0.179 C 
HETATM    6  C9  UNL     1     -27.624   1.090  15.480  1.00  0.00     0.037 C 
HETATM    7  C10 UNL     1     -28.970   0.420  15.313  1.00  0.00     0.022 C 
HETATM    8  C11 UNL     1     -29.088   0.377  13.787  1.00  0.00     0.127 C 
HETATM    9  N4  UNL     1     -28.678   1.720  13.461  1.00  0.00    -0.339 N 
HETATM   10  C12 UNL     1     -29.270   2.552  12.491  1.00  0.00     0.220 C 
HETATM   11  O2  UNL     1     -30.259   2.068  11.840  1.00  0.00    -0.273 OA
BRANCH  10  12
HETATM   12  C13 UNL     1     -28.729   3.901  12.285  1.00  0.00     0.103 C 
BRANCH  12  13
HETATM   13  C14 UNL     1     -28.935   4.311  10.857  1.00  0.00     0.014 C 
BRANCH  13  14
HETATM   14  C15 UNL     1     -27.599   4.396  10.161  1.00  0.00    -0.014 C 
HETATM   15  C16 UNL     1     -27.257   3.046   9.514  1.00  0.00     0.004 C 
HETATM   16  C17 UNL     1     -26.211   3.361   8.456  1.00  0.00     0.000 C 
HETATM   17  C18 UNL     1     -25.255   4.424   8.981  1.00  0.00     0.000 C 
HETATM   18  C19 UNL     1     -25.171   4.353  10.493  1.00  0.00     0.000 C 
HETATM   19  C20 UNL     1     -26.487   4.707  11.133  1.00  0.00     0.004 C 
ENDBRANCH  13  14
ENDBRANCH  12  13
ENDBRANCH  10  12
ENDBRANCH   3   5
BRANCH   1  20
HETATM   20  C6  UNL     1     -23.776   2.240  13.524  1.00  0.00     0.161 C 
BRANCH  20  21
HETATM   21  C5  UNL     1     -22.750   1.868  14.539  1.00  0.00    -0.040 A 
HETATM   22  C4  UNL     1     -22.856   2.240  15.862  1.00  0.00     0.010 A 
HETATM   23  C3  UNL     1     -21.886   1.885  16.806  1.00  0.00     0.015 A 
HETATM   24  C2  UNL     1     -20.779   1.144  16.450  1.00  0.00     0.004 A 
HETATM   25  C22 UNL     1     -20.691   0.777  15.106  1.00  0.00     0.015 A 
HETATM   26  C21 UNL     1     -21.645   1.127  14.177  1.00  0.00     0.010 A 
BRANCH  24  27
HETATM   27  C1  UNL     1     -19.747   0.754  17.402  1.00  0.00     0.120 C 
HETATM   28  N1  UNL     1     -19.905   1.159  18.748  1.00  0.00    -0.082 NA
HETATM   29  N2  UNL     1     -18.737   0.074  17.041  1.00  0.00    -0.387 N 
ATOM     30  H22 UNL     1     -18.015  -0.199  17.707  1.00  0.00     0.157 HD
ATOM     31  H21 UNL     1     -18.623  -0.217  16.070  1.00  0.00     0.157 HD
ENDBRANCH  24  27
ENDBRANCH  20  21
ENDBRANCH   1  20
TORSDOF 7
ENDMDL
