MODEL 5
REMARK VINA RESULT: -7.890778999      2.586      6.640
REMARK  7 active torsions:
REMARK  status: ('A' for Active; 'I' for Inactive)
REMARK    1  A    between atoms: C1_2  and  C2_6 
REMARK    2  A    between atoms: C5_9  and  C6_10 
REMARK    3  A    between atoms: C6_10  and  N3_11 
REMARK       I    between atoms: N3_11  and  C7_13 
REMARK    4  A    between atoms: C7_13  and  C8_15 
REMARK       I    between atoms: N4_19  and  C12_20 
REMARK    5  A    between atoms: C12_20  and  C13_22 
REMARK    6  A    between atoms: C13_22  and  C14_23 
REMARK    7  A    between atoms: C14_23  and  C15_24 
ROOT
HETATM    1  N3  UNL     1     -26.564   1.147  16.872  1.00  0.00    -0.355 N 
ATOM      2  H3  UNL     1     -27.003   0.354  16.404  1.00  0.00     0.162 HD
HETATM    3  C7  UNL     1     -25.405   1.736  16.295  1.00  0.00     0.240 C 
HETATM    4  O1  UNL     1     -24.890   2.710  16.898  1.00  0.00    -0.271 OA
ENDROOT
BRANCH   3   5
HETATM    5  C8  UNL     1     -24.832   1.214  15.025  1.00  0.00     0.179 C 
HETATM    6  C9  UNL     1     -23.358   1.574  14.902  1.00  0.00     0.037 C 
HETATM    7  C10 UNL     1     -23.251   2.130  13.499  1.00  0.00     0.022 C 
HETATM    8  C11 UNL     1     -24.615   2.808  13.348  1.00  0.00     0.127 C 
HETATM    9  N4  UNL     1     -25.474   1.773  13.868  1.00  0.00    -0.339 N 
HETATM   10  C12 UNL     1     -26.718   1.386  13.333  1.00  0.00     0.220 C 
HETATM   11  O2  UNL     1     -27.120   2.012  12.293  1.00  0.00    -0.273 OA
BRANCH  10  12
HETATM   12  C13 UNL     1     -27.468   0.307  13.987  1.00  0.00     0.103 C 
BRANCH  12  13
HETATM   13  C14 UNL     1     -28.864   0.264  13.439  1.00  0.00     0.014 C 
BRANCH  13  14
HETATM   14  C15 UNL     1     -29.851   0.307  14.579  1.00  0.00    -0.014 C 
HETATM   15  C16 UNL     1     -31.269   0.031  14.056  1.00  0.00     0.004 C 
HETATM   16  C17 UNL     1     -32.069  -0.402  15.274  1.00  0.00     0.000 C 
HETATM   17  C18 UNL     1     -31.654   0.428  16.482  1.00  0.00     0.000 C 
HETATM   18  C19 UNL     1     -31.152   1.787  16.037  1.00  0.00     0.000 C 
HETATM   19  C20 UNL     1     -29.885   1.666  15.232  1.00  0.00     0.004 C 
ENDBRANCH  13  14
ENDBRANCH  12  13
ENDBRANCH  10  12
ENDBRANCH   3   5
BRANCH   1  20
HETATM   20  C6  UNL     1     -27.136   1.642  18.106  1.00  0.00     0.161 C 
BRANCH  20  21
HETATM   21  C5  UNL     1     -27.881   0.518  18.740  1.00  0.00    -0.040 A 
HETATM   22  C4  UNL     1     -27.956   0.364  20.108  1.00  0.00     0.010 A 
HETATM   23  C3  UNL     1     -28.659  -0.696  20.691  1.00  0.00     0.015 A 
HETATM   24  C2  UNL     1     -29.308  -1.635  19.918  1.00  0.00     0.004 A 
HETATM   25  C22 UNL     1     -29.220  -1.461  18.535  1.00  0.00     0.015 A 
HETATM   26  C21 UNL     1     -28.529  -0.418  17.962  1.00  0.00     0.010 A 
BRANCH  24  27
HETATM   27  C1  UNL     1     -30.051  -2.753  20.486  1.00  0.00     0.120 C 
HETATM   28  N1  UNL     1     -29.310  -3.845  20.994  1.00  0.00    -0.082 NA
HETATM   29  N2  UNL     1     -31.320  -2.752  20.525  1.00  0.00    -0.387 N 
ATOM     30  H22 UNL     1     -31.839  -3.534  20.923  1.00  0.00     0.157 HD
ATOM     31  H21 UNL     1     -31.854  -1.964  20.158  1.00  0.00     0.157 HD
ENDBRANCH  24  27
ENDBRANCH  20  21
ENDBRANCH   1  20
TORSDOF 7
ENDMDL
