MODEL 2
REMARK VINA RESULT: -8.220005240      0.511      1.054
REMARK  7 active torsions:
REMARK  status: ('A' for Active; 'I' for Inactive)
REMARK    1  A    between atoms: C1_2  and  C2_6 
REMARK    2  A    between atoms: C5_9  and  C6_10 
REMARK    3  A    between atoms: C6_10  and  N3_11 
REMARK       I    between atoms: N3_11  and  C7_13 
REMARK    4  A    between atoms: C7_13  and  C8_15 
REMARK       I    between atoms: N4_19  and  C12_20 
REMARK    5  A    between atoms: C12_20  and  C13_22 
REMARK    6  A    between atoms: C13_22  and  C14_23 
REMARK    7  A    between atoms: C14_23  and  C15_24 
ROOT
HETATM    1  N3  UNL     1     -25.605   1.097  14.309  1.00  0.00    -0.355 N 
ATOM      2  H3  UNL     1     -25.487   0.653  15.220  1.00  0.00     0.162 HD
HETATM    3  C7  UNL     1     -26.902   1.154  13.730  1.00  0.00     0.240 C 
HETATM    4  O1  UNL     1     -27.011   1.708  12.608  1.00  0.00    -0.271 OA
ENDROOT
BRANCH   3   5
HETATM    5  C8  UNL     1     -28.081   0.579  14.433  1.00  0.00     0.179 C 
HETATM    6  C9  UNL     1     -29.041  -0.071  13.447  1.00  0.00     0.037 C 
HETATM    7  C10 UNL     1     -30.388   0.485  13.853  1.00  0.00     0.022 C 
HETATM    8  C11 UNL     1     -29.995   1.891  14.317  1.00  0.00     0.127 C 
HETATM    9  N4  UNL     1     -28.843   1.580  15.126  1.00  0.00    -0.339 N 
HETATM   10  C12 UNL     1     -28.527   2.159  16.371  1.00  0.00     0.220 C 
HETATM   11  O2  UNL     1     -29.337   3.041  16.820  1.00  0.00    -0.273 OA
BRANCH  10  12
HETATM   12  C13 UNL     1     -27.309   1.727  17.067  1.00  0.00     0.103 C 
BRANCH  12  13
HETATM   13  C14 UNL     1     -27.442   2.012  18.533  1.00  0.00     0.014 C 
BRANCH  13  14
HETATM   14  C15 UNL     1     -28.222   0.901  19.192  1.00  0.00    -0.014 C 
HETATM   15  C16 UNL     1     -27.476   0.405  20.439  1.00  0.00     0.004 C 
HETATM   16  C17 UNL     1     -28.525  -0.305  21.280  1.00  0.00     0.000 C 
HETATM   17  C18 UNL     1     -29.468  -1.084  20.372  1.00  0.00     0.000 C 
HETATM   18  C19 UNL     1     -28.754  -1.490  19.098  1.00  0.00     0.000 C 
HETATM   19  C20 UNL     1     -28.376  -0.287  18.275  1.00  0.00     0.004 C 
ENDBRANCH  13  14
ENDBRANCH  12  13
ENDBRANCH  10  12
ENDBRANCH   3   5
BRANCH   1  20
HETATM   20  C6  UNL     1     -24.447   1.652  13.641  1.00  0.00     0.161 C 
BRANCH  20  21
HETATM   21  C5  UNL     1     -23.289   1.532  14.572  1.00  0.00    -0.040 A 
HETATM   22  C4  UNL     1     -23.308   2.066  15.842  1.00  0.00     0.010 A 
HETATM   23  C3  UNL     1     -22.214   1.947  16.706  1.00  0.00     0.015 A 
HETATM   24  C2  UNL     1     -21.067   1.287  16.321  1.00  0.00     0.004 A 
HETATM   25  C22 UNL     1     -21.068   0.753  15.031  1.00  0.00     0.015 A 
HETATM   26  C21 UNL     1     -22.144   0.871  14.181  1.00  0.00     0.010 A 
BRANCH  24  27
HETATM   27  C1  UNL     1     -19.906   1.141  17.191  1.00  0.00     0.120 C 
HETATM   28  N1  UNL     1     -19.142  -0.043  17.076  1.00  0.00    -0.082 NA
HETATM   29  N2  UNL     1     -19.589   2.043  18.027  1.00  0.00    -0.387 N 
ATOM     30  H22 UNL     1     -18.777   1.941  18.635  1.00  0.00     0.157 HD
ATOM     31  H21 UNL     1     -20.141   2.897  18.110  1.00  0.00     0.157 HD
ENDBRANCH  24  27
ENDBRANCH  20  21
ENDBRANCH   1  20
TORSDOF 7
ENDMDL
