MODEL 4
REMARK VINA RESULT: -7.893984543      1.335      1.941
REMARK  7 active torsions:
REMARK  status: ('A' for Active; 'I' for Inactive)
REMARK    1  A    between atoms: C1_2  and  C2_6 
REMARK    2  A    between atoms: C5_9  and  C6_10 
REMARK    3  A    between atoms: C6_10  and  N3_11 
REMARK       I    between atoms: N3_11  and  C7_13 
REMARK    4  A    between atoms: C7_13  and  C8_15 
REMARK       I    between atoms: N4_19  and  C12_20 
REMARK    5  A    between atoms: C12_20  and  C13_22 
REMARK    6  A    between atoms: C13_22  and  C14_23 
REMARK    7  A    between atoms: C14_23  and  C15_24 
ROOT
HETATM    1  N3  UNL     1     -25.631   2.133  14.381  1.00  0.00    -0.355 N 
ATOM      2  H3  UNL     1     -25.466   2.903  15.029  1.00  0.00     0.162 HD
HETATM    3  C7  UNL     1     -26.948   1.615  14.243  1.00  0.00     0.240 C 
HETATM    4  O1  UNL     1     -27.114   0.666  13.437  1.00  0.00    -0.271 OA
ENDROOT
BRANCH   3   5
HETATM    5  C8  UNL     1     -28.080   2.180  15.026  1.00  0.00     0.179 C 
HETATM    6  C9  UNL     1     -28.865   3.189  14.199  1.00  0.00     0.037 C 
HETATM    7  C10 UNL     1     -29.001   4.373  15.132  1.00  0.00     0.022 C 
HETATM    8  C11 UNL     1     -27.676   4.297  15.895  1.00  0.00     0.127 C 
HETATM    9  N4  UNL     1     -27.633   2.887  16.194  1.00  0.00    -0.339 N 
HETATM   10  C12 UNL     1     -27.226   2.312  17.414  1.00  0.00     0.220 C 
HETATM   11  O2  UNL     1     -26.859   3.117  18.337  1.00  0.00    -0.273 OA
BRANCH  10  12
HETATM   12  C13 UNL     1     -27.244   0.851  17.553  1.00  0.00     0.103 C 
BRANCH  12  13
HETATM   13  C14 UNL     1     -27.702   0.485  18.933  1.00  0.00     0.014 C 
BRANCH  13  14
HETATM   14  C15 UNL     1     -29.032  -0.222  18.849  1.00  0.00    -0.014 C 
HETATM   15  C16 UNL     1     -28.821  -1.743  18.874  1.00  0.00     0.004 C 
HETATM   16  C17 UNL     1     -30.160  -2.328  19.293  1.00  0.00     0.000 C 
HETATM   17  C18 UNL     1     -31.290  -1.543  18.639  1.00  0.00     0.000 C 
HETATM   18  C19 UNL     1     -30.819  -0.938  17.331  1.00  0.00     0.000 C 
HETATM   19  C20 UNL     1     -29.749   0.097  17.561  1.00  0.00     0.004 C 
ENDBRANCH  13  14
ENDBRANCH  12  13
ENDBRANCH  10  12
ENDBRANCH   3   5
BRANCH   1  20
HETATM   20  C6  UNL     1     -24.518   1.596  13.627  1.00  0.00     0.161 C 
BRANCH  20  21
HETATM   21  C5  UNL     1     -23.353   1.498  14.551  1.00  0.00    -0.040 A 
HETATM   22  C4  UNL     1     -23.396   1.982  15.842  1.00  0.00     0.010 A 
HETATM   23  C3  UNL     1     -22.295   1.885  16.700  1.00  0.00     0.015 A 
HETATM   24  C2  UNL     1     -21.116   1.299  16.289  1.00  0.00     0.004 A 
HETATM   25  C22 UNL     1     -21.094   0.816  14.979  1.00  0.00     0.015 A 
HETATM   26  C21 UNL     1     -22.177   0.911  14.135  1.00  0.00     0.010 A 
BRANCH  24  27
HETATM   27  C1  UNL     1     -19.948   1.178  17.152  1.00  0.00     0.120 C 
HETATM   28  N1  UNL     1     -19.159   0.011  17.032  1.00  0.00    -0.082 NA
HETATM   29  N2  UNL     1     -19.645   2.087  17.986  1.00  0.00    -0.387 N 
ATOM     30  H22 UNL     1     -18.828   2.002  18.589  1.00  0.00     0.157 HD
ATOM     31  H21 UNL     1     -20.215   2.929  18.072  1.00  0.00     0.157 HD
ENDBRANCH  24  27
ENDBRANCH  20  21
ENDBRANCH   1  20
TORSDOF 7
ENDMDL
