MODEL 14
REMARK VINA RESULT: -7.456278534      1.885      4.731
REMARK  7 active torsions:
REMARK  status: ('A' for Active; 'I' for Inactive)
REMARK    1  A    between atoms: C1_2  and  C2_6 
REMARK    2  A    between atoms: C5_9  and  C6_10 
REMARK    3  A    between atoms: C6_10  and  N3_11 
REMARK       I    between atoms: N3_11  and  C7_13 
REMARK    4  A    between atoms: C7_13  and  C8_15 
REMARK       I    between atoms: N4_19  and  C12_20 
REMARK    5  A    between atoms: C12_20  and  C13_22 
REMARK    6  A    between atoms: C13_22  and  C14_23 
REMARK    7  A    between atoms: C14_23  and  C15_24 
ROOT
HETATM    1  N3  UNL     1     -26.006   2.059  15.259  1.00  0.00    -0.355 N 
ATOM      2  H3  UNL     1     -25.970   2.950  15.754  1.00  0.00     0.162 HD
HETATM    3  C7  UNL     1     -27.042   1.136  15.570  1.00  0.00     0.240 C 
HETATM    4  O1  UNL     1     -27.056   0.049  14.941  1.00  0.00    -0.271 OA
ENDROOT
BRANCH   3   5
HETATM    5  C8  UNL     1     -28.065   1.452  16.603  1.00  0.00     0.179 C 
HETATM    6  C9  UNL     1     -27.438   1.532  17.987  1.00  0.00     0.037 C 
HETATM    7  C10 UNL     1     -28.361   0.685  18.837  1.00  0.00     0.022 C 
HETATM    8  C11 UNL     1     -28.786  -0.386  17.828  1.00  0.00     0.127 C 
HETATM    9  N4  UNL     1     -29.084   0.442  16.686  1.00  0.00    -0.339 N 
HETATM   10  C12 UNL     1     -30.178   0.285  15.813  1.00  0.00     0.220 C 
HETATM   11  O2  UNL     1     -30.977  -0.684  16.057  1.00  0.00    -0.273 OA
BRANCH  10  12
HETATM   12  C13 UNL     1     -30.336   1.221  14.694  1.00  0.00     0.103 C 
BRANCH  12  13
HETATM   13  C14 UNL     1     -30.155   0.488  13.398  1.00  0.00     0.014 C 
BRANCH  13  14
HETATM   14  C15 UNL     1     -29.450   1.384  12.409  1.00  0.00    -0.014 C 
HETATM   15  C16 UNL     1     -29.189   2.759  13.040  1.00  0.00     0.004 C 
HETATM   16  C17 UNL     1     -28.076   3.378  12.210  1.00  0.00     0.000 C 
HETATM   17  C18 UNL     1     -28.284   3.039  10.740  1.00  0.00     0.000 C 
HETATM   18  C19 UNL     1     -29.758   2.829  10.454  1.00  0.00     0.000 C 
HETATM   19  C20 UNL     1     -30.290   1.621  11.179  1.00  0.00     0.004 C 
ENDBRANCH  13  14
ENDBRANCH  12  13
ENDBRANCH  10  12
ENDBRANCH   3   5
BRANCH   1  20
HETATM   20  C6  UNL     1     -25.002   1.769  14.257  1.00  0.00     0.161 C 
BRANCH  20  21
HETATM   21  C5  UNL     1     -23.699   1.602  14.960  1.00  0.00    -0.040 A 
HETATM   22  C4  UNL     1     -22.644   0.914  14.399  1.00  0.00     0.010 A 
HETATM   23  C3  UNL     1     -21.425   0.764  15.070  1.00  0.00     0.015 A 
HETATM   24  C2  UNL     1     -21.228   1.299  16.325  1.00  0.00     0.004 A 
HETATM   25  C22 UNL     1     -22.309   1.991  16.875  1.00  0.00     0.015 A 
HETATM   26  C21 UNL     1     -23.508   2.139  16.216  1.00  0.00     0.010 A 
BRANCH  24  27
HETATM   27  C1  UNL     1     -19.975   1.165  17.057  1.00  0.00     0.120 C 
HETATM   28  N1  UNL     1     -19.220  -0.015  16.859  1.00  0.00    -0.082 NA
HETATM   29  N2  UNL     1     -19.570   2.073  17.847  1.00  0.00    -0.387 N 
ATOM     30  H22 UNL     1     -18.693   1.979  18.359  1.00  0.00     0.157 HD
ATOM     31  H21 UNL     1     -20.115   2.923  17.990  1.00  0.00     0.157 HD
ENDBRANCH  24  27
ENDBRANCH  20  21
ENDBRANCH   1  20
TORSDOF 7
ENDMDL
