MODEL 1
REMARK VINA RESULT: -8.414155628      0.000      0.000
REMARK  7 active torsions:
REMARK  status: ('A' for Active; 'I' for Inactive)
REMARK    1  A    between atoms: C1_2  and  C2_6 
REMARK    2  A    between atoms: C5_9  and  C6_10 
REMARK    3  A    between atoms: C6_10  and  N3_11 
REMARK       I    between atoms: N3_11  and  C7_13 
REMARK    4  A    between atoms: C7_13  and  C8_15 
REMARK       I    between atoms: N4_19  and  C12_20 
REMARK    5  A    between atoms: C12_20  and  C13_22 
REMARK    6  A    between atoms: C13_22  and  C14_23 
REMARK    7  A    between atoms: C14_23  and  C15_24 
ROOT
HETATM    1  N3  UNL     1     -25.682   1.136  14.391  1.00  0.00    -0.355 N 
ATOM      2  H3  UNL     1     -25.569   0.776  15.338  1.00  0.00     0.162 HD
HETATM    3  C7  UNL     1     -26.979   1.156  13.808  1.00  0.00     0.240 C 
HETATM    4  O1  UNL     1     -27.080   1.606  12.640  1.00  0.00    -0.271 OA
ENDROOT
BRANCH   3   5
HETATM    5  C8  UNL     1     -28.164   0.663  14.559  1.00  0.00     0.179 C 
HETATM    6  C9  UNL     1     -29.125  -0.076  13.639  1.00  0.00     0.037 C 
HETATM    7  C10 UNL     1     -30.470   0.528  13.981  1.00  0.00     0.022 C 
HETATM    8  C11 UNL     1     -30.068   1.971  14.304  1.00  0.00     0.127 C 
HETATM    9  N4  UNL     1     -28.921   1.734  15.145  1.00  0.00    -0.339 N 
HETATM   10  C12 UNL     1     -28.605   2.433  16.327  1.00  0.00     0.220 C 
HETATM   11  O2  UNL     1     -29.410   3.361  16.682  1.00  0.00    -0.273 OA
BRANCH  10  12
HETATM   12  C13 UNL     1     -27.394   2.063  17.068  1.00  0.00     0.103 C 
BRANCH  12  13
HETATM   13  C14 UNL     1     -27.741   1.823  18.507  1.00  0.00     0.014 C 
BRANCH  13  14
HETATM   14  C15 UNL     1     -28.194   0.394  18.682  1.00  0.00    -0.014 C 
HETATM   15  C16 UNL     1     -29.700   0.284  18.401  1.00  0.00     0.004 C 
HETATM   16  C17 UNL     1     -29.947  -1.187  18.103  1.00  0.00     0.000 C 
HETATM   17  C18 UNL     1     -29.093  -2.047  19.026  1.00  0.00     0.000 C 
HETATM   18  C19 UNL     1     -28.822  -1.313  20.324  1.00  0.00     0.000 C 
HETATM   19  C20 UNL     1     -27.978  -0.087  20.094  1.00  0.00     0.004 C 
ENDBRANCH  13  14
ENDBRANCH  12  13
ENDBRANCH  10  12
ENDBRANCH   3   5
BRANCH   1  20
HETATM   20  C6  UNL     1     -24.517   1.612  13.675  1.00  0.00     0.161 C 
BRANCH  20  21
HETATM   21  C5  UNL     1     -23.349   1.503  14.594  1.00  0.00    -0.040 A 
HETATM   22  C4  UNL     1     -23.379   1.991  15.883  1.00  0.00     0.010 A 
HETATM   23  C3  UNL     1     -22.274   1.883  16.735  1.00  0.00     0.015 A 
HETATM   24  C2  UNL     1     -21.105   1.283  16.320  1.00  0.00     0.004 A 
HETATM   25  C22 UNL     1     -21.095   0.795  15.011  1.00  0.00     0.015 A 
HETATM   26  C21 UNL     1     -22.182   0.901  14.173  1.00  0.00     0.010 A 
BRANCH  24  27
HETATM   27  C1  UNL     1     -19.934   1.150  17.177  1.00  0.00     0.120 C 
HETATM   28  N1  UNL     1     -19.155  -0.024  17.052  1.00  0.00    -0.082 NA
HETATM   29  N2  UNL     1     -19.619   2.055  18.011  1.00  0.00    -0.387 N 
ATOM     30  H22 UNL     1     -18.800   1.962  18.610  1.00  0.00     0.157 HD
ATOM     31  H21 UNL     1     -20.181   2.902  18.101  1.00  0.00     0.157 HD
ENDBRANCH  24  27
ENDBRANCH  20  21
ENDBRANCH   1  20
TORSDOF 7
ENDMDL
