MODEL 2
REMARK VINA RESULT: -8.049823450      0.835      1.148
REMARK  7 active torsions:
REMARK  status: ('A' for Active; 'I' for Inactive)
REMARK    1  A    between atoms: C1_2  and  C2_6 
REMARK    2  A    between atoms: C5_9  and  C6_10 
REMARK    3  A    between atoms: C6_10  and  N3_11 
REMARK       I    between atoms: N3_11  and  C7_13 
REMARK    4  A    between atoms: C7_13  and  C8_15 
REMARK       I    between atoms: N4_19  and  C12_20 
REMARK    5  A    between atoms: C12_20  and  C13_22 
REMARK    6  A    between atoms: C13_22  and  O3_23 
REMARK    7  A    between atoms: O3_23  and  C14_24 
ROOT
HETATM    1  N3  UNL     1     -25.968   2.416  14.380  1.00  0.00    -0.355 N 
ATOM      2  H3  UNL     1     -25.944   3.434  14.447  1.00  0.00     0.162 HD
HETATM    3  C7  UNL     1     -27.113   1.735  14.865  1.00  0.00     0.240 C 
HETATM    4  O1  UNL     1     -27.068   0.465  14.749  1.00  0.00    -0.271 OA
ENDROOT
BRANCH   3   5
HETATM    5  C8  UNL     1     -28.297   2.387  15.469  1.00  0.00     0.179 C 
HETATM    6  C9  UNL     1     -28.107   3.864  15.551  1.00  0.00     0.037 C 
HETATM    7  C10 UNL     1     -27.776   4.174  16.991  1.00  0.00     0.022 C 
HETATM    8  C11 UNL     1     -27.499   2.781  17.605  1.00  0.00     0.127 C 
HETATM    9  N4  UNL     1     -28.463   1.987  16.890  1.00  0.00    -0.337 N 
HETATM   10  C12 UNL     1     -29.373   1.025  17.349  1.00  0.00     0.244 C 
HETATM   11  O2  UNL     1     -30.122   0.491  16.463  1.00  0.00    -0.271 OA
BRANCH  10  12
HETATM   12  C13 UNL     1     -29.544   0.582  18.722  1.00  0.00     0.271 C 
BRANCH  12  13
HETATM   13  O3  UNL     1     -30.799   0.126  18.982  1.00  0.00    -0.377 OA
BRANCH  13  14
HETATM   14  C14 UNL     1     -30.826  -1.135  19.573  1.00  0.00     0.122 C 
HETATM   15  C15 UNL     1     -30.683  -2.243  18.586  1.00  0.00     0.032 C 
HETATM   16  C16 UNL     1     -29.470  -3.050  19.028  1.00  0.00     0.002 C 
HETATM   17  C17 UNL     1     -29.449  -2.796  20.533  1.00  0.00     0.002 C 
HETATM   18  C18 UNL     1     -29.733  -1.313  20.585  1.00  0.00     0.032 C 
ENDBRANCH  13  14
ENDBRANCH  12  13
ENDBRANCH  10  12
ENDBRANCH   3   5
BRANCH   1  19
HETATM   19  C6  UNL     1     -24.830   1.739  13.794  1.00  0.00     0.161 C 
BRANCH  19  20
HETATM   20  C5  UNL     1     -23.688   1.651  14.721  1.00  0.00    -0.040 A 
HETATM   21  C4  UNL     1     -23.705   2.153  16.003  1.00  0.00     0.010 A 
HETATM   22  C3  UNL     1     -22.559   2.017  16.796  1.00  0.00     0.015 A 
HETATM   23  C2  UNL     1     -21.415   1.400  16.345  1.00  0.00     0.004 A 
HETATM   24  C20 UNL     1     -21.414   0.893  15.037  1.00  0.00     0.015 A 
HETATM   25  C19 UNL     1     -22.538   1.032  14.274  1.00  0.00     0.010 A 
BRANCH  23  26
HETATM   26  C1  UNL     1     -20.198   1.226  17.111  1.00  0.00     0.120 C 
HETATM   27  N1  UNL     1     -19.413   0.039  16.969  1.00  0.00    -0.082 NA
HETATM   28  N2  UNL     1     -19.803   2.122  17.918  1.00  0.00    -0.387 N 
ATOM     29  H22 UNL     1     -18.946   1.999  18.458  1.00  0.00     0.157 HD
ATOM     30  H21 UNL     1     -20.363   2.968  18.019  1.00  0.00     0.157 HD
ENDBRANCH  23  26
ENDBRANCH  19  20
ENDBRANCH   1  19
TORSDOF 7
ENDMDL
