MODEL 20
REMARK VINA RESULT: -6.993312015      3.079      4.678
REMARK  7 active torsions:
REMARK  status: ('A' for Active; 'I' for Inactive)
REMARK    1  A    between atoms: C1_2  and  C2_6 
REMARK    2  A    between atoms: C5_9  and  C6_10 
REMARK    3  A    between atoms: C6_10  and  N3_11 
REMARK       I    between atoms: N3_11  and  C7_13 
REMARK    4  A    between atoms: C7_13  and  C8_15 
REMARK       I    between atoms: N4_19  and  C12_20 
REMARK    5  A    between atoms: C12_20  and  C13_22 
REMARK    6  A    between atoms: C13_22  and  O3_23 
REMARK    7  A    between atoms: O3_23  and  C14_24 
ROOT
HETATM    1  N3  UNL     1     -26.263   1.797  14.905  1.00  0.00    -0.355 N 
ATOM      2  H3  UNL     1     -26.263   1.405  15.847  1.00  0.00     0.162 HD
HETATM    3  C7  UNL     1     -27.461   2.378  14.416  1.00  0.00     0.240 C 
HETATM    4  O1  UNL     1     -27.384   2.843  13.230  1.00  0.00    -0.271 OA
ENDROOT
BRANCH   3   5
HETATM    5  C8  UNL     1     -28.732   2.467  15.171  1.00  0.00     0.179 C 
HETATM    6  C9  UNL     1     -28.668   1.650  16.417  1.00  0.00     0.037 C 
HETATM    7  C10 UNL     1     -29.454   0.390  16.144  1.00  0.00     0.022 C 
HETATM    8  C11 UNL     1     -29.679   0.431  14.614  1.00  0.00     0.127 C 
HETATM    9  N4  UNL     1     -29.850   1.847  14.415  1.00  0.00    -0.337 N 
HETATM   10  C12 UNL     1     -30.809   2.556  13.680  1.00  0.00     0.244 C 
HETATM   11  O2  UNL     1     -30.707   3.829  13.705  1.00  0.00    -0.271 OA
BRANCH  10  12
HETATM   12  C13 UNL     1     -31.896   1.989  12.902  1.00  0.00     0.271 C 
BRANCH  12  13
HETATM   13  O3  UNL     1     -31.572   1.796  11.595  1.00  0.00    -0.377 OA
BRANCH  13  14
HETATM   14  C14 UNL     1     -31.702   0.475  11.174  1.00  0.00     0.122 C 
HETATM   15  C15 UNL     1     -32.304  -0.410  12.213  1.00  0.00     0.032 C 
HETATM   16  C16 UNL     1     -33.541  -1.028  11.577  1.00  0.00     0.002 C 
HETATM   17  C17 UNL     1     -33.175  -1.022  10.095  1.00  0.00     0.002 C 
HETATM   18  C18 UNL     1     -32.559   0.349   9.949  1.00  0.00     0.032 C 
ENDBRANCH  13  14
ENDBRANCH  12  13
ENDBRANCH  10  12
ENDBRANCH   3   5
BRANCH   1  19
HETATM   19  C6  UNL     1     -25.041   1.731  14.132  1.00  0.00     0.161 C 
BRANCH  19  20
HETATM   20  C5  UNL     1     -23.840   1.657  14.983  1.00  0.00    -0.040 A 
HETATM   21  C4  UNL     1     -23.764   2.203  16.245  1.00  0.00     0.010 A 
HETATM   22  C3  UNL     1     -22.568   2.076  16.963  1.00  0.00     0.015 A 
HETATM   23  C2  UNL     1     -21.465   1.427  16.459  1.00  0.00     0.004 A 
HETATM   24  C20 UNL     1     -21.560   0.875  15.173  1.00  0.00     0.015 A 
HETATM   25  C19 UNL     1     -22.731   1.006  14.482  1.00  0.00     0.010 A 
BRANCH  23  26
HETATM   26  C1  UNL     1     -20.202   1.260  17.147  1.00  0.00     0.120 C 
HETATM   27  N1  UNL     1     -19.391   0.107  16.908  1.00  0.00    -0.082 NA
HETATM   28  N2  UNL     1     -19.789   2.133  17.971  1.00  0.00    -0.387 N 
ATOM     29  H22 UNL     1     -18.900   2.016  18.456  1.00  0.00     0.157 HD
ATOM     30  H21 UNL     1     -20.368   2.956  18.141  1.00  0.00     0.157 HD
ENDBRANCH  23  26
ENDBRANCH  19  20
ENDBRANCH   1  19
TORSDOF 7
ENDMDL
