MODEL 5
REMARK VINA RESULT: -7.726308060      1.350      1.870
REMARK  7 active torsions:
REMARK  status: ('A' for Active; 'I' for Inactive)
REMARK    1  A    between atoms: C1_2  and  C2_6 
REMARK    2  A    between atoms: C5_9  and  C6_10 
REMARK    3  A    between atoms: C6_10  and  N3_11 
REMARK       I    between atoms: N3_11  and  C7_13 
REMARK    4  A    between atoms: C7_13  and  C8_15 
REMARK       I    between atoms: N4_19  and  C12_20 
REMARK    5  A    between atoms: C12_20  and  C13_22 
REMARK    6  A    between atoms: C13_22  and  O3_23 
REMARK    7  A    between atoms: O3_23  and  C14_24 
ROOT
HETATM    1  N3  UNL     1     -25.939   1.042  14.455  1.00  0.00    -0.355 N 
ATOM      2  H3  UNL     1     -25.842   0.500  15.314  1.00  0.00     0.162 HD
HETATM    3  C7  UNL     1     -27.195   1.041  13.796  1.00  0.00     0.240 C 
HETATM    4  O1  UNL     1     -27.238   1.738  12.728  1.00  0.00    -0.271 OA
ENDROOT
BRANCH   3   5
HETATM    5  C8  UNL     1     -28.396   0.309  14.258  1.00  0.00     0.179 C 
HETATM    6  C9  UNL     1     -29.507   0.432  13.271  1.00  0.00     0.037 C 
HETATM    7  C10 UNL     1     -30.472   1.446  13.834  1.00  0.00     0.022 C 
HETATM    8  C11 UNL     1     -29.686   2.079  15.006  1.00  0.00     0.127 C 
HETATM    9  N4  UNL     1     -28.962   0.930  15.484  1.00  0.00    -0.337 N 
HETATM   10  C12 UNL     1     -28.772   0.448  16.786  1.00  0.00     0.244 C 
HETATM   11  O2  UNL     1     -28.083  -0.622  16.894  1.00  0.00    -0.271 OA
BRANCH  10  12
HETATM   12  C13 UNL     1     -29.279   1.040  18.011  1.00  0.00     0.271 C 
BRANCH  12  13
HETATM   13  O3  UNL     1     -30.568   0.696  18.276  1.00  0.00    -0.377 OA
BRANCH  13  14
HETATM   14  C14 UNL     1     -30.695  -0.312  19.229  1.00  0.00     0.122 C 
HETATM   15  C15 UNL     1     -30.944  -1.653  18.628  1.00  0.00     0.032 C 
HETATM   16  C16 UNL     1     -29.825  -2.556  19.128  1.00  0.00     0.002 C 
HETATM   17  C17 UNL     1     -29.462  -1.905  20.460  1.00  0.00     0.002 C 
HETATM   18  C18 UNL     1     -29.469  -0.442  20.085  1.00  0.00     0.032 C 
ENDBRANCH  13  14
ENDBRANCH  12  13
ENDBRANCH  10  12
ENDBRANCH   3   5
BRANCH   1  19
HETATM   19  C6  UNL     1     -24.788   1.773  13.968  1.00  0.00     0.161 C 
BRANCH  19  20
HETATM   20  C5  UNL     1     -23.637   1.685  14.883  1.00  0.00    -0.040 A 
HETATM   21  C4  UNL     1     -23.627   2.221  16.151  1.00  0.00     0.010 A 
HETATM   22  C3  UNL     1     -22.473   2.081  16.933  1.00  0.00     0.015 A 
HETATM   23  C2  UNL     1     -21.348   1.428  16.486  1.00  0.00     0.004 A 
HETATM   24  C20 UNL     1     -21.376   0.886  15.192  1.00  0.00     0.015 A 
HETATM   25  C19 UNL     1     -22.506   1.030  14.439  1.00  0.00     0.010 A 
BRANCH  23  26
HETATM   26  C1  UNL     1     -20.126   1.248  17.241  1.00  0.00     0.120 C 
HETATM   27  N1  UNL     1     -19.343   0.062  17.084  1.00  0.00    -0.082 NA
HETATM   28  N2  UNL     1     -19.725   2.138  18.052  1.00  0.00    -0.387 N 
ATOM     29  H22 UNL     1     -18.864   2.011  18.584  1.00  0.00     0.157 HD
ATOM     30  H21 UNL     1     -20.284   2.984  18.163  1.00  0.00     0.157 HD
ENDBRANCH  23  26
ENDBRANCH  19  20
ENDBRANCH   1  19
TORSDOF 7
ENDMDL
