MODEL 7
REMARK VINA RESULT: -7.534786528      1.595      2.244
REMARK  7 active torsions:
REMARK  status: ('A' for Active; 'I' for Inactive)
REMARK    1  A    between atoms: C1_2  and  C2_6 
REMARK    2  A    between atoms: C5_9  and  C6_10 
REMARK    3  A    between atoms: C6_10  and  N3_11 
REMARK       I    between atoms: N3_11  and  C7_13 
REMARK    4  A    between atoms: C7_13  and  C8_15 
REMARK       I    between atoms: N4_19  and  C12_20 
REMARK    5  A    between atoms: C12_20  and  C13_22 
REMARK    6  A    between atoms: C13_22  and  O3_23 
REMARK    7  A    between atoms: O3_23  and  C14_24 
ROOT
HETATM    1  N3  UNL     1     -26.066   1.110  14.533  1.00  0.00    -0.355 N 
ATOM      2  H3  UNL     1     -26.001   0.698  15.464  1.00  0.00     0.162 HD
HETATM    3  C7  UNL     1     -27.303   1.028  13.845  1.00  0.00     0.240 C 
HETATM    4  O1  UNL     1     -27.307   1.562  12.686  1.00  0.00    -0.271 OA
ENDROOT
BRANCH   3   5
HETATM    5  C8  UNL     1     -28.529   0.388  14.374  1.00  0.00     0.179 C 
HETATM    6  C9  UNL     1     -29.607   0.369  13.344  1.00  0.00     0.037 C 
HETATM    7  C10 UNL     1     -30.575   1.466  13.715  1.00  0.00     0.022 C 
HETATM    8  C11 UNL     1     -29.815   2.263  14.802  1.00  0.00     0.127 C 
HETATM    9  N4  UNL     1     -29.123   1.193  15.472  1.00  0.00    -0.337 N 
HETATM   10  C12 UNL     1     -28.980   0.914  16.838  1.00  0.00     0.244 C 
HETATM   11  O2  UNL     1     -28.310  -0.133  17.129  1.00  0.00    -0.271 OA
BRANCH  10  12
HETATM   12  C13 UNL     1     -29.516   1.691  17.941  1.00  0.00     0.271 C 
BRANCH  12  13
HETATM   13  O3  UNL     1     -28.578   2.009  18.874  1.00  0.00    -0.377 OA
BRANCH  13  14
HETATM   14  C14 UNL     1     -28.935   1.652  20.172  1.00  0.00     0.122 C 
HETATM   15  C15 UNL     1     -30.020   0.631  20.217  1.00  0.00     0.032 C 
HETATM   16  C16 UNL     1     -29.462  -0.545  21.006  1.00  0.00     0.002 C 
HETATM   17  C17 UNL     1     -28.440   0.135  21.912  1.00  0.00     0.002 C 
HETATM   18  C18 UNL     1     -27.779   1.090  20.946  1.00  0.00     0.032 C 
ENDBRANCH  13  14
ENDBRANCH  12  13
ENDBRANCH  10  12
ENDBRANCH   3   5
BRANCH   1  19
HETATM   19  C6  UNL     1     -24.891   1.747  13.979  1.00  0.00     0.161 C 
BRANCH  19  20
HETATM   20  C5  UNL     1     -23.727   1.665  14.879  1.00  0.00    -0.040 A 
HETATM   21  C4  UNL     1     -23.703   2.205  16.146  1.00  0.00     0.010 A 
HETATM   22  C3  UNL     1     -22.539   2.070  16.913  1.00  0.00     0.015 A 
HETATM   23  C2  UNL     1     -21.418   1.419  16.453  1.00  0.00     0.004 A 
HETATM   24  C20 UNL     1     -21.460   0.874  15.161  1.00  0.00     0.015 A 
HETATM   25  C19 UNL     1     -22.600   1.012  14.422  1.00  0.00     0.010 A 
BRANCH  23  26
HETATM   26  C1  UNL     1     -20.186   1.244  17.193  1.00  0.00     0.120 C 
HETATM   27  N1  UNL     1     -19.379   0.080  16.997  1.00  0.00    -0.082 NA
HETATM   28  N2  UNL     1     -19.796   2.120  18.025  1.00  0.00    -0.387 N 
ATOM     29  H22 UNL     1     -18.929   1.997  18.547  1.00  0.00     0.157 HD
ATOM     30  H21 UNL     1     -20.372   2.951  18.164  1.00  0.00     0.157 HD
ENDBRANCH  23  26
ENDBRANCH  19  20
ENDBRANCH   1  19
TORSDOF 7
ENDMDL
