MODEL 10
REMARK VINA RESULT: -7.339530535      3.535      5.069
REMARK  7 active torsions:
REMARK  status: ('A' for Active; 'I' for Inactive)
REMARK    1  A    between atoms: C1_2  and  C2_6 
REMARK    2  A    between atoms: C5_9  and  C6_10 
REMARK    3  A    between atoms: C6_10  and  N3_11 
REMARK       I    between atoms: N3_11  and  C7_13 
REMARK    4  A    between atoms: C7_13  and  C8_15 
REMARK       I    between atoms: N4_19  and  C12_20 
REMARK    5  A    between atoms: C12_20  and  C13_22 
REMARK    6  A    between atoms: C13_22  and  O3_23 
REMARK    7  A    between atoms: O3_23  and  C14_24 
ROOT
HETATM    1  N3  UNL     1     -25.620   2.175  13.960  1.00  0.00    -0.355 N 
ATOM      2  H3  UNL     1     -25.733   2.171  14.975  1.00  0.00     0.162 HD
HETATM    3  C7  UNL     1     -26.776   2.331  13.154  1.00  0.00     0.240 C 
HETATM    4  O1  UNL     1     -26.556   2.323  11.897  1.00  0.00    -0.271 OA
ENDROOT
BRANCH   3   5
HETATM    5  C8  UNL     1     -28.155   2.495  13.668  1.00  0.00     0.179 C 
HETATM    6  C9  UNL     1     -28.244   2.074  15.096  1.00  0.00     0.037 C 
HETATM    7  C10 UNL     1     -28.896   0.713  15.102  1.00  0.00     0.022 C 
HETATM    8  C11 UNL     1     -28.873   0.296  13.612  1.00  0.00     0.127 C 
HETATM    9  N4  UNL     1     -29.096   1.571  12.983  1.00  0.00    -0.337 N 
HETATM   10  C12 UNL     1     -29.966   1.938  11.948  1.00  0.00     0.244 C 
HETATM   11  O2  UNL     1     -29.948   3.170  11.609  1.00  0.00    -0.271 OA
BRANCH  10  12
HETATM   12  C13 UNL     1     -30.876   1.062  11.231  1.00  0.00     0.271 C 
BRANCH  12  13
HETATM   13  O3  UNL     1     -31.963   0.705  11.967  1.00  0.00    -0.377 OA
BRANCH  13  14
HETATM   14  C14 UNL     1     -33.075   0.371  11.198  1.00  0.00     0.122 C 
HETATM   15  C15 UNL     1     -32.785   0.343   9.736  1.00  0.00     0.032 C 
HETATM   16  C16 UNL     1     -33.154  -1.054   9.258  1.00  0.00     0.002 C 
HETATM   17  C17 UNL     1     -34.234  -1.458  10.258  1.00  0.00     0.002 C 
HETATM   18  C18 UNL     1     -33.630  -0.976  11.556  1.00  0.00     0.032 C 
ENDBRANCH  13  14
ENDBRANCH  12  13
ENDBRANCH  10  12
ENDBRANCH   3   5
BRANCH   1  19
HETATM   19  C6  UNL     1     -24.288   2.019  13.416  1.00  0.00     0.161 C 
BRANCH  19  20
HETATM   20  C5  UNL     1     -23.269   1.835  14.464  1.00  0.00    -0.040 A 
HETATM   21  C4  UNL     1     -23.441   2.225  15.773  1.00  0.00     0.010 A 
HETATM   22  C3  UNL     1     -22.401   2.005  16.685  1.00  0.00     0.015 A 
HETATM   23  C2  UNL     1     -21.213   1.413  16.325  1.00  0.00     0.004 A 
HETATM   24  C20 UNL     1     -21.054   1.020  14.988  1.00  0.00     0.015 A 
HETATM   25  C19 UNL     1     -22.075   1.240  14.108  1.00  0.00     0.010 A 
BRANCH  23  26
HETATM   26  C1  UNL     1     -20.100   1.156  17.215  1.00  0.00     0.120 C 
HETATM   27  N1  UNL     1     -19.324  -0.038  17.084  1.00  0.00    -0.082 NA
HETATM   28  N2  UNL     1     -19.789   1.985  18.125  1.00  0.00    -0.387 N 
ATOM     29  H22 UNL     1     -19.006   1.804  18.752  1.00  0.00     0.157 HD
ATOM     30  H21 UNL     1     -20.343   2.836  18.218  1.00  0.00     0.157 HD
ENDBRANCH  23  26
ENDBRANCH  19  20
ENDBRANCH   1  19
TORSDOF 7
ENDMDL
