MODEL 1
REMARK VINA RESULT: -8.275301012      0.000      0.000
REMARK  7 active torsions:
REMARK  status: ('A' for Active; 'I' for Inactive)
REMARK    1  A    between atoms: C1_2  and  C2_6 
REMARK    2  A    between atoms: C5_9  and  C6_10 
REMARK    3  A    between atoms: C6_10  and  N3_11 
REMARK       I    between atoms: N3_11  and  C7_13 
REMARK    4  A    between atoms: C7_13  and  C8_15 
REMARK       I    between atoms: N4_19  and  C12_20 
REMARK    5  A    between atoms: C12_20  and  C13_22 
REMARK    6  A    between atoms: C13_22  and  O3_23 
REMARK    7  A    between atoms: O3_23  and  C14_24 
ROOT
HETATM    1  N3  UNL     1     -25.819   2.360  14.129  1.00  0.00    -0.355 N 
ATOM      2  H3  UNL     1     -25.700   3.303  14.502  1.00  0.00     0.162 HD
HETATM    3  C7  UNL     1     -27.114   1.784  14.151  1.00  0.00     0.240 C 
HETATM    4  O1  UNL     1     -27.183   0.604  13.671  1.00  0.00    -0.271 OA
ENDROOT
BRANCH   3   5
HETATM    5  C8  UNL     1     -28.330   2.447  14.676  1.00  0.00     0.179 C 
HETATM    6  C9  UNL     1     -28.058   3.877  14.999  1.00  0.00     0.037 C 
HETATM    7  C10 UNL     1     -27.923   3.960  16.500  1.00  0.00     0.022 C 
HETATM    8  C11 UNL     1     -27.831   2.479  16.935  1.00  0.00     0.127 C 
HETATM    9  N4  UNL     1     -28.729   1.873  15.987  1.00  0.00    -0.337 N 
HETATM   10  C12 UNL     1     -29.757   0.939  16.172  1.00  0.00     0.244 C 
HETATM   11  O2  UNL     1     -30.400   0.597  15.123  1.00  0.00    -0.271 OA
BRANCH  10  12
HETATM   12  C13 UNL     1     -30.158   0.330  17.428  1.00  0.00     0.271 C 
BRANCH  12  13
HETATM   13  O3  UNL     1     -30.116  -1.029  17.399  1.00  0.00    -0.377 OA
BRANCH  13  14
HETATM   14  C14 UNL     1     -29.326  -1.588  18.401  1.00  0.00     0.122 C 
HETATM   15  C15 UNL     1     -29.011  -0.627  19.496  1.00  0.00     0.032 C 
HETATM   16  C16 UNL     1     -29.517  -1.269  20.780  1.00  0.00     0.002 C 
HETATM   17  C17 UNL     1     -29.430  -2.756  20.450  1.00  0.00     0.002 C 
HETATM   18  C18 UNL     1     -29.977  -2.777  19.042  1.00  0.00     0.032 C 
ENDBRANCH  13  14
ENDBRANCH  12  13
ENDBRANCH  10  12
ENDBRANCH   3   5
BRANCH   1  19
HETATM   19  C6  UNL     1     -24.656   1.677  13.604  1.00  0.00     0.161 C 
BRANCH  19  20
HETATM   20  C5  UNL     1     -23.558   1.599  14.584  1.00  0.00    -0.040 A 
HETATM   21  C4  UNL     1     -23.658   2.054  15.880  1.00  0.00     0.010 A 
HETATM   22  C3  UNL     1     -22.546   1.932  16.724  1.00  0.00     0.015 A 
HETATM   23  C2  UNL     1     -21.358   1.377  16.311  1.00  0.00     0.004 A 
HETATM   24  C20 UNL     1     -21.273   0.918  14.988  1.00  0.00     0.015 A 
HETATM   25  C19 UNL     1     -22.363   1.041  14.174  1.00  0.00     0.010 A 
BRANCH  23  26
HETATM   26  C1  UNL     1     -20.174   1.221  17.130  1.00  0.00     0.120 C 
HETATM   27  N1  UNL     1     -19.344   0.065  16.996  1.00  0.00    -0.082 NA
HETATM   28  N2  UNL     1     -19.849   2.108  17.979  1.00  0.00    -0.387 N 
ATOM     29  H22 UNL     1     -19.016   1.999  18.556  1.00  0.00     0.157 HD
ATOM     30  H21 UNL     1     -20.442   2.933  18.073  1.00  0.00     0.157 HD
ENDBRANCH  23  26
ENDBRANCH  19  20
ENDBRANCH   1  19
TORSDOF 7
ENDMDL
