MODEL 12
REMARK VINA RESULT: -7.238876479      2.945      7.451
REMARK  7 active torsions:
REMARK  status: ('A' for Active; 'I' for Inactive)
REMARK    1  A    between atoms: C1_2  and  C2_6 
REMARK    2  A    between atoms: C5_9  and  C6_10 
REMARK    3  A    between atoms: C6_10  and  N3_11 
REMARK       I    between atoms: N3_11  and  C7_13 
REMARK    4  A    between atoms: C7_13  and  C8_15 
REMARK       I    between atoms: N4_19  and  C12_20 
REMARK    5  A    between atoms: C12_20  and  C13_22 
REMARK    6  A    between atoms: C13_22  and  O3_23 
REMARK    7  A    between atoms: O3_23  and  C14_24 
ROOT
HETATM    1  N3  UNL     1     -29.472   1.212  14.988  1.00  0.00    -0.355 N 
ATOM      2  H3  UNL     1     -28.523   0.858  15.111  1.00  0.00     0.162 HD
HETATM    3  C7  UNL     1     -29.642   2.539  14.516  1.00  0.00     0.240 C 
HETATM    4  O1  UNL     1     -30.856   2.911  14.391  1.00  0.00    -0.271 OA
ENDROOT
BRANCH   3   5
HETATM    5  C8  UNL     1     -28.539   3.468  14.179  1.00  0.00     0.179 C 
HETATM    6  C9  UNL     1     -28.908   4.335  13.024  1.00  0.00     0.037 C 
HETATM    7  C10 UNL     1     -28.188   3.776  11.821  1.00  0.00     0.022 C 
HETATM    8  C11 UNL     1     -27.669   2.406  12.317  1.00  0.00     0.127 C 
HETATM    9  N4  UNL     1     -27.349   2.729  13.683  1.00  0.00    -0.337 N 
HETATM   10  C12 UNL     1     -26.211   2.438  14.447  1.00  0.00     0.244 C 
HETATM   11  O2  UNL     1     -26.213   2.878  15.646  1.00  0.00    -0.271 OA
BRANCH  10  12
HETATM   12  C13 UNL     1     -25.044   1.692  14.012  1.00  0.00     0.271 C 
BRANCH  12  13
HETATM   13  O3  UNL     1     -23.872   2.264  14.399  1.00  0.00    -0.377 OA
BRANCH  13  14
HETATM   14  C14 UNL     1     -23.153   1.502  15.318  1.00  0.00     0.122 C 
HETATM   15  C15 UNL     1     -22.133   0.625  14.675  1.00  0.00     0.032 C 
HETATM   16  C16 UNL     1     -20.797   1.003  15.299  1.00  0.00     0.002 C 
HETATM   17  C17 UNL     1     -21.221   1.515  16.673  1.00  0.00     0.002 C 
HETATM   18  C18 UNL     1     -22.426   2.352  16.317  1.00  0.00     0.032 C 
ENDBRANCH  13  14
ENDBRANCH  12  13
ENDBRANCH  10  12
ENDBRANCH   3   5
BRANCH   1  19
HETATM   19  C6  UNL     1     -30.580   0.336  15.305  1.00  0.00     0.161 C 
BRANCH  19  20
HETATM   20  C5  UNL     1     -30.419  -0.327  16.611  1.00  0.00    -0.040 A 
HETATM   21  C4  UNL     1     -31.445  -0.956  17.280  1.00  0.00     0.010 A 
HETATM   22  C3  UNL     1     -31.177  -1.550  18.520  1.00  0.00     0.015 A 
HETATM   23  C2  UNL     1     -29.929  -1.531  19.097  1.00  0.00     0.004 A 
HETATM   24  C20 UNL     1     -28.894  -0.887  18.402  1.00  0.00     0.015 A 
HETATM   25  C19 UNL     1     -29.168  -0.312  17.194  1.00  0.00     0.010 A 
BRANCH  23  26
HETATM   26  C1  UNL     1     -29.585  -2.124  20.372  1.00  0.00     0.120 C 
HETATM   27  N1  UNL     1     -29.497  -3.544  20.514  1.00  0.00    -0.082 NA
HETATM   28  N2  UNL     1     -29.352  -1.397  21.387  1.00  0.00    -0.387 N 
ATOM     29  H22 UNL     1     -29.110  -1.814  22.285  1.00  0.00     0.157 HD
ATOM     30  H21 UNL     1     -29.415  -0.384  21.285  1.00  0.00     0.157 HD
ENDBRANCH  23  26
ENDBRANCH  19  20
ENDBRANCH   1  19
TORSDOF 7
ENDMDL
