MODEL 3
REMARK VINA RESULT: -7.988216055      0.662      1.398
REMARK  7 active torsions:
REMARK  status: ('A' for Active; 'I' for Inactive)
REMARK    1  A    between atoms: C1_2  and  C2_6 
REMARK    2  A    between atoms: C5_9  and  C6_10 
REMARK    3  A    between atoms: C6_10  and  N3_11 
REMARK       I    between atoms: N3_11  and  C7_13 
REMARK    4  A    between atoms: C7_13  and  C8_15 
REMARK       I    between atoms: N4_19  and  C12_20 
REMARK    5  A    between atoms: C12_20  and  C13_22 
REMARK    6  A    between atoms: C13_22  and  O3_23 
REMARK    7  A    between atoms: O3_23  and  C14_24 
ROOT
HETATM    1  N3  UNL     1     -25.782   2.377  14.486  1.00  0.00    -0.355 N 
ATOM      2  H3  UNL     1     -25.604   3.229  15.018  1.00  0.00     0.162 HD
HETATM    3  C7  UNL     1     -27.080   1.807  14.541  1.00  0.00     0.240 C 
HETATM    4  O1  UNL     1     -27.225   0.742  13.853  1.00  0.00    -0.271 OA
ENDROOT
BRANCH   3   5
HETATM    5  C8  UNL     1     -28.216   2.356  15.316  1.00  0.00     0.179 C 
HETATM    6  C9  UNL     1     -27.766   3.459  16.212  1.00  0.00     0.037 C 
HETATM    7  C10 UNL     1     -27.695   2.879  17.604  1.00  0.00     0.022 C 
HETATM    8  C11 UNL     1     -27.830   1.356  17.366  1.00  0.00     0.127 C 
HETATM    9  N4  UNL     1     -28.755   1.347  16.263  1.00  0.00    -0.337 N 
HETATM   10  C12 UNL     1     -29.911   0.583  16.048  1.00  0.00     0.244 C 
HETATM   11  O2  UNL     1     -30.542   0.815  14.962  1.00  0.00    -0.271 OA
BRANCH  10  12
HETATM   12  C13 UNL     1     -30.453  -0.434  16.932  1.00  0.00     0.271 C 
BRANCH  12  13
HETATM   13  O3  UNL     1     -30.664   0.018  18.197  1.00  0.00    -0.377 OA
BRANCH  13  14
HETATM   14  C14 UNL     1     -30.741  -0.997  19.149  1.00  0.00     0.122 C 
HETATM   15  C15 UNL     1     -30.648  -2.360  18.554  1.00  0.00     0.032 C 
HETATM   16  C16 UNL     1     -29.467  -3.039  19.235  1.00  0.00     0.002 C 
HETATM   17  C17 UNL     1     -29.431  -2.334  20.588  1.00  0.00     0.002 C 
HETATM   18  C18 UNL     1     -29.653  -0.897  20.177  1.00  0.00     0.032 C 
ENDBRANCH  13  14
ENDBRANCH  12  13
ENDBRANCH  10  12
ENDBRANCH   3   5
BRANCH   1  19
HETATM   19  C6  UNL     1     -24.698   1.808  13.714  1.00  0.00     0.161 C 
BRANCH  19  20
HETATM   20  C5  UNL     1     -23.474   1.623  14.512  1.00  0.00    -0.040 A 
HETATM   21  C4  UNL     1     -22.306   1.095  14.009  1.00  0.00     0.010 A 
HETATM   22  C3  UNL     1     -21.203   0.961  14.862  1.00  0.00     0.015 A 
HETATM   23  C2  UNL     1     -21.239   1.337  16.184  1.00  0.00     0.004 A 
HETATM   24  C20 UNL     1     -22.436   1.875  16.682  1.00  0.00     0.015 A 
HETATM   25  C19 UNL     1     -23.504   2.000  15.840  1.00  0.00     0.010 A 
BRANCH  23  26
HETATM   26  C1  UNL     1     -20.138   1.227  17.118  1.00  0.00     0.120 C 
HETATM   27  N1  UNL     1     -19.337   0.043  17.161  1.00  0.00    -0.082 NA
HETATM   28  N2  UNL     1     -19.861   2.177  17.914  1.00  0.00    -0.387 N 
ATOM     29  H22 UNL     1     -19.086   2.099  18.572  1.00  0.00     0.157 HD
ATOM     30  H21 UNL     1     -20.433   3.021  17.883  1.00  0.00     0.157 HD
ENDBRANCH  23  26
ENDBRANCH  19  20
ENDBRANCH   1  19
TORSDOF 7
ENDMDL
