MODEL 6
REMARK VINA RESULT: -7.651633841      1.626      2.448
REMARK  7 active torsions:
REMARK  status: ('A' for Active; 'I' for Inactive)
REMARK    1  A    between atoms: C1_2  and  C2_6 
REMARK    2  A    between atoms: C5_9  and  C6_10 
REMARK    3  A    between atoms: C6_10  and  N3_11 
REMARK       I    between atoms: N3_11  and  C7_13 
REMARK    4  A    between atoms: C7_13  and  C8_15 
REMARK       I    between atoms: N4_19  and  C12_20 
REMARK    5  A    between atoms: C12_20  and  C13_22 
REMARK    6  A    between atoms: C13_22  and  O3_23 
REMARK    7  A    between atoms: O3_23  and  C14_24 
ROOT
HETATM    1  N3  UNL     1     -24.733   1.812  13.538  1.00  0.00    -0.355 N 
ATOM      2  H3  UNL     1     -24.762   1.367  14.455  1.00  0.00     0.162 HD
HETATM    3  C7  UNL     1     -25.967   2.045  12.887  1.00  0.00     0.240 C 
HETATM    4  O1  UNL     1     -25.936   2.594  11.757  1.00  0.00    -0.271 OA
ENDROOT
BRANCH   3   5
HETATM    5  C8  UNL     1     -27.247   1.641  13.546  1.00  0.00     0.179 C 
HETATM    6  C9  UNL     1     -28.336   2.486  12.927  1.00  0.00     0.037 C 
HETATM    7  C10 UNL     1     -28.121   3.825  13.599  1.00  0.00     0.022 C 
HETATM    8  C11 UNL     1     -27.489   3.471  14.947  1.00  0.00     0.127 C 
HETATM    9  N4  UNL     1     -27.298   2.046  14.923  1.00  0.00    -0.337 N 
HETATM   10  C12 UNL     1     -27.184   1.191  16.023  1.00  0.00     0.244 C 
HETATM   11  O2  UNL     1     -27.022  -0.033  15.864  1.00  0.00    -0.271 OA
BRANCH  10  12
HETATM   12  C13 UNL     1     -27.257   1.753  17.383  1.00  0.00     0.271 C 
BRANCH  12  13
HETATM   13  O3  UNL     1     -27.271   0.865  18.414  1.00  0.00    -0.377 OA
BRANCH  13  14
HETATM   14  C14 UNL     1     -28.344   0.883  19.256  1.00  0.00     0.122 C 
HETATM   15  C15 UNL     1     -28.048   0.046  20.475  1.00  0.00     0.032 C 
HETATM   16  C16 UNL     1     -28.722  -1.320  20.366  1.00  0.00     0.002 C 
HETATM   17  C17 UNL     1     -28.645  -1.810  18.921  1.00  0.00     0.000 C 
HETATM   18  C18 UNL     1     -29.637  -0.991  18.147  1.00  0.00     0.002 C 
HETATM   19  C19 UNL     1     -29.623   0.432  18.574  1.00  0.00     0.032 C 
ENDBRANCH  13  14
ENDBRANCH  12  13
ENDBRANCH  10  12
ENDBRANCH   3   5
BRANCH   1  20
HETATM   20  C6  UNL     1     -23.432   2.158  13.002  1.00  0.00     0.161 C 
BRANCH  20  21
HETATM   21  C5  UNL     1     -22.428   1.854  14.075  1.00  0.00    -0.040 A 
HETATM   22  C4  UNL     1     -22.438   2.557  15.259  1.00  0.00     0.010 A 
HETATM   23  C3  UNL     1     -21.513   2.301  16.278  1.00  0.00     0.015 A 
HETATM   24  C2  UNL     1     -20.556   1.336  16.138  1.00  0.00     0.004 A 
HETATM   25  C21 UNL     1     -20.566   0.634  14.926  1.00  0.00     0.015 A 
HETATM   26  C20 UNL     1     -21.472   0.882  13.922  1.00  0.00     0.010 A 
BRANCH  24  27
HETATM   27  C1  UNL     1     -19.567   1.022  17.157  1.00  0.00     0.120 C 
HETATM   28  N1  UNL     1     -18.751  -0.158  17.005  1.00  0.00    -0.082 NA
HETATM   29  N2  UNL     1     -19.411   1.771  18.177  1.00  0.00    -0.387 N 
ATOM     30  H22 UNL     1     -18.718   1.549  18.891  1.00  0.00     0.157 HD
ATOM     31  H21 UNL     1     -19.989   2.605  18.284  1.00  0.00     0.157 HD
ENDBRANCH  24  27
ENDBRANCH  20  21
ENDBRANCH   1  20
TORSDOF 7
ENDMDL
