MODEL 8
REMARK VINA RESULT: -7.495963760      1.375      1.845
REMARK  7 active torsions:
REMARK  status: ('A' for Active; 'I' for Inactive)
REMARK    1  A    between atoms: C1_2  and  C2_6 
REMARK    2  A    between atoms: C5_9  and  C6_10 
REMARK    3  A    between atoms: C6_10  and  N3_11 
REMARK       I    between atoms: N3_11  and  C7_13 
REMARK    4  A    between atoms: C7_13  and  C8_15 
REMARK       I    between atoms: N4_19  and  C12_20 
REMARK    5  A    between atoms: C12_20  and  C13_22 
REMARK    6  A    between atoms: C13_22  and  O3_23 
REMARK    7  A    between atoms: O3_23  and  C14_24 
ROOT
HETATM    1  N3  UNL     1     -25.021   1.044  13.878  1.00  0.00    -0.355 N 
ATOM      2  H3  UNL     1     -24.934   0.093  13.520  1.00  0.00     0.162 HD
HETATM    3  C7  UNL     1     -26.148   1.339  14.679  1.00  0.00     0.240 C 
HETATM    4  O1  UNL     1     -26.258   2.509  15.123  1.00  0.00    -0.271 OA
ENDROOT
BRANCH   3   5
HETATM    5  C8  UNL     1     -27.156   0.274  14.970  1.00  0.00     0.179 C 
HETATM    6  C9  UNL     1     -27.762  -0.121  13.643  1.00  0.00     0.037 C 
HETATM    7  C10 UNL     1     -28.695   1.037  13.363  1.00  0.00     0.022 C 
HETATM    8  C11 UNL     1     -29.070   1.562  14.750  1.00  0.00     0.127 C 
HETATM    9  N4  UNL     1     -28.295   0.785  15.680  1.00  0.00    -0.337 N 
HETATM   10  C12 UNL     1     -28.579   0.554  17.029  1.00  0.00     0.244 C 
HETATM   11  O2  UNL     1     -27.821  -0.143  17.728  1.00  0.00    -0.271 OA
BRANCH  10  12
HETATM   12  C13 UNL     1     -29.791   1.146  17.623  1.00  0.00     0.271 C 
BRANCH  12  13
HETATM   13  O3  UNL     1     -30.188   0.654  18.827  1.00  0.00    -0.377 OA
BRANCH  13  14
HETATM   14  C14 UNL     1     -31.348  -0.061  18.872  1.00  0.00     0.122 C 
HETATM   15  C15 UNL     1     -31.822  -0.174  20.299  1.00  0.00     0.032 C 
HETATM   16  C16 UNL     1     -31.478  -1.547  20.873  1.00  0.00     0.002 C 
HETATM   17  C17 UNL     1     -30.103  -1.979  20.364  1.00  0.00     0.000 C 
HETATM   18  C18 UNL     1     -30.292  -2.362  18.923  1.00  0.00     0.002 C 
HETATM   19  C19 UNL     1     -31.212  -1.428  18.225  1.00  0.00     0.032 C 
ENDBRANCH  13  14
ENDBRANCH  12  13
ENDBRANCH  10  12
ENDBRANCH   3   5
BRANCH   1  20
HETATM   20  C6  UNL     1     -23.979   1.989  13.527  1.00  0.00     0.161 C 
BRANCH  20  21
HETATM   21  C5  UNL     1     -22.831   1.732  14.460  1.00  0.00    -0.040 A 
HETATM   22  C4  UNL     1     -22.802   2.318  15.706  1.00  0.00     0.010 A 
HETATM   23  C3  UNL     1     -21.744   2.104  16.598  1.00  0.00     0.015 A 
HETATM   24  C2  UNL     1     -20.692   1.299  16.266  1.00  0.00     0.004 A 
HETATM   25  C21 UNL     1     -20.744   0.714  14.993  1.00  0.00     0.015 A 
HETATM   26  C20 UNL     1     -21.781   0.922  14.114  1.00  0.00     0.010 A 
BRANCH  24  27
HETATM   27  C1  UNL     1     -19.564   1.035  17.144  1.00  0.00     0.120 C 
HETATM   28  N1  UNL     1     -18.739  -0.122  16.903  1.00  0.00    -0.082 NA
HETATM   29  N2  UNL     1     -19.295   1.810  18.121  1.00  0.00    -0.387 N 
ATOM     30  H22 UNL     1     -18.504   1.625  18.738  1.00  0.00     0.157 HD
ATOM     31  H21 UNL     1     -19.879   2.629  18.292  1.00  0.00     0.157 HD
ENDBRANCH  24  27
ENDBRANCH  20  21
ENDBRANCH   1  20
TORSDOF 7
ENDMDL
