MODEL 3
REMARK VINA RESULT: -7.737489620      1.320      1.894
REMARK  7 active torsions:
REMARK  status: ('A' for Active; 'I' for Inactive)
REMARK    1  A    between atoms: C1_2  and  C2_6 
REMARK    2  A    between atoms: C5_9  and  C6_10 
REMARK    3  A    between atoms: C6_10  and  N3_11 
REMARK       I    between atoms: N3_11  and  C7_13 
REMARK    4  A    between atoms: C7_13  and  C8_15 
REMARK       I    between atoms: N4_19  and  C12_20 
REMARK    5  A    between atoms: C12_20  and  C13_22 
REMARK    6  A    between atoms: C13_22  and  O3_23 
REMARK    7  A    between atoms: O3_23  and  C14_24 
ROOT
HETATM    1  N3  UNL     1     -25.614   1.883  14.397  1.00  0.00    -0.355 N 
ATOM      2  H3  UNL     1     -25.568   1.436  15.312  1.00  0.00     0.162 HD
HETATM    3  C7  UNL     1     -26.792   2.597  14.077  1.00  0.00     0.240 C 
HETATM    4  O1  UNL     1     -26.852   3.149  12.951  1.00  0.00    -0.271 OA
ENDROOT
BRANCH   3   5
HETATM    5  C8  UNL     1     -27.911   2.672  15.066  1.00  0.00     0.179 C 
HETATM    6  C9  UNL     1     -28.219   4.139  15.257  1.00  0.00     0.037 C 
HETATM    7  C10 UNL     1     -27.075   4.591  16.139  1.00  0.00     0.022 C 
HETATM    8  C11 UNL     1     -26.676   3.333  16.912  1.00  0.00     0.127 C 
HETATM    9  N4  UNL     1     -27.498   2.277  16.383  1.00  0.00    -0.337 N 
HETATM   10  C12 UNL     1     -27.844   1.080  17.016  1.00  0.00     0.244 C 
HETATM   11  O2  UNL     1     -28.569   0.245  16.444  1.00  0.00    -0.271 OA
BRANCH  10  12
HETATM   12  C13 UNL     1     -27.344   0.812  18.376  1.00  0.00     0.271 C 
BRANCH  12  13
HETATM   13  O3  UNL     1     -27.695  -0.377  18.936  1.00  0.00    -0.377 OA
BRANCH  13  14
HETATM   14  C14 UNL     1     -28.745  -0.385  19.806  1.00  0.00     0.122 C 
HETATM   15  C15 UNL     1     -28.405  -1.234  21.006  1.00  0.00     0.032 C 
HETATM   16  C16 UNL     1     -29.064  -2.608  20.896  1.00  0.00     0.002 C 
HETATM   17  C17 UNL     1     -29.019  -3.077  19.443  1.00  0.00     0.000 C 
HETATM   18  C18 UNL     1     -30.043  -2.261  18.707  1.00  0.00     0.002 C 
HETATM   19  C19 UNL     1     -30.036  -0.844  19.153  1.00  0.00     0.032 C 
ENDBRANCH  13  14
ENDBRANCH  12  13
ENDBRANCH  10  12
ENDBRANCH   3   5
BRANCH   1  20
HETATM   20  C6  UNL     1     -24.465   1.739  13.525  1.00  0.00     0.161 C 
BRANCH  20  21
HETATM   21  C5  UNL     1     -23.262   1.608  14.412  1.00  0.00    -0.040 A 
HETATM   22  C4  UNL     1     -23.271   2.143  15.681  1.00  0.00     0.010 A 
HETATM   23  C3  UNL     1     -22.164   2.042  16.533  1.00  0.00     0.015 A 
HETATM   24  C2  UNL     1     -21.022   1.405  16.135  1.00  0.00     0.004 A 
HETATM   25  C21 UNL     1     -21.038   0.870  14.840  1.00  0.00     0.015 A 
HETATM   26  C20 UNL     1     -22.122   0.966  14.001  1.00  0.00     0.010 A 
BRANCH  24  27
HETATM   27  C1  UNL     1     -19.839   1.267  16.969  1.00  0.00     0.120 C 
HETATM   28  N1  UNL     1     -18.979   0.124  16.786  1.00  0.00    -0.082 NA
HETATM   29  N2  UNL     1     -19.553   2.137  17.856  1.00  0.00    -0.387 N 
ATOM     30  H22 UNL     1     -18.723   2.039  18.441  1.00  0.00     0.157 HD
ATOM     31  H21 UNL     1     -20.162   2.945  17.986  1.00  0.00     0.157 HD
ENDBRANCH  24  27
ENDBRANCH  20  21
ENDBRANCH   1  20
TORSDOF 7
ENDMDL
