MODEL 15
REMARK VINA RESULT: -7.088909494      2.831      7.983
REMARK  7 active torsions:
REMARK  status: ('A' for Active; 'I' for Inactive)
REMARK    1  A    between atoms: C1_2  and  C2_6 
REMARK    2  A    between atoms: C5_9  and  C6_10 
REMARK    3  A    between atoms: C6_10  and  N3_11 
REMARK       I    between atoms: N3_11  and  C7_13 
REMARK    4  A    between atoms: C7_13  and  C8_15 
REMARK       I    between atoms: N4_19  and  C12_20 
REMARK    5  A    between atoms: C12_20  and  C13_22 
REMARK    6  A    between atoms: C13_22  and  O3_23 
REMARK    7  A    between atoms: O3_23  and  C14_24 
ROOT
HETATM    1  N3  UNL     1     -29.256   1.270  15.422  1.00  0.00    -0.355 N 
ATOM      2  H3  UNL     1     -28.380   1.031  15.886  1.00  0.00     0.162 HD
HETATM    3  C7  UNL     1     -29.257   2.399  14.570  1.00  0.00     0.240 C 
HETATM    4  O1  UNL     1     -30.334   2.696  13.997  1.00  0.00    -0.271 OA
ENDROOT
BRANCH   3   5
HETATM    5  C8  UNL     1     -28.003   3.191  14.379  1.00  0.00     0.179 C 
HETATM    6  C9  UNL     1     -28.019   3.685  12.951  1.00  0.00     0.037 C 
HETATM    7  C10 UNL     1     -27.647   2.438  12.179  1.00  0.00     0.022 C 
HETATM    8  C11 UNL     1     -26.805   1.623  13.164  1.00  0.00     0.127 C 
HETATM    9  N4  UNL     1     -26.831   2.362  14.398  1.00  0.00    -0.337 N 
HETATM   10  C12 UNL     1     -25.897   2.302  15.436  1.00  0.00     0.244 C 
HETATM   11  O2  UNL     1     -26.037   3.000  16.458  1.00  0.00    -0.271 OA
BRANCH  10  12
HETATM   12  C13 UNL     1     -24.738   1.401  15.313  1.00  0.00     0.271 C 
BRANCH  12  13
HETATM   13  O3  UNL     1     -23.604   1.765  15.972  1.00  0.00    -0.377 OA
BRANCH  13  14
HETATM   14  C14 UNL     1     -22.676   2.492  15.288  1.00  0.00     0.122 C 
HETATM   15  C15 UNL     1     -22.627   2.033  13.852  1.00  0.00     0.032 C 
HETATM   16  C16 UNL     1     -21.427   1.117  13.620  1.00  0.00     0.002 C 
HETATM   17  C17 UNL     1     -21.233   0.218  14.840  1.00  0.00     0.000 C 
HETATM   18  C18 UNL     1     -20.662   1.093  15.919  1.00  0.00     0.002 C 
HETATM   19  C19 UNL     1     -21.303   2.432  15.933  1.00  0.00     0.032 C 
ENDBRANCH  13  14
ENDBRANCH  12  13
ENDBRANCH  10  12
ENDBRANCH   3   5
BRANCH   1  20
HETATM   20  C6  UNL     1     -30.404   0.427  15.687  1.00  0.00     0.161 C 
BRANCH  20  21
HETATM   21  C5  UNL     1     -30.073  -0.385  16.905  1.00  0.00    -0.040 A 
HETATM   22  C4  UNL     1     -28.841  -0.266  17.508  1.00  0.00     0.010 A 
HETATM   23  C3  UNL     1     -28.499  -1.011  18.643  1.00  0.00     0.015 A 
HETATM   24  C2  UNL     1     -29.380  -1.893  19.202  1.00  0.00     0.004 A 
HETATM   25  C21 UNL     1     -30.627  -1.997  18.571  1.00  0.00     0.015 A 
HETATM   26  C20 UNL     1     -30.967  -1.267  17.456  1.00  0.00     0.010 A 
BRANCH  24  27
HETATM   27  C1  UNL     1     -29.087  -2.696  20.377  1.00  0.00     0.120 C 
HETATM   28  N1  UNL     1     -28.529  -2.059  21.544  1.00  0.00    -0.082 NA
HETATM   29  N2  UNL     1     -29.316  -3.951  20.392  1.00  0.00    -0.387 N 
ATOM     30  H22 UNL     1     -29.111  -4.514  21.217  1.00  0.00     0.157 HD
ATOM     31  H21 UNL     1     -29.711  -4.402  19.566  1.00  0.00     0.157 HD
ENDBRANCH  24  27
ENDBRANCH  20  21
ENDBRANCH   1  20
TORSDOF 7
ENDMDL
