MODEL 17
REMARK VINA RESULT: -6.983792309      2.993      7.783
REMARK  7 active torsions:
REMARK  status: ('A' for Active; 'I' for Inactive)
REMARK    1  A    between atoms: C1_2  and  C2_6 
REMARK    2  A    between atoms: C5_9  and  C6_10 
REMARK    3  A    between atoms: C6_10  and  N3_11 
REMARK       I    between atoms: N3_11  and  C7_13 
REMARK    4  A    between atoms: C7_13  and  C8_15 
REMARK       I    between atoms: N4_19  and  C12_20 
REMARK    5  A    between atoms: C12_20  and  C13_22 
REMARK    6  A    between atoms: C13_22  and  O3_23 
REMARK    7  A    between atoms: O3_23  and  C14_24 
ROOT
HETATM    1  N3  UNL     1     -28.184   0.036  17.436  1.00  0.00    -0.355 N 
ATOM      2  H3  UNL     1     -27.274   0.476  17.574  1.00  0.00     0.162 HD
HETATM    3  C7  UNL     1     -28.952   0.460  16.327  1.00  0.00     0.240 C 
HETATM    4  O1  UNL     1     -30.073  -0.078  16.153  1.00  0.00    -0.271 OA
ENDROOT
BRANCH   3   5
HETATM    5  C8  UNL     1     -28.421   1.516  15.411  1.00  0.00     0.179 C 
HETATM    6  C9  UNL     1     -29.235   1.435  14.141  1.00  0.00     0.037 C 
HETATM    7  C10 UNL     1     -28.657   0.207  13.471  1.00  0.00     0.022 C 
HETATM    8  C11 UNL     1     -27.218   0.141  13.986  1.00  0.00     0.127 C 
HETATM    9  N4  UNL     1     -27.099   1.210  14.941  1.00  0.00    -0.337 N 
HETATM   10  C12 UNL     1     -25.926   1.850  15.350  1.00  0.00     0.244 C 
HETATM   11  O2  UNL     1     -25.961   2.769  16.189  1.00  0.00    -0.271 OA
BRANCH  10  12
HETATM   12  C13 UNL     1     -24.636   1.427  14.776  1.00  0.00     0.271 C 
BRANCH  12  13
HETATM   13  O3  UNL     1     -23.522   1.680  15.516  1.00  0.00    -0.377 OA
BRANCH  13  14
HETATM   14  C14 UNL     1     -22.512   2.380  14.925  1.00  0.00     0.122 C 
HETATM   15  C15 UNL     1     -21.875   1.541  13.846  1.00  0.00     0.032 C 
HETATM   16  C16 UNL     1     -20.564   0.933  14.340  1.00  0.00     0.002 C 
HETATM   17  C17 UNL     1     -20.717   0.519  15.803  1.00  0.00     0.000 C 
HETATM   18  C18 UNL     1     -20.708   1.791  16.602  1.00  0.00     0.002 C 
HETATM   19  C19 UNL     1     -21.480   2.865  15.928  1.00  0.00     0.032 C 
ENDBRANCH  13  14
ENDBRANCH  12  13
ENDBRANCH  10  12
ENDBRANCH   3   5
BRANCH   1  20
HETATM   20  C6  UNL     1     -28.590  -0.975  18.392  1.00  0.00     0.161 C 
BRANCH  20  21
HETATM   21  C5  UNL     1     -28.175  -0.481  19.747  1.00  0.00    -0.040 A 
HETATM   22  C4  UNL     1     -27.305   0.580  19.865  1.00  0.00     0.010 A 
HETATM   23  C3  UNL     1     -26.894   1.062  21.113  1.00  0.00     0.015 A 
HETATM   24  C2  UNL     1     -27.342   0.495  22.273  1.00  0.00     0.004 A 
HETATM   25  C21 UNL     1     -28.225  -0.583  22.127  1.00  0.00     0.015 A 
HETATM   26  C20 UNL     1     -28.632  -1.060  20.903  1.00  0.00     0.010 A 
BRANCH  24  27
HETATM   27  C1  UNL     1     -26.953   0.946  23.599  1.00  0.00     0.120 C 
HETATM   28  N1  UNL     1     -26.844   2.361  23.857  1.00  0.00    -0.082 NA
HETATM   29  N2  UNL     1     -26.709   0.113  24.533  1.00  0.00    -0.387 N 
ATOM     30  H22 UNL     1     -26.436   0.430  25.463  1.00  0.00     0.157 HD
ATOM     31  H21 UNL     1     -26.785  -0.888  24.350  1.00  0.00     0.157 HD
ENDBRANCH  24  27
ENDBRANCH  20  21
ENDBRANCH   1  20
TORSDOF 7
ENDMDL
