MODEL 13
REMARK VINA RESULT: -7.134187163      1.838      2.634
REMARK  7 active torsions:
REMARK  status: ('A' for Active; 'I' for Inactive)
REMARK    1  A    between atoms: C1_2  and  C2_6 
REMARK    2  A    between atoms: C5_9  and  C6_10 
REMARK    3  A    between atoms: C6_10  and  N3_11 
REMARK       I    between atoms: N3_11  and  C7_13 
REMARK    4  A    between atoms: C7_13  and  C8_15 
REMARK       I    between atoms: N4_19  and  C12_20 
REMARK    5  A    between atoms: C12_20  and  C13_22 
REMARK    6  A    between atoms: C13_22  and  O3_23 
REMARK    7  A    between atoms: O3_23  and  C14_24 
ROOT
HETATM    1  N3  UNL     1     -25.299   1.226  14.275  1.00  0.00    -0.355 N 
ATOM      2  H3  UNL     1     -25.164   0.923  15.239  1.00  0.00     0.162 HD
HETATM    3  C7  UNL     1     -26.588   1.067  13.715  1.00  0.00     0.240 C 
HETATM    4  O1  UNL     1     -26.758   1.438  12.527  1.00  0.00    -0.271 OA
ENDROOT
BRANCH   3   5
HETATM    5  C8  UNL     1     -27.690   0.475  14.534  1.00  0.00     0.179 C 
HETATM    6  C9  UNL     1     -28.889   0.358  13.623  1.00  0.00     0.037 C 
HETATM    7  C10 UNL     1     -29.374   1.789  13.550  1.00  0.00     0.022 C 
HETATM    8  C11 UNL     1     -28.923   2.407  14.876  1.00  0.00     0.127 C 
HETATM    9  N4  UNL     1     -28.164   1.381  15.541  1.00  0.00    -0.337 N 
HETATM   10  C12 UNL     1     -27.921   1.268  16.913  1.00  0.00     0.244 C 
HETATM   11  O2  UNL     1     -27.245   0.324  17.363  1.00  0.00    -0.271 OA
BRANCH  10  12
HETATM   12  C13 UNL     1     -28.477   2.278  17.830  1.00  0.00     0.271 C 
BRANCH  12  13
HETATM   13  O3  UNL     1     -29.215   1.818  18.877  1.00  0.00    -0.377 OA
BRANCH  13  14
HETATM   14  C14 UNL     1     -28.905   2.275  20.123  1.00  0.00     0.122 C 
HETATM   15  C15 UNL     1     -27.432   2.082  20.384  1.00  0.00     0.032 C 
HETATM   16  C16 UNL     1     -27.198   0.855  21.263  1.00  0.00     0.002 C 
HETATM   17  C17 UNL     1     -28.173  -0.250  20.861  1.00  0.00     0.000 C 
HETATM   18  C18 UNL     1     -29.518   0.167  21.385  1.00  0.00     0.002 C 
HETATM   19  C19 UNL     1     -29.747   1.623  21.205  1.00  0.00     0.032 C 
ENDBRANCH  13  14
ENDBRANCH  12  13
ENDBRANCH  10  12
ENDBRANCH   3   5
BRANCH   1  20
HETATM   20  C6  UNL     1     -24.155   1.785  13.583  1.00  0.00     0.161 C 
BRANCH  20  21
HETATM   21  C5  UNL     1     -22.970   1.599  14.486  1.00  0.00    -0.040 A 
HETATM   22  C4  UNL     1     -22.923   2.227  15.711  1.00  0.00     0.010 A 
HETATM   23  C3  UNL     1     -21.831   2.079  16.575  1.00  0.00     0.015 A 
HETATM   24  C2  UNL     1     -20.762   1.300  16.235  1.00  0.00     0.004 A 
HETATM   25  C21 UNL     1     -20.833   0.671  14.985  1.00  0.00     0.015 A 
HETATM   26  C20 UNL     1     -21.903   0.814  14.133  1.00  0.00     0.010 A 
BRANCH  24  27
HETATM   27  C1  UNL     1     -19.599   1.105  17.086  1.00  0.00     0.120 C 
HETATM   28  N1  UNL     1     -18.756  -0.046  16.873  1.00  0.00    -0.082 NA
HETATM   29  N2  UNL     1     -19.315   1.933  18.013  1.00  0.00    -0.387 N 
ATOM     30  H22 UNL     1     -18.499   1.795  18.610  1.00  0.00     0.157 HD
ATOM     31  H21 UNL     1     -19.911   2.747  18.164  1.00  0.00     0.157 HD
ENDBRANCH  24  27
ENDBRANCH  20  21
ENDBRANCH   1  20
TORSDOF 7
ENDMDL
