MODEL 4
REMARK VINA RESULT: -7.688127528      1.650      2.681
REMARK  7 active torsions:
REMARK  status: ('A' for Active; 'I' for Inactive)
REMARK    1  A    between atoms: C1_2  and  C2_6 
REMARK    2  A    between atoms: C5_9  and  C6_10 
REMARK    3  A    between atoms: C6_10  and  N3_11 
REMARK       I    between atoms: N3_11  and  C7_13 
REMARK    4  A    between atoms: C7_13  and  C8_15 
REMARK       I    between atoms: N4_19  and  C12_20 
REMARK    5  A    between atoms: C12_20  and  C13_22 
REMARK    6  A    between atoms: C13_22  and  O3_23 
REMARK    7  A    between atoms: O3_23  and  C14_24 
ROOT
HETATM    1  N3  UNL     1     -24.644   1.766  13.641  1.00  0.00    -0.355 N 
ATOM      2  H3  UNL     1     -24.686   1.376  14.582  1.00  0.00     0.162 HD
HETATM    3  C7  UNL     1     -25.865   1.917  12.942  1.00  0.00     0.240 C 
HETATM    4  O1  UNL     1     -25.818   2.397  11.783  1.00  0.00    -0.271 OA
ENDROOT
BRANCH   3   5
HETATM    5  C8  UNL     1     -27.150   1.511  13.589  1.00  0.00     0.179 C 
HETATM    6  C9  UNL     1     -28.244   2.302  12.909  1.00  0.00     0.037 C 
HETATM    7  C10 UNL     1     -28.075   3.673  13.526  1.00  0.00     0.022 C 
HETATM    8  C11 UNL     1     -27.468   3.394  14.903  1.00  0.00     0.127 C 
HETATM    9  N4  UNL     1     -27.244   1.973  14.945  1.00  0.00    -0.337 N 
HETATM   10  C12 UNL     1     -27.136   1.170  16.084  1.00  0.00     0.244 C 
HETATM   11  O2  UNL     1     -26.942  -0.055  15.982  1.00  0.00    -0.271 OA
BRANCH  10  12
HETATM   12  C13 UNL     1     -27.255   1.788  17.416  1.00  0.00     0.271 C 
BRANCH  12  13
HETATM   13  O3  UNL     1     -27.236   0.948  18.487  1.00  0.00    -0.377 OA
BRANCH  13  14
HETATM   14  C14 UNL     1     -28.320   0.945  19.314  1.00  0.00     0.122 C 
HETATM   15  C15 UNL     1     -28.044   0.072  20.512  1.00  0.00     0.032 C 
HETATM   16  C16 UNL     1     -28.722  -1.288  20.354  1.00  0.00     0.002 C 
HETATM   17  C17 UNL     1     -28.625  -1.736  18.896  1.00  0.00     0.000 C 
HETATM   18  C18 UNL     1     -29.604  -0.891  18.133  1.00  0.00     0.002 C 
HETATM   19  C19 UNL     1     -29.591   0.519  18.601  1.00  0.00     0.032 C 
ENDBRANCH  13  14
ENDBRANCH  12  13
ENDBRANCH  10  12
ENDBRANCH   3   5
BRANCH   1  20
HETATM   20  C6  UNL     1     -23.339   2.122  13.121  1.00  0.00     0.161 C 
BRANCH  20  21
HETATM   21  C5  UNL     1     -22.342   1.791  14.193  1.00  0.00    -0.040 A 
HETATM   22  C4  UNL     1     -21.658   0.596  14.164  1.00  0.00     0.010 A 
HETATM   23  C3  UNL     1     -20.725   0.255  15.151  1.00  0.00     0.015 A 
HETATM   24  C2  UNL     1     -20.454   1.100  16.190  1.00  0.00     0.004 A 
HETATM   25  C21 UNL     1     -21.162   2.309  16.197  1.00  0.00     0.015 A 
HETATM   26  C20 UNL     1     -22.079   2.648  15.231  1.00  0.00     0.010 A 
BRANCH  24  27
HETATM   27  C1  UNL     1     -19.499   0.806  17.245  1.00  0.00     0.120 C 
HETATM   28  N1  UNL     1     -19.784   1.234  18.592  1.00  0.00    -0.082 NA
HETATM   29  N2  UNL     1     -18.416   0.179  16.998  1.00  0.00    -0.387 N 
ATOM     30  H22 UNL     1     -17.746  -0.027  17.739  1.00  0.00     0.157 HD
ATOM     31  H21 UNL     1     -18.214  -0.124  16.045  1.00  0.00     0.157 HD
ENDBRANCH  24  27
ENDBRANCH  20  21
ENDBRANCH   1  20
TORSDOF 7
ENDMDL
