MODEL 5
REMARK VINA RESULT: -7.353971873      1.565      2.676
REMARK  7 active torsions:
REMARK  status: ('A' for Active; 'I' for Inactive)
REMARK    1  A    between atoms: C1_2  and  C2_6 
REMARK    2  A    between atoms: C5_9  and  C6_10 
REMARK    3  A    between atoms: C6_10  and  N3_11 
REMARK       I    between atoms: N3_11  and  C7_13 
REMARK    4  A    between atoms: C7_13  and  C8_15 
REMARK       I    between atoms: N4_19  and  C12_20 
REMARK    5  A    between atoms: C12_20  and  C13_22 
REMARK    6  A    between atoms: C13_22  and  C14_23 
REMARK    7  A    between atoms: C14_23  and  C15_24 
ROOT
HETATM    1  N3  UNL     1     -25.005   2.036  13.441  1.00  0.00    -0.355 N 
ATOM      2  H3  UNL     1     -25.056   1.468  14.287  1.00  0.00     0.162 HD
HETATM    3  C7  UNL     1     -26.204   2.298  12.755  1.00  0.00     0.240 C 
HETATM    4  O1  UNL     1     -26.192   2.993  11.705  1.00  0.00    -0.271 OA
ENDROOT
BRANCH   3   5
HETATM    5  C8  UNL     1     -27.481   1.759  13.262  1.00  0.00     0.179 C 
HETATM    6  C9  UNL     1     -28.691   2.386  12.648  1.00  0.00     0.037 C 
HETATM    7  C10 UNL     1     -29.031   3.512  13.564  1.00  0.00     0.022 C 
HETATM    8  C11 UNL     1     -28.056   3.472  14.707  1.00  0.00     0.127 C 
HETATM    9  N4  UNL     1     -27.593   2.106  14.659  1.00  0.00    -0.339 N 
HETATM   10  C12 UNL     1     -27.311   1.305  15.792  1.00  0.00     0.220 C 
HETATM   11  O2  UNL     1     -26.905   0.116  15.581  1.00  0.00    -0.273 OA
BRANCH  10  12
HETATM   12  C13 UNL     1     -27.488   1.849  17.144  1.00  0.00     0.103 C 
BRANCH  12  13
HETATM   13  C14 UNL     1     -27.448   0.852  18.252  1.00  0.00     0.014 C 
BRANCH  13  14
HETATM   14  C15 UNL     1     -28.846   0.281  18.531  1.00  0.00    -0.014 C 
HETATM   15  C16 UNL     1     -28.899  -1.166  18.121  1.00  0.00     0.004 C 
HETATM   16  C17 UNL     1     -29.412  -1.935  19.313  1.00  0.00     0.000 C 
HETATM   17  C18 UNL     1     -28.847  -1.142  20.474  1.00  0.00     0.000 C 
HETATM   18  C19 UNL     1     -29.112   0.282  20.025  1.00  0.00     0.004 C 
ENDBRANCH  13  14
ENDBRANCH  12  13
ENDBRANCH  10  12
ENDBRANCH   3   5
BRANCH   1  19
HETATM   19  C6  UNL     1     -23.703   2.517  13.029  1.00  0.00     0.161 C 
BRANCH  19  20
HETATM   20  C5  UNL     1     -22.759   2.150  14.122  1.00  0.00    -0.040 A 
HETATM   21  C4  UNL     1     -21.914   1.094  13.887  1.00  0.00     0.010 A 
HETATM   22  C3  UNL     1     -21.012   0.700  14.867  1.00  0.00     0.015 A 
HETATM   23  C2  UNL     1     -20.918   1.326  16.091  1.00  0.00     0.004 A 
HETATM   24  C21 UNL     1     -21.807   2.396  16.268  1.00  0.00     0.015 A 
HETATM   25  C20 UNL     1     -22.704   2.803  15.317  1.00  0.00     0.010 A 
BRANCH  23  26
HETATM   26  C1  UNL     1     -19.999   0.952  17.150  1.00  0.00     0.120 C 
HETATM   27  N1  UNL     1     -19.230  -0.236  17.004  1.00  0.00    -0.082 NA
HETATM   28  N2  UNL     1     -19.869   1.658  18.188  1.00  0.00    -0.387 N 
ATOM     29  H22 UNL     1     -19.223   1.395  18.933  1.00  0.00     0.157 HD
ATOM     30  H21 UNL     1     -20.419   2.510  18.292  1.00  0.00     0.157 HD
ENDBRANCH  23  26
ENDBRANCH  19  20
ENDBRANCH   1  19
TORSDOF 7
ENDMDL
