MODEL 9
REMARK VINA RESULT: -7.150910713      2.698      7.625
REMARK  7 active torsions:
REMARK  status: ('A' for Active; 'I' for Inactive)
REMARK    1  A    between atoms: C1_2  and  C2_6 
REMARK    2  A    between atoms: C5_9  and  C6_10 
REMARK    3  A    between atoms: C6_10  and  N3_11 
REMARK       I    between atoms: N3_11  and  C7_13 
REMARK    4  A    between atoms: C7_13  and  C8_15 
REMARK       I    between atoms: N4_19  and  C12_20 
REMARK    5  A    between atoms: C12_20  and  C13_22 
REMARK    6  A    between atoms: C13_22  and  C14_23 
REMARK    7  A    between atoms: C14_23  and  C15_24 
ROOT
HETATM    1  N3  UNL     1     -29.562   1.726  15.093  1.00  0.00    -0.355 N 
ATOM      2  H3  UNL     1     -28.987   1.894  15.919  1.00  0.00     0.162 HD
HETATM    3  C7  UNL     1     -29.203   2.380  13.901  1.00  0.00     0.240 C 
HETATM    4  O1  UNL     1     -29.884   2.206  12.856  1.00  0.00    -0.271 OA
ENDROOT
BRANCH   3   5
HETATM    5  C8  UNL     1     -28.029   3.273  13.870  1.00  0.00     0.179 C 
HETATM    6  C9  UNL     1     -27.705   3.804  12.512  1.00  0.00     0.037 C 
HETATM    7  C10 UNL     1     -26.728   2.826  11.954  1.00  0.00     0.022 C 
HETATM    8  C11 UNL     1     -26.466   1.797  13.017  1.00  0.00     0.127 C 
HETATM    9  N4  UNL     1     -26.863   2.495  14.215  1.00  0.00    -0.339 N 
HETATM   10  C12 UNL     1     -26.206   2.398  15.466  1.00  0.00     0.220 C 
HETATM   11  O2  UNL     1     -26.684   3.077  16.432  1.00  0.00    -0.273 OA
BRANCH  10  12
HETATM   12  C13 UNL     1     -25.023   1.540  15.615  1.00  0.00     0.103 C 
BRANCH  12  13
HETATM   13  C14 UNL     1     -23.931   2.088  16.471  1.00  0.00     0.014 C 
BRANCH  13  14
HETATM   14  C15 UNL     1     -22.666   2.358  15.644  1.00  0.00    -0.014 C 
HETATM   15  C16 UNL     1     -21.443   2.036  16.460  1.00  0.00     0.004 C 
HETATM   16  C17 UNL     1     -20.607   1.093  15.632  1.00  0.00     0.000 C 
HETATM   17  C18 UNL     1     -21.660   0.309  14.874  1.00  0.00     0.000 C 
HETATM   18  C19 UNL     1     -22.616   1.411  14.459  1.00  0.00     0.004 C 
ENDBRANCH  13  14
ENDBRANCH  12  13
ENDBRANCH  10  12
ENDBRANCH   3   5
BRANCH   1  19
HETATM   19  C6  UNL     1     -30.692   0.831  15.229  1.00  0.00     0.161 C 
BRANCH  19  20
HETATM   20  C5  UNL     1     -30.397  -0.037  16.404  1.00  0.00    -0.040 A 
HETATM   21  C4  UNL     1     -29.105  -0.042  16.866  1.00  0.00     0.010 A 
HETATM   22  C3  UNL     1     -28.764  -0.833  17.955  1.00  0.00     0.015 A 
HETATM   23  C2  UNL     1     -29.674  -1.632  18.612  1.00  0.00     0.004 A 
HETATM   24  C21 UNL     1     -30.976  -1.582  18.092  1.00  0.00     0.015 A 
HETATM   25  C20 UNL     1     -31.335  -0.811  17.020  1.00  0.00     0.010 A 
BRANCH  23  26
HETATM   26  C1  UNL     1     -29.371  -2.480  19.750  1.00  0.00     0.120 C 
HETATM   27  N1  UNL     1     -28.988  -1.870  20.977  1.00  0.00    -0.082 NA
HETATM   28  N2  UNL     1     -29.441  -3.738  19.672  1.00  0.00    -0.387 N 
ATOM     29  H22 UNL     1     -29.228  -4.334  20.472  1.00  0.00     0.157 HD
ATOM     30  H21 UNL     1     -29.716  -4.174  18.792  1.00  0.00     0.157 HD
ENDBRANCH  23  26
ENDBRANCH  19  20
ENDBRANCH   1  19
TORSDOF 7
ENDMDL
