MODEL 16
REMARK VINA RESULT: -7.017879996      1.412      2.239
REMARK  7 active torsions:
REMARK  status: ('A' for Active; 'I' for Inactive)
REMARK    1  A    between atoms: C1_2  and  C2_6 
REMARK    2  A    between atoms: C5_9  and  C6_10 
REMARK    3  A    between atoms: C6_10  and  N3_11 
REMARK       I    between atoms: N3_11  and  C7_13 
REMARK    4  A    between atoms: C7_13  and  C8_15 
REMARK       I    between atoms: N4_19  and  C12_20 
REMARK    5  A    between atoms: C12_20  and  C13_22 
REMARK    6  A    between atoms: C13_22  and  C14_23 
REMARK    7  A    between atoms: C14_23  and  C15_24 
ROOT
HETATM    1  N3  UNL     1     -25.171   1.272  13.786  1.00  0.00    -0.355 N 
ATOM      2  H3  UNL     1     -25.178   0.394  13.266  1.00  0.00     0.162 HD
HETATM    3  C7  UNL     1     -26.195   1.484  14.726  1.00  0.00     0.240 C 
HETATM    4  O1  UNL     1     -26.229   2.553  15.391  1.00  0.00    -0.271 OA
ENDROOT
BRANCH   3   5
HETATM    5  C8  UNL     1     -27.233   0.457  14.937  1.00  0.00     0.179 C 
HETATM    6  C9  UNL     1     -28.047   0.158  13.720  1.00  0.00     0.037 C 
HETATM    7  C10 UNL     1     -29.217   1.076  13.820  1.00  0.00     0.022 C 
HETATM    8  C11 UNL     1     -29.083   1.834  15.111  1.00  0.00     0.127 C 
HETATM    9  N4  UNL     1     -28.202   0.981  15.870  1.00  0.00    -0.339 N 
HETATM   10  C12 UNL     1     -28.304   0.742  17.262  1.00  0.00     0.220 C 
HETATM   11  O2  UNL     1     -27.443  -0.037  17.786  1.00  0.00    -0.273 OA
BRANCH  10  12
HETATM   12  C13 UNL     1     -29.372   1.378  18.044  1.00  0.00     0.103 C 
BRANCH  12  13
HETATM   13  C14 UNL     1     -29.387   1.054  19.500  1.00  0.00     0.014 C 
BRANCH  13  14
HETATM   14  C15 UNL     1     -30.352  -0.103  19.797  1.00  0.00    -0.014 C 
HETATM   15  C16 UNL     1     -30.894  -0.661  18.507  1.00  0.00     0.004 C 
HETATM   16  C17 UNL     1     -30.643  -2.147  18.540  1.00  0.00     0.000 C 
HETATM   17  C18 UNL     1     -29.344  -2.238  19.316  1.00  0.00     0.000 C 
HETATM   18  C19 UNL     1     -29.594  -1.250  20.440  1.00  0.00     0.004 C 
ENDBRANCH  13  14
ENDBRANCH  12  13
ENDBRANCH  10  12
ENDBRANCH   3   5
BRANCH   1  19
HETATM   19  C6  UNL     1     -24.107   2.214  13.506  1.00  0.00     0.161 C 
BRANCH  19  20
HETATM   20  C5  UNL     1     -23.008   1.897  14.461  1.00  0.00    -0.040 A 
HETATM   21  C4  UNL     1     -22.261   0.775  14.201  1.00  0.00     0.010 A 
HETATM   22  C3  UNL     1     -21.224   0.423  15.055  1.00  0.00     0.015 A 
HETATM   23  C2  UNL     1     -20.897   1.157  16.175  1.00  0.00     0.004 A 
HETATM   24  C21 UNL     1     -21.696   2.290  16.384  1.00  0.00     0.015 A 
HETATM   25  C20 UNL     1     -22.723   2.656  15.556  1.00  0.00     0.010 A 
BRANCH  23  26
HETATM   26  C1  UNL     1     -19.828   0.832  17.102  1.00  0.00     0.120 C 
HETATM   27  N1  UNL     1     -19.136  -0.402  16.946  1.00  0.00    -0.082 NA
HETATM   28  N2  UNL     1     -19.503   1.618  18.034  1.00  0.00    -0.387 N 
ATOM     29  H22 UNL     1     -18.752   1.389  18.686  1.00  0.00     0.157 HD
ATOM     30  H21 UNL     1     -19.999   2.502  18.145  1.00  0.00     0.157 HD
ENDBRANCH  23  26
ENDBRANCH  19  20
ENDBRANCH   1  19
TORSDOF 7
ENDMDL
