MODEL 12
REMARK VINA RESULT: -7.060881211      1.952      2.950
REMARK  7 active torsions:
REMARK  status: ('A' for Active; 'I' for Inactive)
REMARK    1  A    between atoms: C1_2  and  C2_6 
REMARK    2  A    between atoms: C5_9  and  C6_10 
REMARK    3  A    between atoms: C6_10  and  N3_11 
REMARK       I    between atoms: N3_11  and  C7_13 
REMARK    4  A    between atoms: C7_13  and  C8_15 
REMARK       I    between atoms: N4_19  and  C12_20 
REMARK    5  A    between atoms: C12_20  and  C13_22 
REMARK    6  A    between atoms: C13_22  and  C14_23 
REMARK    7  A    between atoms: C14_23  and  C15_24 
ROOT
HETATM    1  N3  UNL     1     -25.108   1.399  13.765  1.00  0.00    -0.355 N 
ATOM      2  H3  UNL     1     -25.254   0.592  13.158  1.00  0.00     0.162 HD
HETATM    3  C7  UNL     1     -26.005   1.586  14.831  1.00  0.00     0.240 C 
HETATM    4  O1  UNL     1     -25.867   2.569  15.607  1.00  0.00    -0.271 OA
ENDROOT
BRANCH   3   5
HETATM    5  C8  UNL     1     -27.111   0.634  15.046  1.00  0.00     0.179 C 
HETATM    6  C9  UNL     1     -27.745   0.145  13.784  1.00  0.00     0.037 C 
HETATM    7  C10 UNL     1     -28.872   1.092  13.543  1.00  0.00     0.022 C 
HETATM    8  C11 UNL     1     -28.898   2.059  14.692  1.00  0.00     0.127 C 
HETATM    9  N4  UNL     1     -28.184   1.333  15.714  1.00  0.00    -0.339 N 
HETATM   10  C12 UNL     1     -28.507   1.341  17.092  1.00  0.00     0.220 C 
HETATM   11  O2  UNL     1     -27.773   0.648  17.869  1.00  0.00    -0.273 OA
BRANCH  10  12
HETATM   12  C13 UNL     1     -29.649   2.127  17.578  1.00  0.00     0.103 C 
BRANCH  12  13
HETATM   13  C14 UNL     1     -30.552   1.428  18.538  1.00  0.00     0.014 C 
BRANCH  13  14
HETATM   14  C15 UNL     1     -31.866   1.016  17.858  1.00  0.00    -0.014 C 
HETATM   15  C16 UNL     1     -32.032   1.771  16.566  1.00  0.00     0.004 C 
HETATM   16  C17 UNL     1     -32.286   0.743  15.493  1.00  0.00     0.000 C 
HETATM   17  C18 UNL     1     -31.469  -0.438  15.979  1.00  0.00     0.000 C 
HETATM   18  C19 UNL     1     -31.800  -0.447  17.459  1.00  0.00     0.004 C 
ENDBRANCH  13  14
ENDBRANCH  12  13
ENDBRANCH  10  12
ENDBRANCH   3   5
BRANCH   1  19
HETATM   19  C6  UNL     1     -23.992   2.273  13.469  1.00  0.00     0.161 C 
BRANCH  19  20
HETATM   20  C5  UNL     1     -22.907   1.899  14.419  1.00  0.00    -0.040 A 
HETATM   21  C4  UNL     1     -22.303   0.682  14.228  1.00  0.00     0.010 A 
HETATM   22  C3  UNL     1     -21.287   0.274  15.083  1.00  0.00     0.015 A 
HETATM   23  C2  UNL     1     -20.842   1.043  16.136  1.00  0.00     0.004 A 
HETATM   24  C21 UNL     1     -21.499   2.274  16.277  1.00  0.00     0.015 A 
HETATM   25  C20 UNL     1     -22.502   2.697  15.448  1.00  0.00     0.010 A 
BRANCH  23  26
HETATM   26  C1  UNL     1     -19.790   0.663  17.060  1.00  0.00     0.120 C 
HETATM   27  N1  UNL     1     -19.170  -0.609  16.909  1.00  0.00    -0.082 NA
HETATM   28  N2  UNL     1     -19.416   1.434  17.986  1.00  0.00    -0.387 N 
ATOM     29  H22 UNL     1     -18.676   1.167  18.636  1.00  0.00     0.157 HD
ATOM     30  H21 UNL     1     -19.860   2.346  18.093  1.00  0.00     0.157 HD
ENDBRANCH  23  26
ENDBRANCH  19  20
ENDBRANCH   1  19
TORSDOF 7
ENDMDL
