MODEL 11
REMARK VINA RESULT: -7.065761690      1.386      2.458
REMARK  7 active torsions:
REMARK  status: ('A' for Active; 'I' for Inactive)
REMARK    1  A    between atoms: C1_2  and  C2_6 
REMARK    2  A    between atoms: C5_9  and  C6_10 
REMARK    3  A    between atoms: C6_10  and  N3_11 
REMARK       I    between atoms: N3_11  and  C7_13 
REMARK    4  A    between atoms: C7_13  and  C8_15 
REMARK       I    between atoms: N4_19  and  C12_20 
REMARK    5  A    between atoms: C12_20  and  C13_22 
REMARK    6  A    between atoms: C13_22  and  C14_23 
REMARK    7  A    between atoms: C14_23  and  C15_24 
ROOT
HETATM    1  N3  UNL     1     -25.623   1.425  13.925  1.00  0.00    -0.355 N 
ATOM      2  H3  UNL     1     -25.505   0.867  14.771  1.00  0.00     0.162 HD
HETATM    3  C7  UNL     1     -26.890   1.429  13.315  1.00  0.00     0.240 C 
HETATM    4  O1  UNL     1     -27.084   2.101  12.268  1.00  0.00    -0.271 OA
ENDROOT
BRANCH   3   5
HETATM    5  C8  UNL     1     -27.996   0.647  13.899  1.00  0.00     0.179 C 
HETATM    6  C9  UNL     1     -29.260   0.696  13.104  1.00  0.00     0.037 C 
HETATM    7  C10 UNL     1     -30.023   1.837  13.688  1.00  0.00     0.022 C 
HETATM    8  C11 UNL     1     -29.215   2.377  14.834  1.00  0.00     0.127 C 
HETATM    9  N4  UNL     1     -28.364   1.257  15.156  1.00  0.00    -0.339 N 
HETATM   10  C12 UNL     1     -27.985   0.875  16.465  1.00  0.00     0.220 C 
HETATM   11  O2  UNL     1     -27.222  -0.139  16.581  1.00  0.00    -0.273 OA
BRANCH  10  12
HETATM   12  C13 UNL     1     -28.469   1.634  17.625  1.00  0.00     0.103 C 
BRANCH  12  13
HETATM   13  C14 UNL     1     -28.149   1.050  18.960  1.00  0.00     0.014 C 
BRANCH  13  14
HETATM   14  C15 UNL     1     -29.326   0.222  19.495  1.00  0.00    -0.014 C 
HETATM   15  C16 UNL     1     -30.331  -0.008  18.398  1.00  0.00     0.004 C 
HETATM   16  C17 UNL     1     -30.575  -1.495  18.340  1.00  0.00     0.000 C 
HETATM   17  C18 UNL     1     -29.223  -2.059  18.727  1.00  0.00     0.000 C 
HETATM   18  C19 UNL     1     -28.842  -1.162  19.889  1.00  0.00     0.004 C 
ENDBRANCH  13  14
ENDBRANCH  12  13
ENDBRANCH  10  12
ENDBRANCH   3   5
BRANCH   1  19
HETATM   19  C6  UNL     1     -24.474   2.157  13.433  1.00  0.00     0.161 C 
BRANCH  19  20
HETATM   20  C5  UNL     1     -23.371   1.900  14.402  1.00  0.00    -0.040 A 
HETATM   21  C4  UNL     1     -22.207   1.378  13.896  1.00  0.00     0.010 A 
HETATM   22  C3  UNL     1     -21.142   1.112  14.748  1.00  0.00     0.015 A 
HETATM   23  C2  UNL     1     -21.193   1.349  16.104  1.00  0.00     0.004 A 
HETATM   24  C21 UNL     1     -22.408   1.882  16.557  1.00  0.00     0.015 A 
HETATM   25  C20 UNL     1     -23.471   2.152  15.738  1.00  0.00     0.010 A 
BRANCH  23  26
HETATM   26  C1  UNL     1     -20.114   1.085  17.037  1.00  0.00     0.120 C 
HETATM   27  N1  UNL     1     -19.338  -0.096  16.874  1.00  0.00    -0.082 NA
HETATM   28  N2  UNL     1     -19.852   1.879  17.983  1.00  0.00    -0.387 N 
ATOM     29  H22 UNL     1     -19.093   1.693  18.640  1.00  0.00     0.157 HD
ATOM     30  H21 UNL     1     -20.408   2.726  18.100  1.00  0.00     0.157 HD
ENDBRANCH  23  26
ENDBRANCH  19  20
ENDBRANCH   1  19
TORSDOF 7
ENDMDL
