MODEL 17
REMARK VINA RESULT: -7.003726776      1.786      2.694
REMARK  7 active torsions:
REMARK  status: ('A' for Active; 'I' for Inactive)
REMARK    1  A    between atoms: C1_2  and  C2_6 
REMARK    2  A    between atoms: C5_9  and  C6_10 
REMARK    3  A    between atoms: C6_10  and  N3_11 
REMARK       I    between atoms: N3_11  and  C7_13 
REMARK    4  A    between atoms: C7_13  and  C8_15 
REMARK       I    between atoms: N4_19  and  C12_20 
REMARK    5  A    between atoms: C12_20  and  C13_22 
REMARK    6  A    between atoms: C13_22  and  C14_23 
REMARK    7  A    between atoms: C14_23  and  C15_24 
ROOT
HETATM    1  N3  UNL     1     -25.528   1.418  14.163  1.00  0.00    -0.355 N 
ATOM      2  H3  UNL     1     -25.407   1.042  15.103  1.00  0.00     0.162 HD
HETATM    3  C7  UNL     1     -26.799   1.309  13.572  1.00  0.00     0.240 C 
HETATM    4  O1  UNL     1     -26.996   1.757  12.412  1.00  0.00    -0.271 OA
ENDROOT
BRANCH   3   5
HETATM    5  C8  UNL     1     -27.905   0.668  14.308  1.00  0.00     0.179 C 
HETATM    6  C9  UNL     1     -29.152   0.497  13.502  1.00  0.00     0.037 C 
HETATM    7  C10 UNL     1     -29.945   1.729  13.779  1.00  0.00     0.022 C 
HETATM    8  C11 UNL     1     -29.173   2.546  14.775  1.00  0.00     0.127 C 
HETATM    9  N4  UNL     1     -28.311   1.555  15.373  1.00  0.00    -0.339 N 
HETATM   10  C12 UNL     1     -27.956   1.508  16.742  1.00  0.00     0.220 C 
HETATM   11  O2  UNL     1     -27.180   0.568  17.114  1.00  0.00    -0.273 OA
BRANCH  10  12
HETATM   12  C13 UNL     1     -28.478   2.515  17.676  1.00  0.00     0.103 C 
BRANCH  12  13
HETATM   13  C14 UNL     1     -27.647   2.762  18.890  1.00  0.00     0.014 C 
BRANCH  13  14
HETATM   14  C15 UNL     1     -28.365   2.275  20.157  1.00  0.00    -0.014 C 
HETATM   15  C16 UNL     1     -29.751   1.801  19.810  1.00  0.00     0.004 C 
HETATM   16  C17 UNL     1     -29.885   0.409  20.373  1.00  0.00     0.000 C 
HETATM   17  C18 UNL     1     -28.474  -0.129  20.241  1.00  0.00     0.000 C 
HETATM   18  C19 UNL     1     -27.653   1.055  20.713  1.00  0.00     0.004 C 
ENDBRANCH  13  14
ENDBRANCH  12  13
ENDBRANCH  10  12
ENDBRANCH   3   5
BRANCH   1  19
HETATM   19  C6  UNL     1     -24.378   2.029  13.528  1.00  0.00     0.161 C 
BRANCH  19  20
HETATM   20  C5  UNL     1     -23.221   1.781  14.435  1.00  0.00    -0.040 A 
HETATM   21  C4  UNL     1     -23.376   2.134  15.752  1.00  0.00     0.010 A 
HETATM   22  C3  UNL     1     -22.334   1.933  16.647  1.00  0.00     0.015 A 
HETATM   23  C2  UNL     1     -21.125   1.385  16.276  1.00  0.00     0.004 A 
HETATM   24  C21 UNL     1     -21.031   1.046  14.919  1.00  0.00     0.015 A 
HETATM   25  C20 UNL     1     -22.044   1.235  14.018  1.00  0.00     0.010 A 
BRANCH  23  26
HETATM   26  C1  UNL     1     -20.004   1.158  17.169  1.00  0.00     0.120 C 
HETATM   27  N1  UNL     1     -19.229  -0.025  17.010  1.00  0.00    -0.082 NA
HETATM   28  N2  UNL     1     -19.704   1.984  18.074  1.00  0.00    -0.387 N 
ATOM     29  H22 UNL     1     -18.915   1.824  18.702  1.00  0.00     0.157 HD
ATOM     30  H21 UNL     1     -20.259   2.832  18.188  1.00  0.00     0.157 HD
ENDBRANCH  23  26
ENDBRANCH  19  20
ENDBRANCH   1  19
TORSDOF 7
ENDMDL
