MODEL 5
REMARK VINA RESULT: -7.411237754      2.451      3.695
REMARK  6 active torsions:
REMARK  status: ('A' for Active; 'I' for Inactive)
REMARK    1  A    between atoms: C2_2  and  C3_3 
REMARK    2  A    between atoms: C3_3  and  N1_4 
REMARK    3  A    between atoms: C3_3  and  C4_8 
REMARK       I    between atoms: C4_8  and  N2_10 
REMARK    4  A    between atoms: C8_14  and  C9_15 
REMARK       I    between atoms: C9_15  and  N3_17 
REMARK    5  A    between atoms: N3_17  and  C10_19 
REMARK    6  A    between atoms: C10_19  and  C11_20 
ROOT
HETATM    1  C4  UNL     1      17.658 -13.902  22.671  1.00  0.00     0.251 C 
HETATM    2  O1  UNL     1      16.670 -13.292  23.205  1.00  0.00    -0.271 OA
HETATM    3  N2  UNL     1      18.407 -13.161  21.685  1.00  0.00    -0.337 N 
HETATM    4  C5  UNL     1      19.533 -13.711  21.018  1.00  0.00     0.127 C 
HETATM    5  C6  UNL     1      19.714 -12.777  19.811  1.00  0.00     0.022 C 
HETATM    6  C7  UNL     1      19.360 -11.417  20.462  1.00  0.00     0.037 C 
HETATM    7  C8  UNL     1      18.151 -11.840  21.231  1.00  0.00     0.179 C 
ENDROOT
BRANCH   7   8
HETATM    8  C9  UNL     1      16.905 -11.722  20.426  1.00  0.00     0.240 C 
HETATM    9  O2  UNL     1      16.883 -12.080  19.225  1.00  0.00    -0.271 OA
HETATM   10  N3  UNL     1      15.750 -11.203  21.033  1.00  0.00    -0.355 N 
ATOM     11  H3  UNL     1      15.803 -10.923  22.013  1.00  0.00     0.162 HD
BRANCH  10  12
HETATM   12  C10 UNL     1      14.477 -11.043  20.333  1.00  0.00     0.161 C 
BRANCH  12  13
HETATM   13  C11 UNL     1      13.402 -10.927  21.348  1.00  0.00    -0.039 A 
HETATM   14  C12 UNL     1      12.476 -11.945  21.571  1.00  0.00     0.009 A 
HETATM   15  C13 UNL     1      11.483 -11.792  22.538  1.00  0.00     0.002 A 
HETATM   16  C14 UNL     1      11.383 -10.651  23.296  1.00  0.00     0.024 A 
HETATM   17  C15 UNL     1      12.296  -9.638  23.083  1.00  0.00     0.034 A 
HETATM   18 CL1  UNL     1      12.188  -8.176  24.038  1.00  0.00    -0.084 Cl
HETATM   19  C16 UNL     1      13.280  -9.798  22.119  1.00  0.00     0.032 A 
ENDBRANCH  12  13
ENDBRANCH  10  12
ENDBRANCH   7   8
BRANCH   1  20
HETATM   20  C3  UNL     1      17.928 -15.272  23.102  1.00  0.00     0.274 C 
BRANCH  20  21
HETATM   21  C2  UNL     1      18.776 -15.360  24.378  1.00  0.00     0.038 C 
HETATM   22  C1  UNL     1      17.781 -15.543  25.538  1.00  0.00     0.007 C 
ENDBRANCH  20  21
BRANCH  20  23
HETATM   23  N1  UNL     1      16.655 -15.978  23.389  1.00  0.00    -0.067 N 
ATOM     24  H13 UNL     1      16.181 -15.629  24.222  1.00  0.00     0.275 HD
ATOM     25  H12 UNL     1      15.915 -15.762  22.721  1.00  0.00     0.275 HD
ATOM     26  H11 UNL     1      16.877 -16.971  23.437  1.00  0.00     0.275 HD
ENDBRANCH  20  23
ENDBRANCH   1  20
TORSDOF 6
ENDMDL
