MODEL 7
REMARK VINA RESULT: -7.305122501      3.400      6.533
REMARK  6 active torsions:
REMARK  status: ('A' for Active; 'I' for Inactive)
REMARK    1  A    between atoms: C2_2  and  C3_3 
REMARK    2  A    between atoms: C3_3  and  N1_4 
REMARK    3  A    between atoms: C3_3  and  C4_8 
REMARK       I    between atoms: C4_8  and  N2_10 
REMARK    4  A    between atoms: C8_14  and  C9_15 
REMARK       I    between atoms: C9_15  and  N3_17 
REMARK    5  A    between atoms: N3_17  and  C10_19 
REMARK    6  A    between atoms: C10_19  and  C11_20 
ROOT
HETATM    1  C4  UNL     1      14.079 -11.612  21.166  1.00  0.00     0.251 C 
HETATM    2  O1  UNL     1      14.497 -12.147  22.249  1.00  0.00    -0.271 OA
HETATM    3  N2  UNL     1      14.708 -12.060  19.948  1.00  0.00    -0.337 N 
HETATM    4  C5  UNL     1      14.337 -11.559  18.674  1.00  0.00     0.127 C 
HETATM    5  C6  UNL     1      15.517 -11.969  17.778  1.00  0.00     0.022 C 
HETATM    6  C7  UNL     1      15.841 -13.361  18.376  1.00  0.00     0.037 C 
HETATM    7  C8  UNL     1      15.755 -13.013  19.827  1.00  0.00     0.179 C 
ENDROOT
BRANCH   7   8
HETATM    8  C9  UNL     1      17.057 -12.534  20.366  1.00  0.00     0.240 C 
HETATM    9  O2  UNL     1      17.432 -11.354  20.178  1.00  0.00    -0.271 OA
HETATM   10  N3  UNL     1      17.860 -13.428  21.092  1.00  0.00    -0.355 N 
ATOM     11  H3  UNL     1      17.524 -14.381  21.228  1.00  0.00     0.162 HD
BRANCH  10  12
HETATM   12  C10 UNL     1      19.155 -13.061  21.663  1.00  0.00     0.161 C 
BRANCH  12  13
HETATM   13  C11 UNL     1      19.188 -13.525  23.071  1.00  0.00    -0.039 A 
HETATM   14  C12 UNL     1      20.082 -13.005  24.006  1.00  0.00     0.009 A 
HETATM   15  C13 UNL     1      20.075 -13.470  25.320  1.00  0.00     0.002 A 
HETATM   16  C14 UNL     1      19.200 -14.444  25.736  1.00  0.00     0.024 A 
HETATM   17  C15 UNL     1      18.311 -14.965  24.818  1.00  0.00     0.034 A 
HETATM   18 CL1  UNL     1      17.186 -16.205  25.327  1.00  0.00    -0.084 Cl
HETATM   19  C16 UNL     1      18.324 -14.496  23.512  1.00  0.00     0.032 A 
ENDBRANCH  12  13
ENDBRANCH  10  12
ENDBRANCH   7   8
BRANCH   1  20
HETATM   20  C3  UNL     1      13.019 -10.610  21.266  1.00  0.00     0.274 C 
BRANCH  20  21
HETATM   21  C2  UNL     1      11.888 -11.003  22.226  1.00  0.00     0.038 C 
HETATM   22  C1  UNL     1      11.825  -9.888  23.286  1.00  0.00     0.007 C 
ENDBRANCH  20  21
BRANCH  20  23
HETATM   23  N1  UNL     1      13.574  -9.328  21.765  1.00  0.00    -0.067 N 
ATOM     24  H13 UNL     1      13.341  -8.531  21.173  1.00  0.00     0.275 HD
ATOM     25  H12 UNL     1      13.117  -8.994  22.614  1.00  0.00     0.275 HD
ATOM     26  H11 UNL     1      14.577  -9.468  21.876  1.00  0.00     0.275 HD
ENDBRANCH  20  23
ENDBRANCH   1  20
TORSDOF 6
ENDMDL
