MODEL 2
REMARK VINA RESULT: -7.541840770      3.502      6.474
REMARK  6 active torsions:
REMARK  status: ('A' for Active; 'I' for Inactive)
REMARK    1  A    between atoms: C2_2  and  C3_3 
REMARK    2  A    between atoms: C3_3  and  N1_4 
REMARK    3  A    between atoms: C3_3  and  C4_8 
REMARK       I    between atoms: C4_8  and  N2_10 
REMARK    4  A    between atoms: C8_14  and  C9_15 
REMARK       I    between atoms: C9_15  and  N3_17 
REMARK    5  A    between atoms: N3_17  and  C10_19 
REMARK    6  A    between atoms: C10_19  and  C11_20 
ROOT
HETATM    1  C4  UNL     1      14.036 -11.588  21.112  1.00  0.00     0.251 C 
HETATM    2  O1  UNL     1      14.414 -12.152  22.195  1.00  0.00    -0.271 OA
HETATM    3  N2  UNL     1      14.675 -12.040  19.899  1.00  0.00    -0.337 N 
HETATM    4  C5  UNL     1      14.347 -11.509  18.625  1.00  0.00     0.127 C 
HETATM    5  C6  UNL     1      15.530 -11.947  17.748  1.00  0.00     0.022 C 
HETATM    6  C7  UNL     1      15.796 -13.356  18.332  1.00  0.00     0.037 C 
HETATM    7  C8  UNL     1      15.692 -13.026  19.785  1.00  0.00     0.179 C 
ENDROOT
BRANCH   7   8
HETATM    8  C9  UNL     1      16.998 -12.599  20.357  1.00  0.00     0.240 C 
HETATM    9  O2  UNL     1      17.477 -11.473  20.086  1.00  0.00    -0.271 OA
HETATM   10  N3  UNL     1      17.686 -13.477  21.210  1.00  0.00    -0.355 N 
ATOM     11  H3  UNL     1      17.265 -14.384  21.412  1.00  0.00     0.162 HD
BRANCH  10  12
HETATM   12  C10 UNL     1      18.974 -13.157  21.823  1.00  0.00     0.161 C 
BRANCH  12  13
HETATM   13  C11 UNL     1      18.970 -13.685  23.208  1.00  0.00    -0.039 A 
HETATM   14  C12 UNL     1      18.132 -14.725  23.607  1.00  0.00     0.009 A 
HETATM   15  C13 UNL     1      18.166 -15.190  24.921  1.00  0.00     0.002 A 
HETATM   16  C14 UNL     1      19.013 -14.649  25.858  1.00  0.00     0.024 A 
HETATM   17  C15 UNL     1      19.847 -13.619  25.472  1.00  0.00     0.034 A 
HETATM   18 CL1  UNL     1      20.936 -12.916  26.647  1.00  0.00    -0.084 Cl
HETATM   19  C16 UNL     1      19.807 -13.162  24.162  1.00  0.00     0.032 A 
ENDBRANCH  12  13
ENDBRANCH  10  12
ENDBRANCH   7   8
BRANCH   1  20
HETATM   20  C3  UNL     1      13.009 -10.553  21.204  1.00  0.00     0.274 C 
BRANCH  20  21
HETATM   21  C2  UNL     1      11.842 -10.925  22.128  1.00  0.00     0.038 C 
HETATM   22  C1  UNL     1      11.830  -9.866  23.246  1.00  0.00     0.007 C 
ENDBRANCH  20  21
BRANCH  20  23
HETATM   23  N1  UNL     1      13.593  -9.300  21.742  1.00  0.00    -0.067 N 
ATOM     24  H13 UNL     1      13.329  -8.471  21.210  1.00  0.00     0.275 HD
ATOM     25  H12 UNL     1      13.185  -9.014  22.632  1.00  0.00     0.275 HD
ATOM     26  H11 UNL     1      14.601  -9.445  21.789  1.00  0.00     0.275 HD
ENDBRANCH  20  23
ENDBRANCH   1  20
TORSDOF 6
ENDMDL
