MODEL 8
REMARK VINA RESULT: -7.289848535      3.212      6.554
REMARK  6 active torsions:
REMARK  status: ('A' for Active; 'I' for Inactive)
REMARK    1  A    between atoms: C2_2  and  C3_3 
REMARK    2  A    between atoms: C3_3  and  N1_4 
REMARK    3  A    between atoms: C3_3  and  C4_8 
REMARK       I    between atoms: C4_8  and  N2_10 
REMARK    4  A    between atoms: C8_14  and  C9_15 
REMARK       I    between atoms: C9_15  and  N3_17 
REMARK    5  A    between atoms: N3_17  and  C10_19 
REMARK    6  A    between atoms: C10_19  and  C11_20 
ROOT
HETATM    1  C4  UNL     1      13.083 -13.621  20.157  1.00  0.00     0.251 C 
HETATM    2  O1  UNL     1      13.836 -13.903  19.164  1.00  0.00    -0.271 OA
HETATM    3  N2  UNL     1      13.040 -12.234  20.552  1.00  0.00    -0.337 N 
HETATM    4  C5  UNL     1      12.239 -11.777  21.631  1.00  0.00     0.127 C 
HETATM    5  C6  UNL     1      12.830 -10.393  21.944  1.00  0.00     0.022 C 
HETATM    6  C7  UNL     1      13.151  -9.903  20.510  1.00  0.00     0.037 C 
HETATM    7  C8  UNL     1      13.760 -11.156  19.970  1.00  0.00     0.179 C 
ENDROOT
BRANCH   7   8
HETATM    8  C9  UNL     1      15.226 -11.220  20.222  1.00  0.00     0.240 C 
HETATM    9  O2  UNL     1      16.008 -10.424  19.651  1.00  0.00    -0.271 OA
HETATM   10  N3  UNL     1      15.721 -12.186  21.112  1.00  0.00    -0.355 N 
ATOM     11  H3  UNL     1      15.056 -12.816  21.562  1.00  0.00     0.162 HD
BRANCH  10  12
HETATM   12  C10 UNL     1      17.140 -12.335  21.428  1.00  0.00     0.161 C 
BRANCH  12  13
HETATM   13  C11 UNL     1      17.467 -13.781  21.419  1.00  0.00    -0.039 A 
HETATM   14  C12 UNL     1      18.698 -14.269  21.854  1.00  0.00     0.009 A 
HETATM   15  C13 UNL     1      18.960 -15.638  21.829  1.00  0.00     0.002 A 
HETATM   16  C14 UNL     1      18.028 -16.544  21.382  1.00  0.00     0.024 A 
HETATM   17  C15 UNL     1      16.806 -16.071  20.950  1.00  0.00     0.034 A 
HETATM   18 CL1  UNL     1      15.604 -17.205  20.380  1.00  0.00    -0.084 Cl
HETATM   19  C16 UNL     1      16.554 -14.706  20.979  1.00  0.00     0.032 A 
ENDBRANCH  12  13
ENDBRANCH  10  12
ENDBRANCH   7   8
BRANCH   1  20
HETATM   20  C3  UNL     1      12.349 -14.716  20.789  1.00  0.00     0.274 C 
BRANCH  20  21
HETATM   21  C2  UNL     1      12.137 -15.926  19.870  1.00  0.00     0.038 C 
HETATM   22  C1  UNL     1      11.877 -17.125  20.801  1.00  0.00     0.007 C 
ENDBRANCH  20  21
BRANCH  20  23
HETATM   23  N1  UNL     1      13.091 -15.208  21.976  1.00  0.00    -0.067 N 
ATOM     24  H13 UNL     1      13.504 -16.131  21.838  1.00  0.00     0.275 HD
ATOM     25  H12 UNL     1      13.960 -14.704  22.147  1.00  0.00     0.275 HD
ATOM     26  H11 UNL     1      12.442 -15.170  22.762  1.00  0.00     0.275 HD
ENDBRANCH  20  23
ENDBRANCH   1  20
TORSDOF 6
ENDMDL
