MODEL 5
REMARK VINA RESULT: -7.950820169      1.235      1.753
REMARK  9 active torsions:
REMARK  status: ('A' for Active; 'I' for Inactive)
REMARK    1  A    between atoms: C1_2  and  C2_6 
REMARK    2  A    between atoms: C5_9  and  C6_10 
REMARK    3  A    between atoms: C6_10  and  N3_11 
REMARK       I    between atoms: N3_11  and  C7_13 
REMARK    4  A    between atoms: C7_13  and  C8_15 
REMARK    5  A    between atoms: N4_19  and  C12_20 
REMARK    6  A    between atoms: C12_20  and  O2_21 
REMARK    7  A    between atoms: C12_20  and  C13_23 
REMARK    8  A    between atoms: C13_23  and  N5_24 
REMARK    9  A    between atoms: N5_24  and  C14_26 
ROOT
HETATM    1  C8  UNL     1      27.848  -1.639  13.715  1.00  0.00     0.178 C 
HETATM    2  C9  UNL     1      28.986  -2.302  12.936  1.00  0.00     0.037 C 
HETATM    3  C10 UNL     1      28.586  -3.745  13.129  1.00  0.00     0.022 C 
HETATM    4  C11 UNL     1      28.296  -3.760  14.647  1.00  0.00     0.126 C 
HETATM    5  N4  UNL     1      28.054  -2.382  15.001  1.00  0.00    -0.347 N 
ENDROOT
BRANCH   1   6
HETATM    6  C7  UNL     1      26.553  -2.058  13.125  1.00  0.00     0.240 C 
HETATM    7  N3  UNL     1      25.391  -2.141  13.935  1.00  0.00    -0.355 N 
ATOM      8  H3  UNL     1      25.481  -1.905  14.924  1.00  0.00     0.162 HD
HETATM    9  O1  UNL     1      26.453  -2.351  11.887  1.00  0.00    -0.271 OA
BRANCH   7  10
HETATM   10  C6  UNL     1      24.101  -2.534  13.455  1.00  0.00     0.161 C 
BRANCH  10  11
HETATM   11  C5  UNL     1      23.025  -2.198  14.437  1.00  0.00    -0.040 A 
HETATM   12  C4  UNL     1      21.893  -1.519  14.063  1.00  0.00     0.010 A 
HETATM   13  C3  UNL     1      20.922  -1.224  14.987  1.00  0.00     0.015 A 
HETATM   14  C2  UNL     1      21.025  -1.590  16.336  1.00  0.00     0.004 A 
HETATM   15  C22 UNL     1      22.173  -2.268  16.668  1.00  0.00     0.015 A 
HETATM   16  C21 UNL     1      23.175  -2.579  15.746  1.00  0.00     0.010 A 
BRANCH  14  17
HETATM   17  C1  UNL     1      19.959  -1.246  17.263  1.00  0.00     0.120 C 
HETATM   18  N1  UNL     1      19.122  -0.134  16.964  1.00  0.00    -0.082 NA
HETATM   19  N2  UNL     1      19.759  -1.915  18.329  1.00  0.00    -0.387 N 
ATOM     20  H22 UNL     1      19.011  -1.673  18.979  1.00  0.00     0.157 HD
ATOM     21  H21 UNL     1      20.359  -2.711  18.543  1.00  0.00     0.157 HD
ENDBRANCH  14  17
ENDBRANCH  10  11
ENDBRANCH   7  10
ENDBRANCH   1   6
BRANCH   5  22
HETATM   22  C12 UNL     1      28.008  -1.782  16.267  1.00  0.00     0.154 C 
BRANCH  22  23
HETATM   23  O2  UNL     1      26.794  -1.360  16.574  1.00  0.00    -0.345 OA
ATOM     24  H2  UNL     1      26.563  -1.556  17.475  1.00  0.00     0.219 HD
ENDBRANCH  22  23
BRANCH  22  25
HETATM   25  C13 UNL     1      29.049  -1.555  17.269  1.00  0.00     0.139 C 
BRANCH  25  26
HETATM   26  N5  UNL     1      29.659  -0.289  17.336  1.00  0.00    -0.391 N 
ATOM     27  H5  UNL     1      30.297   0.054  16.617  1.00  0.00     0.159 HD
BRANCH  26  28
HETATM   28  C14 UNL     1      29.307   0.486  18.510  1.00  0.00     0.081 C 
HETATM   29  C15 UNL     1      30.271   1.567  18.868  1.00  0.00     0.025 C 
HETATM   30  C16 UNL     1      29.513   2.736  19.483  1.00  0.00     0.002 C 
HETATM   31  C17 UNL     1      29.267   2.586  20.940  1.00  0.00     0.000 C 
HETATM   32  C18 UNL     1      29.476   1.225  21.512  1.00  0.00     0.000 C 
HETATM   33  C19 UNL     1      28.595   0.189  20.882  1.00  0.00     0.002 C 
HETATM   34  C20 UNL     1      29.218  -0.478  19.674  1.00  0.00     0.025 C 
ENDBRANCH  26  28
ENDBRANCH  25  26
ENDBRANCH  22  25
ENDBRANCH   5  22
TORSDOF 9
ENDMDL
