MODEL 10
REMARK VINA RESULT: -7.516512940      2.350      7.619
REMARK  9 active torsions:
REMARK  status: ('A' for Active; 'I' for Inactive)
REMARK    1  A    between atoms: C1_2  and  C2_6 
REMARK    2  A    between atoms: C5_9  and  C6_10 
REMARK    3  A    between atoms: C6_10  and  N3_11 
REMARK       I    between atoms: N3_11  and  C7_13 
REMARK    4  A    between atoms: C7_13  and  C8_15 
REMARK    5  A    between atoms: N4_19  and  C12_20 
REMARK    6  A    between atoms: C12_20  and  O2_21 
REMARK    7  A    between atoms: C12_20  and  C13_23 
REMARK    8  A    between atoms: C13_23  and  N5_24 
REMARK    9  A    between atoms: N5_24  and  C14_26 
ROOT
HETATM    1  C8  UNL     1      28.806  -2.393  13.328  1.00  0.00     0.178 C 
HETATM    2  C9  UNL     1      29.732  -1.415  12.600  1.00  0.00     0.037 C 
HETATM    3  C10 UNL     1      29.635  -0.252  13.557  1.00  0.00     0.022 C 
HETATM    4  C11 UNL     1      28.105  -0.183  13.768  1.00  0.00     0.126 C 
HETATM    5  N4  UNL     1      27.613  -1.488  13.401  1.00  0.00    -0.347 N 
ENDROOT
BRANCH   1   6
HETATM    6  C7  UNL     1      29.322  -2.612  14.702  1.00  0.00     0.240 C 
HETATM    7  N3  UNL     1      28.451  -2.516  15.817  1.00  0.00    -0.355 N 
ATOM      8  H3  UNL     1      27.471  -2.292  15.639  1.00  0.00     0.162 HD
HETATM    9  O1  UNL     1      30.550  -2.890  14.912  1.00  0.00    -0.271 OA
BRANCH   7  10
HETATM   10  C6  UNL     1      28.857  -2.711  17.176  1.00  0.00     0.161 C 
BRANCH  10  11
HETATM   11  C5  UNL     1      28.988  -1.410  17.901  1.00  0.00    -0.040 A 
HETATM   12  C4  UNL     1      30.029  -0.550  17.656  1.00  0.00     0.010 A 
HETATM   13  C3  UNL     1      30.124   0.638  18.337  1.00  0.00     0.015 A 
HETATM   14  C2  UNL     1      29.186   1.035  19.300  1.00  0.00     0.004 A 
HETATM   15  C22 UNL     1      28.162   0.146  19.514  1.00  0.00     0.015 A 
HETATM   16  C21 UNL     1      28.043  -1.069  18.834  1.00  0.00     0.010 A 
BRANCH  14  17
HETATM   17  C1  UNL     1      29.347   2.307  19.985  1.00  0.00     0.120 C 
HETATM   18  N1  UNL     1      29.560   2.306  21.393  1.00  0.00    -0.082 NA
HETATM   19  N2  UNL     1      29.302   3.414  19.357  1.00  0.00    -0.387 N 
ATOM     20  H22 UNL     1      29.415   4.307  19.838  1.00  0.00     0.157 HD
ATOM     21  H21 UNL     1      29.149   3.415  18.349  1.00  0.00     0.157 HD
ENDBRANCH  14  17
ENDBRANCH  10  11
ENDBRANCH   7  10
ENDBRANCH   1   6
BRANCH   5  22
HETATM   22  C12 UNL     1      26.299  -1.906  13.145  1.00  0.00     0.154 C 
BRANCH  22  23
HETATM   23  O2  UNL     1      26.163  -2.408  11.930  1.00  0.00    -0.345 OA
ATOM     24  H2  UNL     1      25.291  -2.754  11.781  1.00  0.00     0.219 HD
ENDBRANCH  22  23
BRANCH  22  25
HETATM   25  C13 UNL     1      25.095  -1.877  13.975  1.00  0.00     0.139 C 
BRANCH  25  26
HETATM   26  N5  UNL     1      23.852  -2.143  13.375  1.00  0.00    -0.391 N 
ATOM     27  H5  UNL     1      23.747  -2.308  12.374  1.00  0.00     0.159 HD
BRANCH  26  28
HETATM   28  C14 UNL     1      22.732  -2.163  14.296  1.00  0.00     0.081 C 
HETATM   29  C15 UNL     1      22.100  -0.837  14.556  1.00  0.00     0.025 C 
HETATM   30  C16 UNL     1      20.608  -1.026  14.795  1.00  0.00     0.002 C 
HETATM   31  C17 UNL     1      20.269  -1.369  16.200  1.00  0.00     0.000 C 
HETATM   32  C18 UNL     1      21.400  -1.803  17.068  1.00  0.00     0.000 C 
HETATM   33  C19 UNL     1      22.096  -3.025  16.550  1.00  0.00     0.002 C 
HETATM   34  C20 UNL     1      23.243  -2.713  15.611  1.00  0.00     0.025 C 
ENDBRANCH  26  28
ENDBRANCH  25  26
ENDBRANCH  22  25
ENDBRANCH   5  22
TORSDOF 9
ENDMDL
