MODEL 1
REMARK VINA RESULT: -8.466090344      0.000      0.000
REMARK  9 active torsions:
REMARK  status: ('A' for Active; 'I' for Inactive)
REMARK    1  A    between atoms: C1_2  and  C2_6 
REMARK    2  A    between atoms: C5_9  and  C6_10 
REMARK    3  A    between atoms: C6_10  and  N3_11 
REMARK       I    between atoms: N3_11  and  C7_13 
REMARK    4  A    between atoms: C7_13  and  C8_15 
REMARK    5  A    between atoms: N4_19  and  C12_20 
REMARK    6  A    between atoms: C12_20  and  O2_21 
REMARK    7  A    between atoms: C12_20  and  C13_23 
REMARK    8  A    between atoms: C13_23  and  N5_24 
REMARK    9  A    between atoms: N5_24  and  C14_26 
ROOT
HETATM    1  C8  UNL     1      28.415  -0.883  15.678  1.00  0.00     0.178 C 
HETATM    2  C9  UNL     1      29.725  -1.200  14.953  1.00  0.00     0.037 C 
HETATM    3  C10 UNL     1      29.393  -2.594  14.479  1.00  0.00     0.022 C 
HETATM    4  C11 UNL     1      28.816  -3.207  15.776  1.00  0.00     0.126 C 
HETATM    5  N4  UNL     1      28.418  -2.079  16.583  1.00  0.00    -0.347 N 
ENDROOT
BRANCH   1   6
HETATM    6  C7  UNL     1      27.290  -1.014  14.720  1.00  0.00     0.240 C 
HETATM    7  N3  UNL     1      26.134  -1.757  15.070  1.00  0.00    -0.355 N 
ATOM      8  H3  UNL     1      26.109  -2.192  15.992  1.00  0.00     0.162 HD
HETATM    9  O1  UNL     1      27.334  -0.466  13.568  1.00  0.00    -0.271 OA
BRANCH   7  10
HETATM   10  C6  UNL     1      25.002  -1.937  14.213  1.00  0.00     0.161 C 
BRANCH  10  11
HETATM   11  C5  UNL     1      23.718  -1.820  14.970  1.00  0.00    -0.040 A 
HETATM   12  C4  UNL     1      22.639  -1.142  14.461  1.00  0.00     0.010 A 
HETATM   13  C3  UNL     1      21.473  -1.050  15.178  1.00  0.00     0.015 A 
HETATM   14  C2  UNL     1      21.317  -1.630  16.445  1.00  0.00     0.004 A 
HETATM   15  C22 UNL     1      22.419  -2.299  16.917  1.00  0.00     0.015 A 
HETATM   16  C21 UNL     1      23.617  -2.406  16.206  1.00  0.00     0.010 A 
BRANCH  14  17
HETATM   17  C1  UNL     1      20.053  -1.496  17.152  1.00  0.00     0.120 C 
HETATM   18  N1  UNL     1      19.269  -0.326  16.938  1.00  0.00    -0.082 NA
HETATM   19  N2  UNL     1      19.636  -2.395  17.951  1.00  0.00    -0.387 N 
ATOM     20  H22 UNL     1      18.750  -2.301  18.447  1.00  0.00     0.157 HD
ATOM     21  H21 UNL     1      20.198  -3.233  18.104  1.00  0.00     0.157 HD
ENDBRANCH  14  17
ENDBRANCH  10  11
ENDBRANCH   7  10
ENDBRANCH   1   6
BRANCH   5  22
HETATM   22  C12 UNL     1      28.086  -2.030  17.944  1.00  0.00     0.154 C 
BRANCH  22  23
HETATM   23  O2  UNL     1      26.780  -2.030  18.139  1.00  0.00    -0.345 OA
ATOM     24  H2  UNL     1      26.393  -1.177  17.978  1.00  0.00     0.219 HD
ENDBRANCH  22  23
BRANCH  22  25
HETATM   25  C13 UNL     1      28.923  -1.980  19.143  1.00  0.00     0.139 C 
BRANCH  25  26
HETATM   26  N5  UNL     1      30.158  -1.310  19.078  1.00  0.00    -0.391 N 
ATOM     27  H5  UNL     1      30.994  -1.731  18.673  1.00  0.00     0.159 HD
BRANCH  26  28
HETATM   28  C14 UNL     1      30.144   0.029  19.636  1.00  0.00     0.081 C 
HETATM   29  C15 UNL     1      28.893   0.401  20.360  1.00  0.00     0.025 C 
HETATM   30  C16 UNL     1      29.235   1.342  21.508  1.00  0.00     0.002 C 
HETATM   31  C17 UNL     1      29.326   2.768  21.102  1.00  0.00     0.000 C 
HETATM   32  C18 UNL     1      29.410   3.037  19.638  1.00  0.00     0.000 C 
HETATM   33  C19 UNL     1      30.602   2.396  18.996  1.00  0.00     0.002 C 
HETATM   34  C20 UNL     1      30.334   0.996  18.487  1.00  0.00     0.025 C 
ENDBRANCH  26  28
ENDBRANCH  25  26
ENDBRANCH  22  25
ENDBRANCH   5  22
TORSDOF 9
ENDMDL
