MODEL 9
REMARK VINA RESULT: -7.567379605      2.241      8.361
REMARK  9 active torsions:
REMARK  status: ('A' for Active; 'I' for Inactive)
REMARK    1  A    between atoms: C1_2  and  C2_6 
REMARK    2  A    between atoms: C5_9  and  C6_10 
REMARK    3  A    between atoms: C6_10  and  N3_11 
REMARK       I    between atoms: N3_11  and  C7_13 
REMARK    4  A    between atoms: C7_13  and  C8_15 
REMARK    5  A    between atoms: N4_19  and  C12_20 
REMARK    6  A    between atoms: C12_20  and  O2_21 
REMARK    7  A    between atoms: C12_20  and  C13_23 
REMARK    8  A    between atoms: C13_23  and  N5_24 
REMARK    9  A    between atoms: N5_24  and  C14_26 
ROOT
HETATM    1  C8  UNL     1      27.033  -1.490  16.441  1.00  0.00     0.178 C 
HETATM    2  C9  UNL     1      26.756  -2.610  17.447  1.00  0.00     0.037 C 
HETATM    3  C10 UNL     1      27.850  -3.565  17.035  1.00  0.00     0.022 C 
HETATM    4  C11 UNL     1      27.672  -3.558  15.499  1.00  0.00     0.126 C 
HETATM    5  N4  UNL     1      26.961  -2.337  15.206  1.00  0.00    -0.347 N 
ENDROOT
BRANCH   1   6
HETATM    6  C7  UNL     1      28.431  -1.022  16.616  1.00  0.00     0.240 C 
HETATM    7  N3  UNL     1      28.978  -0.871  17.916  1.00  0.00    -0.355 N 
ATOM      8  H3  UNL     1      28.381  -1.092  18.713  1.00  0.00     0.162 HD
HETATM    9  O1  UNL     1      29.167  -0.746  15.611  1.00  0.00    -0.271 OA
BRANCH   7  10
HETATM   10  C6  UNL     1      30.313  -0.427  18.181  1.00  0.00     0.161 C 
BRANCH  10  11
HETATM   11  C5  UNL     1      30.322   0.793  19.046  1.00  0.00    -0.040 A 
HETATM   12  C4  UNL     1      29.361   1.766  18.930  1.00  0.00     0.010 A 
HETATM   13  C3  UNL     1      29.395   2.876  19.737  1.00  0.00     0.015 A 
HETATM   14  C2  UNL     1      30.389   3.078  20.705  1.00  0.00     0.004 A 
HETATM   15  C22 UNL     1      31.330   2.081  20.787  1.00  0.00     0.015 A 
HETATM   16  C21 UNL     1      31.317   0.943  19.978  1.00  0.00     0.010 A 
BRANCH  14  17
HETATM   17  C1  UNL     1      30.366   4.277  21.527  1.00  0.00     0.120 C 
HETATM   18  N1  UNL     1      31.406   4.475  22.480  1.00  0.00    -0.082 NA
HETATM   19  N2  UNL     1      29.444   5.148  21.413  1.00  0.00    -0.387 N 
ATOM     20  H22 UNL     1      29.428   5.989  21.989  1.00  0.00     0.157 HD
ATOM     21  H21 UNL     1      28.699   5.005  20.730  1.00  0.00     0.157 HD
ENDBRANCH  14  17
ENDBRANCH  10  11
ENDBRANCH   7  10
ENDBRANCH   1   6
BRANCH   5  22
HETATM   22  C12 UNL     1      26.306  -1.947  14.029  1.00  0.00     0.154 C 
BRANCH  22  23
HETATM   23  O2  UNL     1      27.038  -1.124  13.300  1.00  0.00    -0.345 OA
ATOM     24  H2  UNL     1      27.962  -1.345  13.329  1.00  0.00     0.219 HD
ENDBRANCH  22  23
BRANCH  22  25
HETATM   25  C13 UNL     1      24.988  -2.292  13.495  1.00  0.00     0.139 C 
BRANCH  25  26
HETATM   26  N5  UNL     1      23.958  -1.338  13.567  1.00  0.00    -0.391 N 
ATOM     27  H5  UNL     1      23.980  -0.462  13.046  1.00  0.00     0.159 HD
BRANCH  26  28
HETATM   28  C14 UNL     1      22.862  -1.703  14.445  1.00  0.00     0.081 C 
HETATM   29  C15 UNL     1      21.966  -0.578  14.842  1.00  0.00     0.025 C 
HETATM   30  C16 UNL     1      20.545  -1.099  15.010  1.00  0.00     0.002 C 
HETATM   31  C17 UNL     1      20.279  -1.676  16.354  1.00  0.00     0.000 C 
HETATM   32  C18 UNL     1      21.471  -1.970  17.198  1.00  0.00     0.000 C 
HETATM   33  C19 UNL     1      22.409  -2.948  16.559  1.00  0.00     0.002 C 
HETATM   34  C20 UNL     1      23.470  -2.292  15.700  1.00  0.00     0.025 C 
ENDBRANCH  26  28
ENDBRANCH  25  26
ENDBRANCH  22  25
ENDBRANCH   5  22
TORSDOF 9
ENDMDL
