MODEL 7
REMARK VINA RESULT: -7.850640314      2.018      7.879
REMARK  9 active torsions:
REMARK  status: ('A' for Active; 'I' for Inactive)
REMARK    1  A    between atoms: C1_2  and  C2_6 
REMARK    2  A    between atoms: C5_9  and  C6_10 
REMARK    3  A    between atoms: C6_10  and  N3_11 
REMARK       I    between atoms: N3_11  and  C7_13 
REMARK    4  A    between atoms: C7_13  and  C8_15 
REMARK    5  A    between atoms: N4_19  and  C12_20 
REMARK    6  A    between atoms: C12_20  and  O2_21 
REMARK    7  A    between atoms: C12_20  and  C13_23 
REMARK    8  A    between atoms: C13_23  and  N5_24 
REMARK    9  A    between atoms: N5_24  and  C14_26 
ROOT
HETATM    1  C8  UNL     1      27.819  -2.539  15.468  1.00  0.00     0.178 C 
HETATM    2  C9  UNL     1      29.249  -2.006  15.364  1.00  0.00     0.037 C 
HETATM    3  C10 UNL     1      28.964  -0.540  15.584  1.00  0.00     0.022 C 
HETATM    4  C11 UNL     1      27.768  -0.335  14.626  1.00  0.00     0.126 C 
HETATM    5  N4  UNL     1      27.221  -1.653  14.416  1.00  0.00    -0.347 N 
ENDROOT
BRANCH   1   6
HETATM    6  C7  UNL     1      27.257  -2.158  16.787  1.00  0.00     0.240 C 
HETATM    7  N3  UNL     1      28.090  -2.114  17.935  1.00  0.00    -0.355 N 
ATOM      8  H3  UNL     1      29.075  -2.354  17.818  1.00  0.00     0.162 HD
HETATM    9  O1  UNL     1      26.022  -1.862  16.921  1.00  0.00    -0.271 OA
BRANCH   7  10
HETATM   10  C6  UNL     1      27.638  -1.757  19.245  1.00  0.00     0.161 C 
BRANCH  10  11
HETATM   11  C5  UNL     1      28.271  -0.487  19.716  1.00  0.00    -0.040 A 
HETATM   12  C4  UNL     1      28.605   0.518  18.843  1.00  0.00     0.010 A 
HETATM   13  C3  UNL     1      29.185   1.674  19.303  1.00  0.00     0.015 A 
HETATM   14  C2  UNL     1      29.464   1.892  20.660  1.00  0.00     0.004 A 
HETATM   15  C22 UNL     1      29.114   0.862  21.498  1.00  0.00     0.015 A 
HETATM   16  C21 UNL     1      28.523  -0.323  21.054  1.00  0.00     0.010 A 
BRANCH  14  17
HETATM   17  C1  UNL     1      30.081   3.140  21.080  1.00  0.00     0.120 C 
HETATM   18  N1  UNL     1      31.273   3.088  21.857  1.00  0.00    -0.082 NA
HETATM   19  N2  UNL     1      29.581   4.270  20.769  1.00  0.00    -0.387 N 
ATOM     20  H22 UNL     1      30.014   5.145  21.063  1.00  0.00     0.157 HD
ATOM     21  H21 UNL     1      28.728   4.306  20.212  1.00  0.00     0.157 HD
ENDBRANCH  14  17
ENDBRANCH  10  11
ENDBRANCH   7  10
ENDBRANCH   1   6
BRANCH   5  22
HETATM   22  C12 UNL     1      26.311  -2.097  13.446  1.00  0.00     0.154 C 
BRANCH  22  23
HETATM   23  O2  UNL     1      26.881  -2.265  12.267  1.00  0.00    -0.345 OA
ATOM     24  H2  UNL     1      27.528  -1.593  12.083  1.00  0.00     0.219 HD
ENDBRANCH  22  23
BRANCH  22  25
HETATM   25  C13 UNL     1      24.880  -2.394  13.525  1.00  0.00     0.139 C 
BRANCH  25  26
HETATM   26  N5  UNL     1      23.967  -1.325  13.530  1.00  0.00    -0.391 N 
ATOM     27  H5  UNL     1      23.921  -0.635  12.781  1.00  0.00     0.159 HD
BRANCH  26  28
HETATM   28  C14 UNL     1      23.096  -1.285  14.689  1.00  0.00     0.081 C 
HETATM   29  C15 UNL     1      22.771  -2.615  15.284  1.00  0.00     0.025 C 
HETATM   30  C16 UNL     1      22.607  -2.467  16.791  1.00  0.00     0.002 C 
HETATM   31  C17 UNL     1      21.244  -2.042  17.203  1.00  0.00     0.000 C 
HETATM   32  C18 UNL     1      20.363  -1.507  16.127  1.00  0.00     0.000 C 
HETATM   33  C19 UNL     1      20.935  -0.298  15.453  1.00  0.00     0.002 C 
HETATM   34  C20 UNL     1      21.802  -0.629  14.256  1.00  0.00     0.025 C 
ENDBRANCH  26  28
ENDBRANCH  25  26
ENDBRANCH  22  25
ENDBRANCH   5  22
TORSDOF 9
ENDMDL
