MODEL 4
REMARK VINA RESULT: -8.097316615      1.369      2.182
REMARK  9 active torsions:
REMARK  status: ('A' for Active; 'I' for Inactive)
REMARK    1  A    between atoms: C1_2  and  C2_6 
REMARK    2  A    between atoms: C5_9  and  C6_10 
REMARK    3  A    between atoms: C6_10  and  N3_11 
REMARK       I    between atoms: N3_11  and  C7_13 
REMARK    4  A    between atoms: C7_13  and  C8_15 
REMARK    5  A    between atoms: N4_19  and  C12_20 
REMARK    6  A    between atoms: C12_20  and  O2_21 
REMARK    7  A    between atoms: C12_20  and  C13_23 
REMARK    8  A    between atoms: C13_23  and  N5_24 
REMARK    9  A    between atoms: N5_24  and  C14_26 
ROOT
HETATM    1  C8  UNL     1      28.249  -2.230  15.172  1.00  0.00     0.178 C 
HETATM    2  C9  UNL     1      27.684  -3.035  16.345  1.00  0.00     0.037 C 
HETATM    3  C10 UNL     1      26.876  -1.944  17.005  1.00  0.00     0.022 C 
HETATM    4  C11 UNL     1      27.906  -0.791  17.012  1.00  0.00     0.126 C 
HETATM    5  N4  UNL     1      28.865  -1.133  15.990  1.00  0.00    -0.347 N 
ENDROOT
BRANCH   1   6
HETATM    6  C7  UNL     1      27.123  -1.664  14.389  1.00  0.00     0.240 C 
HETATM    7  N3  UNL     1      25.876  -2.338  14.339  1.00  0.00    -0.355 N 
ATOM      8  H3  UNL     1      25.787  -3.215  14.855  1.00  0.00     0.162 HD
HETATM    9  O1  UNL     1      27.247  -0.568  13.747  1.00  0.00    -0.271 OA
BRANCH   7  10
HETATM   10  C6  UNL     1      24.735  -1.870  13.612  1.00  0.00     0.161 C 
BRANCH  10  11
HETATM   11  C5  UNL     1      23.534  -1.753  14.495  1.00  0.00    -0.040 A 
HETATM   12  C4  UNL     1      22.393  -1.113  14.079  1.00  0.00     0.010 A 
HETATM   13  C3  UNL     1      21.306  -1.021  14.911  1.00  0.00     0.015 A 
HETATM   14  C2  UNL     1      21.294  -1.561  16.204  1.00  0.00     0.004 A 
HETATM   15  C22 UNL     1      22.454  -2.192  16.580  1.00  0.00     0.015 A 
HETATM   16  C21 UNL     1      23.574  -2.299  15.752  1.00  0.00     0.010 A 
BRANCH  14  17
HETATM   17  C1  UNL     1      20.107  -1.428  17.034  1.00  0.00     0.120 C 
HETATM   18  N1  UNL     1      19.305  -0.259  16.900  1.00  0.00    -0.082 NA
HETATM   19  N2  UNL     1      19.773  -2.328  17.871  1.00  0.00    -0.387 N 
ATOM     20  H22 UNL     1      18.940  -2.235  18.452  1.00  0.00     0.157 HD
ATOM     21  H21 UNL     1      20.348  -3.165  17.966  1.00  0.00     0.157 HD
ENDBRANCH  14  17
ENDBRANCH  10  11
ENDBRANCH   7  10
ENDBRANCH   1   6
BRANCH   5  22
HETATM   22  C12 UNL     1      30.137  -0.597  15.745  1.00  0.00     0.154 C 
BRANCH  22  23
HETATM   23  O2  UNL     1      30.253  -0.129  14.515  1.00  0.00    -0.345 OA
ATOM     24  H2  UNL     1      30.607   0.752  14.498  1.00  0.00     0.219 HD
ENDBRANCH  22  23
BRANCH  22  25
HETATM   25  C13 UNL     1      31.317  -0.475  16.601  1.00  0.00     0.139 C 
BRANCH  25  26
HETATM   26  N5  UNL     1      31.571   0.757  17.230  1.00  0.00    -0.391 N 
ATOM     27  H5  UNL     1      32.313   1.388  16.927  1.00  0.00     0.159 HD
BRANCH  26  28
HETATM   28  C14 UNL     1      30.692   1.055  18.345  1.00  0.00     0.081 C 
HETATM   29  C15 UNL     1      30.918   2.380  18.993  1.00  0.00     0.025 C 
HETATM   30  C16 UNL     1      29.589   2.927  19.499  1.00  0.00     0.002 C 
HETATM   31  C17 UNL     1      29.214   2.425  20.847  1.00  0.00     0.000 C 
HETATM   32  C18 UNL     1      29.974   1.246  21.350  1.00  0.00     0.000 C 
HETATM   33  C19 UNL     1      29.843   0.046  20.462  1.00  0.00     0.002 C 
HETATM   34  C20 UNL     1      30.904  -0.025  19.385  1.00  0.00     0.025 C 
ENDBRANCH  26  28
ENDBRANCH  25  26
ENDBRANCH  22  25
ENDBRANCH   5  22
TORSDOF 9
ENDMDL
