MODEL 3
REMARK VINA RESULT: -8.162911447      1.259      1.734
REMARK  9 active torsions:
REMARK  status: ('A' for Active; 'I' for Inactive)
REMARK    1  A    between atoms: C1_2  and  C2_6 
REMARK    2  A    between atoms: C5_9  and  C6_10 
REMARK    3  A    between atoms: C6_10  and  N3_11 
REMARK       I    between atoms: N3_11  and  C7_13 
REMARK    4  A    between atoms: C7_13  and  C8_15 
REMARK    5  A    between atoms: N4_19  and  C12_20 
REMARK    6  A    between atoms: C12_20  and  O2_21 
REMARK    7  A    between atoms: C12_20  and  C13_23 
REMARK    8  A    between atoms: C13_23  and  N5_24 
REMARK    9  A    between atoms: N5_24  and  C14_26 
ROOT
HETATM    1  C8  UNL     1      27.876  -0.930  15.229  1.00  0.00     0.178 C 
HETATM    2  C9  UNL     1      28.363  -0.187  13.983  1.00  0.00     0.037 C 
HETATM    3  C10 UNL     1      28.704  -1.380  13.123  1.00  0.00     0.022 C 
HETATM    4  C11 UNL     1      29.505  -2.238  14.130  1.00  0.00     0.126 C 
HETATM    5  N4  UNL     1      29.106  -1.763  15.433  1.00  0.00    -0.347 N 
ENDROOT
BRANCH   1   6
HETATM    6  C7  UNL     1      26.754  -1.824  14.849  1.00  0.00     0.240 C 
HETATM    7  N3  UNL     1      25.661  -1.321  14.099  1.00  0.00    -0.355 N 
ATOM      8  H3  UNL     1      25.677  -0.335  13.836  1.00  0.00     0.162 HD
HETATM    9  O1  UNL     1      26.745  -3.055  15.185  1.00  0.00    -0.271 OA
BRANCH   7  10
HETATM   10  C6  UNL     1      24.537  -2.106  13.687  1.00  0.00     0.161 C 
BRANCH  10  11
HETATM   11  C5  UNL     1      23.363  -1.899  14.589  1.00  0.00    -0.040 A 
HETATM   12  C4  UNL     1      22.288  -1.135  14.210  1.00  0.00     0.010 A 
HETATM   13  C3  UNL     1      21.225  -0.961  15.059  1.00  0.00     0.015 A 
HETATM   14  C2  UNL     1      21.173  -1.540  16.335  1.00  0.00     0.004 A 
HETATM   15  C22 UNL     1      22.268  -2.295  16.675  1.00  0.00     0.015 A 
HETATM   16  C21 UNL     1      23.362  -2.487  15.828  1.00  0.00     0.010 A 
BRANCH  14  17
HETATM   17  C1  UNL     1      20.015  -1.315  17.185  1.00  0.00     0.120 C 
HETATM   18  N1  UNL     1      19.196  -0.175  16.943  1.00  0.00    -0.082 NA
HETATM   19  N2  UNL     1      19.718  -2.112  18.134  1.00  0.00    -0.387 N 
ATOM     20  H22 UNL     1      18.906  -1.954  18.730  1.00  0.00     0.157 HD
ATOM     21  H21 UNL     1      20.305  -2.928  18.307  1.00  0.00     0.157 HD
ENDBRANCH  14  17
ENDBRANCH  10  11
ENDBRANCH   7  10
ENDBRANCH   1   6
BRANCH   5  22
HETATM   22  C12 UNL     1      29.699  -1.989  16.684  1.00  0.00     0.154 C 
BRANCH  22  23
HETATM   23  O2  UNL     1      29.225  -3.073  17.271  1.00  0.00    -0.345 OA
ATOM     24  H2  UNL     1      29.780  -3.366  17.985  1.00  0.00     0.219 HD
ENDBRANCH  22  23
BRANCH  22  25
HETATM   25  C13 UNL     1      30.721  -1.244  17.419  1.00  0.00     0.139 C 
BRANCH  25  26
HETATM   26  N5  UNL     1      30.710   0.161  17.357  1.00  0.00    -0.391 N 
ATOM     27  H5  UNL     1      31.132   0.683  16.590  1.00  0.00     0.159 HD
BRANCH  26  28
HETATM   28  C14 UNL     1      30.048   0.805  18.476  1.00  0.00     0.081 C 
HETATM   29  C15 UNL     1      30.670   2.084  18.929  1.00  0.00     0.025 C 
HETATM   30  C16 UNL     1      29.583   3.019  19.442  1.00  0.00     0.002 C 
HETATM   31  C17 UNL     1      29.221   2.788  20.864  1.00  0.00     0.000 C 
HETATM   32  C18 UNL     1      29.694   1.511  21.470  1.00  0.00     0.000 C 
HETATM   33  C19 UNL     1      29.172   0.301  20.757  1.00  0.00     0.002 C 
HETATM   34  C20 UNL     1      30.071  -0.171  19.633  1.00  0.00     0.025 C 
ENDBRANCH  26  28
ENDBRANCH  25  26
ENDBRANCH  22  25
ENDBRANCH   5  22
TORSDOF 9
ENDMDL
