MODEL 2
REMARK VINA RESULT: -8.377862972      1.146      1.522
REMARK  9 active torsions:
REMARK  status: ('A' for Active; 'I' for Inactive)
REMARK    1  A    between atoms: C1_2  and  C2_6 
REMARK    2  A    between atoms: C5_9  and  C6_10 
REMARK    3  A    between atoms: C6_10  and  N3_11 
REMARK       I    between atoms: N3_11  and  C7_13 
REMARK    4  A    between atoms: C7_13  and  C8_15 
REMARK    5  A    between atoms: N4_19  and  C12_20 
REMARK    6  A    between atoms: C12_20  and  O2_21 
REMARK    7  A    between atoms: C12_20  and  C13_23 
REMARK    8  A    between atoms: C13_23  and  N5_24 
REMARK    9  A    between atoms: N5_24  and  C14_26 
ROOT
HETATM    1  C8  UNL     1      27.730  -0.837  15.221  1.00  0.00     0.178 C 
HETATM    2  C9  UNL     1      28.243  -0.219  13.917  1.00  0.00     0.037 C 
HETATM    3  C10 UNL     1      28.586  -1.491  13.180  1.00  0.00     0.022 C 
HETATM    4  C11 UNL     1      29.363  -2.255  14.276  1.00  0.00     0.126 C 
HETATM    5  N4  UNL     1      28.950  -1.656  15.521  1.00  0.00    -0.347 N 
ENDROOT
BRANCH   1   6
HETATM    6  C7  UNL     1      26.606  -1.754  14.909  1.00  0.00     0.240 C 
HETATM    7  N3  UNL     1      25.563  -1.340  14.043  1.00  0.00    -0.355 N 
ATOM      8  H3  UNL     1      25.615  -0.400  13.649  1.00  0.00     0.162 HD
HETATM    9  O1  UNL     1      26.551  -2.927  15.409  1.00  0.00    -0.271 OA
BRANCH   7  10
HETATM   10  C6  UNL     1      24.441  -2.154  13.685  1.00  0.00     0.161 C 
BRANCH  10  11
HETATM   11  C5  UNL     1      23.280  -1.918  14.597  1.00  0.00    -0.040 A 
HETATM   12  C4  UNL     1      23.128  -2.618  15.767  1.00  0.00     0.010 A 
HETATM   13  C3  UNL     1      22.052  -2.381  16.585  1.00  0.00     0.015 A 
HETATM   14  C2  UNL     1      21.067  -1.430  16.282  1.00  0.00     0.004 A 
HETATM   15  C22 UNL     1      21.257  -0.752  15.103  1.00  0.00     0.015 A 
HETATM   16  C21 UNL     1      22.344  -0.976  14.254  1.00  0.00     0.010 A 
BRANCH  14  17
HETATM   17  C1  UNL     1      19.952  -1.228  17.193  1.00  0.00     0.120 C 
HETATM   18  N1  UNL     1      19.077  -0.126  16.973  1.00  0.00    -0.082 NA
HETATM   19  N2  UNL     1      19.741  -2.011  18.175  1.00  0.00    -0.387 N 
ATOM     20  H22 UNL     1      18.958  -1.870  18.814  1.00  0.00     0.157 HD
ATOM     21  H21 UNL     1      20.367  -2.801  18.332  1.00  0.00     0.157 HD
ENDBRANCH  14  17
ENDBRANCH  10  11
ENDBRANCH   7  10
ENDBRANCH   1   6
BRANCH   5  22
HETATM   22  C12 UNL     1      29.522  -1.767  16.797  1.00  0.00     0.154 C 
BRANCH  22  23
HETATM   23  O2  UNL     1      28.891  -2.649  17.551  1.00  0.00    -0.345 OA
ATOM     24  H2  UNL     1      28.950  -2.439  18.475  1.00  0.00     0.219 HD
ENDBRANCH  22  23
BRANCH  22  25
HETATM   25  C13 UNL     1      30.664  -1.087  17.408  1.00  0.00     0.139 C 
BRANCH  25  26
HETATM   26  N5  UNL     1      30.811  -1.135  18.805  1.00  0.00    -0.391 N 
ATOM     27  H5  UNL     1      31.074  -1.985  19.304  1.00  0.00     0.159 HD
BRANCH  26  28
HETATM   28  C14 UNL     1      30.559   0.125  19.479  1.00  0.00     0.081 C 
HETATM   29  C15 UNL     1      29.208   0.253  20.098  1.00  0.00     0.025 C 
HETATM   30  C16 UNL     1      29.308   1.104  21.357  1.00  0.00     0.002 C 
HETATM   31  C17 UNL     1      29.235   2.565  21.095  1.00  0.00     0.000 C 
HETATM   32  C18 UNL     1      29.415   2.995  19.680  1.00  0.00     0.000 C 
HETATM   33  C19 UNL     1      30.739   2.586  19.111  1.00  0.00     0.002 C 
HETATM   34  C20 UNL     1      30.717   1.224  18.450  1.00  0.00     0.025 C 
ENDBRANCH  26  28
ENDBRANCH  25  26
ENDBRANCH  22  25
ENDBRANCH   5  22
TORSDOF 9
ENDMDL
