MODEL 8
REMARK VINA RESULT: -7.638657751      3.732      5.306
REMARK  7 active torsions:
REMARK  status: ('A' for Active; 'I' for Inactive)
REMARK    1  A    between atoms: C1_2  and  C2_6 
REMARK    2  A    between atoms: C5_9  and  C6_10 
REMARK    3  A    between atoms: C6_10  and  N3_11 
REMARK       I    between atoms: N3_11  and  C7_13 
REMARK    4  A    between atoms: C7_13  and  C8_15 
REMARK       I    between atoms: N4_19  and  C12_20 
REMARK    5  A    between atoms: C12_20  and  C13_22 
REMARK    6  A    between atoms: C13_22  and  N5_23 
REMARK    7  A    between atoms: N5_23  and  C14_26 
ROOT
HETATM    1  C8  UNL     1     -27.506   2.509  14.094  1.00  0.00     0.179 C 
HETATM    2  C9  UNL     1     -27.450   1.931  15.491  1.00  0.00     0.037 C 
HETATM    3  C10 UNL     1     -27.582   0.461  15.235  1.00  0.00     0.022 C 
HETATM    4  C11 UNL     1     -28.109   0.292  13.843  1.00  0.00     0.127 C 
HETATM    5  N4  UNL     1     -28.456   1.638  13.446  1.00  0.00    -0.337 N 
HETATM    6  C12 UNL     1     -29.528   1.972  12.587  1.00  0.00     0.246 C 
HETATM    7  O2  UNL     1     -29.722   3.182  12.316  1.00  0.00    -0.272 OA
ENDROOT
BRANCH   1   8
HETATM    8  C7  UNL     1     -26.229   2.431  13.368  1.00  0.00     0.240 C 
HETATM    9  N3  UNL     1     -25.015   2.568  14.075  1.00  0.00    -0.355 N 
ATOM     10  H3  UNL     1     -25.071   2.717  15.083  1.00  0.00     0.162 HD
HETATM   11  O1  UNL     1     -26.215   2.242  12.125  1.00  0.00    -0.271 OA
BRANCH   9  12
HETATM   12  C6  UNL     1     -23.699   2.514  13.480  1.00  0.00     0.161 C 
BRANCH  12  13
HETATM   13  C5  UNL     1     -22.722   2.124  14.512  1.00  0.00    -0.040 A 
HETATM   14  C4  UNL     1     -21.667   1.316  14.141  1.00  0.00     0.010 A 
HETATM   15  C3  UNL     1     -20.727   0.930  15.075  1.00  0.00     0.015 A 
HETATM   16  C2  UNL     1     -20.795   1.322  16.384  1.00  0.00     0.004 A 
HETATM   17  C20 UNL     1     -21.880   2.140  16.718  1.00  0.00     0.015 A 
HETATM   18  C19 UNL     1     -22.816   2.530  15.809  1.00  0.00     0.010 A 
BRANCH  16  19
HETATM   19  C1  UNL     1     -19.851   0.953  17.411  1.00  0.00     0.120 C 
HETATM   20  N1  UNL     1     -20.029   1.398  18.740  1.00  0.00    -0.082 NA
HETATM   21  N2  UNL     1     -18.842   0.216  17.122  1.00  0.00    -0.387 N 
ATOM     22  H22 UNL     1     -18.174  -0.044  17.848  1.00  0.00     0.157 HD
ATOM     23  H21 UNL     1     -18.713  -0.104  16.163  1.00  0.00     0.157 HD
ENDBRANCH  16  19
ENDBRANCH  12  13
ENDBRANCH   9  12
ENDBRANCH   1   8
BRANCH   6  24
HETATM   24  C13 UNL     1     -30.406   0.944  12.012  1.00  0.00     0.335 C 
BRANCH  24  25
HETATM   25  N5  UNL     1     -31.683   0.857  12.687  1.00  0.00    -0.063 N 
ATOM     26  H52 UNL     1     -31.684   0.126  13.398  1.00  0.00     0.278 HD
ATOM     27  H51 UNL     1     -31.844   1.661  13.294  1.00  0.00     0.278 HD
BRANCH  25  28
HETATM   28  C14 UNL     1     -32.768   0.680  11.729  1.00  0.00     0.186 C 
HETATM   29  C15 UNL     1     -32.339   1.086  10.334  1.00  0.00     0.033 C 
HETATM   30  C16 UNL     1     -33.227   0.219   9.449  1.00  0.00     0.002 C 
HETATM   31  C17 UNL     1     -33.098  -1.127  10.127  1.00  0.00     0.002 C 
HETATM   32  C18 UNL     1     -33.189  -0.763  11.591  1.00  0.00     0.033 C 
ENDBRANCH  25  28
ENDBRANCH  24  25
ENDBRANCH   6  24
TORSDOF 7
ENDMDL
