MODEL 15
REMARK VINA RESULT: -7.372299534      3.336      4.731
REMARK  7 active torsions:
REMARK  status: ('A' for Active; 'I' for Inactive)
REMARK    1  A    between atoms: C1_2  and  C2_6 
REMARK    2  A    between atoms: C5_9  and  C6_10 
REMARK    3  A    between atoms: C6_10  and  N3_11 
REMARK       I    between atoms: N3_11  and  C7_13 
REMARK    4  A    between atoms: C7_13  and  C8_15 
REMARK       I    between atoms: N4_19  and  C12_20 
REMARK    5  A    between atoms: C12_20  and  C13_22 
REMARK    6  A    between atoms: C13_22  and  N5_23 
REMARK    7  A    between atoms: N5_23  and  C14_26 
ROOT
HETATM    1  C8  UNL     1     -27.854   2.694  14.904  1.00  0.00     0.179 C 
HETATM    2  C9  UNL     1     -27.495   2.671  16.373  1.00  0.00     0.037 C 
HETATM    3  C10 UNL     1     -27.619   1.218  16.712  1.00  0.00     0.022 C 
HETATM    4  C11 UNL     1     -28.412   0.568  15.619  1.00  0.00     0.127 C 
HETATM    5  N4  UNL     1     -28.883   1.684  14.831  1.00  0.00    -0.337 N 
HETATM    6  C12 UNL     1     -30.119   1.720  14.146  1.00  0.00     0.246 C 
HETATM    7  O2  UNL     1     -30.409   2.751  13.491  1.00  0.00    -0.272 OA
ENDROOT
BRANCH   1   8
HETATM    8  C7  UNL     1     -26.749   2.300  14.016  1.00  0.00     0.240 C 
HETATM    9  N3  UNL     1     -25.422   2.629  14.366  1.00  0.00    -0.355 N 
ATOM     10  H3  UNL     1     -25.277   3.135  15.240  1.00  0.00     0.162 HD
HETATM   11  O1  UNL     1     -26.981   1.673  12.951  1.00  0.00    -0.271 OA
BRANCH   9  12
HETATM   12  C6  UNL     1     -24.253   2.304  13.581  1.00  0.00     0.161 C 
BRANCH  12  13
HETATM   13  C5  UNL     1     -23.128   2.024  14.490  1.00  0.00    -0.040 A 
HETATM   14  C4  UNL     1     -23.230   2.438  15.802  1.00  0.00     0.010 A 
HETATM   15  C3  UNL     1     -22.201   2.193  16.689  1.00  0.00     0.015 A 
HETATM   16  C2  UNL     1     -21.056   1.543  16.317  1.00  0.00     0.004 A 
HETATM   17  C20 UNL     1     -20.993   1.140  14.978  1.00  0.00     0.015 A 
HETATM   18  C19 UNL     1     -21.999   1.374  14.091  1.00  0.00     0.010 A 
BRANCH  16  19
HETATM   19  C1  UNL     1     -19.942   1.258  17.190  1.00  0.00     0.120 C 
HETATM   20  N1  UNL     1     -19.153   0.104  16.989  1.00  0.00    -0.082 NA
HETATM   21  N2  UNL     1     -19.662   2.054  18.155  1.00  0.00    -0.387 N 
ATOM     22  H22 UNL     1     -18.875   1.853  18.772  1.00  0.00     0.157 HD
ATOM     23  H21 UNL     1     -20.232   2.887  18.301  1.00  0.00     0.157 HD
ENDBRANCH  16  19
ENDBRANCH  12  13
ENDBRANCH   9  12
ENDBRANCH   1   8
BRANCH   6  24
HETATM   24  C13 UNL     1     -31.055   0.589  14.183  1.00  0.00     0.335 C 
BRANCH  24  25
HETATM   25  N5  UNL     1     -31.050  -0.182  12.959  1.00  0.00    -0.063 N 
ATOM     26  H52 UNL     1     -30.146  -0.137  12.489  1.00  0.00     0.278 HD
ATOM     27  H51 UNL     1     -31.076  -1.184  13.145  1.00  0.00     0.278 HD
BRANCH  25  28
HETATM   28  C14 UNL     1     -32.137   0.230  12.079  1.00  0.00     0.186 C 
HETATM   29  C15 UNL     1     -31.605   0.746  10.757  1.00  0.00     0.033 C 
HETATM   30  C16 UNL     1     -32.752   0.444   9.799  1.00  0.00     0.002 C 
HETATM   31  C17 UNL     1     -33.103  -0.974  10.192  1.00  0.00     0.002 C 
HETATM   32  C18 UNL     1     -33.044  -0.916  11.701  1.00  0.00     0.033 C 
ENDBRANCH  25  28
ENDBRANCH  24  25
ENDBRANCH   6  24
TORSDOF 7
ENDMDL
