MODEL 4
REMARK VINA RESULT: -7.771057977      4.006      5.565
REMARK  7 active torsions:
REMARK  status: ('A' for Active; 'I' for Inactive)
REMARK    1  A    between atoms: C1_2  and  C2_6 
REMARK    2  A    between atoms: C5_9  and  C6_10 
REMARK    3  A    between atoms: C6_10  and  N3_11 
REMARK       I    between atoms: N3_11  and  C7_13 
REMARK    4  A    between atoms: C7_13  and  C8_15 
REMARK       I    between atoms: N4_19  and  C12_20 
REMARK    5  A    between atoms: C12_20  and  C13_22 
REMARK    6  A    between atoms: C13_22  and  N5_23 
REMARK    7  A    between atoms: N5_23  and  C14_26 
ROOT
HETATM    1  C8  UNL     1     -27.428   2.527  14.061  1.00  0.00     0.179 C 
HETATM    2  C9  UNL     1     -27.350   1.986  15.471  1.00  0.00     0.037 C 
HETATM    3  C10 UNL     1     -27.466   0.509  15.256  1.00  0.00     0.022 C 
HETATM    4  C11 UNL     1     -28.007   0.297  13.874  1.00  0.00     0.127 C 
HETATM    5  N4  UNL     1     -28.374   1.628  13.446  1.00  0.00    -0.337 N 
HETATM    6  C12 UNL     1     -29.460   1.926  12.591  1.00  0.00     0.246 C 
HETATM    7  O2  UNL     1     -29.671   3.126  12.291  1.00  0.00    -0.272 OA
ENDROOT
BRANCH   1   8
HETATM    8  C7  UNL     1     -26.158   2.444  13.322  1.00  0.00     0.240 C 
HETATM    9  N3  UNL     1     -24.937   2.579  14.017  1.00  0.00    -0.355 N 
ATOM     10  H3  UNL     1     -24.982   2.729  15.026  1.00  0.00     0.162 HD
HETATM   11  O1  UNL     1     -26.156   2.254  12.079  1.00  0.00    -0.271 OA
BRANCH   9  12
HETATM   12  C6  UNL     1     -23.627   2.520  13.409  1.00  0.00     0.161 C 
BRANCH  12  13
HETATM   13  C5  UNL     1     -22.645   2.104  14.426  1.00  0.00    -0.040 A 
HETATM   14  C4  UNL     1     -22.545   2.851  15.582  1.00  0.00     0.010 A 
HETATM   15  C3  UNL     1     -21.642   2.494  16.562  1.00  0.00     0.015 A 
HETATM   16  C2  UNL     1     -20.820   1.408  16.437  1.00  0.00     0.004 A 
HETATM   17  C20 UNL     1     -20.953   0.678  15.250  1.00  0.00     0.015 A 
HETATM   18  C19 UNL     1     -21.839   1.016  14.273  1.00  0.00     0.010 A 
BRANCH  16  19
HETATM   19  C1  UNL     1     -19.852   0.981  17.419  1.00  0.00     0.120 C 
HETATM   20  N1  UNL     1     -19.994   1.356  18.774  1.00  0.00    -0.082 NA
HETATM   21  N2  UNL     1     -18.855   0.256  17.066  1.00  0.00    -0.387 N 
ATOM     22  H22 UNL     1     -18.170  -0.045  17.760  1.00  0.00     0.157 HD
ATOM     23  H21 UNL     1     -18.752  -0.015  16.089  1.00  0.00     0.157 HD
ENDBRANCH  16  19
ENDBRANCH  12  13
ENDBRANCH   9  12
ENDBRANCH   1   8
BRANCH   6  24
HETATM   24  C13 UNL     1     -30.332   0.873  12.054  1.00  0.00     0.335 C 
BRANCH  24  25
HETATM   25  N5  UNL     1     -30.774   1.148  10.704  1.00  0.00    -0.063 N 
ATOM     26  H52 UNL     1     -30.545   2.100  10.419  1.00  0.00     0.278 HD
ATOM     27  H51 UNL     1     -30.218   0.643  10.015  1.00  0.00     0.278 HD
BRANCH  25  28
HETATM   28  C14 UNL     1     -32.198   0.869  10.556  1.00  0.00     0.186 C 
HETATM   29  C15 UNL     1     -32.630   0.978   9.108  1.00  0.00     0.033 C 
HETATM   30  C16 UNL     1     -33.817   0.023   9.044  1.00  0.00     0.002 C 
HETATM   31  C17 UNL     1     -33.271  -1.178   9.784  1.00  0.00     0.002 C 
HETATM   32  C18 UNL     1     -32.557  -0.543  10.953  1.00  0.00     0.033 C 
ENDBRANCH  25  28
ENDBRANCH  24  25
ENDBRANCH   6  24
TORSDOF 7
ENDMDL
