MODEL 12
REMARK VINA RESULT: -7.433588889      1.349      1.792
REMARK  7 active torsions:
REMARK  status: ('A' for Active; 'I' for Inactive)
REMARK    1  A    between atoms: C1_2  and  C2_6 
REMARK    2  A    between atoms: C5_9  and  C6_10 
REMARK    3  A    between atoms: C6_10  and  N3_11 
REMARK       I    between atoms: N3_11  and  C7_13 
REMARK    4  A    between atoms: C7_13  and  C8_15 
REMARK       I    between atoms: N4_19  and  C12_20 
REMARK    5  A    between atoms: C12_20  and  C13_22 
REMARK    6  A    between atoms: C13_22  and  N5_23 
REMARK    7  A    between atoms: N5_23  and  C14_26 
ROOT
HETATM    1  C8  UNL     1     -27.585   0.332  15.071  1.00  0.00     0.179 C 
HETATM    2  C9  UNL     1     -28.425   0.047  13.846  1.00  0.00     0.037 C 
HETATM    3  C10 UNL     1     -29.496   1.089  13.940  1.00  0.00     0.022 C 
HETATM    4  C11 UNL     1     -29.487   1.616  15.343  1.00  0.00     0.127 C 
HETATM    5  N4  UNL     1     -28.584   0.725  16.035  1.00  0.00    -0.337 N 
HETATM    6  C12 UNL     1     -28.708   0.348  17.393  1.00  0.00     0.246 C 
HETATM    7  O2  UNL     1     -27.853  -0.432  17.876  1.00  0.00    -0.272 OA
ENDROOT
BRANCH   1   8
HETATM    8  C7  UNL     1     -26.640   1.446  14.897  1.00  0.00     0.240 C 
HETATM    9  N3  UNL     1     -25.523   1.288  14.049  1.00  0.00    -0.355 N 
ATOM     10  H3  UNL     1     -25.413   0.390  13.577  1.00  0.00     0.162 HD
HETATM   11  O1  UNL     1     -26.824   2.535  15.499  1.00  0.00    -0.271 OA
BRANCH   9  12
HETATM   12  C6  UNL     1     -24.524   2.302  13.797  1.00  0.00     0.161 C 
BRANCH  12  13
HETATM   13  C5  UNL     1     -23.344   2.030  14.638  1.00  0.00    -0.040 A 
HETATM   14  C4  UNL     1     -23.355   2.477  15.942  1.00  0.00     0.010 A 
HETATM   15  C3  UNL     1     -22.272   2.241  16.765  1.00  0.00     0.015 A 
HETATM   16  C2  UNL     1     -21.162   1.567  16.335  1.00  0.00     0.004 A 
HETATM   17  C20 UNL     1     -21.192   1.130  15.006  1.00  0.00     0.015 A 
HETATM   18  C19 UNL     1     -22.252   1.355  14.181  1.00  0.00     0.010 A 
BRANCH  16  19
HETATM   19  C1  UNL     1     -19.996   1.289  17.140  1.00  0.00     0.120 C 
HETATM   20  N1  UNL     1     -19.211   0.141  16.889  1.00  0.00    -0.082 NA
HETATM   21  N2  UNL     1     -19.665   2.085  18.089  1.00  0.00    -0.387 N 
ATOM     22  H22 UNL     1     -18.841   1.888  18.658  1.00  0.00     0.157 HD
ATOM     23  H21 UNL     1     -20.232   2.913  18.270  1.00  0.00     0.157 HD
ENDBRANCH  16  19
ENDBRANCH  12  13
ENDBRANCH   9  12
ENDBRANCH   1   8
BRANCH   6  24
HETATM   24  C13 UNL     1     -29.802   0.848  18.235  1.00  0.00     0.335 C 
BRANCH  24  25
HETATM   25  N5  UNL     1     -30.930  -0.057  18.284  1.00  0.00    -0.063 N 
ATOM     26  H52 UNL     1     -31.814   0.435  18.155  1.00  0.00     0.278 HD
ATOM     27  H51 UNL     1     -30.967  -0.657  17.460  1.00  0.00     0.278 HD
BRANCH  25  28
HETATM   28  C14 UNL     1     -30.920  -0.836  19.517  1.00  0.00     0.186 C 
HETATM   29  C15 UNL     1     -30.302  -2.201  19.298  1.00  0.00     0.033 C 
HETATM   30  C16 UNL     1     -29.743  -2.536  20.676  1.00  0.00     0.002 C 
HETATM   31  C17 UNL     1     -29.065  -1.235  21.046  1.00  0.00     0.002 C 
HETATM   32  C18 UNL     1     -30.073  -0.204  20.595  1.00  0.00     0.033 C 
ENDBRANCH  25  28
ENDBRANCH  24  25
ENDBRANCH   6  24
TORSDOF 7
ENDMDL
