MODEL 6
REMARK VINA RESULT: -7.710648421      1.565      2.528
REMARK  7 active torsions:
REMARK  status: ('A' for Active; 'I' for Inactive)
REMARK    1  A    between atoms: C1_2  and  C2_6 
REMARK    2  A    between atoms: C5_9  and  C6_10 
REMARK    3  A    between atoms: C6_10  and  N3_11 
REMARK       I    between atoms: N3_11  and  C7_13 
REMARK    4  A    between atoms: C7_13  and  C8_15 
REMARK       I    between atoms: N4_19  and  C12_20 
REMARK    5  A    between atoms: C12_20  and  C13_22 
REMARK    6  A    between atoms: C13_22  and  N5_23 
REMARK    7  A    between atoms: N5_23  and  C14_26 
ROOT
HETATM    1  C8  UNL     1     -27.510   1.747  13.655  1.00  0.00     0.179 C 
HETATM    2  C9  UNL     1     -28.713   2.438  13.052  1.00  0.00     0.037 C 
HETATM    3  C10 UNL     1     -28.738   3.741  13.790  1.00  0.00     0.022 C 
HETATM    4  C11 UNL     1     -27.877   3.586  15.007  1.00  0.00     0.127 C 
HETATM    5  N4  UNL     1     -27.578   2.172  15.032  1.00  0.00    -0.337 N 
HETATM    6  C12 UNL     1     -27.399   1.409  16.209  1.00  0.00     0.246 C 
HETATM    7  O2  UNL     1     -27.139   0.187  16.094  1.00  0.00    -0.272 OA
ENDROOT
BRANCH   1   8
HETATM    8  C7  UNL     1     -26.226   2.192  13.092  1.00  0.00     0.240 C 
HETATM    9  N3  UNL     1     -25.060   2.142  13.887  1.00  0.00    -0.355 N 
ATOM     10  H3  UNL     1     -25.155   1.789  14.839  1.00  0.00     0.162 HD
HETATM   11  O1  UNL     1     -26.163   2.615  11.910  1.00  0.00    -0.271 OA
BRANCH   9  12
HETATM   12  C6  UNL     1     -23.744   2.551  13.453  1.00  0.00     0.161 C 
BRANCH  12  13
HETATM   13  C5  UNL     1     -22.760   2.163  14.479  1.00  0.00    -0.040 A 
HETATM   14  C4  UNL     1     -21.707   1.355  14.101  1.00  0.00     0.010 A 
HETATM   15  C3  UNL     1     -20.760   0.971  15.029  1.00  0.00     0.015 A 
HETATM   16  C2  UNL     1     -20.820   1.363  16.338  1.00  0.00     0.004 A 
HETATM   17  C20 UNL     1     -21.903   2.180  16.680  1.00  0.00     0.015 A 
HETATM   18  C19 UNL     1     -22.845   2.569  15.777  1.00  0.00     0.010 A 
BRANCH  16  19
HETATM   19  C1  UNL     1     -19.868   0.995  17.359  1.00  0.00     0.120 C 
HETATM   20  N1  UNL     1     -20.034   1.445  18.688  1.00  0.00    -0.082 NA
HETATM   21  N2  UNL     1     -18.863   0.254  17.065  1.00  0.00    -0.387 N 
ATOM     22  H22 UNL     1     -18.190  -0.006  17.786  1.00  0.00     0.157 HD
ATOM     23  H21 UNL     1     -18.743  -0.071  16.106  1.00  0.00     0.157 HD
ENDBRANCH  16  19
ENDBRANCH  12  13
ENDBRANCH   9  12
ENDBRANCH   1   8
BRANCH   6  24
HETATM   24  C13 UNL     1     -27.507   2.012  17.544  1.00  0.00     0.335 C 
BRANCH  24  25
HETATM   25  N5  UNL     1     -27.204   1.078  18.607  1.00  0.00    -0.063 N 
ATOM     26  H52 UNL     1     -26.656   0.287  18.268  1.00  0.00     0.278 HD
ATOM     27  H51 UNL     1     -26.527   1.463  19.265  1.00  0.00     0.278 HD
BRANCH  25  28
HETATM   28  C14 UNL     1     -28.421   0.641  19.280  1.00  0.00     0.186 C 
HETATM   29  C15 UNL     1     -28.650  -0.844  19.088  1.00  0.00     0.033 C 
HETATM   30  C16 UNL     1     -29.438  -1.222  20.337  1.00  0.00     0.002 C 
HETATM   31  C17 UNL     1     -28.644  -0.515  21.414  1.00  0.00     0.002 C 
HETATM   32  C18 UNL     1     -28.353   0.823  20.777  1.00  0.00     0.033 C 
ENDBRANCH  25  28
ENDBRANCH  24  25
ENDBRANCH   6  24
TORSDOF 7
ENDMDL
