MODEL 6
REMARK VINA RESULT: -7.515625634      3.552      6.975
REMARK  7 active torsions:
REMARK  status: ('A' for Active; 'I' for Inactive)
REMARK    1  A    between atoms: C2_2  and  C3_3 
REMARK    2  A    between atoms: C3_3  and  N1_4 
REMARK    3  A    between atoms: C3_3  and  C4_8 
REMARK       I    between atoms: C4_8  and  N2_10 
REMARK    4  A    between atoms: C8_14  and  C9_15 
REMARK       I    between atoms: C9_15  and  N3_17 
REMARK    5  A    between atoms: N3_17  and  C10_19 
REMARK    6  A    between atoms: C10_19  and  C11_20 
REMARK    7  A    between atoms: C14_23  and  C15_24 
ROOT
HETATM    1  C9  UNL     1      16.347 -14.401  20.637  1.00  0.00     0.240 C 
HETATM    2  O2  UNL     1      16.841 -15.539  20.343  1.00  0.00    -0.271 OA
HETATM    3  N3  UNL     1      17.221 -13.310  20.926  1.00  0.00    -0.355 N 
ATOM      4  H3  UNL     1      16.857 -12.388  21.164  1.00  0.00     0.162 HD
ENDROOT
BRANCH   1   5
HETATM    5  C8  UNL     1      14.875 -14.263  20.665  1.00  0.00     0.179 C 
HETATM    6  N2  UNL     1      14.482 -12.943  20.140  1.00  0.00    -0.337 N 
HETATM    7  C4  UNL     1      13.995 -11.866  20.915  1.00  0.00     0.251 C 
HETATM    8  C5  UNL     1      14.723 -12.997  18.728  1.00  0.00     0.127 C 
HETATM    9  O1  UNL     1      13.849 -12.126  22.174  1.00  0.00    -0.271 OA
HETATM   10  C6  UNL     1      14.655 -14.459  18.372  1.00  0.00     0.022 C 
HETATM   11  C7  UNL     1      14.206 -15.167  19.653  1.00  0.00     0.037 C 
BRANCH   7  12
HETATM   12  C3  UNL     1      13.636 -10.521  20.521  1.00  0.00     0.274 C 
BRANCH  12  13
HETATM   13  C2  UNL     1      12.417 -10.035  21.335  1.00  0.00     0.038 C 
HETATM   14  C1  UNL     1      12.872  -9.026  22.350  1.00  0.00     0.007 C 
ENDBRANCH  12  13
BRANCH  12  15
HETATM   15  N1  UNL     1      14.612  -9.496  20.600  1.00  0.00    -0.067 N 
ATOM     16  H13 UNL     1      14.852  -9.242  21.558  1.00  0.00     0.275 HD
ATOM     17  H12 UNL     1      15.541  -9.801  20.310  1.00  0.00     0.275 HD
ATOM     18  H11 UNL     1      14.257  -8.712  20.052  1.00  0.00     0.275 HD
ENDBRANCH  12  15
ENDBRANCH   7  12
ENDBRANCH   1   5
BRANCH   3  19
HETATM   19  C10 UNL     1      18.627 -13.560  20.868  1.00  0.00     0.161 C 
BRANCH  19  20
HETATM   20  C11 UNL     1      19.295 -13.528  22.177  1.00  0.00    -0.040 A 
HETATM   21  C12 UNL     1      20.666 -13.445  22.288  1.00  0.00     0.010 A 
HETATM   22  C13 UNL     1      21.299 -13.415  23.538  1.00  0.00     0.015 A 
HETATM   23  C14 UNL     1      20.590 -13.465  24.711  1.00  0.00     0.004 A 
HETATM   24  C16 UNL     1      19.207 -13.548  24.590  1.00  0.00     0.015 A 
HETATM   25  C17 UNL     1      18.586 -13.578  23.359  1.00  0.00     0.010 A 
BRANCH  23  26
HETATM   26  C15 UNL     1      21.216 -13.436  26.043  1.00  0.00     0.120 C 
HETATM   27  N4  UNL     1      20.818 -12.475  27.016  1.00  0.00    -0.082 NA
HETATM   28  N5  UNL     1      22.136 -14.267  26.377  1.00  0.00    -0.387 N 
ATOM     29  H52 UNL     1      22.421 -14.956  25.680  1.00  0.00     0.157 HD
ATOM     30  H51 UNL     1      22.570 -14.248  27.300  1.00  0.00     0.157 HD
ENDBRANCH  23  26
ENDBRANCH  19  20
ENDBRANCH   3  19
TORSDOF 7
ENDMDL
