MODEL 3
REMARK VINA RESULT: -7.874226961      3.278      7.034
REMARK  7 active torsions:
REMARK  status: ('A' for Active; 'I' for Inactive)
REMARK    1  A    between atoms: C2_2  and  C3_3 
REMARK    2  A    between atoms: C3_3  and  N1_4 
REMARK    3  A    between atoms: C3_3  and  C4_8 
REMARK       I    between atoms: C4_8  and  N2_10 
REMARK    4  A    between atoms: C8_14  and  C9_15 
REMARK       I    between atoms: C9_15  and  N3_17 
REMARK    5  A    between atoms: N3_17  and  C10_19 
REMARK    6  A    between atoms: C10_19  and  C11_20 
REMARK    7  A    between atoms: C14_23  and  C15_24 
ROOT
HETATM    1  C9  UNL     1      15.407 -13.852  20.323  1.00  0.00     0.240 C 
HETATM    2  O2  UNL     1      16.116 -14.528  19.508  1.00  0.00    -0.271 OA
HETATM    3  N3  UNL     1      15.560 -14.060  21.726  1.00  0.00    -0.355 N 
ATOM      4  H3  UNL     1      15.008 -13.535  22.404  1.00  0.00     0.162 HD
ENDROOT
BRANCH   1   5
HETATM    5  C8  UNL     1      14.447 -12.872  19.770  1.00  0.00     0.179 C 
HETATM    6  N2  UNL     1      13.948 -11.994  20.843  1.00  0.00    -0.337 N 
HETATM    7  C4  UNL     1      12.652 -12.041  21.404  1.00  0.00     0.251 C 
HETATM    8  C5  UNL     1      15.045 -11.136  21.187  1.00  0.00     0.127 C 
HETATM    9  O1  UNL     1      11.858 -12.906  20.860  1.00  0.00    -0.271 OA
HETATM   10  C6  UNL     1      15.913 -11.095  19.957  1.00  0.00     0.022 C 
HETATM   11  C7  UNL     1      15.131 -11.855  18.883  1.00  0.00     0.037 C 
BRANCH   7  12
HETATM   12  C3  UNL     1      12.076 -11.276  22.488  1.00  0.00     0.274 C 
BRANCH  12  13
HETATM   13  C2  UNL     1      11.907  -9.800  22.066  1.00  0.00     0.038 C 
HETATM   14  C1  UNL     1      11.914  -8.933  23.293  1.00  0.00     0.007 C 
ENDBRANCH  12  13
BRANCH  12  15
HETATM   15  N1  UNL     1      10.836 -11.686  23.038  1.00  0.00    -0.067 N 
ATOM     16  H13 UNL     1      10.104 -10.982  22.950  1.00  0.00     0.275 HD
ATOM     17  H12 UNL     1      10.376 -12.417  22.496  1.00  0.00     0.275 HD
ATOM     18  H11 UNL     1      11.020 -11.957  24.004  1.00  0.00     0.275 HD
ENDBRANCH  12  15
ENDBRANCH   7  12
ENDBRANCH   1   5
BRANCH   3  19
HETATM   19  C10 UNL     1      16.519 -15.034  22.146  1.00  0.00     0.161 C 
BRANCH  19  20
HETATM   20  C11 UNL     1      17.634 -14.478  22.927  1.00  0.00    -0.040 A 
HETATM   21  C12 UNL     1      17.706 -14.629  24.294  1.00  0.00     0.010 A 
HETATM   22  C13 UNL     1      18.770 -14.097  25.035  1.00  0.00     0.015 A 
HETATM   23  C14 UNL     1      19.791 -13.402  24.440  1.00  0.00     0.004 A 
HETATM   24  C16 UNL     1      19.711 -13.253  23.060  1.00  0.00     0.015 A 
HETATM   25  C17 UNL     1      18.663 -13.778  22.332  1.00  0.00     0.010 A 
BRANCH  23  26
HETATM   26  C15 UNL     1      20.926 -12.827  25.181  1.00  0.00     0.120 C 
HETATM   27  N4  UNL     1      22.267 -13.148  24.827  1.00  0.00    -0.082 NA
HETATM   28  N5  UNL     1      20.752 -12.022  26.167  1.00  0.00    -0.387 N 
ATOM     29  H52 UNL     1      19.791 -11.792  26.421  1.00  0.00     0.157 HD
ATOM     30  H51 UNL     1      21.539 -11.623  26.681  1.00  0.00     0.157 HD
ENDBRANCH  23  26
ENDBRANCH  19  20
ENDBRANCH   3  19
TORSDOF 7
ENDMDL
