MODEL 9
REMARK VINA RESULT: -7.323468413      3.107      4.526
REMARK  7 active torsions:
REMARK  status: ('A' for Active; 'I' for Inactive)
REMARK    1  A    between atoms: C2_2  and  C3_3 
REMARK    2  A    between atoms: C3_3  and  N1_4 
REMARK    3  A    between atoms: C3_3  and  C4_8 
REMARK       I    between atoms: C4_8  and  N2_10 
REMARK    4  A    between atoms: C8_14  and  C9_15 
REMARK       I    between atoms: C9_15  and  N3_17 
REMARK    5  A    between atoms: N3_17  and  C10_19 
REMARK    6  A    between atoms: C10_19  and  C11_20 
REMARK    7  A    between atoms: C14_23  and  C15_24 
ROOT
HETATM    1  C9  UNL     1      17.595 -12.240  20.953  1.00  0.00     0.240 C 
HETATM    2  O2  UNL     1      17.134 -13.411  21.158  1.00  0.00    -0.271 OA
HETATM    3  N3  UNL     1      16.825 -11.304  20.200  1.00  0.00    -0.355 N 
ATOM      4  H3  UNL     1      17.167 -10.360  20.020  1.00  0.00     0.162 HD
ENDROOT
BRANCH   1   5
HETATM    5  C8  UNL     1      18.922 -11.903  21.514  1.00  0.00     0.179 C 
HETATM    6  N2  UNL     1      19.657 -13.137  21.844  1.00  0.00    -0.337 N 
HETATM    7  C4  UNL     1      19.898 -13.622  23.150  1.00  0.00     0.251 C 
HETATM    8  C5  UNL     1      20.033 -13.716  20.587  1.00  0.00     0.127 C 
HETATM    9  O1  UNL     1      19.465 -12.859  24.100  1.00  0.00    -0.271 OA
HETATM   10  C6  UNL     1      20.065 -12.564  19.617  1.00  0.00     0.022 C 
HETATM   11  C7  UNL     1      19.840 -11.312  20.467  1.00  0.00     0.037 C 
BRANCH   7  12
HETATM   12  C3  UNL     1      20.551 -14.837  23.588  1.00  0.00     0.274 C 
BRANCH  12  13
HETATM   13  C2  UNL     1      21.665 -14.505  24.605  1.00  0.00     0.038 C 
HETATM   14  C1  UNL     1      22.658 -13.578  23.964  1.00  0.00     0.007 C 
ENDBRANCH  12  13
BRANCH  12  15
HETATM   15  N1  UNL     1      19.771 -15.870  24.162  1.00  0.00    -0.067 N 
ATOM     16  H13 UNL     1      20.329 -16.652  24.506  1.00  0.00     0.275 HD
ATOM     17  H12 UNL     1      19.352 -15.610  25.055  1.00  0.00     0.275 HD
ATOM     18  H11 UNL     1      19.084 -16.143  23.459  1.00  0.00     0.275 HD
ENDBRANCH  12  15
ENDBRANCH   7  12
ENDBRANCH   1   5
BRANCH   3  19
HETATM   19  C10 UNL     1      15.556 -11.741  19.707  1.00  0.00     0.161 C 
BRANCH  19  20
HETATM   20  C11 UNL     1      14.439 -11.494  20.630  1.00  0.00    -0.040 A 
HETATM   21  C12 UNL     1      13.660 -12.523  21.113  1.00  0.00     0.010 A 
HETATM   22  C13 UNL     1      12.595 -12.284  21.992  1.00  0.00     0.015 A 
HETATM   23  C14 UNL     1      12.275 -11.020  22.417  1.00  0.00     0.004 A 
HETATM   24  C16 UNL     1      13.066  -9.988  21.925  1.00  0.00     0.015 A 
HETATM   25  C17 UNL     1      14.114 -10.225  21.059  1.00  0.00     0.010 A 
BRANCH  23  26
HETATM   26  C15 UNL     1      11.166 -10.727  23.339  1.00  0.00     0.120 C 
HETATM   27  N4  UNL     1      11.025  -9.437  23.925  1.00  0.00    -0.082 NA
HETATM   28  N5  UNL     1      10.290 -11.615  23.649  1.00  0.00    -0.387 N 
ATOM     29  H52 UNL     1      10.391 -12.539  23.229  1.00  0.00     0.157 HD
ATOM     30  H51 UNL     1       9.521 -11.411  24.288  1.00  0.00     0.157 HD
ENDBRANCH  23  26
ENDBRANCH  19  20
ENDBRANCH   3  19
TORSDOF 7
ENDMDL
