MODEL 10
REMARK VINA RESULT: -7.208308441      3.268      4.554
REMARK  7 active torsions:
REMARK  status: ('A' for Active; 'I' for Inactive)
REMARK    1  A    between atoms: C2_2  and  C3_3 
REMARK    2  A    between atoms: C3_3  and  N1_4 
REMARK    3  A    between atoms: C3_3  and  C4_8 
REMARK       I    between atoms: C4_8  and  N2_10 
REMARK    4  A    between atoms: C8_14  and  C9_15 
REMARK       I    between atoms: C9_15  and  N3_17 
REMARK    5  A    between atoms: N3_17  and  C10_19 
REMARK    6  A    between atoms: C10_19  and  C11_20 
REMARK    7  A    between atoms: C14_23  and  C15_24 
ROOT
HETATM    1  C9  UNL     1      17.570 -12.381  21.018  1.00  0.00     0.240 C 
HETATM    2  O2  UNL     1      17.083 -13.497  21.394  1.00  0.00    -0.271 OA
HETATM    3  N3  UNL     1      16.822 -11.552  20.130  1.00  0.00    -0.355 N 
ATOM      4  H3  UNL     1      17.184 -10.653  19.812  1.00  0.00     0.162 HD
ENDROOT
BRANCH   1   5
HETATM    5  C8  UNL     1      18.904 -11.994  21.526  1.00  0.00     0.179 C 
HETATM    6  N2  UNL     1      19.692 -13.198  21.844  1.00  0.00    -0.337 N 
HETATM    7  C4  UNL     1      19.995 -13.658  23.145  1.00  0.00     0.251 C 
HETATM    8  C5  UNL     1      20.040 -13.781  20.581  1.00  0.00     0.127 C 
HETATM    9  O1  UNL     1      19.572 -12.896  24.102  1.00  0.00    -0.271 OA
HETATM   10  C6  UNL     1      20.000 -12.643  19.596  1.00  0.00     0.022 C 
HETATM   11  C7  UNL     1      19.764 -11.387  20.439  1.00  0.00     0.037 C 
BRANCH   7  12
HETATM   12  C3  UNL     1      20.704 -14.844  23.574  1.00  0.00     0.274 C 
BRANCH  12  13
HETATM   13  C2  UNL     1      22.003 -14.452  24.311  1.00  0.00     0.038 C 
HETATM   14  C1  UNL     1      21.951 -14.976  25.717  1.00  0.00     0.007 C 
ENDBRANCH  12  13
BRANCH  12  15
HETATM   15  N1  UNL     1      20.037 -15.785  24.399  1.00  0.00    -0.067 N 
ATOM     16  H13 UNL     1      19.101 -16.017  24.069  1.00  0.00     0.275 HD
ATOM     17  H12 UNL     1      20.431 -16.724  24.339  1.00  0.00     0.275 HD
ATOM     18  H11 UNL     1      20.049 -15.403  25.345  1.00  0.00     0.275 HD
ENDBRANCH  12  15
ENDBRANCH   7  12
ENDBRANCH   1   5
BRANCH   3  19
HETATM   19  C10 UNL     1      15.543 -12.029  19.705  1.00  0.00     0.161 C 
BRANCH  19  20
HETATM   20  C11 UNL     1      14.442 -11.686  20.617  1.00  0.00    -0.040 A 
HETATM   21  C12 UNL     1      14.194 -10.385  20.994  1.00  0.00     0.010 A 
HETATM   22  C13 UNL     1      13.144 -10.062  21.865  1.00  0.00     0.015 A 
HETATM   23  C14 UNL     1      12.313 -11.020  22.385  1.00  0.00     0.004 A 
HETATM   24  C16 UNL     1      12.571 -12.332  22.000  1.00  0.00     0.015 A 
HETATM   25  C17 UNL     1      13.604 -12.647  21.142  1.00  0.00     0.010 A 
BRANCH  23  26
HETATM   26  C15 UNL     1      11.201 -10.724  23.301  1.00  0.00     0.120 C 
HETATM   27  N4  UNL     1      11.069  -9.437  23.898  1.00  0.00    -0.082 NA
HETATM   28  N5  UNL     1      10.314 -11.605  23.598  1.00  0.00    -0.387 N 
ATOM     29  H52 UNL     1      10.409 -12.526  23.170  1.00  0.00     0.157 HD
ATOM     30  H51 UNL     1       9.542 -11.400  24.233  1.00  0.00     0.157 HD
ENDBRANCH  23  26
ENDBRANCH  19  20
ENDBRANCH   3  19
TORSDOF 7
ENDMDL
