MODEL 4
REMARK VINA RESULT: -7.790428244      2.201      3.103
REMARK  7 active torsions:
REMARK  status: ('A' for Active; 'I' for Inactive)
REMARK    1  A    between atoms: C2_2  and  C3_3 
REMARK    2  A    between atoms: C3_3  and  N1_4 
REMARK    3  A    between atoms: C3_3  and  C4_8 
REMARK       I    between atoms: C4_8  and  N2_10 
REMARK    4  A    between atoms: C8_14  and  C9_15 
REMARK       I    between atoms: C9_15  and  N3_17 
REMARK    5  A    between atoms: N3_17  and  C10_19 
REMARK    6  A    between atoms: C10_19  and  C11_20 
REMARK    7  A    between atoms: C14_23  and  C15_24 
ROOT
HETATM    1  C9  UNL     1      14.655 -13.659  20.334  1.00  0.00     0.240 C 
HETATM    2  O2  UNL     1      14.660 -14.394  21.375  1.00  0.00    -0.271 OA
HETATM    3  N3  UNL     1      13.504 -12.871  20.036  1.00  0.00    -0.355 N 
ATOM      4  H3  UNL     1      13.470 -12.273  19.210  1.00  0.00     0.162 HD
ENDROOT
BRANCH   1   5
HETATM    5  C8  UNL     1      15.859 -13.657  19.474  1.00  0.00     0.179 C 
HETATM    6  N2  UNL     1      15.809 -12.519  18.540  1.00  0.00    -0.337 N 
HETATM    7  C4  UNL     1      15.555 -12.609  17.152  1.00  0.00     0.251 C 
HETATM    8  C5  UNL     1      16.042 -11.349  19.336  1.00  0.00     0.127 C 
HETATM    9  O1  UNL     1      15.416 -13.815  16.704  1.00  0.00    -0.271 OA
HETATM   10  C6  UNL     1      16.808 -11.837  20.537  1.00  0.00     0.022 C 
HETATM   11  C7  UNL     1      17.107 -13.312  20.256  1.00  0.00     0.037 C 
BRANCH   7  12
HETATM   12  C3  UNL     1      15.427 -11.566  16.157  1.00  0.00     0.274 C 
BRANCH  12  13
HETATM   13  C2  UNL     1      16.823 -11.094  15.698  1.00  0.00     0.038 C 
HETATM   14  C1  UNL     1      16.667  -9.943  14.747  1.00  0.00     0.007 C 
ENDBRANCH  12  13
BRANCH  12  15
HETATM   15  N1  UNL     1      14.677 -11.822  14.982  1.00  0.00    -0.067 N 
ATOM     16  H13 UNL     1      15.160 -12.433  14.323  1.00  0.00     0.275 HD
ATOM     17  H12 UNL     1      13.868 -12.422  15.144  1.00  0.00     0.275 HD
ATOM     18  H11 UNL     1      14.433 -10.914  14.587  1.00  0.00     0.275 HD
ENDBRANCH  12  15
ENDBRANCH   7  12
ENDBRANCH   1   5
BRANCH   3  19
HETATM   19  C10 UNL     1      12.398 -12.953  20.939  1.00  0.00     0.161 C 
BRANCH  19  20
HETATM   20  C11 UNL     1      12.203 -11.746  21.756  1.00  0.00    -0.040 A 
HETATM   21  C12 UNL     1      11.322 -11.725  22.814  1.00  0.00     0.010 A 
HETATM   22  C13 UNL     1      11.138 -10.573  23.591  1.00  0.00     0.015 A 
HETATM   23  C14 UNL     1      11.824  -9.412  23.340  1.00  0.00     0.004 A 
HETATM   24  C16 UNL     1      12.712  -9.442  22.269  1.00  0.00     0.015 A 
HETATM   25  C17 UNL     1      12.891 -10.577  21.506  1.00  0.00     0.010 A 
BRANCH  23  26
HETATM   26  C15 UNL     1      11.660  -8.182  24.130  1.00  0.00     0.120 C 
HETATM   27  N4  UNL     1      10.383  -7.800  24.632  1.00  0.00    -0.082 NA
HETATM   28  N5  UNL     1      12.653  -7.410  24.395  1.00  0.00    -0.387 N 
ATOM     29  H52 UNL     1      13.567  -7.683  24.036  1.00  0.00     0.157 HD
ATOM     30  H51 UNL     1      12.540  -6.557  24.943  1.00  0.00     0.157 HD
ENDBRANCH  23  26
ENDBRANCH  19  20
ENDBRANCH   3  19
TORSDOF 7
ENDMDL
