MODEL 1
REMARK VINA RESULT: -10.172398072      0.000      0.000
REMARK  4 active torsions:
REMARK  status: ('A' for Active; 'I' for Inactive)
REMARK    1  A    between atoms: N5_13  and  C6_14 
REMARK    2  A    between atoms: C8_16  and  C9_17 
REMARK    3  A    between atoms: C9_17  and  O1_18 
REMARK    4  A    between atoms: C11_22  and  O3_23 
ROOT
HETATM    1  N1  UNL     1      55.494  -5.142  40.578  1.00  0.00    -0.080 NA
HETATM    2  C1  UNL     1      54.384  -5.543  41.366  1.00  0.00     0.148 A 
HETATM    3  N2  UNL     1      53.387  -4.717  41.726  1.00  0.00    -0.339 N 
ATOM      4  H2  UNL     1      53.423  -3.745  41.419  1.00  0.00     0.167 HD
HETATM    5  C2  UNL     1      52.342  -5.118  42.475  1.00  0.00     0.183 A 
HETATM    6  N3  UNL     1      52.244  -6.387  42.907  1.00  0.00    -0.336 N 
ATOM      7  H3  UNL     1      51.447  -6.678  43.474  1.00  0.00     0.168 HD
HETATM    8  C3  UNL     1      53.203  -7.268  42.587  1.00  0.00     0.140 A 
HETATM    9  C4  UNL     1      54.272  -6.858  41.820  1.00  0.00     0.119 A 
HETATM   10  N4  UNL     1      55.090  -7.909  41.635  1.00  0.00    -0.346 N 
ATOM     11  H4  UNL     1      55.964  -7.910  41.108  1.00  0.00     0.167 HD
HETATM   12  C5  UNL     1      54.547  -8.953  42.269  1.00  0.00     0.185 A 
HETATM   13  N5  UNL     1      53.386  -8.558  42.855  1.00  0.00    -0.320 N 
ENDROOT
BRANCH  13  14
HETATM   14  C6  UNL     1      52.570  -9.455  43.612  1.00  0.00     0.129 C 
HETATM   15  C7  UNL     1      53.241 -10.761  43.939  1.00  0.00     0.043 C 
HETATM   16  C8  UNL     1      52.030 -11.583  44.385  1.00  0.00     0.084 C 
HETATM   17  C10 UNL     1      51.098 -11.316  43.263  1.00  0.00     0.163 C 
HETATM   18  O2  UNL     1      50.313 -12.101  42.784  1.00  0.00    -0.295 OA
HETATM   19  C11 UNL     1      51.324  -9.907  42.855  1.00  0.00     0.211 C 
BRANCH  16  20
HETATM   20  C9  UNL     1      52.376 -13.040  44.523  1.00  0.00     0.176 C 
BRANCH  20  21
HETATM   21  O1  UNL     1      52.917 -13.364  45.738  1.00  0.00    -0.400 OA
ATOM     22  H1  UNL     1      52.817 -14.280  45.968  1.00  0.00     0.209 HD
ENDBRANCH  20  21
ENDBRANCH  16  20
BRANCH  19  23
HETATM   23  O3  UNL     1      50.269  -9.076  43.262  1.00  0.00    -0.386 OA
ATOM     24  H3  UNL     1      49.476  -9.598  43.237  1.00  0.00     0.210 HD
ENDBRANCH  19  23
ENDBRANCH  13  14
TORSDOF 4
ENDMDL
