MODEL 9
REMARK VINA RESULT: -8.733336808      3.199      6.429
REMARK  4 active torsions:
REMARK  status: ('A' for Active; 'I' for Inactive)
REMARK    1  A    between atoms: N5_13  and  C6_14 
REMARK    2  A    between atoms: C8_16  and  C9_17 
REMARK    3  A    between atoms: C9_17  and  O1_18 
REMARK    4  A    between atoms: C11_22  and  O3_23 
ROOT
HETATM    1  N1  UNL     1      50.272 -13.559  43.652  1.00  0.00    -0.080 NA
HETATM    2  C1  UNL     1      51.426 -12.792  43.963  1.00  0.00     0.148 A 
HETATM    3  N2  UNL     1      52.510 -13.291  44.580  1.00  0.00    -0.339 N 
ATOM      4  H2  UNL     1      52.512 -14.277  44.843  1.00  0.00     0.167 HD
HETATM    5  C2  UNL     1      53.595 -12.546  44.866  1.00  0.00     0.183 A 
HETATM    6  N3  UNL     1      53.646 -11.242  44.542  1.00  0.00    -0.336 N 
ATOM      7  H3  UNL     1      54.474 -10.689  44.764  1.00  0.00     0.168 HD
HETATM    8  C3  UNL     1      52.599 -10.675  43.924  1.00  0.00     0.140 A 
HETATM    9  C4  UNL     1      51.489 -11.438  43.631  1.00  0.00     0.119 A 
HETATM   10  N4  UNL     1      50.584 -10.655  43.019  1.00  0.00    -0.346 N 
ATOM     11  H4  UNL     1      49.664 -10.941  42.685  1.00  0.00     0.167 HD
HETATM   12  C5  UNL     1      51.114  -9.430  42.929  1.00  0.00     0.185 A 
HETATM   13  N5  UNL     1      52.353  -9.444  43.487  1.00  0.00    -0.320 N 
ENDROOT
BRANCH  13  14
HETATM   14  C6  UNL     1      53.177  -8.276  43.543  1.00  0.00     0.129 C 
HETATM   15  C7  UNL     1      52.612  -7.096  42.801  1.00  0.00     0.043 C 
HETATM   16  C8  UNL     1      53.851  -6.198  42.740  1.00  0.00     0.084 C 
HETATM   17  C10 UNL     1      54.857  -7.165  42.243  1.00  0.00     0.163 C 
HETATM   18  O2  UNL     1      55.763  -6.924  41.478  1.00  0.00    -0.295 OA
HETATM   19  C11 UNL     1      54.532  -8.471  42.868  1.00  0.00     0.211 C 
BRANCH  16  20
HETATM   20  C9  UNL     1      53.642  -5.039  41.805  1.00  0.00     0.176 C 
BRANCH  20  21
HETATM   21  O1  UNL     1      53.538  -5.405  40.490  1.00  0.00    -0.400 OA
ATOM     22  H1  UNL     1      54.324  -5.812  40.143  1.00  0.00     0.209 HD
ENDBRANCH  20  21
ENDBRANCH  16  20
BRANCH  19  23
HETATM   23  O3  UNL     1      55.451  -8.805  43.875  1.00  0.00    -0.386 OA
ATOM     24  H3  UNL     1      56.174  -8.194  43.808  1.00  0.00     0.210 HD
ENDBRANCH  19  23
ENDBRANCH  13  14
TORSDOF 4
ENDMDL
