MODEL 4
REMARK VINA RESULT: -8.939343616      2.054      2.900
REMARK  4 active torsions:
REMARK  status: ('A' for Active; 'I' for Inactive)
REMARK    1  A    between atoms: N5_13  and  C6_14 
REMARK    2  A    between atoms: C8_16  and  C9_17 
REMARK    3  A    between atoms: C9_17  and  O1_18 
REMARK    4  A    between atoms: C11_22  and  O3_23 
ROOT
HETATM    1  N1  UNL     1      54.713  -2.310  43.590  1.00  0.00    -0.080 NA
HETATM    2  C1  UNL     1      53.839  -3.246  42.977  1.00  0.00     0.148 A 
HETATM    3  N2  UNL     1      52.755  -2.898  42.264  1.00  0.00    -0.339 N 
ATOM      4  H2  UNL     1      52.541  -1.907  42.152  1.00  0.00     0.167 HD
HETATM    5  C2  UNL     1      51.938  -3.802  41.691  1.00  0.00     0.183 A 
HETATM    6  N3  UNL     1      52.172  -5.121  41.806  1.00  0.00    -0.336 N 
ATOM      7  H3  UNL     1      51.545  -5.795  41.367  1.00  0.00     0.168 HD
HETATM    8  C3  UNL     1      53.237  -5.542  42.505  1.00  0.00     0.140 A 
HETATM    9  C4  UNL     1      54.073  -4.617  43.091  1.00  0.00     0.119 A 
HETATM   10  N4  UNL     1      55.057  -5.276  43.728  1.00  0.00    -0.346 N 
ATOM     11  H4  UNL     1      55.824  -4.856  44.254  1.00  0.00     0.167 HD
HETATM   12  C5  UNL     1      54.843  -6.583  43.545  1.00  0.00     0.185 A 
HETATM   13  N5  UNL     1      53.723  -6.746  42.792  1.00  0.00    -0.320 N 
ENDROOT
BRANCH  13  14
HETATM   14  C6  UNL     1      53.233  -8.038  42.425  1.00  0.00     0.129 C 
HETATM   15  C7  UNL     1      51.893  -8.373  43.019  1.00  0.00     0.043 C 
HETATM   16  C8  UNL     1      51.851  -9.881  42.758  1.00  0.00     0.084 C 
HETATM   17  C10 UNL     1      53.181 -10.278  43.277  1.00  0.00     0.163 C 
HETATM   18  O2  UNL     1      53.443 -11.305  43.862  1.00  0.00    -0.295 OA
HETATM   19  C11 UNL     1      54.113  -9.175  42.937  1.00  0.00     0.211 C 
BRANCH  16  20
HETATM   20  C9  UNL     1      50.716 -10.534  43.497  1.00  0.00     0.176 C 
BRANCH  20  21
HETATM   21  O1  UNL     1      50.462 -11.817  43.092  1.00  0.00    -0.400 OA
ATOM     22  H1  UNL     1      49.575 -11.951  42.781  1.00  0.00     0.209 HD
ENDBRANCH  20  21
ENDBRANCH  16  20
BRANCH  19  23
HETATM   23  O3  UNL     1      54.977  -9.533  41.891  1.00  0.00    -0.386 OA
ATOM     24  H3  UNL     1      54.754  -8.989  41.145  1.00  0.00     0.210 HD
ENDBRANCH  19  23
ENDBRANCH  13  14
TORSDOF 4
ENDMDL
