MODEL 2
REMARK VINA RESULT: -9.558710731      3.454      6.365
REMARK  4 active torsions:
REMARK  status: ('A' for Active; 'I' for Inactive)
REMARK    1  A    between atoms: N5_13  and  C6_14 
REMARK    2  A    between atoms: C8_16  and  C9_17 
REMARK    3  A    between atoms: C9_17  and  O1_18 
REMARK    4  A    between atoms: C11_22  and  O3_23 
ROOT
HETATM    1  N1  UNL     1      49.783 -12.812  43.383  1.00  0.00    -0.080 NA
HETATM    2  C1  UNL     1      51.099 -12.393  43.715  1.00  0.00     0.148 A 
HETATM    3  N2  UNL     1      52.010 -13.188  44.300  1.00  0.00    -0.339 N 
ATOM      4  H2  UNL     1      51.749 -14.149  44.522  1.00  0.00     0.167 HD
HETATM    5  C2  UNL     1      53.252 -12.771  44.607  1.00  0.00     0.183 A 
HETATM    6  N3  UNL     1      53.649 -11.515  44.338  1.00  0.00    -0.336 N 
ATOM      7  H3  UNL     1      54.594 -11.211  44.576  1.00  0.00     0.168 HD
HETATM    8  C3  UNL     1      52.792 -10.664  43.754  1.00  0.00     0.140 A 
HETATM    9  C4  UNL     1      51.521 -11.091  43.440  1.00  0.00     0.119 A 
HETATM   10  N4  UNL     1      50.858 -10.070  42.870  1.00  0.00    -0.346 N 
ATOM     11  H4  UNL     1      49.895 -10.087  42.532  1.00  0.00     0.167 HD
HETATM   12  C5  UNL     1      51.694  -9.027  42.826  1.00  0.00     0.185 A 
HETATM   13  N5  UNL     1      52.884  -9.394  43.371  1.00  0.00    -0.320 N 
ENDROOT
BRANCH  13  14
HETATM   14  C6  UNL     1      53.988  -8.490  43.469  1.00  0.00     0.129 C 
HETATM   15  C7  UNL     1      53.765  -7.359  44.435  1.00  0.00     0.043 C 
HETATM   16  C8  UNL     1      54.909  -6.426  44.026  1.00  0.00     0.084 C 
HETATM   17  C10 UNL     1      54.717  -6.396  42.557  1.00  0.00     0.163 C 
HETATM   18  O2  UNL     1      54.891  -5.443  41.833  1.00  0.00    -0.295 OA
HETATM   19  C11 UNL     1      54.272  -7.756  42.162  1.00  0.00     0.211 C 
BRANCH  16  20
HETATM   20  C9  UNL     1      54.766  -5.072  44.663  1.00  0.00     0.176 C 
BRANCH  20  21
HETATM   21  O1  UNL     1      55.915  -4.327  44.634  1.00  0.00    -0.400 OA
ATOM     22  H1  UNL     1      55.803  -3.467  44.245  1.00  0.00     0.209 HD
ENDBRANCH  20  21
ENDBRANCH  16  20
BRANCH  19  23
HETATM   23  O3  UNL     1      55.292  -8.461  41.504  1.00  0.00    -0.386 OA
ATOM     24  H3  UNL     1      55.453  -9.252  42.005  1.00  0.00     0.210 HD
ENDBRANCH  19  23
ENDBRANCH  13  14
TORSDOF 4
ENDMDL
