MODEL 7
REMARK VINA RESULT: -8.850068573      3.270      6.344
REMARK  4 active torsions:
REMARK  status: ('A' for Active; 'I' for Inactive)
REMARK    1  A    between atoms: N5_13  and  C6_14 
REMARK    2  A    between atoms: C8_16  and  C9_17 
REMARK    3  A    between atoms: C9_17  and  O1_18 
REMARK    4  A    between atoms: C11_22  and  O3_23 
ROOT
HETATM    1  N1  UNL     1      49.950 -12.428  43.543  1.00  0.00    -0.080 NA
HETATM    2  C1  UNL     1      51.264 -11.920  43.719  1.00  0.00     0.148 A 
HETATM    3  N2  UNL     1      52.301 -12.663  44.142  1.00  0.00    -0.339 N 
ATOM      4  H2  UNL     1      52.143 -13.649  44.350  1.00  0.00     0.167 HD
HETATM    5  C2  UNL     1      53.540 -12.161  44.303  1.00  0.00     0.183 A 
HETATM    6  N3  UNL     1      53.805 -10.869  44.044  1.00  0.00    -0.336 N 
ATOM      7  H3  UNL     1      54.748 -10.501  44.170  1.00  0.00     0.168 HD
HETATM    8  C3  UNL     1      52.818 -10.067  43.618  1.00  0.00     0.140 A 
HETATM    9  C4  UNL     1      51.550 -10.580  43.453  1.00  0.00     0.119 A 
HETATM   10  N4  UNL     1      50.744  -9.593  43.023  1.00  0.00    -0.346 N 
ATOM     11  H4  UNL     1      49.749  -9.673  42.814  1.00  0.00     0.167 HD
HETATM   12  C5  UNL     1      51.489  -8.487  42.920  1.00  0.00     0.185 A 
HETATM   13  N5  UNL     1      52.765  -8.780  43.287  1.00  0.00    -0.320 N 
ENDROOT
BRANCH  13  14
HETATM   14  C6  UNL     1      53.804  -7.797  43.282  1.00  0.00     0.129 C 
HETATM   15  C7  UNL     1      53.432  -6.514  43.973  1.00  0.00     0.043 C 
HETATM   16  C8  UNL     1      54.554  -5.602  43.472  1.00  0.00     0.084 C 
HETATM   17  C10 UNL     1      54.494  -5.880  42.017  1.00  0.00     0.163 C 
HETATM   18  O2  UNL     1      54.681  -5.081  41.128  1.00  0.00    -0.295 OA
HETATM   19  C11 UNL     1      54.164  -7.320  41.877  1.00  0.00     0.211 C 
BRANCH  16  20
HETATM   20  C9  UNL     1      54.279  -4.161  43.803  1.00  0.00     0.176 C 
BRANCH  20  21
HETATM   21  O1  UNL     1      52.947  -3.872  43.939  1.00  0.00    -0.400 OA
ATOM     22  H1  UNL     1      52.684  -3.700  44.836  1.00  0.00     0.209 HD
ENDBRANCH  20  21
ENDBRANCH  16  20
BRANCH  19  23
HETATM   23  O3  UNL     1      55.276  -8.067  41.460  1.00  0.00    -0.386 OA
ATOM     24  H3  UNL     1      54.946  -8.869  41.073  1.00  0.00     0.210 HD
ENDBRANCH  19  23
ENDBRANCH  13  14
TORSDOF 4
ENDMDL
