MODEL 3
REMARK VINA RESULT: -8.987779076      1.834      3.055
REMARK  4 active torsions:
REMARK  status: ('A' for Active; 'I' for Inactive)
REMARK    1  A    between atoms: N5_13  and  C6_14 
REMARK    2  A    between atoms: C8_16  and  C9_17 
REMARK    3  A    between atoms: C9_17  and  O1_18 
REMARK    4  A    between atoms: C11_22  and  O3_23 
ROOT
HETATM    1  N1  UNL     1      54.012  -2.369  43.238  1.00  0.00    -0.080 NA
HETATM    2  C1  UNL     1      54.195  -3.574  42.509  1.00  0.00     0.148 A 
HETATM    3  N2  UNL     1      55.004  -3.684  41.443  1.00  0.00    -0.339 N 
ATOM      4  H2  UNL     1      55.520  -2.861  41.133  1.00  0.00     0.167 HD
HETATM    5  C2  UNL     1      55.163  -4.837  40.765  1.00  0.00     0.183 A 
HETATM    6  N3  UNL     1      54.508  -5.953  41.129  1.00  0.00    -0.336 N 
ATOM      7  H3  UNL     1      54.637  -6.820  40.607  1.00  0.00     0.168 HD
HETATM    8  C3  UNL     1      53.682  -5.916  42.185  1.00  0.00     0.140 A 
HETATM    9  C4  UNL     1      53.519  -4.737  42.879  1.00  0.00     0.119 A 
HETATM   10  N4  UNL     1      52.652  -4.951  43.884  1.00  0.00    -0.346 N 
ATOM     11  H4  UNL     1      52.336  -4.262  44.567  1.00  0.00     0.167 HD
HETATM   12  C5  UNL     1      52.280  -6.234  43.822  1.00  0.00     0.185 A 
HETATM   13  N5  UNL     1      52.914  -6.827  42.776  1.00  0.00    -0.320 N 
ENDROOT
BRANCH  13  14
HETATM   14  C6  UNL     1      52.720  -8.206  42.450  1.00  0.00     0.129 C 
HETATM   15  C7  UNL     1      51.474  -8.803  43.043  1.00  0.00     0.043 C 
HETATM   16  C8  UNL     1      51.762 -10.292  42.835  1.00  0.00     0.084 C 
HETATM   17  C10 UNL     1      53.138 -10.376  43.380  1.00  0.00     0.163 C 
HETATM   18  O2  UNL     1      53.605 -11.302  44.003  1.00  0.00    -0.295 OA
HETATM   19  C11 UNL     1      53.816  -9.109  43.010  1.00  0.00     0.211 C 
BRANCH  16  20
HETATM   20  C9  UNL     1      50.782 -11.151  43.586  1.00  0.00     0.176 C 
BRANCH  20  21
HETATM   21  O1  UNL     1      50.236 -12.153  42.828  1.00  0.00    -0.400 OA
ATOM     22  H1  UNL     1      49.351 -12.385  43.084  1.00  0.00     0.209 HD
ENDBRANCH  20  21
ENDBRANCH  16  20
BRANCH  19  23
HETATM   23  O3  UNL     1      54.754  -9.305  41.985  1.00  0.00    -0.386 OA
ATOM     24  H3  UNL     1      54.638  -8.599  41.361  1.00  0.00     0.210 HD
ENDBRANCH  19  23
ENDBRANCH  13  14
TORSDOF 4
ENDMDL
