MODEL 5
REMARK VINA RESULT: -10.392553681      0.155      6.965
REMARK  2 active torsions:
REMARK  status: ('A' for Active; 'I' for Inactive)
REMARK       I    between atoms: C1_2  and  N1_3 
REMARK       I    between atoms: C1_2  and  N2_11 
REMARK    1  A    between atoms: N1_3  and  C2_5 
REMARK    2  A    between atoms: N2_11  and  C8_13 
ROOT
HETATM    1  O1  UNL     1      -5.219   1.741  20.225  1.00  0.00    -0.247 OA
HETATM    2  C1  UNL     1      -4.092   1.280  19.984  1.00  0.00     0.325 C 
HETATM    3  N1  UNL     1      -3.028   2.197  19.724  1.00  0.00    -0.309 N 
ATOM      4  H1  UNL     1      -2.113   1.794  19.526  1.00  0.00     0.170 HD
HETATM    5  N2  UNL     1      -3.863  -0.114  19.966  1.00  0.00    -0.309 N 
ATOM      6  H2  UNL     1      -2.914  -0.430  19.765  1.00  0.00     0.170 HD
ENDROOT
BRANCH   3   7
HETATM    7  C2  UNL     1      -3.118   3.591  19.714  1.00  0.00     0.036 A 
HETATM    8  C3  UNL     1      -1.944   4.288  19.403  1.00  0.00     0.029 A 
HETATM    9  C4  UNL     1      -1.853   5.656  19.356  1.00  0.00     0.002 A 
HETATM   10  C5  UNL     1      -3.008   6.366  19.637  1.00  0.00     0.000 A 
HETATM   11  C6  UNL     1      -4.189   5.716  19.949  1.00  0.00     0.002 A 
HETATM   12  C7  UNL     1      -4.233   4.323  19.985  1.00  0.00     0.029 A 
ENDBRANCH   3   7
BRANCH   5  13
HETATM   13  C8  UNL     1      -4.839  -1.105  20.203  1.00  0.00     0.036 A 
HETATM   14  C9  UNL     1      -5.427  -1.756  19.103  1.00  0.00     0.029 A 
HETATM   15  C10 UNL     1      -6.386  -2.718  19.259  1.00  0.00     0.002 A 
HETATM   16  C11 UNL     1      -6.844  -3.116  20.490  1.00  0.00     0.000 A 
HETATM   17  C12 UNL     1      -6.288  -2.496  21.581  1.00  0.00     0.002 A 
HETATM   18  C13 UNL     1      -5.306  -1.511  21.424  1.00  0.00     0.029 A 
ENDBRANCH   5  13
TORSDOF 2
ENDMDL
