MODEL 2
REMARK VINA RESULT: -10.483863841      0.075      6.985
REMARK  2 active torsions:
REMARK  status: ('A' for Active; 'I' for Inactive)
REMARK       I    between atoms: C1_2  and  N1_3 
REMARK       I    between atoms: C1_2  and  N2_11 
REMARK    1  A    between atoms: N1_3  and  C2_5 
REMARK    2  A    between atoms: N2_11  and  C8_13 
ROOT
HETATM    1  O1  UNL     1      -5.196   1.707  20.122  1.00  0.00    -0.247 OA
HETATM    2  C1  UNL     1      -4.061   1.225  19.985  1.00  0.00     0.325 C 
HETATM    3  N1  UNL     1      -2.964   2.120  19.794  1.00  0.00    -0.309 N 
ATOM      4  H1  UNL     1      -2.042   1.699  19.681  1.00  0.00     0.170 HD
HETATM    5  N2  UNL     1      -3.853  -0.173  20.016  1.00  0.00    -0.309 N 
ATOM      6  H2  UNL     1      -2.896  -0.507  19.901  1.00  0.00     0.170 HD
ENDROOT
BRANCH   3   7
HETATM    7  C2  UNL     1      -3.030   3.514  19.747  1.00  0.00     0.036 A 
HETATM    8  C3  UNL     1      -1.853   4.182  19.387  1.00  0.00     0.029 A 
HETATM    9  C4  UNL     1      -1.740   5.546  19.299  1.00  0.00     0.002 A 
HETATM   10  C5  UNL     1      -2.876   6.284  19.587  1.00  0.00     0.000 A 
HETATM   11  C6  UNL     1      -4.060   5.664  19.947  1.00  0.00     0.002 A 
HETATM   12  C7  UNL     1      -4.127   4.274  20.023  1.00  0.00     0.029 A 
ENDBRANCH   3   7
BRANCH   5  13
HETATM   13  C8  UNL     1      -4.862  -1.144  20.193  1.00  0.00     0.036 A 
HETATM   14  C9  UNL     1      -5.240  -1.499  21.501  1.00  0.00     0.029 A 
HETATM   15  C10 UNL     1      -6.203  -2.438  21.746  1.00  0.00     0.002 A 
HETATM   16  C11 UNL     1      -6.865  -3.101  20.743  1.00  0.00     0.000 A 
HETATM   17  C12 UNL     1      -6.514  -2.775  19.457  1.00  0.00     0.002 A 
HETATM   18  C13 UNL     1      -5.529  -1.813  19.203  1.00  0.00     0.029 A 
ENDBRANCH   5  13
TORSDOF 2
ENDMDL
