MODEL 1
REMARK VINA RESULT: -10.499672142      0.000      0.000
REMARK  2 active torsions:
REMARK  status: ('A' for Active; 'I' for Inactive)
REMARK       I    between atoms: C1_2  and  N1_3 
REMARK       I    between atoms: C1_2  and  N2_11 
REMARK    1  A    between atoms: N1_3  and  C2_5 
REMARK    2  A    between atoms: N2_11  and  C8_13 
ROOT
HETATM    1  O1  UNL     1      -5.186   1.696  20.102  1.00  0.00    -0.247 OA
HETATM    2  C1  UNL     1      -4.037   1.250  19.964  1.00  0.00     0.325 C 
HETATM    3  N1  UNL     1      -3.853  -0.166  19.991  1.00  0.00    -0.309 N 
ATOM      4  H1  UNL     1      -2.899  -0.508  19.878  1.00  0.00     0.170 HD
HETATM    5  N2  UNL     1      -2.935   2.116  19.784  1.00  0.00    -0.309 N 
ATOM      6  H2  UNL     1      -2.016   1.688  19.672  1.00  0.00     0.170 HD
ENDROOT
BRANCH   3   7
HETATM    7  C2  UNL     1      -4.851  -1.130  20.156  1.00  0.00     0.036 A 
HETATM    8  C3  UNL     1      -5.179  -1.466  21.475  1.00  0.00     0.029 A 
HETATM    9  C4  UNL     1      -6.128  -2.395  21.817  1.00  0.00     0.002 A 
HETATM   10  C5  UNL     1      -6.788  -3.023  20.774  1.00  0.00     0.000 A 
HETATM   11  C6  UNL     1      -6.495  -2.720  19.456  1.00  0.00     0.002 A 
HETATM   12  C7  UNL     1      -5.521  -1.768  19.157  1.00  0.00     0.029 A 
ENDBRANCH   3   7
BRANCH   5  13
HETATM   13  C8  UNL     1      -3.002   3.525  19.746  1.00  0.00     0.036 A 
HETATM   14  C9  UNL     1      -1.852   4.251  19.386  1.00  0.00     0.029 A 
HETATM   15  C10 UNL     1      -1.844   5.617  19.338  1.00  0.00     0.002 A 
HETATM   16  C11 UNL     1      -2.947   6.376  19.638  1.00  0.00     0.000 A 
HETATM   17  C12 UNL     1      -4.083   5.694  19.994  1.00  0.00     0.002 A 
HETATM   18  C13 UNL     1      -4.094   4.295  20.043  1.00  0.00     0.029 A 
ENDBRANCH   5  13
TORSDOF 2
ENDMDL
