MODEL 3
REMARK VINA RESULT: -10.459525238      1.134      1.189
REMARK  2 active torsions:
REMARK  status: ('A' for Active; 'I' for Inactive)
REMARK       I    between atoms: C1_2  and  N1_3 
REMARK       I    between atoms: C1_2  and  N2_11 
REMARK    1  A    between atoms: N1_3  and  C2_5 
REMARK    2  A    between atoms: N2_11  and  C8_13 
ROOT
HETATM    1  O1  UNL     1      -4.967   1.091  20.246  1.00  0.00    -0.247 OA
HETATM    2  C1  UNL     1      -4.066   0.976  19.401  1.00  0.00     0.325 C 
HETATM    3  N1  UNL     1      -3.744  -0.334  18.929  1.00  0.00    -0.309 N 
ATOM      4  H1  UNL     1      -2.999  -0.402  18.237  1.00  0.00     0.170 HD
HETATM    5  N2  UNL     1      -3.374   2.108  18.913  1.00  0.00    -0.309 N 
ATOM      6  H2  UNL     1      -2.647   1.948  18.216  1.00  0.00     0.170 HD
ENDROOT
BRANCH   3   7
HETATM    7  C2  UNL     1      -4.350  -1.529  19.323  1.00  0.00     0.036 A 
HETATM    8  C3  UNL     1      -3.710  -2.244  20.343  1.00  0.00     0.029 A 
HETATM    9  C4  UNL     1      -4.163  -3.438  20.844  1.00  0.00     0.002 A 
HETATM   10  C5  UNL     1      -5.327  -3.943  20.291  1.00  0.00     0.000 A 
HETATM   11  C6  UNL     1      -5.991  -3.268  19.281  1.00  0.00     0.002 A 
HETATM   12  C7  UNL     1      -5.492  -2.057  18.803  1.00  0.00     0.029 A 
ENDBRANCH   3   7
BRANCH   5  13
HETATM   13  C8  UNL     1      -3.607   3.441  19.312  1.00  0.00     0.036 A 
HETATM   14  C9  UNL     1      -2.550   4.367  19.236  1.00  0.00     0.029 A 
HETATM   15  C10 UNL     1      -2.703   5.671  19.616  1.00  0.00     0.002 A 
HETATM   16  C11 UNL     1      -3.888   6.171  20.095  1.00  0.00     0.000 A 
HETATM   17  C12 UNL     1      -4.935   5.288  20.180  1.00  0.00     0.002 A 
HETATM   18  C13 UNL     1      -4.782   3.952  19.792  1.00  0.00     0.029 A 
ENDBRANCH   5  13
TORSDOF 2
ENDMDL
