MODEL 4
REMARK VINA RESULT: -10.448274009      0.356      1.220
REMARK  2 active torsions:
REMARK  status: ('A' for Active; 'I' for Inactive)
REMARK       I    between atoms: C1_2  and  N1_3 
REMARK       I    between atoms: C1_2  and  N2_11 
REMARK    1  A    between atoms: N1_3  and  C2_5 
REMARK    2  A    between atoms: N2_11  and  C8_13 
ROOT
HETATM    1  O1  UNL     1      -5.167   1.578  20.094  1.00  0.00    -0.247 OA
HETATM    2  C1  UNL     1      -3.995   1.188  19.970  1.00  0.00     0.325 C 
HETATM    3  N1  UNL     1      -3.743  -0.218  19.999  1.00  0.00    -0.309 N 
ATOM      4  H1  UNL     1      -2.772  -0.512  19.898  1.00  0.00     0.170 HD
HETATM    5  N2  UNL     1      -2.934   2.107  19.805  1.00  0.00    -0.309 N 
ATOM      6  H2  UNL     1      -1.994   1.725  19.706  1.00  0.00     0.170 HD
ENDROOT
BRANCH   3   7
HETATM    7  C2  UNL     1      -4.695  -1.229  20.151  1.00  0.00     0.036 A 
HETATM    8  C3  UNL     1      -5.011  -1.964  19.002  1.00  0.00     0.029 A 
HETATM    9  C4  UNL     1      -5.927  -2.985  18.972  1.00  0.00     0.002 A 
HETATM   10  C5  UNL     1      -6.563  -3.285  20.165  1.00  0.00     0.000 A 
HETATM   11  C6  UNL     1      -6.280  -2.583  21.323  1.00  0.00     0.002 A 
HETATM   12  C7  UNL     1      -5.341  -1.553  21.305  1.00  0.00     0.029 A 
ENDBRANCH   3   7
BRANCH   5  13
HETATM   13  C8  UNL     1      -3.070   3.511  19.768  1.00  0.00     0.036 A 
HETATM   14  C9  UNL     1      -1.947   4.294  19.443  1.00  0.00     0.029 A 
HETATM   15  C10 UNL     1      -2.004   5.659  19.398  1.00  0.00     0.002 A 
HETATM   16  C11 UNL     1      -3.152   6.362  19.665  1.00  0.00     0.000 A 
HETATM   17  C12 UNL     1      -4.263   5.623  19.986  1.00  0.00     0.002 A 
HETATM   18  C13 UNL     1      -4.207   4.226  20.033  1.00  0.00     0.029 A 
ENDBRANCH   5  13
TORSDOF 2
ENDMDL
