MODEL 5
REMARK VINA RESULT: -9.186599836      0.984      1.263
REMARK  4 active torsions:
REMARK  status: ('A' for Active; 'I' for Inactive)
REMARK    1  A    between atoms: C3_5  and  O3_6 
REMARK    2  A    between atoms: C4_8  and  O4_9 
REMARK    3  A    between atoms: C9_17  and  O7_18 
REMARK    4  A    between atoms: C10_20  and  O8_21 
ROOT
HETATM    1  O1  UNL     1      38.082  -5.964   6.441  1.00  0.00    -0.259 OA
HETATM    2  C1  UNL     1      37.613  -5.730   7.589  1.00  0.00     0.299 A 
HETATM    3  O2  UNL     1      37.474  -4.497   8.042  1.00  0.00    -0.271 OA
HETATM    4  C2  UNL     1      36.995  -4.208   9.221  1.00  0.00     0.127 A 
HETATM    5  C3  UNL     1      36.845  -2.929   9.707  1.00  0.00     0.134 A 
HETATM    6  C4  UNL     1      36.333  -2.666  10.961  1.00  0.00     0.102 A 
HETATM    7  C5  UNL     1      35.955  -3.736  11.767  1.00  0.00     0.058 A 
HETATM    8  C6  UNL     1      36.104  -5.025  11.283  1.00  0.00     0.056 A 
HETATM    9  C7  UNL     1      35.752  -6.144  12.022  1.00  0.00     0.299 A 
HETATM   10  O5  UNL     1      35.280  -5.902  13.178  1.00  0.00    -0.259 OA
HETATM   11  O6  UNL     1      35.889  -7.377  11.573  1.00  0.00    -0.271 OA
HETATM   12  C8  UNL     1      36.372  -7.648  10.386  1.00  0.00     0.127 A 
HETATM   13  C9  UNL     1      36.515  -8.955   9.918  1.00  0.00     0.134 A 
HETATM   14  C10 UNL     1      37.029  -9.201   8.659  1.00  0.00     0.102 A 
HETATM   15  C11 UNL     1      37.404  -8.141   7.860  1.00  0.00     0.058 A 
HETATM   16  C12 UNL     1      37.257  -6.837   8.338  1.00  0.00     0.056 A 
HETATM   17  C13 UNL     1      36.745  -6.583   9.593  1.00  0.00     0.031 A 
HETATM   18  C14 UNL     1      36.620  -5.271  10.021  1.00  0.00     0.031 A 
ENDROOT
BRANCH   5  19
HETATM   19  O3  UNL     1      37.217  -1.857   8.917  1.00  0.00    -0.356 OA
ATOM     20  H3  UNL     1      36.785  -1.724   8.082  1.00  0.00     0.218 HD
ENDBRANCH   5  19
BRANCH   6  21
HETATM   21  O4  UNL     1      36.183  -1.362  11.447  1.00  0.00    -0.358 OA
ATOM     22  H4  UNL     1      35.925  -0.640  10.886  1.00  0.00     0.217 HD
ENDBRANCH   6  21
BRANCH  13  23
HETATM   23  O7  UNL     1      36.140 -10.024  10.716  1.00  0.00    -0.356 OA
ATOM     24  H7  UNL     1      35.376  -9.955  11.277  1.00  0.00     0.218 HD
ENDBRANCH  13  23
BRANCH  14  25
HETATM   25  O8  UNL     1      37.152 -10.521   8.234  1.00  0.00    -0.358 OA
ATOM     26  H8  UNL     1      37.327 -10.690   7.316  1.00  0.00     0.217 HD
ENDBRANCH  14  25
TORSDOF 4
ENDMDL
