MODEL 4
REMARK VINA RESULT: -9.196484643      0.932      6.159
REMARK  4 active torsions:
REMARK  status: ('A' for Active; 'I' for Inactive)
REMARK    1  A    between atoms: C3_5  and  O3_6 
REMARK    2  A    between atoms: C4_8  and  O4_9 
REMARK    3  A    between atoms: C9_17  and  O7_18 
REMARK    4  A    between atoms: C10_20  and  O8_21 
ROOT
HETATM    1  O1  UNL     1      35.260  -5.745  13.252  1.00  0.00    -0.259 OA
HETATM    2  C1  UNL     1      35.732  -6.021  12.115  1.00  0.00     0.299 A 
HETATM    3  O2  UNL     1      35.867  -7.271  11.708  1.00  0.00    -0.271 OA
HETATM    4  C2  UNL     1      36.351  -7.605  10.542  1.00  0.00     0.127 A 
HETATM    5  C3  UNL     1      36.498  -8.901  10.104  1.00  0.00     0.134 A 
HETATM    6  C4  UNL     1      37.014  -9.212   8.862  1.00  0.00     0.102 A 
HETATM    7  C5  UNL     1      37.401  -8.173   8.019  1.00  0.00     0.058 A 
HETATM    8  C6  UNL     1      37.254  -6.867   8.456  1.00  0.00     0.056 A 
HETATM    9  C7  UNL     1      37.616  -5.777   7.678  1.00  0.00     0.299 A 
HETATM   10  O5  UNL     1      38.090  -6.063   6.534  1.00  0.00    -0.259 OA
HETATM   11  O6  UNL     1      37.482  -4.528   8.081  1.00  0.00    -0.271 OA
HETATM   12  C8  UNL     1      36.994  -4.212   9.256  1.00  0.00     0.127 A 
HETATM   13  C9  UNL     1      36.856  -2.889   9.676  1.00  0.00     0.134 A 
HETATM   14  C10 UNL     1      36.337  -2.595  10.923  1.00  0.00     0.102 A 
HETATM   15  C11 UNL     1      35.953  -3.623  11.758  1.00  0.00     0.058 A 
HETATM   16  C12 UNL     1      36.096  -4.944  11.328  1.00  0.00     0.056 A 
HETATM   17  C13 UNL     1      36.613  -5.246  10.086  1.00  0.00     0.031 A 
HETATM   18  C14 UNL     1      36.734  -6.573   9.706  1.00  0.00     0.031 A 
ENDROOT
BRANCH   5  19
HETATM   19  O3  UNL     1      36.118  -9.942  10.930  1.00  0.00    -0.356 OA
ATOM     20  H3  UNL     1      36.416  -9.952  11.832  1.00  0.00     0.218 HD
ENDBRANCH   5  19
BRANCH   6  21
HETATM   21  O4  UNL     1      37.159 -10.533   8.424  1.00  0.00    -0.358 OA
ATOM     22  H4  UNL     1      37.632 -11.184   8.929  1.00  0.00     0.217 HD
ENDBRANCH   6  21
BRANCH  13  23
HETATM   23  O7  UNL     1      37.239  -1.851   8.841  1.00  0.00    -0.356 OA
ATOM     24  H7  UNL     1      37.687  -1.092   9.198  1.00  0.00     0.218 HD
ENDBRANCH  13  23
BRANCH  14  25
HETATM   25  O8  UNL     1      36.217  -1.259  11.298  1.00  0.00    -0.358 OA
ATOM     26  H8  UNL     1      36.496  -1.004  12.169  1.00  0.00     0.217 HD
ENDBRANCH  14  25
TORSDOF 4
ENDMDL
