MODEL 20
REMARK VINA RESULT: -8.403669720      1.794      5.948
REMARK  4 active torsions:
REMARK  status: ('A' for Active; 'I' for Inactive)
REMARK    1  A    between atoms: C3_5  and  O3_6 
REMARK    2  A    between atoms: C4_8  and  O4_9 
REMARK    3  A    between atoms: C9_17  and  O7_18 
REMARK    4  A    between atoms: C10_20  and  O8_21 
ROOT
HETATM    1  O1  UNL     1      36.097  -6.146  12.124  1.00  0.00    -0.259 OA
HETATM    2  C1  UNL     1      36.435  -5.688  10.997  1.00  0.00     0.299 A 
HETATM    3  O2  UNL     1      36.767  -6.487   9.998  1.00  0.00    -0.271 OA
HETATM    4  C2  UNL     1      37.123  -6.059   8.817  1.00  0.00     0.127 A 
HETATM    5  C3  UNL     1      37.471  -6.878   7.766  1.00  0.00     0.134 A 
HETATM    6  C4  UNL     1      37.843  -6.385   6.532  1.00  0.00     0.102 A 
HETATM    7  C5  UNL     1      37.866  -5.006   6.342  1.00  0.00     0.058 A 
HETATM    8  C6  UNL     1      37.516  -4.179   7.396  1.00  0.00     0.056 A 
HETATM    9  C7  UNL     1      37.514  -2.796   7.288  1.00  0.00     0.299 A 
HETATM   10  O5  UNL     1      37.855  -2.341   6.150  1.00  0.00    -0.259 OA
HETATM   11  O6  UNL     1      37.184  -1.996   8.284  1.00  0.00    -0.271 OA
HETATM   12  C8  UNL     1      36.829  -2.444   9.462  1.00  0.00     0.127 A 
HETATM   13  C9  UNL     1      36.481  -1.591  10.512  1.00  0.00     0.134 A 
HETATM   14  C10 UNL     1      36.111  -2.101  11.742  1.00  0.00     0.102 A 
HETATM   15  C11 UNL     1      36.087  -3.467  11.931  1.00  0.00     0.058 A 
HETATM   16  C12 UNL     1      36.437  -4.311  10.875  1.00  0.00     0.056 A 
HETATM   17  C13 UNL     1      36.808  -3.811   9.645  1.00  0.00     0.031 A 
HETATM   18  C14 UNL     1      37.146  -4.690   8.629  1.00  0.00     0.031 A 
ENDROOT
BRANCH   5  19
HETATM   19  O3  UNL     1      37.452  -8.249   7.942  1.00  0.00    -0.356 OA
ATOM     20  H3  UNL     1      38.156  -8.773   7.579  1.00  0.00     0.218 HD
ENDBRANCH   5  19
BRANCH   6  21
HETATM   21  O4  UNL     1      38.194  -7.224   5.469  1.00  0.00    -0.358 OA
ATOM     22  H4  UNL     1      39.092  -7.315   5.171  1.00  0.00     0.217 HD
ENDBRANCH   6  21
BRANCH  13  23
HETATM   23  O7  UNL     1      36.502  -0.218  10.327  1.00  0.00    -0.356 OA
ATOM     24  H7  UNL     1      35.709   0.292  10.448  1.00  0.00     0.218 HD
ENDBRANCH  13  23
BRANCH  14  25
HETATM   25  O8  UNL     1      35.771  -1.212  12.758  1.00  0.00    -0.358 OA
ATOM     26  H8  UNL     1      34.933  -0.767  12.712  1.00  0.00     0.217 HD
ENDBRANCH  14  25
TORSDOF 4
ENDMDL
