MODEL 12
REMARK VINA RESULT: -9.015195124      1.346      2.174
REMARK  4 active torsions:
REMARK  status: ('A' for Active; 'I' for Inactive)
REMARK    1  A    between atoms: C3_5  and  O3_6 
REMARK    2  A    between atoms: C4_8  and  O4_9 
REMARK    3  A    between atoms: C9_17  and  O7_18 
REMARK    4  A    between atoms: C10_20  and  O8_21 
ROOT
HETATM    1  O1  UNL     1      37.938  -3.660   6.650  1.00  0.00    -0.259 OA
HETATM    2  C1  UNL     1      37.483  -3.874   7.808  1.00  0.00     0.299 A 
HETATM    3  O2  UNL     1      37.219  -2.883   8.641  1.00  0.00    -0.271 OA
HETATM    4  C2  UNL     1      36.749  -3.056   9.846  1.00  0.00     0.127 A 
HETATM    5  C3  UNL     1      36.469  -2.035  10.726  1.00  0.00     0.134 A 
HETATM    6  C4  UNL     1      35.973  -2.261  11.994  1.00  0.00     0.102 A 
HETATM    7  C5  UNL     1      35.747  -3.574  12.399  1.00  0.00     0.058 A 
HETATM    8  C6  UNL     1      36.028  -4.605  11.518  1.00  0.00     0.056 A 
HETATM    9  C7  UNL     1      35.831  -5.938  11.845  1.00  0.00     0.299 A 
HETATM   10  O5  UNL     1      35.373  -6.147  13.013  1.00  0.00    -0.259 OA
HETATM   11  O6  UNL     1      36.094  -6.930  11.016  1.00  0.00    -0.271 OA
HETATM   12  C8  UNL     1      36.565  -6.736   9.809  1.00  0.00     0.127 A 
HETATM   13  C9  UNL     1      36.842  -7.790   8.937  1.00  0.00     0.134 A 
HETATM   14  C10 UNL     1      37.338  -7.547   7.670  1.00  0.00     0.102 A 
HETATM   15  C11 UNL     1      37.562  -6.246   7.267  1.00  0.00     0.058 A 
HETATM   16  C12 UNL     1      37.282  -5.199   8.148  1.00  0.00     0.056 A 
HETATM   17  C13 UNL     1      36.787  -5.434   9.413  1.00  0.00     0.031 A 
HETATM   18  C14 UNL     1      36.525  -4.360  10.249  1.00  0.00     0.031 A 
ENDROOT
BRANCH   5  19
HETATM   19  O3  UNL     1      36.688  -0.727  10.336  1.00  0.00    -0.356 OA
ATOM     20  H3  UNL     1      36.727  -0.046  10.996  1.00  0.00     0.218 HD
ENDBRANCH   5  19
BRANCH   6  21
HETATM   21  O4  UNL     1      35.689  -1.217  12.880  1.00  0.00    -0.358 OA
ATOM     22  H4  UNL     1      35.066  -1.312  13.591  1.00  0.00     0.217 HD
ENDBRANCH   6  21
BRANCH  13  23
HETATM   23  O7  UNL     1      36.619  -9.099   9.336  1.00  0.00    -0.356 OA
ATOM     24  H7  UNL     1      36.624  -9.323  10.259  1.00  0.00     0.218 HD
ENDBRANCH  13  23
BRANCH  14  25
HETATM   25  O8  UNL     1      37.598  -8.630   6.835  1.00  0.00    -0.358 OA
ATOM     26  H8  UNL     1      37.046  -8.761   6.074  1.00  0.00     0.217 HD
ENDBRANCH  14  25
TORSDOF 4
ENDMDL
