MODEL 13
REMARK VINA RESULT: -9.010453968      1.387      5.898
REMARK  4 active torsions:
REMARK  status: ('A' for Active; 'I' for Inactive)
REMARK    1  A    between atoms: C3_5  and  O3_6 
REMARK    2  A    between atoms: C4_8  and  O4_9 
REMARK    3  A    between atoms: C9_17  and  O7_18 
REMARK    4  A    between atoms: C10_20  and  O8_21 
ROOT
HETATM    1  O1  UNL     1      35.416  -6.250  12.889  1.00  0.00    -0.259 OA
HETATM    2  C1  UNL     1      35.869  -5.991  11.739  1.00  0.00     0.299 A 
HETATM    3  O2  UNL     1      36.150  -6.951  10.875  1.00  0.00    -0.271 OA
HETATM    4  C2  UNL     1      36.620  -6.731   9.678  1.00  0.00     0.127 A 
HETATM    5  C3  UNL     1      36.918  -7.720   8.767  1.00  0.00     0.134 A 
HETATM    6  C4  UNL     1      37.414  -7.445   7.508  1.00  0.00     0.102 A 
HETATM    7  C5  UNL     1      37.621  -6.117   7.146  1.00  0.00     0.058 A 
HETATM    8  C6  UNL     1      37.323  -5.119   8.059  1.00  0.00     0.056 A 
HETATM    9  C7  UNL     1      37.502  -3.773   7.776  1.00  0.00     0.299 A 
HETATM   10  O5  UNL     1      37.958  -3.520   6.617  1.00  0.00    -0.259 OA
HETATM   11  O6  UNL     1      37.222  -2.813   8.637  1.00  0.00    -0.271 OA
HETATM   12  C8  UNL     1      36.751  -3.052   9.836  1.00  0.00     0.127 A 
HETATM   13  C9  UNL     1      36.458  -2.031  10.741  1.00  0.00     0.134 A 
HETATM   14  C10 UNL     1      35.961  -2.323  11.997  1.00  0.00     0.102 A 
HETATM   15  C11 UNL     1      35.755  -3.639  12.357  1.00  0.00     0.058 A 
HETATM   16  C12 UNL     1      36.052  -4.653  11.444  1.00  0.00     0.056 A 
HETATM   17  C13 UNL     1      36.548  -4.370  10.188  1.00  0.00     0.031 A 
HETATM   18  C14 UNL     1      36.826  -5.412   9.319  1.00  0.00     0.031 A 
ENDROOT
BRANCH   5  19
HETATM   19  O3  UNL     1      36.717  -9.043   9.113  1.00  0.00    -0.356 OA
ATOM     20  H3  UNL     1      36.735  -9.708   8.436  1.00  0.00     0.218 HD
ENDBRANCH   5  19
BRANCH   6  21
HETATM   21  O4  UNL     1      37.713  -8.456   6.588  1.00  0.00    -0.358 OA
ATOM     22  H4  UNL     1      37.418  -8.421   5.686  1.00  0.00     0.217 HD
ENDBRANCH   6  21
BRANCH  13  23
HETATM   23  O7  UNL     1      36.663  -0.707  10.385  1.00  0.00    -0.356 OA
ATOM     24  H7  UNL     1      35.955  -0.078  10.463  1.00  0.00     0.218 HD
ENDBRANCH  13  23
BRANCH  14  25
HETATM   25  O8  UNL     1      35.683  -1.271  12.866  1.00  0.00    -0.358 OA
ATOM     26  H8  UNL     1      35.570  -1.462  13.790  1.00  0.00     0.217 HD
ENDBRANCH  14  25
TORSDOF 4
ENDMDL
