MODEL 20
REMARK VINA RESULT: -8.770850700      2.618      4.031
REMARK  8 active torsions:
REMARK  status: ('A' for Active; 'I' for Inactive)
REMARK    1  A    between atoms: N5_13  and  C6_14 
REMARK    2  A    between atoms: C7_16  and  C8_17 
REMARK    3  A    between atoms: C8_17  and  O2_18 
REMARK    4  A    between atoms: O2_18  and  P1_19 
REMARK    5  A    between atoms: P1_19  and  O5_22 
REMARK    6  A    between atoms: O5_22  and  P2_23 
REMARK    7  A    between atoms: C9_27  and  O9_28 
REMARK    8  A    between atoms: C10_30  and  O10_31 
ROOT
HETATM    1  C6  UNL     1     -16.445   9.618  29.272  1.00  0.00     0.262 C 
HETATM    2  O1  UNL     1     -15.630   8.740  28.558  1.00  0.00    -0.353 OA
HETATM    3  C7  UNL     1     -16.577   8.094  27.765  1.00  0.00     0.180 C 
HETATM    4  C9  UNL     1     -17.466   9.172  27.208  1.00  0.00     0.182 C 
HETATM    5  C10 UNL     1     -17.160  10.341  28.154  1.00  0.00     0.198 C 
ENDROOT
BRANCH   1   6
HETATM    6  N5  UNL     1     -15.703  10.498  30.129  1.00  0.00    -0.297 N 
HETATM    7  C3  UNL     1     -16.230  11.084  31.225  1.00  0.00     0.142 A 
HETATM    8  N3  UNL     1     -17.469  11.020  31.770  1.00  0.00    -0.336 N 
HETATM    9  C4  UNL     1     -15.270  11.865  31.833  1.00  0.00     0.119 A 
HETATM   10  C2  UNL     1     -17.803  11.693  32.888  1.00  0.00     0.183 A 
ATOM     11  H3  UNL     1     -18.175  10.441  31.317  1.00  0.00     0.168 HD
HETATM   12  N2  UNL     1     -16.877  12.445  33.472  1.00  0.00    -0.339 N 
HETATM   13  C1  UNL     1     -15.622  12.546  32.971  1.00  0.00     0.148 A 
ATOM     14  H2  UNL     1     -17.116  12.961  34.319  1.00  0.00     0.167 HD
HETATM   15  N1  UNL     1     -14.680  13.349  33.620  1.00  0.00    -0.080 NA
HETATM   16  N4  UNL     1     -14.167  11.728  31.076  1.00  0.00    -0.346 N 
HETATM   17  C5  UNL     1     -14.441  10.901  30.050  1.00  0.00     0.188 A 
ATOM     18  H4  UNL     1     -13.269  12.179  31.250  1.00  0.00     0.167 HD
ENDBRANCH   1   6
BRANCH   5  19
HETATM   19  O10 UNL     1     -18.311  10.975  28.558  1.00  0.00    -0.388 OA
ATOM     20  H10 UNL     1     -18.473  11.793  28.104  1.00  0.00     0.210 HD
ENDBRANCH   5  19
BRANCH   3  21
HETATM   21  C8  UNL     1     -15.934   7.257  26.683  1.00  0.00     0.216 C 
BRANCH  21  22
HETATM   22  O2  UNL     1     -16.219   5.951  26.934  1.00  0.00    -0.287 OA
BRANCH  22  23
HETATM   23  P1  UNL     1     -17.709   5.393  26.552  1.00  0.00     0.418 P 
HETATM   24  O3  UNL     1     -17.270   3.930  26.514  1.00  0.00    -0.624 OA
HETATM   25  O4  UNL     1     -18.748   4.985  27.859  1.00  0.00    -0.624 OA
BRANCH  23  26
HETATM   26  O5  UNL     1     -18.281   5.411  25.049  1.00  0.00    -0.173 OA
BRANCH  26  27
HETATM   27  P2  UNL     1     -19.605   4.508  24.678  1.00  0.00     0.431 P 
HETATM   28  O6  UNL     1     -21.038   4.832  25.352  1.00  0.00    -0.616 OA
HETATM   29  O7  UNL     1     -19.390   3.099  23.770  1.00  0.00    -0.616 OA
HETATM   30  O8  UNL     1     -19.804   5.277  23.371  1.00  0.00    -0.616 OA
ENDBRANCH  26  27
ENDBRANCH  23  26
ENDBRANCH  22  23
ENDBRANCH  21  22
ENDBRANCH   3  21
BRANCH   4  31
HETATM   31  O9  UNL     1     -18.817   8.860  27.420  1.00  0.00    -0.390 OA
ATOM     32  H9  UNL     1     -19.335   9.652  27.504  1.00  0.00     0.210 HD
ENDBRANCH   4  31
TORSDOF 8
ENDMDL
