MODEL 2
REMARK VINA RESULT: -9.695334970      1.343      3.050
REMARK  8 active torsions:
REMARK  status: ('A' for Active; 'I' for Inactive)
REMARK    1  A    between atoms: N5_13  and  C6_14 
REMARK    2  A    between atoms: C7_16  and  C8_17 
REMARK    3  A    between atoms: C8_17  and  O2_18 
REMARK    4  A    between atoms: O2_18  and  P1_19 
REMARK    5  A    between atoms: P1_19  and  O5_22 
REMARK    6  A    between atoms: O5_22  and  P2_23 
REMARK    7  A    between atoms: C9_27  and  O9_28 
REMARK    8  A    between atoms: C10_30  and  O10_31 
ROOT
HETATM    1  C6  UNL     1     -15.967   7.265  28.088  1.00  0.00     0.262 C 
HETATM    2  O1  UNL     1     -16.088   6.384  27.014  1.00  0.00    -0.353 OA
HETATM    3  C7  UNL     1     -16.890   5.393  27.579  1.00  0.00     0.180 C 
HETATM    4  C9  UNL     1     -17.998   6.110  28.302  1.00  0.00     0.182 C 
HETATM    5  C10 UNL     1     -17.416   7.525  28.428  1.00  0.00     0.198 C 
ENDROOT
BRANCH   1   6
HETATM    6  N5  UNL     1     -15.243   8.459  27.754  1.00  0.00    -0.297 N 
HETATM    7  C3  UNL     1     -14.816   9.349  28.674  1.00  0.00     0.142 A 
HETATM    8  N3  UNL     1     -14.934   9.372  30.024  1.00  0.00    -0.336 N 
HETATM    9  C4  UNL     1     -14.156  10.380  28.042  1.00  0.00     0.119 A 
HETATM   10  C2  UNL     1     -14.430  10.368  30.778  1.00  0.00     0.183 A 
ATOM     11  H3  UNL     1     -15.423   8.606  30.487  1.00  0.00     0.168 HD
HETATM   12  N2  UNL     1     -13.795  11.361  30.165  1.00  0.00    -0.339 N 
HETATM   13  C1  UNL     1     -13.646  11.389  28.819  1.00  0.00     0.148 A 
ATOM     14  H2  UNL     1     -13.408  12.123  30.723  1.00  0.00     0.167 HD
HETATM   15  N1  UNL     1     -12.969  12.455  28.219  1.00  0.00    -0.080 NA
HETATM   16  N4  UNL     1     -14.201  10.082  26.732  1.00  0.00    -0.346 N 
HETATM   17  C5  UNL     1     -14.860   8.919  26.571  1.00  0.00     0.188 A 
ATOM     18  H4  UNL     1     -13.800  10.645  25.981  1.00  0.00     0.167 HD
ENDBRANCH   1   6
BRANCH   5  19
HETATM   19  O10 UNL     1     -17.601   8.033  29.692  1.00  0.00    -0.388 OA
ATOM     20  H10 UNL     1     -18.500   7.981  29.994  1.00  0.00     0.210 HD
ENDBRANCH   5  19
BRANCH   3  21
HETATM   21  C8  UNL     1     -17.407   4.423  26.543  1.00  0.00     0.216 C 
BRANCH  21  22
HETATM   22  O2  UNL     1     -18.249   5.098  25.715  1.00  0.00    -0.287 OA
BRANCH  22  23
HETATM   23  P1  UNL     1     -19.327   4.239  24.834  1.00  0.00     0.418 P 
HETATM   24  O3  UNL     1     -19.132   5.079  23.573  1.00  0.00    -0.624 OA
HETATM   25  O4  UNL     1     -18.721   2.891  23.956  1.00  0.00    -0.624 OA
BRANCH  23  26
HETATM   26  O5  UNL     1     -20.914   4.485  24.928  1.00  0.00    -0.173 OA
BRANCH  26  27
HETATM   27  P2  UNL     1     -21.524   5.333  26.199  1.00  0.00     0.431 P 
HETATM   28  O6  UNL     1     -20.967   6.809  26.549  1.00  0.00    -0.616 OA
HETATM   29  O7  UNL     1     -22.568   4.541  27.267  1.00  0.00    -0.616 OA
HETATM   30  O8  UNL     1     -22.743   5.753  25.376  1.00  0.00    -0.616 OA
ENDBRANCH  26  27
ENDBRANCH  23  26
ENDBRANCH  22  23
ENDBRANCH  21  22
ENDBRANCH   3  21
BRANCH   4  31
HETATM   31  O9  UNL     1     -18.122   5.636  29.615  1.00  0.00    -0.390 OA
ATOM     32  H9  UNL     1     -17.269   5.434  29.981  1.00  0.00     0.210 HD
ENDBRANCH   4  31
TORSDOF 8
ENDMDL
