MODEL 5
REMARK VINA RESULT: -9.256353793      1.783      3.070
REMARK  8 active torsions:
REMARK  status: ('A' for Active; 'I' for Inactive)
REMARK    1  A    between atoms: N5_13  and  C6_14 
REMARK    2  A    between atoms: C7_16  and  C8_17 
REMARK    3  A    between atoms: C8_17  and  O2_18 
REMARK    4  A    between atoms: O2_18  and  P1_19 
REMARK    5  A    between atoms: P1_19  and  O5_22 
REMARK    6  A    between atoms: O5_22  and  P2_23 
REMARK    7  A    between atoms: C9_27  and  O9_28 
REMARK    8  A    between atoms: C10_30  and  O10_31 
ROOT
HETATM    1  C6  UNL     1     -16.425   7.159  27.729  1.00  0.00     0.262 C 
HETATM    2  O1  UNL     1     -16.837   6.335  26.681  1.00  0.00    -0.353 OA
HETATM    3  C7  UNL     1     -17.066   5.142  27.365  1.00  0.00     0.180 C 
HETATM    4  C9  UNL     1     -17.844   5.508  28.600  1.00  0.00     0.182 C 
HETATM    5  C10 UNL     1     -17.577   7.016  28.695  1.00  0.00     0.198 C 
ENDROOT
BRANCH   1   6
HETATM    6  N5  UNL     1     -16.199   8.516  27.317  1.00  0.00    -0.297 N 
HETATM    7  C3  UNL     1     -15.735   8.853  26.095  1.00  0.00     0.142 A 
HETATM    8  N3  UNL     1     -15.389   8.096  25.026  1.00  0.00    -0.336 N 
HETATM    9  C4  UNL     1     -15.628  10.224  26.008  1.00  0.00     0.119 A 
HETATM   10  C2  UNL     1     -14.940   8.632  23.875  1.00  0.00     0.183 A 
ATOM     11  H3  UNL     1     -15.471   7.081  25.095  1.00  0.00     0.168 HD
HETATM   12  N2  UNL     1     -14.836   9.954  23.794  1.00  0.00    -0.339 N 
HETATM   13  C1  UNL     1     -15.170  10.759  24.831  1.00  0.00     0.148 A 
ATOM     14  H2  UNL     1     -14.497  10.374  22.928  1.00  0.00     0.167 HD
HETATM   15  N1  UNL     1     -15.045  12.145  24.699  1.00  0.00    -0.080 NA
HETATM   16  N4  UNL     1     -16.036  10.690  27.201  1.00  0.00    -0.346 N 
HETATM   17  C5  UNL     1     -16.378   9.649  27.983  1.00  0.00     0.188 A 
ATOM     18  H4  UNL     1     -16.080  11.673  27.470  1.00  0.00     0.167 HD
ENDBRANCH   1   6
BRANCH   5  19
HETATM   19  O10 UNL     1     -17.265   7.391  29.981  1.00  0.00    -0.388 OA
ATOM     20  H10 UNL     1     -18.004   7.353  30.576  1.00  0.00     0.210 HD
ENDBRANCH   5  19
BRANCH   3  21
HETATM   21  C8  UNL     1     -17.786   4.127  26.507  1.00  0.00     0.216 C 
BRANCH  21  22
HETATM   22  O2  UNL     1     -18.298   4.775  25.426  1.00  0.00    -0.287 OA
BRANCH  22  23
HETATM   23  P1  UNL     1     -19.550   4.086  24.629  1.00  0.00     0.418 P 
HETATM   24  O3  UNL     1     -19.397   4.975  23.397  1.00  0.00    -0.624 OA
HETATM   25  O4  UNL     1     -19.191   2.737  23.627  1.00  0.00    -0.624 OA
BRANCH  23  26
HETATM   26  O5  UNL     1     -21.082   4.491  24.909  1.00  0.00    -0.173 OA
BRANCH  26  27
HETATM   27  P2  UNL     1     -21.468   5.270  26.306  1.00  0.00     0.431 P 
HETATM   28  O6  UNL     1     -20.654   6.588  26.767  1.00  0.00    -0.616 OA
HETATM   29  O7  UNL     1     -22.565   4.534  27.361  1.00  0.00    -0.616 OA
HETATM   30  O8  UNL     1     -22.646   5.971  25.628  1.00  0.00    -0.616 OA
ENDBRANCH  26  27
ENDBRANCH  23  26
ENDBRANCH  22  23
ENDBRANCH  21  22
ENDBRANCH   3  21
BRANCH   4  31
HETATM   31  O9  UNL     1     -17.253   4.948  29.742  1.00  0.00    -0.390 OA
ATOM     32  H9  UNL     1     -17.529   4.046  29.855  1.00  0.00     0.210 HD
ENDBRANCH   4  31
TORSDOF 8
ENDMDL
