MODEL 4
REMARK VINA RESULT: -9.499575107      1.405      3.123
REMARK  8 active torsions:
REMARK  status: ('A' for Active; 'I' for Inactive)
REMARK    1  A    between atoms: N5_13  and  C6_14 
REMARK    2  A    between atoms: C7_16  and  C8_17 
REMARK    3  A    between atoms: C8_17  and  O2_18 
REMARK    4  A    between atoms: O2_18  and  P1_19 
REMARK    5  A    between atoms: P1_19  and  O5_22 
REMARK    6  A    between atoms: O5_22  and  P2_23 
REMARK    7  A    between atoms: C9_27  and  O9_28 
REMARK    8  A    between atoms: C10_30  and  O10_31 
ROOT
HETATM    1  C6  UNL     1     -16.394   8.200  27.332  1.00  0.00     0.262 C 
HETATM    2  O1  UNL     1     -16.292   7.266  26.302  1.00  0.00    -0.353 OA
HETATM    3  C7  UNL     1     -17.328   6.395  26.637  1.00  0.00     0.180 C 
HETATM    4  C9  UNL     1     -18.512   7.261  26.971  1.00  0.00     0.182 C 
HETATM    5  C10 UNL     1     -17.841   8.619  27.216  1.00  0.00     0.198 C 
ENDROOT
BRANCH   1   6
HETATM    6  N5  UNL     1     -15.476   9.295  27.188  1.00  0.00    -0.297 N 
HETATM    7  C3  UNL     1     -14.992   9.999  28.232  1.00  0.00     0.142 A 
HETATM    8  N3  UNL     1     -15.207   9.890  29.566  1.00  0.00    -0.336 N 
HETATM    9  C4  UNL     1     -14.139  10.977  27.769  1.00  0.00     0.119 A 
HETATM   10  C2  UNL     1     -14.618  10.704  30.463  1.00  0.00     0.183 A 
ATOM     11  H3  UNL     1     -15.838   9.164  29.904  1.00  0.00     0.168 HD
HETATM   12  N2  UNL     1     -13.797  11.647  30.013  1.00  0.00    -0.339 N 
HETATM   13  C1  UNL     1     -13.545  11.801  28.691  1.00  0.00     0.148 A 
ATOM     14  H2  UNL     1     -13.344  12.272  30.681  1.00  0.00     0.167 HD
HETATM   15  N1  UNL     1     -12.672  12.807  28.265  1.00  0.00    -0.080 NA
HETATM   16  N4  UNL     1     -14.129  10.837  26.432  1.00  0.00    -0.346 N 
HETATM   17  C5  UNL     1     -14.940   9.818  26.093  1.00  0.00     0.188 A 
ATOM     18  H4  UNL     1     -13.593  11.411  25.780  1.00  0.00     0.167 HD
ENDBRANCH   1   6
BRANCH   5  19
HETATM   19  O10 UNL     1     -18.330   9.224  28.350  1.00  0.00    -0.388 OA
ATOM     20  H10 UNL     1     -18.252  10.171  28.338  1.00  0.00     0.210 HD
ENDBRANCH   5  19
BRANCH   3  21
HETATM   21  C8  UNL     1     -17.623   5.413  25.527  1.00  0.00     0.216 C 
BRANCH  21  22
HETATM   22  O2  UNL     1     -18.688   4.655  25.906  1.00  0.00    -0.287 OA
BRANCH  22  23
HETATM   23  P1  UNL     1     -19.687   4.082  24.744  1.00  0.00     0.418 P 
HETATM   24  O3  UNL     1     -19.262   5.125  23.712  1.00  0.00    -0.624 OA
HETATM   25  O4  UNL     1     -19.054   2.875  23.697  1.00  0.00    -0.624 OA
BRANCH  23  26
HETATM   26  O5  UNL     1     -21.251   4.452  24.688  1.00  0.00    -0.173 OA
BRANCH  26  27
HETATM   27  P2  UNL     1     -21.933   5.265  25.945  1.00  0.00     0.431 P 
HETATM   28  O6  UNL     1     -21.544   6.806  26.239  1.00  0.00    -0.616 OA
HETATM   29  O7  UNL     1     -22.861   4.394  27.058  1.00  0.00    -0.616 OA
HETATM   30  O8  UNL     1     -23.206   5.515  25.135  1.00  0.00    -0.616 OA
ENDBRANCH  26  27
ENDBRANCH  23  26
ENDBRANCH  22  23
ENDBRANCH  21  22
ENDBRANCH   3  21
BRANCH   4  31
HETATM   31  O9  UNL     1     -19.067   6.888  28.204  1.00  0.00    -0.390 OA
ATOM     32  H9  UNL     1     -18.938   7.571  28.851  1.00  0.00     0.210 HD
ENDBRANCH   4  31
TORSDOF 8
ENDMDL
