MODEL 4
REMARK VINA RESULT: -8.089169962      3.764      5.964
REMARK  10 active torsions:
REMARK  status: ('A' for Active; 'I' for Inactive)
REMARK    1  A    between atoms: N1_2  and  C2_4 
REMARK    2  A    between atoms: C2_4  and  O1_5 
REMARK    3  A    between atoms: C2_4  and  N2_7 
REMARK    4  A    between atoms: N2_7  and  C3_8 
REMARK    5  A    between atoms: N2_7  and  C16_28 
REMARK    6  A    between atoms: C7_12  and  C8_13 
REMARK    7  A    between atoms: C9_15  and  C10_16 
REMARK    8  A    between atoms: C11_19  and  O4_20 
REMARK    9  A    between atoms: O4_20  and  C12_21 
REMARK   10  A    between atoms: C12_21  and  C13_22 
ROOT
HETATM    1  C3  UNL     1      44.246  11.044  -1.970  1.00  0.00     0.039 A 
HETATM    2  C4  UNL     1      44.192   9.764  -1.508  1.00  0.00     0.030 A 
HETATM    3  C5  UNL     1      44.405   9.526  -0.150  1.00  0.00     0.003 A 
HETATM    4  C6  UNL     1      44.664  10.602   0.669  1.00  0.00     0.013 A 
HETATM    5  C7  UNL     1      44.725  11.922   0.222  1.00  0.00    -0.015 A 
HETATM    6  C15 UNL     1      44.512  12.124  -1.109  1.00  0.00     0.042 A 
ENDROOT
BRANCH   5   7
HETATM    7  C8  UNL     1      45.003  12.995   1.156  1.00  0.00     0.036 A 
HETATM    8  S1  UNL     1      44.015  14.418   1.266  1.00  0.00    -0.078 SA
HETATM    9  C9  UNL     1      44.853  15.248   2.504  1.00  0.00     0.117 A 
HETATM   10  C11 UNL     1      45.878  14.395   2.792  1.00  0.00     0.112 A 
HETATM   11  C14 UNL     1      45.945  13.237   2.093  1.00  0.00     0.064 A 
HETATM   12 BR1  UNL     1      47.379  11.953   2.440  1.00  0.00    -0.047 Br
BRANCH   9  13
HETATM   13  C10 UNL     1      44.469  16.540   3.118  1.00  0.00     0.219 C 
HETATM   14  O2  UNL     1      44.426  17.536   2.372  1.00  0.00    -0.643 OA
HETATM   15  O3  UNL     1      44.164  16.667   4.445  1.00  0.00    -0.643 OA
ENDBRANCH   9  13
BRANCH  10  16
HETATM   16  O4  UNL     1      46.830  14.733   3.777  1.00  0.00    -0.338 OA
BRANCH  16  17
HETATM   17  C12 UNL     1      47.859  15.649   3.677  1.00  0.00     0.288 C 
BRANCH  17  18
HETATM   18  C13 UNL     1      47.869  16.709   4.647  1.00  0.00     0.198 C 
HETATM   19  O5  UNL     1      48.904  17.475   4.658  1.00  0.00    -0.646 OA
HETATM   20  O6  UNL     1      46.909  17.000   5.550  1.00  0.00    -0.646 OA
ENDBRANCH  17  18
ENDBRANCH  16  17
ENDBRANCH  10  16
ENDBRANCH   5   7
BRANCH   1  21
HETATM   21  N2  UNL     1      44.029  11.335  -3.380  1.00  0.00    -0.309 N 
BRANCH  21  22
HETATM   22  C2  UNL     1      45.152  11.755  -4.125  1.00  0.00     0.219 C 
BRANCH  22  23
HETATM   23  N1  UNL     1      45.330  12.971  -4.799  1.00  0.00    -0.360 N 
HETATM   24  C1  UNL     1      45.112  14.261  -4.135  1.00  0.00     0.150 C 
ATOM     25  H1  UNL     1      45.619  12.959  -5.777  1.00  0.00     0.162 HD
ENDBRANCH  22  23
BRANCH  22  26
HETATM   26  O1  UNL     1      46.173  10.955  -4.227  1.00  0.00    -0.332 OA
ATOM     27  H1  UNL     1      45.941  10.087  -4.536  1.00  0.00     0.220 HD
ENDBRANCH  22  26
ENDBRANCH  21  22
BRANCH  21  28
HETATM   28  C16 UNL     1      42.700  11.147  -3.828  1.00  0.00     0.093 C 
HETATM   29  C17 UNL     1      41.835  12.354  -3.958  1.00  0.00     0.026 C 
HETATM   30  C18 UNL     1      40.386  11.861  -3.975  1.00  0.00     0.002 C 
HETATM   31  C19 UNL     1      40.303  10.418  -4.349  1.00  0.00     0.000 C 
HETATM   32  C20 UNL     1      41.249   9.971  -5.411  1.00  0.00     0.002 C 
HETATM   33  C21 UNL     1      42.656  10.347  -5.099  1.00  0.00     0.026 C 
ENDBRANCH  21  28
ENDBRANCH   1  21
TORSDOF 10
ENDMDL
