MODEL 1
REMARK VINA RESULT: -8.211563678      0.000      0.000
REMARK  10 active torsions:
REMARK  status: ('A' for Active; 'I' for Inactive)
REMARK    1  A    between atoms: N1_2  and  C2_4 
REMARK    2  A    between atoms: C2_4  and  O1_5 
REMARK    3  A    between atoms: C2_4  and  N2_7 
REMARK    4  A    between atoms: N2_7  and  C3_8 
REMARK    5  A    between atoms: N2_7  and  C16_28 
REMARK    6  A    between atoms: C7_12  and  C8_13 
REMARK    7  A    between atoms: C9_15  and  C10_16 
REMARK    8  A    between atoms: C11_19  and  O4_20 
REMARK    9  A    between atoms: O4_20  and  C12_21 
REMARK   10  A    between atoms: C12_21  and  C13_22 
ROOT
HETATM    1  C3  UNL     1      47.241   9.312   0.453  1.00  0.00     0.039 A 
HETATM    2  C4  UNL     1      46.188   8.567   0.015  1.00  0.00     0.030 A 
HETATM    3  C5  UNL     1      44.913   9.132   0.020  1.00  0.00     0.003 A 
HETATM    4  C6  UNL     1      44.773  10.426   0.471  1.00  0.00     0.013 A 
HETATM    5  C7  UNL     1      45.833  11.210   0.924  1.00  0.00    -0.015 A 
HETATM    6  C15 UNL     1      47.068  10.632   0.908  1.00  0.00     0.042 A 
ENDROOT
BRANCH   5   7
HETATM    7  C8  UNL     1      45.594  12.565   1.382  1.00  0.00     0.036 A 
HETATM    8  S1  UNL     1      44.434  13.615   0.630  1.00  0.00    -0.078 SA
HETATM    9  C9  UNL     1      44.638  15.003   1.606  1.00  0.00     0.117 A 
HETATM   10  C11 UNL     1      45.604  14.610   2.485  1.00  0.00     0.112 A 
HETATM   11  C14 UNL     1      46.089  13.351   2.362  1.00  0.00     0.064 A 
HETATM   12 BR1  UNL     1      47.473  12.700   3.580  1.00  0.00    -0.047 Br
BRANCH   9  13
HETATM   13  C10 UNL     1      43.872  16.268   1.513  1.00  0.00     0.219 C 
HETATM   14  O2  UNL     1      42.927  16.305   0.703  1.00  0.00    -0.643 OA
HETATM   15  O3  UNL     1      44.162  17.366   2.275  1.00  0.00    -0.643 OA
ENDBRANCH   9  13
BRANCH  10  16
HETATM   16  O4  UNL     1      46.075  15.502   3.470  1.00  0.00    -0.338 OA
BRANCH  16  17
HETATM   17  C12 UNL     1      47.169  16.342   3.394  1.00  0.00     0.288 C 
BRANCH  17  18
HETATM   18  C13 UNL     1      47.584  16.968   4.620  1.00  0.00     0.198 C 
HETATM   19  O5  UNL     1      46.696  17.073   5.546  1.00  0.00    -0.646 OA
HETATM   20  O6  UNL     1      48.807  17.457   4.915  1.00  0.00    -0.646 OA
ENDBRANCH  17  18
ENDBRANCH  16  17
ENDBRANCH  10  16
ENDBRANCH   5   7
BRANCH   1  21
HETATM   21  N2  UNL     1      48.588   8.759   0.464  1.00  0.00    -0.309 N 
BRANCH  21  22
HETATM   22  C2  UNL     1      49.326   8.852  -0.736  1.00  0.00     0.219 C 
BRANCH  22  23
HETATM   23  N1  UNL     1      49.464   7.881  -1.737  1.00  0.00    -0.360 N 
HETATM   24  C1  UNL     1      48.947   6.518  -1.568  1.00  0.00     0.150 C 
ATOM     25  H1  UNL     1      49.937   8.129  -2.606  1.00  0.00     0.162 HD
ENDBRANCH  22  23
BRANCH  22  26
HETATM   26  O1  UNL     1      49.971   9.952  -0.991  1.00  0.00    -0.332 OA
ATOM     27  H1  UNL     1      49.460  10.583  -1.485  1.00  0.00     0.220 HD
ENDBRANCH  22  26
ENDBRANCH  21  22
BRANCH  21  28
HETATM   28  C16 UNL     1      48.991   8.198   1.699  1.00  0.00     0.093 C 
HETATM   29  C17 UNL     1      48.301   6.959   2.157  1.00  0.00     0.026 C 
HETATM   30  C18 UNL     1      48.550   6.841   3.662  1.00  0.00     0.002 C 
HETATM   31  C19 UNL     1      49.735   7.645   4.085  1.00  0.00     0.000 C 
HETATM   32  C20 UNL     1      50.889   7.640   3.141  1.00  0.00     0.002 C 
HETATM   33  C21 UNL     1      50.480   8.006   1.756  1.00  0.00     0.026 C 
ENDBRANCH  21  28
ENDBRANCH   1  21
TORSDOF 10
ENDMDL
