MODEL 5
REMARK VINA RESULT: -8.082996878      3.774      5.974
REMARK  10 active torsions:
REMARK  status: ('A' for Active; 'I' for Inactive)
REMARK    1  A    between atoms: N1_2  and  C2_4 
REMARK    2  A    between atoms: C2_4  and  O1_5 
REMARK    3  A    between atoms: C2_4  and  N2_7 
REMARK    4  A    between atoms: N2_7  and  C3_8 
REMARK    5  A    between atoms: N2_7  and  C16_28 
REMARK    6  A    between atoms: C7_12  and  C8_13 
REMARK    7  A    between atoms: C9_15  and  C10_16 
REMARK    8  A    between atoms: C11_19  and  O4_20 
REMARK    9  A    between atoms: O4_20  and  C12_21 
REMARK   10  A    between atoms: C12_21  and  C13_22 
ROOT
HETATM    1  C3  UNL     1      44.273  11.067  -2.016  1.00  0.00     0.039 A 
HETATM    2  C4  UNL     1      44.185   9.788  -1.557  1.00  0.00     0.030 A 
HETATM    3  C5  UNL     1      44.366   9.544  -0.195  1.00  0.00     0.003 A 
HETATM    4  C6  UNL     1      44.628  10.615   0.631  1.00  0.00     0.013 A 
HETATM    5  C7  UNL     1      44.724  11.933   0.188  1.00  0.00    -0.015 A 
HETATM    6  C15 UNL     1      44.542  12.142  -1.147  1.00  0.00     0.042 A 
ENDROOT
BRANCH   5   7
HETATM    7  C8  UNL     1      45.004  13.000   1.129  1.00  0.00     0.036 A 
HETATM    8  S1  UNL     1      44.016  14.423   1.250  1.00  0.00    -0.078 SA
HETATM    9  C9  UNL     1      44.856  15.243   2.492  1.00  0.00     0.117 A 
HETATM   10  C11 UNL     1      45.882  14.389   2.773  1.00  0.00     0.112 A 
HETATM   11  C14 UNL     1      45.948  13.235   2.066  1.00  0.00     0.064 A 
HETATM   12 BR1  UNL     1      47.382  11.949   2.401  1.00  0.00    -0.047 Br
BRANCH   9  13
HETATM   13  C10 UNL     1      44.473  16.531   3.116  1.00  0.00     0.219 C 
HETATM   14  O2  UNL     1      44.426  17.532   2.377  1.00  0.00    -0.643 OA
HETATM   15  O3  UNL     1      44.174  16.649   4.445  1.00  0.00    -0.643 OA
ENDBRANCH   9  13
BRANCH  10  16
HETATM   16  O4  UNL     1      46.835  14.719   3.758  1.00  0.00    -0.338 OA
BRANCH  16  17
HETATM   17  C12 UNL     1      47.869  15.631   3.660  1.00  0.00     0.288 C 
BRANCH  17  18
HETATM   18  C13 UNL     1      47.886  16.686   4.636  1.00  0.00     0.198 C 
HETATM   19  O5  UNL     1      48.921  17.452   4.643  1.00  0.00    -0.646 OA
HETATM   20  O6  UNL     1      46.933  16.973   5.548  1.00  0.00    -0.646 OA
ENDBRANCH  17  18
ENDBRANCH  16  17
ENDBRANCH  10  16
ENDBRANCH   5   7
BRANCH   1  21
HETATM   21  N2  UNL     1      44.090  11.364  -3.429  1.00  0.00    -0.309 N 
BRANCH  21  22
HETATM   22  C2  UNL     1      44.920  10.673  -4.339  1.00  0.00     0.219 C 
BRANCH  22  23
HETATM   23  N1  UNL     1      46.295  10.843  -4.548  1.00  0.00    -0.360 N 
HETATM   24  C1  UNL     1      46.944  12.149  -4.389  1.00  0.00     0.150 C 
ATOM     25  H1  UNL     1      46.859  10.037  -4.819  1.00  0.00     0.162 HD
ENDBRANCH  22  23
BRANCH  22  26
HETATM   26  O1  UNL     1      44.392   9.755  -5.096  1.00  0.00    -0.332 OA
ATOM     27  H1  UNL     1      44.451   8.882  -4.725  1.00  0.00     0.220 HD
ENDBRANCH  22  26
ENDBRANCH  21  22
BRANCH  21  28
HETATM   28  C16 UNL     1      43.083  12.317  -3.712  1.00  0.00     0.093 C 
HETATM   29  C17 UNL     1      43.344  13.301  -4.800  1.00  0.00     0.026 C 
HETATM   30  C18 UNL     1      42.377  14.467  -4.586  1.00  0.00     0.002 C 
HETATM   31  C19 UNL     1      41.214  14.065  -3.739  1.00  0.00     0.000 C 
HETATM   32  C20 UNL     1      40.680  12.695  -3.984  1.00  0.00     0.002 C 
HETATM   33  C21 UNL     1      41.749  11.659  -3.925  1.00  0.00     0.026 C 
ENDBRANCH  21  28
ENDBRANCH   1  21
TORSDOF 10
ENDMDL
