MODEL 3
REMARK VINA RESULT: -8.136765818      3.775      5.964
REMARK  10 active torsions:
REMARK  status: ('A' for Active; 'I' for Inactive)
REMARK    1  A    between atoms: N1_2  and  C2_4 
REMARK    2  A    between atoms: C2_4  and  O1_5 
REMARK    3  A    between atoms: C2_4  and  N2_7 
REMARK    4  A    between atoms: N2_7  and  C3_8 
REMARK    5  A    between atoms: N2_7  and  C16_28 
REMARK    6  A    between atoms: C7_12  and  C8_13 
REMARK    7  A    between atoms: C9_15  and  C10_16 
REMARK    8  A    between atoms: C11_19  and  O4_20 
REMARK    9  A    between atoms: O4_20  and  C12_21 
REMARK   10  A    between atoms: C12_21  and  C13_22 
ROOT
HETATM    1  C3  UNL     1      44.239  11.076  -1.980  1.00  0.00     0.039 A 
HETATM    2  C4  UNL     1      44.168   9.795  -1.522  1.00  0.00     0.030 A 
HETATM    3  C5  UNL     1      44.371   9.550  -0.164  1.00  0.00     0.003 A 
HETATM    4  C6  UNL     1      44.636  10.620   0.660  1.00  0.00     0.013 A 
HETATM    5  C7  UNL     1      44.713  11.941   0.219  1.00  0.00    -0.015 A 
HETATM    6  C15 UNL     1      44.511  12.150  -1.113  1.00  0.00     0.042 A 
ENDROOT
BRANCH   5   7
HETATM    7  C8  UNL     1      44.998  13.008   1.158  1.00  0.00     0.036 A 
HETATM    8  S1  UNL     1      44.015  14.435   1.277  1.00  0.00    -0.078 SA
HETATM    9  C9  UNL     1      44.859  15.254   2.517  1.00  0.00     0.117 A 
HETATM   10  C11 UNL     1      45.881  14.396   2.800  1.00  0.00     0.112 A 
HETATM   11  C14 UNL     1      45.942  13.241   2.095  1.00  0.00     0.064 A 
HETATM   12 BR1  UNL     1      47.371  11.949   2.433  1.00  0.00    -0.047 Br
BRANCH   9  13
HETATM   13  C10 UNL     1      44.481  16.545   3.139  1.00  0.00     0.219 C 
HETATM   14  O2  UNL     1      44.440  17.545   2.398  1.00  0.00    -0.643 OA
HETATM   15  O3  UNL     1      44.180  16.667   4.467  1.00  0.00    -0.643 OA
ENDBRANCH   9  13
BRANCH  10  16
HETATM   16  O4  UNL     1      46.835  14.724   3.785  1.00  0.00    -0.338 OA
BRANCH  16  17
HETATM   17  C12 UNL     1      47.875  15.629   3.684  1.00  0.00     0.288 C 
BRANCH  17  18
HETATM   18  C13 UNL     1      47.888  16.699   4.644  1.00  0.00     0.198 C 
HETATM   19  O5  UNL     1      48.924  17.463   4.647  1.00  0.00    -0.646 OA
HETATM   20  O6  UNL     1      46.929  17.000   5.546  1.00  0.00    -0.646 OA
ENDBRANCH  17  18
ENDBRANCH  16  17
ENDBRANCH  10  16
ENDBRANCH   5   7
BRANCH   1  21
HETATM   21  N2  UNL     1      44.033  11.373  -3.390  1.00  0.00    -0.309 N 
BRANCH  21  22
HETATM   22  C2  UNL     1      44.838  10.672  -4.314  1.00  0.00     0.219 C 
BRANCH  22  23
HETATM   23  N1  UNL     1      44.424   9.768  -5.301  1.00  0.00    -0.360 N 
HETATM   24  C1  UNL     1      43.584   8.608  -4.982  1.00  0.00     0.150 C 
ATOM     25  H1  UNL     1      44.716   9.920  -6.267  1.00  0.00     0.162 HD
ENDBRANCH  22  23
BRANCH  22  26
HETATM   26  O1  UNL     1      46.126  10.856  -4.289  1.00  0.00    -0.332 OA
ATOM     27  H1  UNL     1      46.378  11.717  -3.976  1.00  0.00     0.220 HD
ENDBRANCH  22  26
ENDBRANCH  21  22
BRANCH  21  28
HETATM   28  C16 UNL     1      43.031  12.337  -3.654  1.00  0.00     0.093 C 
HETATM   29  C17 UNL     1      43.304  13.349  -4.714  1.00  0.00     0.026 C 
HETATM   30  C18 UNL     1      42.339  14.512  -4.476  1.00  0.00     0.002 C 
HETATM   31  C19 UNL     1      41.168  14.092  -3.649  1.00  0.00     0.000 C 
HETATM   32  C20 UNL     1      40.632  12.731  -3.935  1.00  0.00     0.002 C 
HETATM   33  C21 UNL     1      41.696  11.691  -3.896  1.00  0.00     0.026 C 
ENDBRANCH  21  28
ENDBRANCH   1  21
TORSDOF 10
ENDMDL
