MODEL 11
REMARK VINA RESULT: -7.871897519      4.278      7.139
REMARK  8 active torsions:
REMARK  status: ('A' for Active; 'I' for Inactive)
REMARK    1  A    between atoms: C1_2  and  C2_4 
REMARK    2  A    between atoms: C2_4  and  O3_5 
REMARK    3  A    between atoms: O3_5  and  C3_6 
REMARK    4  A    between atoms: C4_7  and  C5_8 
REMARK    5  A    between atoms: C6_12  and  C7_13 
REMARK    6  A    between atoms: C11_17  and  N1_18 
REMARK       I    between atoms: N1_18  and  C12_19 
REMARK    7  A    between atoms: N1_18  and  C19_27 
REMARK    8  A    between atoms: C12_19  and  C13_21 
ROOT
HETATM    1  C7  UNL     1      45.764  11.398   1.106  1.00  0.00    -0.015 A 
HETATM    2  C8  UNL     1      44.787  10.695   0.502  1.00  0.00     0.013 A 
HETATM    3  C9  UNL     1      45.054   9.365   0.120  1.00  0.00     0.003 A 
HETATM    4  C10 UNL     1      46.288   8.808   0.364  1.00  0.00     0.030 A 
HETATM    5  C11 UNL     1      47.301   9.506   0.977  1.00  0.00     0.038 A 
HETATM    6  C25 UNL     1      46.994  10.804   1.335  1.00  0.00     0.042 A 
ENDROOT
BRANCH   5   7
HETATM    7  N1  UNL     1      48.571   8.924   1.230  1.00  0.00    -0.309 N 
HETATM    8  C12 UNL     1      49.572   9.121   0.240  1.00  0.00     0.258 C 
HETATM    9  O6  UNL     1      50.328  10.133   0.455  1.00  0.00    -0.267 OA
BRANCH   8  10
HETATM   10  C13 UNL     1      49.774   8.291  -0.932  1.00  0.00     0.032 A 
HETATM   11  C14 UNL     1      50.508   8.839  -1.966  1.00  0.00     0.017 A 
HETATM   12  C15 UNL     1      50.748   8.105  -3.098  1.00  0.00     0.001 A 
HETATM   13  C16 UNL     1      50.259   6.813  -3.219  1.00  0.00     0.000 A 
HETATM   14  C17 UNL     1      49.527   6.262  -2.188  1.00  0.00     0.001 A 
HETATM   15  C18 UNL     1      49.304   7.025  -1.064  1.00  0.00     0.017 A 
ENDBRANCH   8  10
BRANCH   7  16
HETATM   16  C19 UNL     1      48.843   8.183   2.437  1.00  0.00     0.093 C 
HETATM   17  C20 UNL     1      48.054   6.911   2.464  1.00  0.00     0.026 C 
HETATM   18  C21 UNL     1      48.493   6.006   3.610  1.00  0.00     0.002 C 
HETATM   19  C22 UNL     1      49.283   6.799   4.612  1.00  0.00     0.000 C 
HETATM   20  C23 UNL     1      50.529   7.353   3.978  1.00  0.00     0.002 C 
HETATM   21  C24 UNL     1      50.308   7.811   2.556  1.00  0.00     0.026 C 
ENDBRANCH   7  16
ENDBRANCH   5   7
BRANCH   1  22
HETATM   22  C6  UNL     1      45.582  12.792   1.551  1.00  0.00     0.036 A 
HETATM   23  S1  UNL     1      44.544  13.944   0.763  1.00  0.00    -0.078 SA
HETATM   24  C4  UNL     1      44.815  15.293   1.767  1.00  0.00     0.117 A 
HETATM   25  C3  UNL     1      45.698  14.824   2.691  1.00  0.00     0.112 A 
HETATM   26  C26 UNL     1      46.092  13.513   2.564  1.00  0.00     0.064 A 
HETATM   27 BR1  UNL     1      47.366  12.773   3.866  1.00  0.00    -0.047 Br
BRANCH  24  28
HETATM   28  C5  UNL     1      44.286  16.665   1.609  1.00  0.00     0.219 C 
HETATM   29  O4  UNL     1      43.064  16.835   1.614  1.00  0.00    -0.643 OA
HETATM   30  O5  UNL     1      45.152  17.713   1.463  1.00  0.00    -0.643 OA
ENDBRANCH  24  28
BRANCH  25  31
HETATM   31  O3  UNL     1      46.153  15.690   3.724  1.00  0.00    -0.338 OA
BRANCH  31  32
HETATM   32  C2  UNL     1      47.283  16.444   3.756  1.00  0.00     0.288 C 
BRANCH  32  33
HETATM   33  C1  UNL     1      47.669  17.109   4.993  1.00  0.00     0.198 C 
HETATM   34  O1  UNL     1      46.747  17.236   5.895  1.00  0.00    -0.646 OA
HETATM   35  O2  UNL     1      48.876  17.632   5.349  1.00  0.00    -0.646 OA
ENDBRANCH  32  33
ENDBRANCH  31  32
ENDBRANCH  25  31
ENDBRANCH   1  22
TORSDOF 8
ENDMDL
