MODEL 2
REMARK VINA RESULT: -8.345942441      1.945      2.863
REMARK  8 active torsions:
REMARK  status: ('A' for Active; 'I' for Inactive)
REMARK    1  A    between atoms: C1_2  and  C2_4 
REMARK    2  A    between atoms: C2_4  and  O3_5 
REMARK    3  A    between atoms: O3_5  and  C3_6 
REMARK    4  A    between atoms: C4_7  and  C5_8 
REMARK    5  A    between atoms: C6_12  and  C7_13 
REMARK    6  A    between atoms: C11_17  and  N1_18 
REMARK       I    between atoms: N1_18  and  C12_19 
REMARK    7  A    between atoms: N1_18  and  C19_27 
REMARK    8  A    between atoms: C12_19  and  C13_21 
ROOT
HETATM    1  C7  UNL     1      44.895  12.378   0.613  1.00  0.00    -0.015 A 
HETATM    2  C8  UNL     1      44.684  11.102   0.988  1.00  0.00     0.013 A 
HETATM    3  C9  UNL     1      44.468  10.135  -0.014  1.00  0.00     0.003 A 
HETATM    4  C10 UNL     1      44.475  10.497  -1.342  1.00  0.00     0.030 A 
HETATM    5  C11 UNL     1      44.687  11.793  -1.747  1.00  0.00     0.038 A 
HETATM    6  C25 UNL     1      44.895  12.706  -0.732  1.00  0.00     0.042 A 
ENDROOT
BRANCH   5   7
HETATM    7  N1  UNL     1      44.698  12.160  -3.119  1.00  0.00    -0.309 N 
HETATM    8  C12 UNL     1      45.964  12.480  -3.683  1.00  0.00     0.258 C 
HETATM    9  O6  UNL     1      46.547  11.492  -4.253  1.00  0.00    -0.267 OA
BRANCH   8  10
HETATM   10  C13 UNL     1      46.596  13.785  -3.653  1.00  0.00     0.032 A 
HETATM   11  C14 UNL     1      47.977  13.809  -3.613  1.00  0.00     0.017 A 
HETATM   12  C15 UNL     1      48.639  15.008  -3.595  1.00  0.00     0.001 A 
HETATM   13  C16 UNL     1      47.937  16.203  -3.615  1.00  0.00     0.000 A 
HETATM   14  C17 UNL     1      46.559  16.184  -3.655  1.00  0.00     0.001 A 
HETATM   15  C18 UNL     1      45.922  14.962  -3.673  1.00  0.00     0.017 A 
ENDBRANCH   8  10
BRANCH   7  16
HETATM   16  C19 UNL     1      43.493  12.193  -3.909  1.00  0.00     0.093 C 
HETATM   17  C20 UNL     1      42.562  13.254  -3.409  1.00  0.00     0.026 C 
HETATM   18  C21 UNL     1      41.391  13.463  -4.362  1.00  0.00     0.002 C 
HETATM   19  C22 UNL     1      41.277  12.292  -5.295  1.00  0.00     0.000 C 
HETATM   20  C23 UNL     1      42.519  12.170  -6.136  1.00  0.00     0.002 C 
HETATM   21  C24 UNL     1      43.779  12.492  -5.369  1.00  0.00     0.026 C 
ENDBRANCH   7  16
ENDBRANCH   5   7
BRANCH   1  22
HETATM   22  C6  UNL     1      45.139  13.462   1.583  1.00  0.00     0.036 A 
HETATM   23  S1  UNL     1      44.207  14.930   1.666  1.00  0.00    -0.078 SA
HETATM   24  C4  UNL     1      45.011  15.694   2.958  1.00  0.00     0.117 A 
HETATM   25  C3  UNL     1      45.978  14.799   3.300  1.00  0.00     0.112 A 
HETATM   26  C26 UNL     1      46.033  13.636   2.570  1.00  0.00     0.064 A 
HETATM   27 BR1  UNL     1      47.407  12.300   3.013  1.00  0.00    -0.047 Br
BRANCH  24  28
HETATM   28  C5  UNL     1      44.768  17.045   3.507  1.00  0.00     0.219 C 
HETATM   29  O4  UNL     1      44.835  18.017   2.750  1.00  0.00    -0.643 OA
HETATM   30  O5  UNL     1      44.474  17.194   4.835  1.00  0.00    -0.643 OA
ENDBRANCH  24  28
BRANCH  25  31
HETATM   31  O3  UNL     1      46.858  15.099   4.377  1.00  0.00    -0.338 OA
BRANCH  31  32
HETATM   32  C2  UNL     1      47.970  15.879   4.365  1.00  0.00     0.288 C 
BRANCH  32  33
HETATM   33  C1  UNL     1      48.047  17.035   5.248  1.00  0.00     0.198 C 
HETATM   34  O1  UNL     1      47.076  17.184   6.094  1.00  0.00    -0.646 OA
HETATM   35  O2  UNL     1      49.003  18.004   5.316  1.00  0.00    -0.646 OA
ENDBRANCH  32  33
ENDBRANCH  31  32
ENDBRANCH  25  31
ENDBRANCH   1  22
TORSDOF 8
ENDMDL
