MODEL 1
REMARK VINA RESULT: -8.453647119      0.000      0.000
REMARK  8 active torsions:
REMARK  status: ('A' for Active; 'I' for Inactive)
REMARK    1  A    between atoms: C1_2  and  C2_4 
REMARK    2  A    between atoms: C2_4  and  O3_5 
REMARK    3  A    between atoms: O3_5  and  C3_6 
REMARK    4  A    between atoms: C4_7  and  C5_8 
REMARK    5  A    between atoms: C6_12  and  C7_13 
REMARK    6  A    between atoms: C11_17  and  N1_18 
REMARK       I    between atoms: N1_18  and  C12_19 
REMARK    7  A    between atoms: N1_18  and  C19_27 
REMARK    8  A    between atoms: C12_19  and  C13_21 
ROOT
HETATM    1  C7  UNL     1      44.835  12.179   0.547  1.00  0.00    -0.015 A 
HETATM    2  C8  UNL     1      44.922  10.891   0.932  1.00  0.00     0.013 A 
HETATM    3  C9  UNL     1      44.630   9.888  -0.013  1.00  0.00     0.003 A 
HETATM    4  C10 UNL     1      44.267  10.226  -1.296  1.00  0.00     0.030 A 
HETATM    5  C11 UNL     1      44.172  11.534  -1.711  1.00  0.00     0.038 A 
HETATM    6  C25 UNL     1      44.467  12.483  -0.753  1.00  0.00     0.042 A 
ENDROOT
BRANCH   5   7
HETATM    7  N1  UNL     1      43.801  11.877  -3.038  1.00  0.00    -0.309 N 
HETATM    8  C12 UNL     1      43.758  13.264  -3.349  1.00  0.00     0.258 C 
HETATM    9  O6  UNL     1      44.843  13.721  -3.854  1.00  0.00    -0.267 OA
BRANCH   8  10
HETATM   10  C13 UNL     1      42.621  14.140  -3.140  1.00  0.00     0.032 A 
HETATM   11  C14 UNL     1      42.835  15.267  -2.370  1.00  0.00     0.017 A 
HETATM   12  C15 UNL     1      41.807  16.144  -2.143  1.00  0.00     0.001 A 
HETATM   13  C16 UNL     1      40.549  15.913  -2.677  1.00  0.00     0.000 A 
HETATM   14  C17 UNL     1      40.331  14.789  -3.446  1.00  0.00     0.001 A 
HETATM   15  C18 UNL     1      41.385  13.927  -3.657  1.00  0.00     0.017 A 
ENDBRANCH   8  10
BRANCH   7  16
HETATM   16  C19 UNL     1      43.500  10.874  -4.029  1.00  0.00     0.093 C 
HETATM   17  C20 UNL     1      42.077  10.424  -3.909  1.00  0.00     0.026 C 
HETATM   18  C21 UNL     1      41.671   9.540  -5.083  1.00  0.00     0.002 C 
HETATM   19  C22 UNL     1      42.896   9.041  -5.794  1.00  0.00     0.000 C 
HETATM   20  C23 UNL     1      43.683  10.194  -6.355  1.00  0.00     0.002 C 
HETATM   21  C24 UNL     1      43.694  11.396  -5.440  1.00  0.00     0.026 C 
ENDBRANCH   7  16
ENDBRANCH   5   7
BRANCH   1  22
HETATM   22  C6  UNL     1      45.128  13.303   1.457  1.00  0.00     0.036 A 
HETATM   23  S1  UNL     1      44.251  14.806   1.471  1.00  0.00    -0.078 SA
HETATM   24  C4  UNL     1      45.096  15.606   2.715  1.00  0.00     0.117 A 
HETATM   25  C3  UNL     1      46.032  14.695   3.095  1.00  0.00     0.112 A 
HETATM   26  C26 UNL     1      46.038  13.494   2.426  1.00  0.00     0.064 A 
HETATM   27 BR1  UNL     1      47.367  12.134   2.927  1.00  0.00    -0.047 Br
BRANCH  24  28
HETATM   28  C5  UNL     1      44.907  16.992   3.194  1.00  0.00     0.219 C 
HETATM   29  O4  UNL     1      45.147  17.926   2.424  1.00  0.00    -0.643 OA
HETATM   30  O5  UNL     1      44.473  17.214   4.472  1.00  0.00    -0.643 OA
ENDBRANCH  24  28
BRANCH  25  31
HETATM   31  O3  UNL     1      46.934  15.018   4.148  1.00  0.00    -0.338 OA
BRANCH  31  32
HETATM   32  C2  UNL     1      47.974  15.892   4.129  1.00  0.00     0.288 C 
BRANCH  32  33
HETATM   33  C1  UNL     1      48.037  16.957   5.120  1.00  0.00     0.198 C 
HETATM   34  O1  UNL     1      49.125  17.661   5.146  1.00  0.00    -0.646 OA
HETATM   35  O2  UNL     1      47.106  17.330   6.043  1.00  0.00    -0.646 OA
ENDBRANCH  32  33
ENDBRANCH  31  32
ENDBRANCH  25  31
ENDBRANCH   1  22
TORSDOF 8
ENDMDL
