MODEL 4
REMARK VINA RESULT: -8.107433264      1.926      3.303
REMARK  8 active torsions:
REMARK  status: ('A' for Active; 'I' for Inactive)
REMARK    1  A    between atoms: C1_2  and  C2_4 
REMARK    2  A    between atoms: C2_4  and  O3_5 
REMARK    3  A    between atoms: O3_5  and  C3_6 
REMARK    4  A    between atoms: C4_7  and  C5_8 
REMARK    5  A    between atoms: C6_12  and  C7_13 
REMARK    6  A    between atoms: C11_17  and  N1_18 
REMARK       I    between atoms: N1_18  and  C12_19 
REMARK    7  A    between atoms: N1_18  and  C19_27 
REMARK    8  A    between atoms: C12_19  and  C13_21 
ROOT
HETATM    1  C7  UNL     1      44.844  11.934   0.424  1.00  0.00    -0.015 A 
HETATM    2  C8  UNL     1      44.917  10.691   0.938  1.00  0.00     0.013 A 
HETATM    3  C9  UNL     1      44.640   9.599   0.092  1.00  0.00     0.003 A 
HETATM    4  C10 UNL     1      44.304   9.808  -1.226  1.00  0.00     0.030 A 
HETATM    5  C11 UNL     1      44.223  11.067  -1.771  1.00  0.00     0.038 A 
HETATM    6  C25 UNL     1      44.504  12.107  -0.907  1.00  0.00     0.042 A 
ENDROOT
BRANCH   5   7
HETATM    7  N1  UNL     1      43.881  11.277  -3.133  1.00  0.00    -0.309 N 
HETATM    8  C12 UNL     1      42.496  11.254  -3.454  1.00  0.00     0.258 C 
HETATM    9  O6  UNL     1      41.940  12.408  -3.449  1.00  0.00    -0.267 OA
BRANCH   8  10
HETATM   10  C13 UNL     1      41.723  10.068  -3.768  1.00  0.00     0.032 A 
HETATM   11  C14 UNL     1      41.783   9.611  -5.070  1.00  0.00     0.017 A 
HETATM   12  C15 UNL     1      41.087   8.489  -5.434  1.00  0.00     0.001 A 
HETATM   13  C16 UNL     1      40.317   7.804  -4.506  1.00  0.00     0.000 A 
HETATM   14  C17 UNL     1      40.254   8.257  -3.205  1.00  0.00     0.001 A 
HETATM   15  C18 UNL     1      40.966   9.388  -2.871  1.00  0.00     0.017 A 
ENDBRANCH   8  10
BRANCH   7  16
HETATM   16  C19 UNL     1      44.883  11.518  -4.142  1.00  0.00     0.093 C 
HETATM   17  C20 UNL     1      45.256  12.968  -4.180  1.00  0.00     0.026 C 
HETATM   18  C21 UNL     1      46.470  13.208  -5.071  1.00  0.00     0.002 C 
HETATM   19  C22 UNL     1      46.690  12.022  -5.964  1.00  0.00     0.000 C 
HETATM   20  C23 UNL     1      46.975  10.793  -5.145  1.00  0.00     0.002 C 
HETATM   21  C24 UNL     1      46.152  10.730  -3.879  1.00  0.00     0.026 C 
ENDBRANCH   7  16
ENDBRANCH   5   7
BRANCH   1  22
HETATM   22  C6  UNL     1      45.124  13.143   1.223  1.00  0.00     0.036 A 
HETATM   23  S1  UNL     1      44.358  14.684   0.967  1.00  0.00    -0.078 SA
HETATM   24  C4  UNL     1      45.129  15.582   2.192  1.00  0.00     0.117 A 
HETATM   25  C3  UNL     1      45.958  14.672   2.774  1.00  0.00     0.112 A 
HETATM   26  C26 UNL     1      45.945  13.400   2.254  1.00  0.00     0.064 A 
HETATM   27 BR1  UNL     1      47.120  12.037   3.049  1.00  0.00    -0.047 Br
BRANCH  24  28
HETATM   28  C5  UNL     1      44.992  17.025   2.484  1.00  0.00     0.219 C 
HETATM   29  O4  UNL     1      45.174  17.836   1.573  1.00  0.00    -0.643 OA
HETATM   30  O5  UNL     1      44.667  17.432   3.749  1.00  0.00    -0.643 OA
ENDBRANCH  24  28
BRANCH  25  31
HETATM   31  O3  UNL     1      46.771  15.070   3.871  1.00  0.00    -0.338 OA
BRANCH  31  32
HETATM   32  C2  UNL     1      47.860  15.881   3.863  1.00  0.00     0.288 C 
BRANCH  32  33
HETATM   33  C1  UNL     1      48.041  16.855   4.932  1.00  0.00     0.198 C 
HETATM   34  O1  UNL     1      49.201  17.428   5.004  1.00  0.00    -0.646 OA
HETATM   35  O2  UNL     1      47.156  17.258   5.887  1.00  0.00    -0.646 OA
ENDBRANCH  32  33
ENDBRANCH  31  32
ENDBRANCH  25  31
ENDBRANCH   1  22
TORSDOF 8
ENDMDL
