MODEL 10
REMARK VINA RESULT: -8.028601970      2.721      5.750
REMARK  7 active torsions:
REMARK  status: ('A' for Active; 'I' for Inactive)
REMARK    1  A    between atoms: C1_2  and  C2_6 
REMARK    2  A    between atoms: C5_9  and  C6_10 
REMARK    3  A    between atoms: C6_10  and  N3_11 
REMARK       I    between atoms: N3_11  and  C7_13 
REMARK    4  A    between atoms: C7_13  and  C8_15 
REMARK       I    between atoms: N4_19  and  C12_20 
REMARK    5  A    between atoms: C12_20  and  C13_22 
REMARK    6  A    between atoms: C13_22  and  N5_23 
REMARK    7  A    between atoms: N5_23  and  C14_26 
ROOT
HETATM    1  C8  UNL     1      17.496  -8.678  13.965  1.00  0.00     0.179 C 
HETATM    2  C9  UNL     1      18.962  -8.414  13.750  1.00  0.00     0.037 C 
HETATM    3  C10 UNL     1      19.292  -9.186  12.519  1.00  0.00     0.022 C 
HETATM    4  C11 UNL     1      18.117 -10.044  12.189  1.00  0.00     0.127 C 
HETATM    5  N4  UNL     1      17.294  -9.973  13.368  1.00  0.00    -0.337 N 
HETATM    6  C12 UNL     1      16.446 -11.002  13.834  1.00  0.00     0.246 C 
HETATM    7  O2  UNL     1      16.377 -12.076  13.202  1.00  0.00    -0.272 OA
ENDROOT
BRANCH   1   8
HETATM    8  C7  UNL     1      16.722  -7.592  13.326  1.00  0.00     0.240 C 
HETATM    9  N3  UNL     1      17.231  -6.330  12.949  1.00  0.00    -0.355 N 
ATOM     10  H3  UNL     1      18.213  -6.109  13.113  1.00  0.00     0.162 HD
HETATM   11  O1  UNL     1      15.506  -7.821  13.101  1.00  0.00    -0.271 OA
BRANCH   9  12
HETATM   12  C6  UNL     1      16.358  -5.342  12.324  1.00  0.00     0.161 C 
BRANCH  12  13
HETATM   13  C5  UNL     1      16.940  -4.846  11.053  1.00  0.00    -0.040 A 
HETATM   14  C4  UNL     1      18.198  -5.268  10.699  1.00  0.00     0.010 A 
HETATM   15  C3  UNL     1      18.797  -4.836   9.515  1.00  0.00     0.015 A 
HETATM   16  C2  UNL     1      18.154  -3.974   8.661  1.00  0.00     0.004 A 
HETATM   17  C23 UNL     1      16.876  -3.556   9.038  1.00  0.00     0.015 A 
HETATM   18  C22 UNL     1      16.296  -3.990  10.209  1.00  0.00     0.010 A 
BRANCH  16  19
HETATM   19  C1  UNL     1      18.715  -3.486   7.417  1.00  0.00     0.120 C 
HETATM   20  N1  UNL     1      17.860  -3.195   6.306  1.00  0.00    -0.082 NA
HETATM   21  N2  UNL     1      19.970  -3.301   7.271  1.00  0.00    -0.387 N 
ATOM     22  H22 UNL     1      20.366  -2.958   6.396  1.00  0.00     0.157 HD
ATOM     23  H21 UNL     1      20.579  -3.509   8.062  1.00  0.00     0.157 HD
ENDBRANCH  16  19
ENDBRANCH  12  13
ENDBRANCH   9  12
ENDBRANCH   1   8
BRANCH   6  24
HETATM   24  C13 UNL     1      15.633 -10.839  15.060  1.00  0.00     0.335 C 
BRANCH  24  25
HETATM   25  N5  UNL     1      14.398 -10.152  14.774  1.00  0.00    -0.063 N 
ATOM     26  H52 UNL     1      14.549  -9.337  14.180  1.00  0.00     0.278 HD
ATOM     27  H51 UNL     1      13.804 -10.692  14.146  1.00  0.00     0.278 HD
BRANCH  25  28
HETATM   28  C14 UNL     1      13.700  -9.801  16.007  1.00  0.00     0.186 C 
HETATM   29  C15 UNL     1      13.668 -10.954  16.984  1.00  0.00     0.033 C 
HETATM   30  C16 UNL     1      12.252 -11.183  17.401  1.00  0.00     0.002 C 
HETATM   31  C17 UNL     1      11.604  -9.933  17.988  1.00  0.00     0.000 C 
HETATM   32  C18 UNL     1      12.328  -9.388  19.159  1.00  0.00     0.000 C 
HETATM   33  C19 UNL     1      13.382  -8.398  18.920  1.00  0.00     0.000 C 
HETATM   34  C20 UNL     1      13.504  -7.832  17.554  1.00  0.00     0.002 C 
HETATM   35  C21 UNL     1      14.420  -8.667  16.648  1.00  0.00     0.033 C 
ENDBRANCH  25  28
ENDBRANCH  24  25
ENDBRANCH   6  24
TORSDOF 7
ENDMDL
