MODEL 5
REMARK VINA RESULT: -8.252135834      1.252      1.721
REMARK  7 active torsions:
REMARK  status: ('A' for Active; 'I' for Inactive)
REMARK    1  A    between atoms: C1_2  and  C2_6 
REMARK    2  A    between atoms: C5_9  and  C6_10 
REMARK    3  A    between atoms: C6_10  and  N3_11 
REMARK       I    between atoms: N3_11  and  C7_13 
REMARK    4  A    between atoms: C7_13  and  C8_15 
REMARK       I    between atoms: N4_19  and  C12_20 
REMARK    5  A    between atoms: C12_20  and  C13_22 
REMARK    6  A    between atoms: C13_22  and  N5_23 
REMARK    7  A    between atoms: N5_23  and  C14_26 
ROOT
HETATM    1  C8  UNL     1      15.960  -8.390  12.918  1.00  0.00     0.179 C 
HETATM    2  C9  UNL     1      14.750  -8.345  13.813  1.00  0.00     0.037 C 
HETATM    3  C10 UNL     1      15.284  -8.686  15.161  1.00  0.00     0.022 C 
HETATM    4  C11 UNL     1      16.695  -9.139  14.993  1.00  0.00     0.127 C 
HETATM    5  N4  UNL     1      16.830  -9.332  13.573  1.00  0.00    -0.337 N 
HETATM    6  C12 UNL     1      17.674 -10.282  12.954  1.00  0.00     0.246 C 
HETATM    7  O2  UNL     1      18.374 -11.035  13.661  1.00  0.00    -0.272 OA
ENDROOT
BRANCH   1   8
HETATM    8  C7  UNL     1      16.519  -7.024  12.814  1.00  0.00     0.240 C 
HETATM    9  N3  UNL     1      15.838  -5.890  12.323  1.00  0.00    -0.355 N 
ATOM     10  H3  UNL     1      14.873  -5.976  12.002  1.00  0.00     0.162 HD
HETATM   11  O1  UNL     1      17.706  -6.869  13.201  1.00  0.00    -0.271 OA
BRANCH   9  12
HETATM   12  C6  UNL     1      16.507  -4.594  12.272  1.00  0.00     0.161 C 
BRANCH  12  13
HETATM   13  C5  UNL     1      17.031  -4.319  10.911  1.00  0.00    -0.040 A 
HETATM   14  C4  UNL     1      18.297  -4.747  10.598  1.00  0.00     0.010 A 
HETATM   15  C3  UNL     1      18.843  -4.519   9.333  1.00  0.00     0.015 A 
HETATM   16  C2  UNL     1      18.136  -3.859   8.358  1.00  0.00     0.004 A 
HETATM   17  C23 UNL     1      16.851  -3.432   8.697  1.00  0.00     0.015 A 
HETATM   18  C22 UNL     1      16.324  -3.664   9.947  1.00  0.00     0.010 A 
BRANCH  16  19
HETATM   19  C1  UNL     1      18.641  -3.588   7.027  1.00  0.00     0.120 C 
HETATM   20  N1  UNL     1      17.734  -3.272   5.964  1.00  0.00    -0.082 NA
HETATM   21  N2  UNL     1      19.888  -3.620   6.759  1.00  0.00    -0.387 N 
ATOM     22  H22 UNL     1      20.244  -3.429   5.822  1.00  0.00     0.157 HD
ATOM     23  H21 UNL     1      20.534  -3.845   7.515  1.00  0.00     0.157 HD
ENDBRANCH  16  19
ENDBRANCH  12  13
ENDBRANCH   9  12
ENDBRANCH   1   8
BRANCH   6  24
HETATM   24  C13 UNL     1      17.748 -10.409  11.482  1.00  0.00     0.335 C 
BRANCH  24  25
HETATM   25  N5  UNL     1      19.060 -10.060  10.998  1.00  0.00    -0.063 N 
ATOM     26  H52 UNL     1      19.041  -9.208  10.437  1.00  0.00     0.278 HD
ATOM     27  H51 UNL     1      19.665  -9.733  11.752  1.00  0.00     0.278 HD
BRANCH  25  28
HETATM   28  C14 UNL     1      19.660 -11.173  10.270  1.00  0.00     0.186 C 
HETATM   29  C15 UNL     1      21.063 -11.469  10.750  1.00  0.00     0.033 C 
HETATM   30  C16 UNL     1      21.976 -11.480   9.567  1.00  0.00     0.002 C 
HETATM   31  C17 UNL     1      21.532 -12.467   8.493  1.00  0.00     0.000 C 
HETATM   32  C18 UNL     1      21.423 -13.861   8.981  1.00  0.00     0.000 C 
HETATM   33  C19 UNL     1      20.137 -14.301   9.531  1.00  0.00     0.000 C 
HETATM   34  C20 UNL     1      18.966 -13.407   9.356  1.00  0.00     0.002 C 
HETATM   35  C21 UNL     1      18.827 -12.385  10.493  1.00  0.00     0.033 C 
ENDBRANCH  25  28
ENDBRANCH  24  25
ENDBRANCH   6  24
TORSDOF 7
ENDMDL
