MODEL 2
REMARK VINA RESULT: -8.651658942      0.517      1.626
REMARK  7 active torsions:
REMARK  status: ('A' for Active; 'I' for Inactive)
REMARK    1  A    between atoms: C1_2  and  C2_6 
REMARK    2  A    between atoms: C5_9  and  C6_10 
REMARK    3  A    between atoms: C6_10  and  N3_11 
REMARK       I    between atoms: N3_11  and  C7_13 
REMARK    4  A    between atoms: C7_13  and  C8_15 
REMARK       I    between atoms: N4_19  and  C12_20 
REMARK    5  A    between atoms: C12_20  and  C13_22 
REMARK    6  A    between atoms: C13_22  and  N5_23 
REMARK    7  A    between atoms: N5_23  and  C14_26 
ROOT
HETATM    1  C8  UNL     1      16.284  -8.522  13.042  1.00  0.00     0.179 C 
HETATM    2  C9  UNL     1      14.835  -8.554  13.450  1.00  0.00     0.037 C 
HETATM    3  C10 UNL     1      14.880  -8.667  14.935  1.00  0.00     0.022 C 
HETATM    4  C11 UNL     1      16.295  -8.929  15.331  1.00  0.00     0.127 C 
HETATM    5  N4  UNL     1      16.947  -9.253  14.089  1.00  0.00    -0.337 N 
HETATM    6  C12 UNL     1      18.043 -10.134  13.949  1.00  0.00     0.246 C 
HETATM    7  O2  UNL     1      18.513 -10.698  14.958  1.00  0.00    -0.272 OA
ENDROOT
BRANCH   1   8
HETATM    8  C7  UNL     1      16.710  -7.109  12.929  1.00  0.00     0.240 C 
HETATM    9  N3  UNL     1      15.954  -6.064  12.356  1.00  0.00    -0.355 N 
ATOM     10  H3  UNL     1      15.028  -6.257  11.976  1.00  0.00     0.162 HD
HETATM   11  O1  UNL     1      17.846  -6.824  13.389  1.00  0.00    -0.271 OA
BRANCH   9  12
HETATM   12  C6  UNL     1      16.493  -4.708  12.307  1.00  0.00     0.161 C 
BRANCH  12  13
HETATM   13  C5  UNL     1      17.077  -4.417  10.975  1.00  0.00    -0.040 A 
HETATM   14  C4  UNL     1      16.354  -3.649  10.095  1.00  0.00     0.010 A 
HETATM   15  C3  UNL     1      16.852  -3.341   8.829  1.00  0.00     0.015 A 
HETATM   16  C2  UNL     1      18.081  -3.793   8.414  1.00  0.00     0.004 A 
HETATM   17  C23 UNL     1      18.801  -4.572   9.322  1.00  0.00     0.015 A 
HETATM   18  C22 UNL     1      18.298  -4.868  10.569  1.00  0.00     0.010 A 
BRANCH  16  19
HETATM   19  C1  UNL     1      18.659  -3.511   7.115  1.00  0.00     0.120 C 
HETATM   20  N1  UNL     1      17.810  -3.233   5.995  1.00  0.00    -0.082 NA
HETATM   21  N2  UNL     1      19.921  -3.499   6.927  1.00  0.00    -0.387 N 
ATOM     22  H22 UNL     1      20.328  -3.300   6.013  1.00  0.00     0.157 HD
ATOM     23  H21 UNL     1      20.525  -3.697   7.724  1.00  0.00     0.157 HD
ENDBRANCH  16  19
ENDBRANCH  12  13
ENDBRANCH   9  12
ENDBRANCH   1   8
BRANCH   6  24
HETATM   24  C13 UNL     1      18.652 -10.407  12.628  1.00  0.00     0.335 C 
BRANCH  24  25
HETATM   25  N5  UNL     1      19.315 -11.687  12.619  1.00  0.00    -0.063 N 
ATOM     26  H52 UNL     1      20.324 -11.588  12.505  1.00  0.00     0.278 HD
ATOM     27  H51 UNL     1      19.307 -12.122  13.542  1.00  0.00     0.278 HD
BRANCH  25  28
HETATM   28  C14 UNL     1      18.741 -12.565  11.605  1.00  0.00     0.186 C 
HETATM   29  C15 UNL     1      18.002 -11.787  10.539  1.00  0.00     0.033 C 
HETATM   30  C16 UNL     1      16.626 -12.352  10.408  1.00  0.00     0.002 C 
HETATM   31  C17 UNL     1      16.633 -13.847  10.104  1.00  0.00     0.000 C 
HETATM   32  C18 UNL     1      17.376 -14.196   8.871  1.00  0.00     0.000 C 
HETATM   33  C19 UNL     1      18.807 -14.489   8.987  1.00  0.00     0.000 C 
HETATM   34  C20 UNL     1      19.375 -14.647  10.349  1.00  0.00     0.002 C 
HETATM   35  C21 UNL     1      19.847 -13.315  10.950  1.00  0.00     0.033 C 
ENDBRANCH  25  28
ENDBRANCH  24  25
ENDBRANCH   6  24
TORSDOF 7
ENDMDL
