MODEL 11
REMARK VINA RESULT: -7.868913617      5.831     10.345
REMARK  7 active torsions:
REMARK  status: ('A' for Active; 'I' for Inactive)
REMARK    1  A    between atoms: C1_2  and  C2_6 
REMARK    2  A    between atoms: C5_9  and  C6_10 
REMARK    3  A    between atoms: C6_10  and  N3_11 
REMARK       I    between atoms: N3_11  and  C7_13 
REMARK    4  A    between atoms: C7_13  and  C8_15 
REMARK       I    between atoms: N4_19  and  C12_20 
REMARK    5  A    between atoms: C12_20  and  C13_22 
REMARK    6  A    between atoms: C13_22  and  N5_23 
REMARK    7  A    between atoms: N5_23  and  C14_26 
ROOT
HETATM    1  C8  UNL     1      16.818  -4.186  16.275  1.00  0.00     0.179 C 
HETATM    2  C9  UNL     1      17.726  -5.219  16.886  1.00  0.00     0.037 C 
HETATM    3  C10 UNL     1      16.848  -5.957  17.837  1.00  0.00     0.022 C 
HETATM    4  C11 UNL     1      15.557  -5.215  17.935  1.00  0.00     0.127 C 
HETATM    5  N4  UNL     1      15.833  -3.954  17.299  1.00  0.00    -0.337 N 
HETATM    6  C12 UNL     1      15.230  -2.721  17.636  1.00  0.00     0.246 C 
HETATM    7  O2  UNL     1      14.386  -2.679  18.554  1.00  0.00    -0.272 OA
ENDROOT
BRANCH   1   8
HETATM    8  C7  UNL     1      16.263  -4.731  15.017  1.00  0.00     0.240 C 
HETATM    9  N3  UNL     1      16.919  -5.631  14.149  1.00  0.00    -0.355 N 
ATOM     10  H3  UNL     1      17.859  -5.959  14.373  1.00  0.00     0.162 HD
HETATM   11  O1  UNL     1      15.105  -4.356  14.702  1.00  0.00    -0.271 OA
BRANCH   9  12
HETATM   12  C6  UNL     1      16.258  -6.094  12.933  1.00  0.00     0.161 C 
BRANCH  12  13
HETATM   13  C5  UNL     1      16.811  -5.414  11.736  1.00  0.00    -0.040 A 
HETATM   14  C4  UNL     1      17.951  -5.920  11.163  1.00  0.00     0.010 A 
HETATM   15  C3  UNL     1      18.517  -5.324  10.034  1.00  0.00     0.015 A 
HETATM   16  C2  UNL     1      17.956  -4.211   9.457  1.00  0.00     0.004 A 
HETATM   17  C23 UNL     1      16.797  -3.711  10.055  1.00  0.00     0.015 A 
HETATM   18  C22 UNL     1      16.250  -4.309  11.167  1.00  0.00     0.010 A 
BRANCH  16  19
HETATM   19  C1  UNL     1      18.490  -3.542   8.287  1.00  0.00     0.120 C 
HETATM   20  N1  UNL     1      17.615  -3.139   7.227  1.00  0.00    -0.082 NA
HETATM   21  N2  UNL     1      19.735  -3.292   8.162  1.00  0.00    -0.387 N 
ATOM     22  H22 UNL     1      20.111  -2.821   7.339  1.00  0.00     0.157 HD
ATOM     23  H21 UNL     1      20.358  -3.579   8.917  1.00  0.00     0.157 HD
ENDBRANCH  16  19
ENDBRANCH  12  13
ENDBRANCH   9  12
ENDBRANCH   1   8
BRANCH   6  24
HETATM   24  C13 UNL     1      15.576  -1.471  16.924  1.00  0.00     0.335 C 
BRANCH  24  25
HETATM   25  N5  UNL     1      15.058  -0.319  17.620  1.00  0.00    -0.063 N 
ATOM     26  H52 UNL     1      14.657   0.361  16.975  1.00  0.00     0.278 HD
ATOM     27  H51 UNL     1      14.216  -0.546  18.149  1.00  0.00     0.278 HD
BRANCH  25  28
HETATM   28  C14 UNL     1      16.082   0.281  18.469  1.00  0.00     0.186 C 
HETATM   29  C15 UNL     1      17.434   0.301  17.792  1.00  0.00     0.033 C 
HETATM   30  C16 UNL     1      18.432  -0.329  18.707  1.00  0.00     0.002 C 
HETATM   31  C17 UNL     1      18.481   0.345  20.074  1.00  0.00     0.000 C 
HETATM   32  C18 UNL     1      18.792   1.791  20.008  1.00  0.00     0.000 C 
HETATM   33  C19 UNL     1      17.674   2.732  19.888  1.00  0.00     0.000 C 
HETATM   34  C20 UNL     1      16.300   2.204  20.070  1.00  0.00     0.002 C 
HETATM   35  C21 UNL     1      15.688   1.686  18.761  1.00  0.00     0.033 C 
ENDBRANCH  25  28
ENDBRANCH  24  25
ENDBRANCH   6  24
TORSDOF 7
ENDMDL
