MODEL 3
REMARK VINA RESULT: -8.490719936      1.170      1.813
REMARK  7 active torsions:
REMARK  status: ('A' for Active; 'I' for Inactive)
REMARK    1  A    between atoms: C1_2  and  C2_6 
REMARK    2  A    between atoms: C5_9  and  C6_10 
REMARK    3  A    between atoms: C6_10  and  N3_11 
REMARK       I    between atoms: N3_11  and  C7_13 
REMARK    4  A    between atoms: C7_13  and  C8_15 
REMARK       I    between atoms: N4_19  and  C12_20 
REMARK    5  A    between atoms: C12_20  and  C13_22 
REMARK    6  A    between atoms: C13_22  and  N5_23 
REMARK    7  A    between atoms: N5_23  and  C14_26 
ROOT
HETATM    1  C8  UNL     1      16.725  -9.121  13.282  1.00  0.00     0.179 C 
HETATM    2  C9  UNL     1      15.722  -9.726  14.226  1.00  0.00     0.037 C 
HETATM    3  C10 UNL     1      16.264  -9.415  15.579  1.00  0.00     0.022 C 
HETATM    4  C11 UNL     1      17.640  -8.866  15.404  1.00  0.00     0.127 C 
HETATM    5  N4  UNL     1      17.955  -9.153  14.029  1.00  0.00    -0.337 N 
HETATM    6  C12 UNL     1      19.250  -9.414  13.526  1.00  0.00     0.246 C 
HETATM    7  O2  UNL     1      20.226  -9.406  14.304  1.00  0.00    -0.272 OA
ENDROOT
BRANCH   1   8
HETATM    8  C7  UNL     1      16.273  -7.759  12.922  1.00  0.00     0.240 C 
HETATM    9  N3  UNL     1      17.113  -6.668  12.611  1.00  0.00    -0.355 N 
ATOM     10  H3  UNL     1      18.126  -6.787  12.623  1.00  0.00     0.162 HD
HETATM   11  O1  UNL     1      15.030  -7.567  12.893  1.00  0.00    -0.271 OA
BRANCH   9  12
HETATM   12  C6  UNL     1      16.537  -5.370  12.273  1.00  0.00     0.161 C 
BRANCH  12  13
HETATM   13  C5  UNL     1      17.084  -4.864  10.990  1.00  0.00    -0.040 A 
HETATM   14  C4  UNL     1      18.353  -5.241  10.625  1.00  0.00     0.010 A 
HETATM   15  C3  UNL     1      18.920  -4.798   9.429  1.00  0.00     0.015 A 
HETATM   16  C2  UNL     1      18.234  -3.970   8.575  1.00  0.00     0.004 A 
HETATM   17  C23 UNL     1      16.945  -3.598   8.965  1.00  0.00     0.015 A 
HETATM   18  C22 UNL     1      16.398  -4.043  10.147  1.00  0.00     0.010 A 
BRANCH  16  19
HETATM   19  C1  UNL     1      18.761  -3.473   7.320  1.00  0.00     0.120 C 
HETATM   20  N1  UNL     1      17.883  -3.236   6.214  1.00  0.00    -0.082 NA
HETATM   21  N2  UNL     1      20.004  -3.232   7.159  1.00  0.00    -0.387 N 
ATOM     22  H22 UNL     1      20.375  -2.882   6.276  1.00  0.00     0.157 HD
ATOM     23  H21 UNL     1      20.629  -3.401   7.947  1.00  0.00     0.157 HD
ENDBRANCH  16  19
ENDBRANCH  12  13
ENDBRANCH   9  12
ENDBRANCH   1   8
BRANCH   6  24
HETATM   24  C13 UNL     1      19.480  -9.700  12.093  1.00  0.00     0.335 C 
BRANCH  24  25
HETATM   25  N5  UNL     1      20.196 -10.939  11.921  1.00  0.00    -0.063 N 
ATOM     26  H52 UNL     1      21.076 -10.800  11.424  1.00  0.00     0.278 HD
ATOM     27  H51 UNL     1      20.571 -11.283  12.805  1.00  0.00     0.278 HD
BRANCH  25  28
HETATM   28  C14 UNL     1      19.359 -11.938  11.265  1.00  0.00     0.186 C 
HETATM   29  C15 UNL     1      18.227 -11.303  10.488  1.00  0.00     0.033 C 
HETATM   30  C16 UNL     1      16.944 -11.933  10.920  1.00  0.00     0.002 C 
HETATM   31  C17 UNL     1      16.951 -13.449  10.758  1.00  0.00     0.000 C 
HETATM   32  C18 UNL     1      17.218 -13.893   9.370  1.00  0.00     0.000 C 
HETATM   33  C19 UNL     1      18.611 -14.116   8.973  1.00  0.00     0.000 C 
HETATM   34  C20 UNL     1      19.645 -14.111  10.037  1.00  0.00     0.002 C 
HETATM   35  C21 UNL     1      20.203 -12.707  10.311  1.00  0.00     0.033 C 
ENDBRANCH  25  28
ENDBRANCH  24  25
ENDBRANCH   6  24
TORSDOF 7
ENDMDL
