MODEL 12
REMARK VINA RESULT: -7.838813683      4.039      8.065
REMARK  7 active torsions:
REMARK  status: ('A' for Active; 'I' for Inactive)
REMARK    1  A    between atoms: C1_2  and  C2_6 
REMARK    2  A    between atoms: C5_9  and  C6_10 
REMARK    3  A    between atoms: C6_10  and  N3_11 
REMARK       I    between atoms: N3_11  and  C7_13 
REMARK    4  A    between atoms: C7_13  and  C8_15 
REMARK       I    between atoms: N4_19  and  C12_20 
REMARK    5  A    between atoms: C12_20  and  C13_22 
REMARK    6  A    between atoms: C13_22  and  N5_23 
REMARK    7  A    between atoms: N5_23  and  C14_26 
ROOT
HETATM    1  C8  UNL     1      16.526  -7.043  14.799  1.00  0.00     0.179 C 
HETATM    2  C9  UNL     1      17.211  -7.992  13.852  1.00  0.00     0.037 C 
HETATM    3  C10 UNL     1      16.105  -8.846  13.333  1.00  0.00     0.022 C 
HETATM    4  C11 UNL     1      14.883  -8.548  14.135  1.00  0.00     0.127 C 
HETATM    5  N4  UNL     1      15.378  -7.785  15.251  1.00  0.00    -0.337 N 
HETATM    6  C12 UNL     1      14.819  -7.779  16.548  1.00  0.00     0.246 C 
HETATM    7  O2  UNL     1      13.815  -8.480  16.789  1.00  0.00    -0.272 OA
ENDROOT
BRANCH   1   8
HETATM    8  C7  UNL     1      16.192  -5.804  14.063  1.00  0.00     0.240 C 
HETATM    9  N3  UNL     1      16.617  -5.481  12.756  1.00  0.00    -0.355 N 
ATOM     10  H3  UNL     1      17.208  -6.133  12.239  1.00  0.00     0.162 HD
HETATM   11  O1  UNL     1      15.463  -4.971  14.662  1.00  0.00    -0.271 OA
BRANCH   9  12
HETATM   12  C6  UNL     1      16.216  -4.219  12.143  1.00  0.00     0.161 C 
BRANCH  12  13
HETATM   13  C5  UNL     1      16.877  -4.034  10.828  1.00  0.00    -0.040 A 
HETATM   14  C4  UNL     1      18.078  -4.660  10.603  1.00  0.00     0.010 A 
HETATM   15  C3  UNL     1      18.746  -4.524   9.385  1.00  0.00     0.015 A 
HETATM   16  C2  UNL     1      18.230  -3.759   8.368  1.00  0.00     0.004 A 
HETATM   17  C23 UNL     1      17.008  -3.130   8.616  1.00  0.00     0.015 A 
HETATM   18  C22 UNL     1      16.360  -3.273   9.822  1.00  0.00     0.010 A 
BRANCH  16  19
HETATM   19  C1  UNL     1      18.869  -3.575   7.081  1.00  0.00     0.120 C 
HETATM   20  N1  UNL     1      18.078  -3.316   5.915  1.00  0.00    -0.082 NA
HETATM   21  N2  UNL     1      20.137  -3.633   6.943  1.00  0.00    -0.387 N 
ATOM     22  H22 UNL     1      20.587  -3.503   6.037  1.00  0.00     0.157 HD
ATOM     23  H21 UNL     1      20.699  -3.817   7.773  1.00  0.00     0.157 HD
ENDBRANCH  16  19
ENDBRANCH  12  13
ENDBRANCH   9  12
ENDBRANCH   1   8
BRANCH   6  24
HETATM   24  C13 UNL     1      15.397  -6.960  17.637  1.00  0.00     0.335 C 
BRANCH  24  25
HETATM   25  N5  UNL     1      14.468  -6.823  18.730  1.00  0.00    -0.063 N 
ATOM     26  H52 UNL     1      13.622  -7.372  18.577  1.00  0.00     0.278 HD
ATOM     27  H51 UNL     1      14.804  -7.291  19.572  1.00  0.00     0.278 HD
BRANCH  25  28
HETATM   28  C14 UNL     1      14.161  -5.419  18.980  1.00  0.00     0.186 C 
HETATM   29  C15 UNL     1      13.077  -4.906  18.059  1.00  0.00     0.033 C 
HETATM   30  C16 UNL     1      13.572  -3.667  17.388  1.00  0.00     0.002 C 
HETATM   31  C17 UNL     1      14.012  -2.598  18.382  1.00  0.00     0.000 C 
HETATM   32  C18 UNL     1      12.945  -2.195  19.326  1.00  0.00     0.000 C 
HETATM   33  C19 UNL     1      12.824  -2.931  20.588  1.00  0.00     0.000 C 
HETATM   34  C20 UNL     1      13.912  -3.875  20.946  1.00  0.00     0.002 C 
HETATM   35  C21 UNL     1      13.681  -5.284  20.383  1.00  0.00     0.033 C 
ENDBRANCH  25  28
ENDBRANCH  24  25
ENDBRANCH   6  24
TORSDOF 7
ENDMDL
