MODEL 4
REMARK VINA RESULT: -8.409720924      1.141      1.395
REMARK  7 active torsions:
REMARK  status: ('A' for Active; 'I' for Inactive)
REMARK    1  A    between atoms: C1_2  and  C2_6 
REMARK    2  A    between atoms: C5_9  and  C6_10 
REMARK    3  A    between atoms: C6_10  and  N3_11 
REMARK       I    between atoms: N3_11  and  C7_13 
REMARK    4  A    between atoms: C7_13  and  C8_15 
REMARK       I    between atoms: N4_19  and  C12_20 
REMARK    5  A    between atoms: C12_20  and  C13_22 
REMARK    6  A    between atoms: C13_22  and  N5_23 
REMARK    7  A    between atoms: N5_23  and  C14_26 
ROOT
HETATM    1  C8  UNL     1      16.730  -8.928  13.711  1.00  0.00     0.179 C 
HETATM    2  C9  UNL     1      16.572  -9.032  15.204  1.00  0.00     0.037 C 
HETATM    3  C10 UNL     1      17.907  -8.642  15.738  1.00  0.00     0.022 C 
HETATM    4  C11 UNL     1      18.851  -8.552  14.586  1.00  0.00     0.127 C 
HETATM    5  N4  UNL     1      18.133  -9.170  13.502  1.00  0.00    -0.337 N 
HETATM    6  C12 UNL     1      18.723  -9.881  12.432  1.00  0.00     0.246 C 
HETATM    7  O2  UNL     1      19.964 -10.007  12.388  1.00  0.00    -0.272 OA
ENDROOT
BRANCH   1   8
HETATM    8  C7  UNL     1      16.279  -7.586  13.282  1.00  0.00     0.240 C 
HETATM    9  N3  UNL     1      17.062  -6.635  12.592  1.00  0.00    -0.355 N 
ATOM     10  H3  UNL     1      18.028  -6.854  12.349  1.00  0.00     0.162 HD
HETATM   11  O1  UNL     1      15.092  -7.274  13.559  1.00  0.00    -0.271 OA
BRANCH   9  12
HETATM   12  C6  UNL     1      16.495  -5.342  12.226  1.00  0.00     0.161 C 
BRANCH  12  13
HETATM   13  C5  UNL     1      17.073  -4.849  10.952  1.00  0.00    -0.040 A 
HETATM   14  C4  UNL     1      18.343  -5.246  10.612  1.00  0.00     0.010 A 
HETATM   15  C3  UNL     1      18.939  -4.817   9.425  1.00  0.00     0.015 A 
HETATM   16  C2  UNL     1      18.281  -3.983   8.554  1.00  0.00     0.004 A 
HETATM   17  C23 UNL     1      16.991  -3.590   8.919  1.00  0.00     0.015 A 
HETATM   18  C22 UNL     1      16.415  -4.021  10.092  1.00  0.00     0.010 A 
BRANCH  16  19
HETATM   19  C1  UNL     1      18.839  -3.499   7.308  1.00  0.00     0.120 C 
HETATM   20  N1  UNL     1      17.982  -3.229   6.192  1.00  0.00    -0.082 NA
HETATM   21  N2  UNL     1      20.091  -3.299   7.162  1.00  0.00    -0.387 N 
ATOM     22  H22 UNL     1      20.484  -2.958   6.284  1.00  0.00     0.157 HD
ATOM     23  H21 UNL     1      20.701  -3.491   7.956  1.00  0.00     0.157 HD
ENDBRANCH  16  19
ENDBRANCH  12  13
ENDBRANCH   9  12
ENDBRANCH   1   8
BRANCH   6  24
HETATM   24  C13 UNL     1      17.904 -10.483  11.358  1.00  0.00     0.335 C 
BRANCH  24  25
HETATM   25  N5  UNL     1      17.348 -11.746  11.778  1.00  0.00    -0.063 N 
ATOM     26  H52 UNL     1      17.716 -12.036  12.685  1.00  0.00     0.278 HD
ATOM     27  H51 UNL     1      16.364 -11.659  12.032  1.00  0.00     0.278 HD
BRANCH  25  28
HETATM   28  C14 UNL     1      17.554 -12.770  10.760  1.00  0.00     0.186 C 
HETATM   29  C15 UNL     1      18.399 -13.914  11.275  1.00  0.00     0.033 C 
HETATM   30  C16 UNL     1      19.533 -14.130  10.326  1.00  0.00     0.002 C 
HETATM   31  C17 UNL     1      19.062 -14.381   8.897  1.00  0.00     0.000 C 
HETATM   32  C18 UNL     1      18.151 -15.542   8.772  1.00  0.00     0.000 C 
HETATM   33  C19 UNL     1      16.711 -15.309   8.915  1.00  0.00     0.000 C 
HETATM   34  C20 UNL     1      16.236 -13.904   8.946  1.00  0.00     0.002 C 
HETATM   35  C21 UNL     1      16.227 -13.314  10.364  1.00  0.00     0.033 C 
ENDBRANCH  25  28
ENDBRANCH  24  25
ENDBRANCH   6  24
TORSDOF 7
ENDMDL
