MODEL 1
REMARK VINA RESULT: -8.705657616      0.000      0.000
REMARK  7 active torsions:
REMARK  status: ('A' for Active; 'I' for Inactive)
REMARK    1  A    between atoms: C1_2  and  C2_6 
REMARK    2  A    between atoms: C5_9  and  C6_10 
REMARK    3  A    between atoms: C6_10  and  N3_11 
REMARK       I    between atoms: N3_11  and  C7_13 
REMARK    4  A    between atoms: C7_13  and  C8_15 
REMARK       I    between atoms: N4_19  and  C12_20 
REMARK    5  A    between atoms: C12_20  and  C13_22 
REMARK    6  A    between atoms: C13_22  and  N5_23 
REMARK    7  A    between atoms: N5_23  and  C14_26 
ROOT
HETATM    1  C8  UNL     1      16.104  -8.537  12.877  1.00  0.00     0.179 C 
HETATM    2  C9  UNL     1      14.710  -8.489  13.443  1.00  0.00     0.037 C 
HETATM    3  C10 UNL     1      14.906  -8.696  14.906  1.00  0.00     0.022 C 
HETATM    4  C11 UNL     1      16.330  -9.084  15.125  1.00  0.00     0.127 C 
HETATM    5  N4  UNL     1      16.817  -9.377  13.803  1.00  0.00    -0.337 N 
HETATM    6  C12 UNL     1      17.819 -10.325  13.494  1.00  0.00     0.246 C 
HETATM    7  O2  UNL     1      18.348 -10.982  14.413  1.00  0.00    -0.272 OA
ENDROOT
BRANCH   1   8
HETATM    8  C7  UNL     1      16.625  -7.155  12.793  1.00  0.00     0.240 C 
HETATM    9  N3  UNL     1      15.915  -6.034  12.310  1.00  0.00    -0.355 N 
ATOM     10  H3  UNL     1      14.955  -6.144  11.982  1.00  0.00     0.162 HD
HETATM   11  O1  UNL     1      17.805  -6.971  13.189  1.00  0.00    -0.271 OA
BRANCH   9  12
HETATM   12  C6  UNL     1      16.548  -4.720  12.278  1.00  0.00     0.161 C 
BRANCH  12  13
HETATM   13  C5  UNL     1      17.066  -4.411  10.923  1.00  0.00    -0.040 A 
HETATM   14  C4  UNL     1      18.336  -4.818  10.598  1.00  0.00     0.010 A 
HETATM   15  C3  UNL     1      18.876  -4.558   9.337  1.00  0.00     0.015 A 
HETATM   16  C2  UNL     1      18.160  -3.885   8.377  1.00  0.00     0.004 A 
HETATM   17  C23 UNL     1      16.871  -3.480   8.727  1.00  0.00     0.015 A 
HETATM   18  C22 UNL     1      16.350  -3.744   9.974  1.00  0.00     0.010 A 
BRANCH  16  19
HETATM   19  C1  UNL     1      18.658  -3.582   7.051  1.00  0.00     0.120 C 
HETATM   20  N1  UNL     1      17.746  -3.259   5.995  1.00  0.00    -0.082 NA
HETATM   21  N2  UNL     1      19.906  -3.589   6.781  1.00  0.00    -0.387 N 
ATOM     22  H22 UNL     1      20.257  -3.375   5.847  1.00  0.00     0.157 HD
ATOM     23  H21 UNL     1      20.556  -3.819   7.532  1.00  0.00     0.157 HD
ENDBRANCH  16  19
ENDBRANCH  12  13
ENDBRANCH   9  12
ENDBRANCH   1   8
BRANCH   6  24
HETATM   24  C13 UNL     1      18.257 -10.560  12.101  1.00  0.00     0.335 C 
BRANCH  24  25
HETATM   25  N5  UNL     1      19.048 -11.762  12.003  1.00  0.00    -0.063 N 
ATOM     26  H52 UNL     1      20.038 -11.552  11.873  1.00  0.00     0.278 HD
ATOM     27  H51 UNL     1      19.110 -12.246  12.899  1.00  0.00     0.278 HD
BRANCH  25  28
HETATM   28  C14 UNL     1      18.539 -12.637  10.952  1.00  0.00     0.186 C 
HETATM   29  C15 UNL     1      19.081 -14.043  11.078  1.00  0.00     0.033 C 
HETATM   30  C16 UNL     1      19.678 -14.440   9.767  1.00  0.00     0.002 C 
HETATM   31  C17 UNL     1      18.688 -14.323   8.613  1.00  0.00     0.000 C 
HETATM   32  C18 UNL     1      17.461 -15.131   8.804  1.00  0.00     0.000 C 
HETATM   33  C19 UNL     1      16.323 -14.506   9.485  1.00  0.00     0.000 C 
HETATM   34  C20 UNL     1      16.380 -13.045   9.733  1.00  0.00     0.002 C 
HETATM   35  C21 UNL     1      17.056 -12.698  11.068  1.00  0.00     0.033 C 
ENDBRANCH  25  28
ENDBRANCH  24  25
ENDBRANCH   6  24
TORSDOF 7
ENDMDL
