MODEL 7
REMARK VINA RESULT: -9.950533696      3.319      7.307
REMARK  10 active torsions:
REMARK  status: ('A' for Active; 'I' for Inactive)
REMARK    1  A    between atoms: N4_17  and  C9_18 
REMARK    2  A    between atoms: C9_18  and  C10_19 
REMARK    3  A    between atoms: C10_19  and  O3_20 
REMARK    4  A    between atoms: C10_19  and  C11_22 
REMARK    5  A    between atoms: C11_22  and  O4_23 
REMARK    6  A    between atoms: C11_22  and  C12_25 
REMARK    7  A    between atoms: C12_25  and  O5_26 
REMARK    8  A    between atoms: C12_25  and  C13_28 
REMARK    9  A    between atoms: C13_28  and  O6_29 
REMARK   10  A    between atoms: O6_29  and  P1_30 
ROOT
HETATM    1  C1  UNL     1      60.938  20.849  10.279  1.00  0.00     0.049 C 
HETATM    2  C2  UNL     1      61.009  21.087  11.741  1.00  0.00    -0.054 A 
HETATM    3  C3  UNL     1      61.368  22.320  12.240  1.00  0.00     0.039 A 
HETATM    4  C4  UNL     1      61.443  22.570  13.603  1.00  0.00     0.060 A 
HETATM    5  N1  UNL     1      61.793  23.795  14.032  1.00  0.00    -0.347 N 
ATOM      6  H1  UNL     1      62.005  24.526  13.353  1.00  0.00     0.166 HD
HETATM    7  C5  UNL     1      61.867  24.066  15.341  1.00  0.00     0.146 A 
HETATM    8  C6  UNL     1      62.227  25.324  15.840  1.00  0.00     0.280 A 
HETATM    9  O1  UNL     1      62.486  26.221  15.017  1.00  0.00    -0.265 OA
HETATM   10  N2  UNL     1      62.282  25.526  17.180  1.00  0.00    -0.273 N 
ATOM     11  H2  UNL     1      62.544  26.441  17.548  1.00  0.00     0.173 HD
HETATM   12  C7  UNL     1      61.991  24.521  18.025  1.00  0.00     0.328 A 
HETATM   13  O2  UNL     1      62.060  24.775  19.256  1.00  0.00    -0.247 OA
HETATM   14  N3  UNL     1      61.636  23.279  17.582  1.00  0.00    -0.292 N 
ATOM     15  H3  UNL     1      61.424  22.548  18.261  1.00  0.00     0.172 HD
HETATM   16  C8  UNL     1      61.559  23.000  16.272  1.00  0.00     0.145 A 
HETATM   17  N4  UNL     1      61.207  21.769  15.788  1.00  0.00    -0.327 N 
HETATM   18  C14 UNL     1      61.137  21.515  14.472  1.00  0.00     0.063 A 
HETATM   19  C15 UNL     1      60.776  20.276  13.979  1.00  0.00     0.039 A 
HETATM   20  C16 UNL     1      60.711  20.060  12.616  1.00  0.00    -0.054 A 
HETATM   21  C17 UNL     1      60.325  18.735  12.069  1.00  0.00     0.049 C 
ENDROOT
BRANCH  17  22
HETATM   22  C9  UNL     1      60.908  20.741  16.761  1.00  0.00     0.165 C 
BRANCH  22  23
HETATM   23  C10 UNL     1      59.506  20.198  16.452  1.00  0.00     0.167 C 
BRANCH  23  24
HETATM   24  O3  UNL     1      58.499  21.094  16.683  1.00  0.00    -0.391 OA
ATOM     25  H3  UNL     1      57.771  20.739  17.178  1.00  0.00     0.210 HD
ENDBRANCH  23  24
BRANCH  23  26
HETATM   26  C11 UNL     1      59.238  18.879  17.021  1.00  0.00     0.179 C 
BRANCH  26  27
HETATM   27  O4  UNL     1      60.433  18.255  17.387  1.00  0.00    -0.390 OA
ATOM     28  H4  UNL     1      60.271  17.354  17.643  1.00  0.00     0.210 HD
ENDBRANCH  26  27
BRANCH  26  29
HETATM   29  C12 UNL     1      58.332  17.914  16.395  1.00  0.00     0.173 C 
BRANCH  29  30
HETATM   30  O5  UNL     1      57.013  18.453  16.635  1.00  0.00    -0.391 OA
ATOM     31  H5  UNL     1      57.100  18.933  17.450  1.00  0.00     0.210 HD
ENDBRANCH  29  30
BRANCH  29  32
HETATM   32  C13 UNL     1      58.234  16.550  17.071  1.00  0.00     0.217 C 
BRANCH  32  33
HETATM   33  O6  UNL     1      58.327  15.539  16.068  1.00  0.00    -0.280 OA
BRANCH  33  34
HETATM   34  P1  UNL     1      56.789  15.124  15.528  1.00  0.00     0.422 P 
HETATM   35  O7  UNL     1      56.680  13.636  15.491  1.00  0.00    -0.617 OA
HETATM   36  O8  UNL     1      56.475  15.734  13.985  1.00  0.00    -0.617 OA
HETATM   37  O9  UNL     1      55.584  15.711  16.572  1.00  0.00    -0.617 OA
ENDBRANCH  33  34
ENDBRANCH  32  33
ENDBRANCH  29  32
ENDBRANCH  26  29
ENDBRANCH  23  26
ENDBRANCH  22  23
ENDBRANCH  17  22
TORSDOF 10
ENDMDL
