MODEL 2
REMARK VINA RESULT: -11.469280130      0.744      1.481
REMARK  10 active torsions:
REMARK  status: ('A' for Active; 'I' for Inactive)
REMARK    1  A    between atoms: N4_17  and  C9_18 
REMARK    2  A    between atoms: C9_18  and  C10_19 
REMARK    3  A    between atoms: C10_19  and  O3_20 
REMARK    4  A    between atoms: C10_19  and  C11_22 
REMARK    5  A    between atoms: C11_22  and  O4_23 
REMARK    6  A    between atoms: C11_22  and  C12_25 
REMARK    7  A    between atoms: C12_25  and  O5_26 
REMARK    8  A    between atoms: C12_25  and  C13_28 
REMARK    9  A    between atoms: C13_28  and  O6_29 
REMARK   10  A    between atoms: O6_29  and  P1_30 
ROOT
HETATM    1  C1  UNL     1      61.141  20.262   9.822  1.00  0.00     0.049 C 
HETATM    2  C2  UNL     1      60.872  20.189  11.278  1.00  0.00    -0.054 A 
HETATM    3  C3  UNL     1      60.620  18.982  11.892  1.00  0.00     0.039 A 
HETATM    4  C4  UNL     1      60.365  18.885  13.252  1.00  0.00     0.060 A 
HETATM    5  N1  UNL     1      60.131  17.678  13.797  1.00  0.00    -0.347 N 
ATOM      6  H1  UNL     1      60.138  16.848  13.205  1.00  0.00     0.166 HD
HETATM    7  C5  UNL     1      59.888  17.555  15.108  1.00  0.00     0.146 A 
HETATM    8  C6  UNL     1      59.639  16.323  15.724  1.00  0.00     0.280 A 
HETATM    9  O1  UNL     1      59.646  15.305  15.008  1.00  0.00    -0.265 OA
HETATM   10  N2  UNL     1      59.400  16.273  17.058  1.00  0.00    -0.273 N 
ATOM     11  H2  UNL     1      59.217  15.378  17.511  1.00  0.00     0.173 HD
HETATM   12  C7  UNL     1      59.403  17.405  17.785  1.00  0.00     0.328 A 
HETATM   13  O2  UNL     1      59.175  17.289  19.017  1.00  0.00    -0.247 OA
HETATM   14  N3  UNL     1      59.641  18.628  17.225  1.00  0.00    -0.292 N 
ATOM     15  H3  UNL     1      59.634  19.458  17.817  1.00  0.00     0.172 HD
HETATM   16  C8  UNL     1      59.886  18.759  15.912  1.00  0.00     0.145 A 
HETATM   17  N4  UNL     1      60.129  19.965  15.314  1.00  0.00    -0.327 N 
HETATM   18  C14 UNL     1      60.372  20.070  13.997  1.00  0.00     0.063 A 
HETATM   19  C15 UNL     1      60.624  21.285  13.390  1.00  0.00     0.039 A 
HETATM   20  C16 UNL     1      60.875  21.347  12.033  1.00  0.00    -0.054 A 
HETATM   21  C17 UNL     1      61.147  22.644  11.363  1.00  0.00     0.049 C 
ENDROOT
BRANCH  17  22
HETATM   22  C9  UNL     1      60.117  21.136  16.163  1.00  0.00     0.165 C 
BRANCH  22  23
HETATM   23  C10 UNL     1      61.559  21.400  16.618  1.00  0.00     0.167 C 
BRANCH  23  24
HETATM   24  O3  UNL     1      62.081  20.416  17.410  1.00  0.00    -0.391 OA
ATOM     25  H3  UNL     1      62.824  20.694  17.933  1.00  0.00     0.210 HD
ENDBRANCH  23  24
BRANCH  23  26
HETATM   26  C11 UNL     1      61.780  22.741  17.153  1.00  0.00     0.179 C 
BRANCH  26  27
HETATM   27  O4  UNL     1      61.920  22.694  18.543  1.00  0.00    -0.390 OA
ATOM     28  H4  UNL     1      62.296  23.505  18.865  1.00  0.00     0.210 HD
ENDBRANCH  26  27
BRANCH  26  29
HETATM   29  C12 UNL     1      60.966  23.895  16.764  1.00  0.00     0.173 C 
BRANCH  29  30
HETATM   30  O5  UNL     1      61.320  24.133  15.384  1.00  0.00    -0.391 OA
ATOM     31  H5  UNL     1      62.265  24.040  15.364  1.00  0.00     0.210 HD
ENDBRANCH  29  30
BRANCH  29  32
HETATM   32  C13 UNL     1      61.338  25.226  17.410  1.00  0.00     0.217 C 
BRANCH  32  33
HETATM   33  O6  UNL     1      62.760  25.350  17.409  1.00  0.00    -0.280 OA
BRANCH  33  34
HETATM   34  P1  UNL     1      63.223  26.630  16.421  1.00  0.00     0.422 P 
HETATM   35  O7  UNL     1      62.022  27.467  16.129  1.00  0.00    -0.617 OA
HETATM   36  O8  UNL     1      63.886  26.097  14.963  1.00  0.00    -0.617 OA
HETATM   37  O9  UNL     1      64.376  27.618  17.184  1.00  0.00    -0.617 OA
ENDBRANCH  33  34
ENDBRANCH  32  33
ENDBRANCH  29  32
ENDBRANCH  26  29
ENDBRANCH  23  26
ENDBRANCH  22  23
ENDBRANCH  17  22
TORSDOF 10
ENDMDL
