MODEL 4
REMARK VINA RESULT: -10.290649514      1.883      4.614
REMARK  10 active torsions:
REMARK  status: ('A' for Active; 'I' for Inactive)
REMARK    1  A    between atoms: N4_17  and  C9_18 
REMARK    2  A    between atoms: C9_18  and  C10_19 
REMARK    3  A    between atoms: C10_19  and  O3_20 
REMARK    4  A    between atoms: C10_19  and  C11_22 
REMARK    5  A    between atoms: C11_22  and  O4_23 
REMARK    6  A    between atoms: C11_22  and  C12_25 
REMARK    7  A    between atoms: C12_25  and  O5_26 
REMARK    8  A    between atoms: C12_25  and  C13_28 
REMARK    9  A    between atoms: C13_28  and  O6_29 
REMARK   10  A    between atoms: O6_29  and  P1_30 
ROOT
HETATM    1  C1  UNL     1      58.789  14.927  15.899  1.00  0.00     0.049 C 
HETATM    2  C2  UNL     1      59.158  16.348  15.693  1.00  0.00    -0.054 A 
HETATM    3  C3  UNL     1      59.554  16.804  14.455  1.00  0.00     0.039 A 
HETATM    4  C4  UNL     1      59.904  18.128  14.235  1.00  0.00     0.060 A 
HETATM    5  N1  UNL     1      60.279  18.517  13.003  1.00  0.00    -0.347 N 
ATOM      6  H1  UNL     1      60.305  17.835  12.245  1.00  0.00     0.166 HD
HETATM    7  C5  UNL     1      60.616  19.790  12.761  1.00  0.00     0.146 A 
HETATM    8  C6  UNL     1      61.012  20.246  11.497  1.00  0.00     0.280 A 
HETATM    9  O1  UNL     1      61.047  19.419  10.568  1.00  0.00    -0.265 OA
HETATM   10  N2  UNL     1      61.340  21.550  11.325  1.00  0.00    -0.273 N 
ATOM     11  H2  UNL     1      61.630  21.886  10.406  1.00  0.00     0.173 HD
HETATM   12  C7  UNL     1      61.285  22.401  12.365  1.00  0.00     0.328 A 
HETATM   13  O2  UNL     1      61.602  23.598  12.137  1.00  0.00    -0.247 OA
HETATM   14  N3  UNL     1      60.904  22.000  13.614  1.00  0.00    -0.292 N 
ATOM     15  H3  UNL     1      60.878  22.682  14.372  1.00  0.00     0.172 HD
HETATM   16  C8  UNL     1      60.564  20.726  13.864  1.00  0.00     0.145 A 
HETATM   17  N4  UNL     1      60.178  20.285  15.100  1.00  0.00    -0.327 N 
HETATM   18  C14 UNL     1      59.842  19.004  15.325  1.00  0.00     0.063 A 
HETATM   19  C15 UNL     1      59.445  18.555  16.570  1.00  0.00     0.039 A 
HETATM   20  C16 UNL     1      59.103  17.230  16.756  1.00  0.00    -0.054 A 
HETATM   21  C17 UNL     1      58.674  16.730  18.086  1.00  0.00     0.049 C 
ENDROOT
BRANCH  17  22
HETATM   22  C9  UNL     1      60.143  21.261  16.167  1.00  0.00     0.165 C 
BRANCH  22  23
HETATM   23  C10 UNL     1      61.578  21.447  16.679  1.00  0.00     0.167 C 
BRANCH  23  24
HETATM   24  O3  UNL     1      62.026  20.422  17.464  1.00  0.00    -0.391 OA
ATOM     25  H3  UNL     1      62.913  20.539  17.783  1.00  0.00     0.210 HD
ENDBRANCH  23  24
BRANCH  23  26
HETATM   26  C11 UNL     1      61.839  22.765  17.254  1.00  0.00     0.179 C 
BRANCH  26  27
HETATM   27  O4  UNL     1      61.983  22.670  18.641  1.00  0.00    -0.390 OA
ATOM     28  H4  UNL     1      62.897  22.548  18.872  1.00  0.00     0.210 HD
ENDBRANCH  26  27
BRANCH  26  29
HETATM   29  C12 UNL     1      61.058  23.953  16.905  1.00  0.00     0.173 C 
BRANCH  29  30
HETATM   30  O5  UNL     1      61.357  24.180  15.510  1.00  0.00    -0.391 OA
ATOM     31  H5  UNL     1      61.337  25.126  15.417  1.00  0.00     0.210 HD
ENDBRANCH  29  30
BRANCH  29  32
HETATM   32  C13 UNL     1      61.514  25.265  17.535  1.00  0.00     0.217 C 
BRANCH  32  33
HETATM   33  O6  UNL     1      62.934  25.352  17.424  1.00  0.00    -0.280 OA
BRANCH  33  34
HETATM   34  P1  UNL     1      63.353  26.643  16.430  1.00  0.00     0.422 P 
HETATM   35  O7  UNL     1      63.988  26.106  15.191  1.00  0.00    -0.617 OA
HETATM   36  O8  UNL     1      64.433  27.698  17.185  1.00  0.00    -0.617 OA
HETATM   37  O9  UNL     1      61.986  27.542  15.970  1.00  0.00    -0.617 OA
ENDBRANCH  33  34
ENDBRANCH  32  33
ENDBRANCH  29  32
ENDBRANCH  26  29
ENDBRANCH  23  26
ENDBRANCH  22  23
ENDBRANCH  17  22
TORSDOF 10
ENDMDL
