MODEL 1
REMARK VINA RESULT: -11.505978643      0.000      0.000
REMARK  10 active torsions:
REMARK  status: ('A' for Active; 'I' for Inactive)
REMARK    1  A    between atoms: N4_17  and  C9_18 
REMARK    2  A    between atoms: C9_18  and  C10_19 
REMARK    3  A    between atoms: C10_19  and  O3_20 
REMARK    4  A    between atoms: C10_19  and  C11_22 
REMARK    5  A    between atoms: C11_22  and  O4_23 
REMARK    6  A    between atoms: C11_22  and  C12_25 
REMARK    7  A    between atoms: C12_25  and  O5_26 
REMARK    8  A    between atoms: C12_25  and  C13_28 
REMARK    9  A    between atoms: C13_28  and  O6_29 
REMARK   10  A    between atoms: O6_29  and  P1_30 
ROOT
HETATM    1  C1  UNL     1      61.287  20.378  10.004  1.00  0.00     0.049 C 
HETATM    2  C2  UNL     1      60.939  20.316  11.445  1.00  0.00    -0.054 A 
HETATM    3  C3  UNL     1      60.689  19.109  12.061  1.00  0.00     0.039 A 
HETATM    4  C4  UNL     1      60.362  19.023  13.406  1.00  0.00     0.060 A 
HETATM    5  N1  UNL     1      60.134  17.817  13.955  1.00  0.00    -0.347 N 
ATOM      6  H1  UNL     1      60.199  16.979  13.377  1.00  0.00     0.166 HD
HETATM    7  C5  UNL     1      59.822  17.703  15.252  1.00  0.00     0.146 A 
HETATM    8  C6  UNL     1      59.576  16.472  15.871  1.00  0.00     0.280 A 
HETATM    9  O1  UNL     1      59.653  15.446  15.172  1.00  0.00    -0.265 OA
HETATM   10  N2  UNL     1      59.264  16.433  17.191  1.00  0.00    -0.273 N 
ATOM     11  H2  UNL     1      59.083  15.538  17.646  1.00  0.00     0.173 HD
HETATM   12  C7  UNL     1      59.193  17.573  17.900  1.00  0.00     0.328 A 
HETATM   13  O2  UNL     1      58.901  17.467  19.119  1.00  0.00    -0.247 OA
HETATM   14  N3  UNL     1      59.426  18.795  17.336  1.00  0.00    -0.292 N 
ATOM     15  H3  UNL     1      59.361  19.633  17.914  1.00  0.00     0.172 HD
HETATM   16  C8  UNL     1      59.740  18.917  16.037  1.00  0.00     0.145 A 
HETATM   17  N4  UNL     1      59.980  20.122  15.436  1.00  0.00    -0.327 N 
HETATM   18  C14 UNL     1      60.292  20.217  14.133  1.00  0.00     0.063 A 
HETATM   19  C15 UNL     1      60.542  21.432  13.523  1.00  0.00     0.039 A 
HETATM   20  C16 UNL     1      60.866  21.483  12.181  1.00  0.00    -0.054 A 
HETATM   21  C17 UNL     1      61.137  22.779  11.509  1.00  0.00     0.049 C 
ENDROOT
BRANCH  17  22
HETATM   22  C9  UNL     1      59.886  21.303  16.266  1.00  0.00     0.165 C 
BRANCH  22  23
HETATM   23  C10 UNL     1      61.282  21.588  16.835  1.00  0.00     0.167 C 
BRANCH  23  24
HETATM   24  O3  UNL     1      61.946  20.473  17.266  1.00  0.00    -0.391 OA
ATOM     25  H3  UNL     1      62.269  20.536  18.157  1.00  0.00     0.210 HD
ENDBRANCH  23  24
BRANCH  23  26
HETATM   26  C11 UNL     1      61.321  22.685  17.799  1.00  0.00     0.179 C 
BRANCH  26  27
HETATM   27  O4  UNL     1      60.334  23.629  17.503  1.00  0.00    -0.390 OA
ATOM     28  H4  UNL     1      60.727  24.479  17.342  1.00  0.00     0.210 HD
ENDBRANCH  26  27
BRANCH  26  29
HETATM   29  C12 UNL     1      62.563  23.355  18.190  1.00  0.00     0.173 C 
BRANCH  29  30
HETATM   30  O5  UNL     1      62.671  23.109  19.609  1.00  0.00    -0.391 OA
ATOM     31  H5  UNL     1      62.204  23.833  20.010  1.00  0.00     0.210 HD
ENDBRANCH  29  30
BRANCH  29  32
HETATM   32  C13 UNL     1      62.546  24.880  18.143  1.00  0.00     0.217 C 
BRANCH  32  33
HETATM   33  O6  UNL     1      63.551  25.317  17.229  1.00  0.00    -0.280 OA
BRANCH  33  34
HETATM   34  P1  UNL     1      62.832  25.932  15.838  1.00  0.00     0.422 P 
HETATM   35  O7  UNL     1      63.906  26.344  14.887  1.00  0.00    -0.617 OA
HETATM   36  O8  UNL     1      61.854  27.268  16.169  1.00  0.00    -0.617 OA
HETATM   37  O9  UNL     1      61.870  24.764  15.066  1.00  0.00    -0.617 OA
ENDBRANCH  33  34
ENDBRANCH  32  33
ENDBRANCH  29  32
ENDBRANCH  26  29
ENDBRANCH  23  26
ENDBRANCH  22  23
ENDBRANCH  17  22
TORSDOF 10
ENDMDL
