MODEL 3
REMARK VINA RESULT: -11.248914360      1.044      1.524
REMARK  10 active torsions:
REMARK  status: ('A' for Active; 'I' for Inactive)
REMARK    1  A    between atoms: N4_17  and  C9_18 
REMARK    2  A    between atoms: C9_18  and  C10_19 
REMARK    3  A    between atoms: C10_19  and  O3_20 
REMARK    4  A    between atoms: C10_19  and  C11_22 
REMARK    5  A    between atoms: C11_22  and  O4_23 
REMARK    6  A    between atoms: C11_22  and  C12_25 
REMARK    7  A    between atoms: C12_25  and  O5_26 
REMARK    8  A    between atoms: C12_25  and  C13_28 
REMARK    9  A    between atoms: C13_28  and  O6_29 
REMARK   10  A    between atoms: O6_29  and  P1_30 
ROOT
HETATM    1  C1  UNL     1      60.481  19.851   9.177  1.00  0.00     0.049 C 
HETATM    2  C2  UNL     1      60.511  19.845  10.659  1.00  0.00    -0.054 A 
HETATM    3  C3  UNL     1      59.933  18.818  11.374  1.00  0.00     0.039 A 
HETATM    4  C4  UNL     1      59.947  18.788  12.761  1.00  0.00     0.060 A 
HETATM    5  N1  UNL     1      59.371  17.757  13.406  1.00  0.00    -0.347 N 
ATOM      6  H1  UNL     1      58.927  17.012  12.869  1.00  0.00     0.166 HD
HETATM    7  C5  UNL     1      59.375  17.699  14.743  1.00  0.00     0.146 A 
HETATM    8  C6  UNL     1      58.790  16.649  15.461  1.00  0.00     0.280 A 
HETATM    9  O1  UNL     1      58.246  15.736  14.813  1.00  0.00    -0.265 OA
HETATM   10  N2  UNL     1      58.832  16.656  16.817  1.00  0.00    -0.273 N 
ATOM     11  H2  UNL     1      58.406  15.893  17.344  1.00  0.00     0.173 HD
HETATM   12  C7  UNL     1      59.432  17.669  17.467  1.00  0.00     0.328 A 
HETATM   13  O2  UNL     1      59.436  17.614  18.724  1.00  0.00    -0.247 OA
HETATM   14  N3  UNL     1      60.015  18.712  16.806  1.00  0.00    -0.292 N 
ATOM     15  H3  UNL     1      60.459  19.458  17.342  1.00  0.00     0.172 HD
HETATM   16  C8  UNL     1      60.016  18.777  15.466  1.00  0.00     0.145 A 
HETATM   17  N4  UNL     1      60.588  19.806  14.768  1.00  0.00    -0.327 N 
HETATM   18  C14 UNL     1      60.576  19.847  13.425  1.00  0.00     0.063 A 
HETATM   19  C15 UNL     1      61.158  20.880  12.716  1.00  0.00     0.039 A 
HETATM   20  C16 UNL     1      61.127  20.880  11.335  1.00  0.00    -0.054 A 
HETATM   21  C17 UNL     1      61.748  21.981  10.556  1.00  0.00     0.049 C 
ENDROOT
BRANCH  17  22
HETATM   22  C9  UNL     1      61.216  20.856  15.539  1.00  0.00     0.165 C 
BRANCH  22  23
HETATM   23  C10 UNL     1      60.113  21.813  16.011  1.00  0.00     0.167 C 
BRANCH  23  24
HETATM   24  O3  UNL     1      59.736  22.733  15.073  1.00  0.00    -0.391 OA
ATOM     25  H3  UNL     1      60.187  23.566  15.145  1.00  0.00     0.210 HD
ENDBRANCH  23  24
BRANCH  23  26
HETATM   26  C11 UNL     1      60.359  22.404  17.324  1.00  0.00     0.179 C 
BRANCH  26  27
HETATM   27  O4  UNL     1      59.492  23.478  17.545  1.00  0.00    -0.390 OA
ATOM     28  H4  UNL     1      58.900  23.284  18.263  1.00  0.00     0.210 HD
ENDBRANCH  26  27
BRANCH  26  29
HETATM   29  C12 UNL     1      61.701  22.727  17.811  1.00  0.00     0.173 C 
BRANCH  29  30
HETATM   30  O5  UNL     1      61.636  22.478  19.233  1.00  0.00    -0.391 OA
ATOM     31  H5  UNL     1      62.521  22.634  19.540  1.00  0.00     0.210 HD
ENDBRANCH  29  30
BRANCH  29  32
HETATM   32  C13 UNL     1      62.091  24.202  17.776  1.00  0.00     0.217 C 
BRANCH  32  33
HETATM   33  O6  UNL     1      61.868  24.698  16.457  1.00  0.00    -0.280 OA
BRANCH  33  34
HETATM   34  P1  UNL     1      62.704  26.142  16.239  1.00  0.00     0.422 P 
HETATM   35  O7  UNL     1      61.719  27.262  16.191  1.00  0.00    -0.617 OA
HETATM   36  O8  UNL     1      63.603  26.142  14.810  1.00  0.00    -0.617 OA
HETATM   37  O9  UNL     1      63.774  26.440  17.525  1.00  0.00    -0.617 OA
ENDBRANCH  33  34
ENDBRANCH  32  33
ENDBRANCH  29  32
ENDBRANCH  26  29
ENDBRANCH  23  26
ENDBRANCH  22  23
ENDBRANCH  17  22
TORSDOF 10
ENDMDL
