MODEL 8
REMARK VINA RESULT: -9.924425118      1.014      1.456
REMARK  10 active torsions:
REMARK  status: ('A' for Active; 'I' for Inactive)
REMARK    1  A    between atoms: N4_17  and  C9_18 
REMARK    2  A    between atoms: C9_18  and  C10_19 
REMARK    3  A    between atoms: C10_19  and  O3_20 
REMARK    4  A    between atoms: C10_19  and  C11_22 
REMARK    5  A    between atoms: C11_22  and  O4_23 
REMARK    6  A    between atoms: C11_22  and  C12_25 
REMARK    7  A    between atoms: C12_25  and  O5_26 
REMARK    8  A    between atoms: C12_25  and  C13_28 
REMARK    9  A    between atoms: C13_28  and  O6_29 
REMARK   10  A    between atoms: O6_29  and  P1_30 
ROOT
HETATM    1  C1  UNL     1      61.182  20.310   9.784  1.00  0.00     0.049 C 
HETATM    2  C2  UNL     1      60.892  20.305  11.238  1.00  0.00    -0.054 A 
HETATM    3  C3  UNL     1      60.595  19.132  11.897  1.00  0.00     0.039 A 
HETATM    4  C4  UNL     1      60.320  19.099  13.256  1.00  0.00     0.060 A 
HETATM    5  N1  UNL     1      60.042  17.923  13.846  1.00  0.00    -0.347 N 
ATOM      6  H1  UNL     1      60.033  17.069  13.289  1.00  0.00     0.166 HD
HETATM    7  C5  UNL     1      59.779  17.862  15.157  1.00  0.00     0.146 A 
HETATM    8  C6  UNL     1      59.485  16.664  15.819  1.00  0.00     0.280 A 
HETATM    9  O1  UNL     1      59.471  15.617  15.146  1.00  0.00    -0.265 OA
HETATM   10  N2  UNL     1      59.227  16.677  17.151  1.00  0.00    -0.273 N 
ATOM     11  H2  UNL     1      59.011  15.806  17.637  1.00  0.00     0.173 HD
HETATM   12  C7  UNL     1      59.255  17.837  17.831  1.00  0.00     0.328 A 
HETATM   13  O2  UNL     1      59.007  17.779  19.064  1.00  0.00    -0.247 OA
HETATM   14  N3  UNL     1      59.537  19.028  17.225  1.00  0.00    -0.292 N 
ATOM     15  H3  UNL     1      59.547  19.882  17.782  1.00  0.00     0.172 HD
HETATM   16  C8  UNL     1      59.803  19.097  15.912  1.00  0.00     0.145 A 
HETATM   17  N4  UNL     1      60.090  20.270  15.268  1.00  0.00    -0.327 N 
HETATM   18  C14 UNL     1      60.353  20.314  13.952  1.00  0.00     0.063 A 
HETATM   19  C15 UNL     1      60.650  21.494  13.300  1.00  0.00     0.039 A 
HETATM   20  C16 UNL     1      60.920  21.493  11.944  1.00  0.00    -0.054 A 
HETATM   21  C17 UNL     1      61.240  22.752  11.227  1.00  0.00     0.049 C 
ENDROOT
BRANCH  17  22
HETATM   22  C9  UNL     1      60.102  21.475  16.069  1.00  0.00     0.165 C 
BRANCH  22  23
HETATM   23  C10 UNL     1      61.534  21.681  16.583  1.00  0.00     0.167 C 
BRANCH  23  24
HETATM   24  O3  UNL     1      62.371  20.629  16.334  1.00  0.00    -0.391 OA
ATOM     25  H3  UNL     1      62.667  20.177  17.116  1.00  0.00     0.210 HD
ENDBRANCH  23  24
BRANCH  23  26
HETATM   26  C11 UNL     1      61.609  22.158  17.962  1.00  0.00     0.179 C 
BRANCH  26  27
HETATM   27  O4  UNL     1      60.338  22.508  18.426  1.00  0.00    -0.390 OA
ATOM     28  H4  UNL     1      60.384  22.794  19.332  1.00  0.00     0.210 HD
ENDBRANCH  26  27
BRANCH  26  29
HETATM   29  C12 UNL     1      62.600  23.139  18.409  1.00  0.00     0.173 C 
BRANCH  29  30
HETATM   30  O5  UNL     1      62.311  23.324  19.813  1.00  0.00    -0.391 OA
ATOM     31  H5  UNL     1      61.706  22.622  20.023  1.00  0.00     0.210 HD
ENDBRANCH  29  30
BRANCH  29  32
HETATM   32  C13 UNL     1      62.433  24.556  17.872  1.00  0.00     0.217 C 
BRANCH  32  33
HETATM   33  O6  UNL     1      61.183  25.070  18.329  1.00  0.00    -0.280 OA
BRANCH  33  34
HETATM   34  P1  UNL     1      60.319  25.713  17.037  1.00  0.00     0.422 P 
HETATM   35  O7  UNL     1      59.310  24.709  16.590  1.00  0.00    -0.617 OA
HETATM   36  O8  UNL     1      61.322  26.097  15.735  1.00  0.00    -0.617 OA
HETATM   37  O9  UNL     1      59.488  27.126  17.485  1.00  0.00    -0.617 OA
ENDBRANCH  33  34
ENDBRANCH  32  33
ENDBRANCH  29  32
ENDBRANCH  26  29
ENDBRANCH  23  26
ENDBRANCH  22  23
ENDBRANCH  17  22
TORSDOF 10
ENDMDL
