MODEL 5
REMARK VINA RESULT: -10.267891052      2.134      4.747
REMARK  10 active torsions:
REMARK  status: ('A' for Active; 'I' for Inactive)
REMARK    1  A    between atoms: N4_17  and  C9_18 
REMARK    2  A    between atoms: C9_18  and  C10_19 
REMARK    3  A    between atoms: C10_19  and  O3_20 
REMARK    4  A    between atoms: C10_19  and  C11_22 
REMARK    5  A    between atoms: C11_22  and  O4_23 
REMARK    6  A    between atoms: C11_22  and  C12_25 
REMARK    7  A    between atoms: C12_25  and  O5_26 
REMARK    8  A    between atoms: C12_25  and  C13_28 
REMARK    9  A    between atoms: C13_28  and  O6_29 
REMARK   10  A    between atoms: O6_29  and  P1_30 
ROOT
HETATM    1  C1  UNL     1      58.123  15.362  16.183  1.00  0.00     0.049 C 
HETATM    2  C2  UNL     1      58.809  16.584  15.698  1.00  0.00    -0.054 A 
HETATM    3  C3  UNL     1      58.921  16.844  14.350  1.00  0.00     0.039 A 
HETATM    4  C4  UNL     1      59.557  17.979  13.869  1.00  0.00     0.060 A 
HETATM    5  N1  UNL     1      59.631  18.184  12.542  1.00  0.00    -0.347 N 
ATOM      6  H1  UNL     1      59.223  17.501  11.903  1.00  0.00     0.166 HD
HETATM    7  C5  UNL     1      60.234  19.273  12.050  1.00  0.00     0.146 A 
HETATM    8  C6  UNL     1      60.337  19.533  10.678  1.00  0.00     0.280 A 
HETATM    9  O1  UNL     1      59.842  18.704   9.893  1.00  0.00    -0.265 OA
HETATM   10  N2  UNL     1      60.963  20.658  10.252  1.00  0.00    -0.273 N 
ATOM     11  H2  UNL     1      61.041  20.851   9.253  1.00  0.00     0.173 HD
HETATM   12  C7  UNL     1      61.481  21.520  11.144  1.00  0.00     0.328 A 
HETATM   13  O2  UNL     1      62.048  22.544  10.682  1.00  0.00    -0.247 OA
HETATM   14  N3  UNL     1      61.403  21.306  12.491  1.00  0.00    -0.292 N 
ATOM     15  H3  UNL     1      61.810  21.989  13.130  1.00  0.00     0.172 HD
HETATM   16  C8  UNL     1      60.800  20.217  12.991  1.00  0.00     0.145 A 
HETATM   17  N4  UNL     1      60.701  19.967  14.333  1.00  0.00    -0.327 N 
HETATM   18  C14 UNL     1      60.091  18.869  14.809  1.00  0.00     0.063 A 
HETATM   19  C15 UNL     1      59.983  18.616  16.162  1.00  0.00     0.039 A 
HETATM   20  C16 UNL     1      59.343  17.475  16.609  1.00  0.00    -0.054 A 
HETATM   21  C17 UNL     1      59.217  17.187  18.059  1.00  0.00     0.049 C 
ENDROOT
BRANCH  17  22
HETATM   22  C9  UNL     1      61.282  20.942  15.229  1.00  0.00     0.165 C 
BRANCH  22  23
HETATM   23  C10 UNL     1      60.156  21.875  15.699  1.00  0.00     0.167 C 
BRANCH  23  24
HETATM   24  O3  UNL     1      59.838  22.858  14.804  1.00  0.00    -0.391 OA
ATOM     25  H3  UNL     1      59.863  22.577  13.897  1.00  0.00     0.210 HD
ENDBRANCH  23  24
BRANCH  23  26
HETATM   26  C11 UNL     1      60.326  22.375  17.061  1.00  0.00     0.179 C 
BRANCH  26  27
HETATM   27  O4  UNL     1      59.459  23.445  17.299  1.00  0.00    -0.390 OA
ATOM     28  H4  UNL     1      59.830  24.253  16.961  1.00  0.00     0.210 HD
ENDBRANCH  26  27
BRANCH  26  29
HETATM   29  C12 UNL     1      61.640  22.646  17.649  1.00  0.00     0.173 C 
BRANCH  29  30
HETATM   30  O5  UNL     1      61.466  22.367  19.056  1.00  0.00    -0.391 OA
ATOM     31  H5  UNL     1      62.116  22.911  19.486  1.00  0.00     0.210 HD
ENDBRANCH  29  30
BRANCH  29  32
HETATM   32  C13 UNL     1      62.073  24.109  17.678  1.00  0.00     0.217 C 
BRANCH  32  33
HETATM   33  O6  UNL     1      61.797  24.689  16.404  1.00  0.00    -0.280 OA
BRANCH  33  34
HETATM   34  P1  UNL     1      62.659  26.122  16.227  1.00  0.00     0.422 P 
HETATM   35  O7  UNL     1      61.690  27.254  16.134  1.00  0.00    -0.617 OA
HETATM   36  O8  UNL     1      63.624  26.113  14.842  1.00  0.00    -0.617 OA
HETATM   37  O9  UNL     1      63.670  26.408  17.562  1.00  0.00    -0.617 OA
ENDBRANCH  33  34
ENDBRANCH  32  33
ENDBRANCH  29  32
ENDBRANCH  26  29
ENDBRANCH  23  26
ENDBRANCH  22  23
ENDBRANCH  17  22
TORSDOF 10
ENDMDL
