MODEL 1
REMARK VINA RESULT: -7.241991722      0.000      0.000
REMARK  5 active torsions:
REMARK  status: ('A' for Active; 'I' for Inactive)
REMARK    1  A    between atoms: C3_6  and  C4_7 
REMARK    2  A    between atoms: C4_7  and  N2_8 
REMARK    3  A    between atoms: C5_12  and  O1_13 
REMARK    4  A    between atoms: C6_15  and  O2_16 
REMARK    5  A    between atoms: C7_18  and  O3_19 
ROOT
HETATM    1  C1  UNL     1       1.766  28.516  24.880  1.00  0.00     0.043 C 
HETATM    2  C2  UNL     1       0.307  28.174  24.915  1.00  0.00     0.213 C 
HETATM    3  N1  UNL     1       0.074  27.123  25.893  1.00  0.00    -0.060 N 
ATOM      4  H11 UNL     1       0.535  27.320  26.781  1.00  0.00     0.278 HD
ATOM      5  H12 UNL     1       0.568  26.263  25.654  1.00  0.00     0.278 HD
HETATM    6  C3  UNL     1      -1.343  26.903  26.058  1.00  0.00     0.242 C 
HETATM    7  C5  UNL     1      -1.890  26.375  24.774  1.00  0.00     0.181 C 
HETATM    8  C6  UNL     1      -1.706  27.480  23.731  1.00  0.00     0.179 C 
HETATM    9  C7  UNL     1      -0.204  27.680  23.586  1.00  0.00     0.179 C 
ENDROOT
BRANCH   6  10
HETATM   10  C4  UNL     1      -1.620  26.021  27.245  1.00  0.00     0.265 C 
BRANCH  10  11
HETATM   11  N2  UNL     1      -2.005  26.730  28.418  1.00  0.00    -0.077 N 
ATOM     12  H23 UNL     1      -2.176  27.713  28.202  1.00  0.00     0.274 HD
ATOM     13  H22 UNL     1      -2.942  26.453  28.713  1.00  0.00     0.274 HD
ATOM     14  H21 UNL     1      -1.346  26.643  29.191  1.00  0.00     0.274 HD
ENDBRANCH  10  11
ENDBRANCH   6  10
BRANCH   7  15
HETATM   15  O1  UNL     1      -3.245  26.099  24.822  1.00  0.00    -0.391 OA
ATOM     16  H1  UNL     1      -3.601  25.803  23.993  1.00  0.00     0.210 HD
ENDBRANCH   7  15
BRANCH   8  17
HETATM   17  O2  UNL     1      -2.297  27.139  22.524  1.00  0.00    -0.390 OA
ATOM     18  H2  UNL     1      -2.194  27.831  21.881  1.00  0.00     0.210 HD
ENDBRANCH   8  17
BRANCH   9  19
HETATM   19  O3  UNL     1       0.325  26.420  23.277  1.00  0.00    -0.391 OA
ATOM     20  H3  UNL     1      -0.014  26.099  22.449  1.00  0.00     0.210 HD
ENDBRANCH   9  19
TORSDOF 5
ENDMDL
