MODEL 4
REMARK VINA RESULT: -4.862861552      2.807      4.754
REMARK  5 active torsions:
REMARK  status: ('A' for Active; 'I' for Inactive)
REMARK    1  A    between atoms: C3_6  and  C4_7 
REMARK    2  A    between atoms: C4_7  and  N2_8 
REMARK    3  A    between atoms: C5_12  and  O1_13 
REMARK    4  A    between atoms: C6_15  and  O2_16 
REMARK    5  A    between atoms: C7_18  and  O3_19 
ROOT
HETATM    1  C1  UNL     1      -4.427  27.661  30.285  1.00  0.00     0.043 C 
HETATM    2  C2  UNL     1      -4.309  27.051  28.921  1.00  0.00     0.213 C 
HETATM    3  N1  UNL     1      -2.915  27.040  28.508  1.00  0.00    -0.060 N 
ATOM      4  H11 UNL     1      -2.302  26.682  29.242  1.00  0.00     0.278 HD
ATOM      5  H12 UNL     1      -2.530  27.982  28.437  1.00  0.00     0.278 HD
HETATM    6  C3  UNL     1      -2.766  26.304  27.276  1.00  0.00     0.242 C 
HETATM    7  C5  UNL     1      -3.492  27.040  26.198  1.00  0.00     0.181 C 
HETATM    8  C6  UNL     1      -4.974  27.024  26.578  1.00  0.00     0.179 C 
HETATM    9  C7  UNL     1      -5.087  27.809  27.877  1.00  0.00     0.179 C 
ENDROOT
BRANCH   6  10
HETATM   10  C4  UNL     1      -1.316  26.049  26.967  1.00  0.00     0.265 C 
BRANCH  10  11
HETATM   11  N2  UNL     1      -0.753  26.964  26.032  1.00  0.00    -0.077 N 
ATOM     12  H23 UNL     1      -1.112  26.783  25.094  1.00  0.00     0.274 HD
ATOM     13  H22 UNL     1      -1.124  27.903  26.181  1.00  0.00     0.274 HD
ATOM     14  H21 UNL     1       0.267  26.978  26.028  1.00  0.00     0.274 HD
ENDBRANCH  10  11
ENDBRANCH   6  10
BRANCH   7  15
HETATM   15  O1  UNL     1      -3.395  26.437  24.956  1.00  0.00    -0.391 OA
ATOM     16  H1  UNL     1      -3.214  27.048  24.251  1.00  0.00     0.210 HD
ENDBRANCH   7  15
BRANCH   8  17
HETATM   17  O2  UNL     1      -5.757  27.575  25.575  1.00  0.00    -0.390 OA
ATOM     18  H2  UNL     1      -6.678  27.559  25.808  1.00  0.00     0.210 HD
ENDBRANCH   8  17
BRANCH   9  19
HETATM   19  O3  UNL     1      -4.508  29.060  27.624  1.00  0.00    -0.391 OA
ATOM     20  H3  UNL     1      -5.047  29.574  27.034  1.00  0.00     0.210 HD
ENDBRANCH   9  19
TORSDOF 5
ENDMDL
