MODEL 5
REMARK VINA RESULT: -4.808375588      3.768      5.883
REMARK  5 active torsions:
REMARK  status: ('A' for Active; 'I' for Inactive)
REMARK    1  A    between atoms: C3_6  and  C4_7 
REMARK    2  A    between atoms: C4_7  and  N2_8 
REMARK    3  A    between atoms: C5_12  and  O1_13 
REMARK    4  A    between atoms: C6_15  and  O2_16 
REMARK    5  A    between atoms: C7_18  and  O3_19 
ROOT
HETATM    1  C1  UNL     1      -6.382  27.919  27.507  1.00  0.00     0.043 C 
HETATM    2  C2  UNL     1      -4.953  27.826  27.950  1.00  0.00     0.213 C 
HETATM    3  N1  UNL     1      -4.223  26.930  27.068  1.00  0.00    -0.060 N 
ATOM      4  H11 UNL     1      -4.402  27.134  26.085  1.00  0.00     0.278 HD
ATOM      5  H12 UNL     1      -4.597  25.981  27.095  1.00  0.00     0.278 HD
HETATM    6  C3  UNL     1      -2.815  26.963  27.379  1.00  0.00     0.242 C 
HETATM    7  C5  UNL     1      -2.623  26.409  28.752  1.00  0.00     0.181 C 
HETATM    8  C6  UNL     1      -3.337  27.361  29.713  1.00  0.00     0.179 C 
HETATM    9  C7  UNL     1      -4.815  27.296  29.354  1.00  0.00     0.179 C 
ENDROOT
BRANCH   6  10
HETATM   10  C4  UNL     1      -2.009  26.260  26.322  1.00  0.00     0.265 C 
BRANCH  10  11
HETATM   11  N2  UNL     1      -0.640  26.651  26.279  1.00  0.00    -0.077 N 
ATOM     12  H23 UNL     1      -0.559  27.668  26.265  1.00  0.00     0.274 HD
ATOM     13  H22 UNL     1      -0.183  26.453  27.170  1.00  0.00     0.274 HD
ATOM     14  H21 UNL     1      -0.114  26.240  25.508  1.00  0.00     0.274 HD
ENDBRANCH  10  11
ENDBRANCH   6  10
BRANCH   7  15
HETATM   15  O1  UNL     1      -1.298  26.366  29.150  1.00  0.00    -0.391 OA
ATOM     16  H1  UNL     1      -0.819  25.627  28.792  1.00  0.00     0.210 HD
ENDBRANCH   7  15
BRANCH   8  17
HETATM   17  O2  UNL     1      -3.114  27.005  31.035  1.00  0.00    -0.390 OA
ATOM     18  H2  UNL     1      -3.909  27.077  31.551  1.00  0.00     0.210 HD
ENDBRANCH   8  17
BRANCH   9  19
HETATM   19  O3  UNL     1      -5.168  25.941  29.420  1.00  0.00    -0.391 OA
ATOM     20  H3  UNL     1      -5.366  25.681  30.312  1.00  0.00     0.210 HD
ENDBRANCH   9  19
TORSDOF 5
ENDMDL
