MODEL 3
REMARK VINA RESULT: -4.865155658      3.387      5.619
REMARK  5 active torsions:
REMARK  status: ('A' for Active; 'I' for Inactive)
REMARK    1  A    between atoms: C3_6  and  C4_7 
REMARK    2  A    between atoms: C4_7  and  N2_8 
REMARK    3  A    between atoms: C5_12  and  O1_13 
REMARK    4  A    between atoms: C6_15  and  O2_16 
REMARK    5  A    between atoms: C7_18  and  O3_19 
ROOT
HETATM    1  C1  UNL     1      -5.905  27.603  29.183  1.00  0.00     0.043 C 
HETATM    2  C2  UNL     1      -4.486  27.536  28.704  1.00  0.00     0.213 C 
HETATM    3  N1  UNL     1      -4.431  26.843  27.428  1.00  0.00    -0.060 N 
ATOM      4  H11 UNL     1      -5.135  27.189  26.775  1.00  0.00     0.278 HD
ATOM      5  H12 UNL     1      -4.757  25.879  27.503  1.00  0.00     0.278 HD
HETATM    6  C3  UNL     1      -3.100  26.920  26.875  1.00  0.00     0.242 C 
HETATM    7  C5  UNL     1      -2.175  26.168  27.773  1.00  0.00     0.181 C 
HETATM    8  C6  UNL     1      -2.169  26.904  29.114  1.00  0.00     0.179 C 
HETATM    9  C7  UNL     1      -3.585  26.799  29.662  1.00  0.00     0.179 C 
ENDROOT
BRANCH   6  10
HETATM   10  C4  UNL     1      -3.078  26.450  25.447  1.00  0.00     0.265 C 
BRANCH  10  11
HETATM   11  N2  UNL     1      -2.005  26.985  24.677  1.00  0.00    -0.077 N 
ATOM     12  H23 UNL     1      -2.264  27.890  24.283  1.00  0.00     0.274 HD
ATOM     13  H22 UNL     1      -1.238  27.274  25.284  1.00  0.00     0.274 HD
ATOM     14  H21 UNL     1      -1.667  26.360  23.946  1.00  0.00     0.274 HD
ENDBRANCH  10  11
ENDBRANCH   6  10
BRANCH   7  15
HETATM   15  O1  UNL     1      -0.865  26.150  27.326  1.00  0.00    -0.391 OA
ATOM     16  H1  UNL     1      -0.597  26.959  26.906  1.00  0.00     0.210 HD
ENDBRANCH   7  15
BRANCH   8  17
HETATM   17  O2  UNL     1      -1.239  26.358  29.986  1.00  0.00    -0.390 OA
ATOM     18  H2  UNL     1      -0.491  26.932  30.098  1.00  0.00     0.210 HD
ENDBRANCH   8  17
BRANCH   9  19
HETATM   19  O3  UNL     1      -3.888  25.431  29.688  1.00  0.00    -0.391 OA
ATOM     20  H3  UNL     1      -3.671  25.016  28.861  1.00  0.00     0.210 HD
ENDBRANCH   9  19
TORSDOF 5
ENDMDL
