MODEL 2
REMARK VINA RESULT: -7.862334347      1.359      1.499
REMARK  7 active torsions:
REMARK  status: ('A' for Active; 'I' for Inactive)
REMARK    1  A    between atoms: C3_5  and  C4_6 
REMARK    2  A    between atoms: C4_6  and  N2_7 
REMARK       I    between atoms: N2_7  and  C5_9 
REMARK    3  A    between atoms: C5_9  and  C6_11 
REMARK    4  A    between atoms: C6_11  and  C7_12 
REMARK    5  A    between atoms: C15_22  and  O2_23 
REMARK    6  A    between atoms: C16_25  and  O3_26 
REMARK    7  A    between atoms: C17_28  and  O4_29 
ROOT
HETATM    1  C4  UNL     1      -0.449  24.714  31.888  1.00  0.00     0.149 C 
ENDROOT
BRANCH   1   2
HETATM    2  C3  UNL     1      -0.010  25.256  33.272  1.00  0.00     0.126 C 
HETATM    3  N1  UNL     1      -0.142  24.222  34.205  1.00  0.00    -0.407 N 
HETATM    4  C2  UNL     1       1.038  23.695  34.812  1.00  0.00     0.104 C 
ATOM      5  H1  UNL     1      -1.062  23.852  34.446  1.00  0.00     0.154 HD
HETATM    6  C1  UNL     1       1.771  22.715  33.957  1.00  0.00     0.034 C 
HETATM    7  C17 UNL     1       1.844  24.822  35.342  1.00  0.00     0.171 C 
HETATM    8  C16 UNL     1       2.285  25.710  34.222  1.00  0.00     0.179 C 
HETATM    9  C15 UNL     1       1.263  25.992  33.198  1.00  0.00     0.173 C 
BRANCH   7  10
HETATM   10  O4  UNL     1       2.922  24.448  36.109  1.00  0.00    -0.391 OA
ATOM     11  H4  UNL     1       3.723  24.927  35.929  1.00  0.00     0.210 HD
ENDBRANCH   7  10
BRANCH   8  12
HETATM   12  O3  UNL     1       3.434  25.133  33.652  1.00  0.00    -0.390 OA
ATOM     13  H3  UNL     1       4.014  24.787  34.319  1.00  0.00     0.210 HD
ENDBRANCH   8  12
BRANCH   9  14
HETATM   14  O2  UNL     1       1.061  27.396  33.156  1.00  0.00    -0.391 OA
ATOM     15  H2  UNL     1       1.624  27.854  33.769  1.00  0.00     0.210 HD
ENDBRANCH   9  14
ENDBRANCH   1   2
BRANCH   1  16
HETATM   16  N2  UNL     1      -1.634  25.411  31.462  1.00  0.00    -0.359 N 
HETATM   17  C5  UNL     1      -1.649  26.700  30.908  1.00  0.00     0.222 C 
HETATM   18  O1  UNL     1      -0.582  27.330  30.759  1.00  0.00    -0.273 OA
ATOM     19  H2  UNL     1      -2.528  24.933  31.571  1.00  0.00     0.162 HD
BRANCH  17  20
HETATM   20  C6  UNL     1      -2.977  27.303  30.503  1.00  0.00     0.143 C 
BRANCH  20  21
HETATM   21  C7  UNL     1      -3.219  27.078  29.071  1.00  0.00    -0.022 A 
HETATM   22  C8  UNL     1      -2.262  26.510  28.221  1.00  0.00     0.097 A 
HETATM   23  N3  UNL     1      -2.829  26.434  27.028  1.00  0.00    -0.365 N 
HETATM   24  C9  UNL     1      -4.092  26.919  27.061  1.00  0.00     0.042 A 
ATOM     25  H3  UNL     1      -2.375  26.060  26.195  1.00  0.00     0.165 HD
HETATM   26  C10 UNL     1      -5.056  27.047  26.090  1.00  0.00     0.030 A 
HETATM   27  C14 UNL     1      -4.346  27.331  28.355  1.00  0.00    -0.001 A 
HETATM   28  C11 UNL     1      -6.279  27.584  26.392  1.00  0.00     0.002 A 
HETATM   29  C12 UNL     1      -6.543  27.998  27.672  1.00  0.00     0.001 A 
HETATM   30  C13 UNL     1      -5.596  27.878  28.652  1.00  0.00     0.014 A 
ENDBRANCH  20  21
ENDBRANCH  17  20
ENDBRANCH   1  16
TORSDOF 7
ENDMDL
