MODEL 3
REMARK VINA RESULT: -7.697324447      2.444      3.050
REMARK  7 active torsions:
REMARK  status: ('A' for Active; 'I' for Inactive)
REMARK    1  A    between atoms: C3_5  and  C4_6 
REMARK    2  A    between atoms: C4_6  and  N2_7 
REMARK       I    between atoms: N2_7  and  C5_9 
REMARK    3  A    between atoms: C5_9  and  C6_11 
REMARK    4  A    between atoms: C6_11  and  C7_12 
REMARK    5  A    between atoms: C15_22  and  O2_23 
REMARK    6  A    between atoms: C16_25  and  O3_26 
REMARK    7  A    between atoms: C17_28  and  O4_29 
ROOT
HETATM    1  C4  UNL     1      -0.411  25.967  32.521  1.00  0.00     0.149 C 
ENDROOT
BRANCH   1   2
HETATM    2  C3  UNL     1       0.329  24.761  31.888  1.00  0.00     0.126 C 
HETATM    3  N1  UNL     1       1.073  24.133  32.893  1.00  0.00    -0.407 N 
HETATM    4  C2  UNL     1       0.706  22.811  33.289  1.00  0.00     0.104 C 
ATOM      5  H1  UNL     1       1.860  24.610  33.333  1.00  0.00     0.154 HD
HETATM    6  C1  UNL     1      -0.449  22.762  34.233  1.00  0.00     0.034 C 
HETATM    7  C17 UNL     1       0.587  21.966  32.075  1.00  0.00     0.171 C 
HETATM    8  C16 UNL     1      -0.508  22.481  31.196  1.00  0.00     0.179 C 
HETATM    9  C15 UNL     1      -0.563  23.947  31.046  1.00  0.00     0.173 C 
BRANCH   7  10
HETATM   10  O4  UNL     1       0.412  20.625  32.323  1.00  0.00    -0.391 OA
ATOM     11  H4  UNL     1      -0.482  20.318  32.229  1.00  0.00     0.210 HD
ENDBRANCH   7  10
BRANCH   8  12
HETATM   12  O3  UNL     1      -1.722  21.972  31.691  1.00  0.00    -0.390 OA
ATOM     13  H3  UNL     1      -1.992  22.427  32.480  1.00  0.00     0.210 HD
ENDBRANCH   8  12
BRANCH   9  14
HETATM   14  O2  UNL     1      -0.414  24.251  29.668  1.00  0.00    -0.391 OA
ATOM     15  H2  UNL     1      -1.232  24.529  29.275  1.00  0.00     0.210 HD
ENDBRANCH   9  14
ENDBRANCH   1   2
BRANCH   1  16
HETATM   16  N2  UNL     1      -1.724  26.072  31.939  1.00  0.00    -0.359 N 
HETATM   17  C5  UNL     1      -2.274  27.252  31.415  1.00  0.00     0.222 C 
HETATM   18  O1  UNL     1      -1.619  28.314  31.439  1.00  0.00    -0.273 OA
ATOM     19  H2  UNL     1      -2.295  25.228  31.906  1.00  0.00     0.162 HD
BRANCH  17  20
HETATM   20  C6  UNL     1      -3.670  27.207  30.832  1.00  0.00     0.143 C 
BRANCH  20  21
HETATM   21  C7  UNL     1      -3.604  27.116  29.367  1.00  0.00    -0.022 A 
HETATM   22  C8  UNL     1      -2.435  26.762  28.683  1.00  0.00     0.097 A 
HETATM   23  N3  UNL     1      -2.749  26.752  27.397  1.00  0.00    -0.365 N 
HETATM   24  C9  UNL     1      -4.049  27.079  27.216  1.00  0.00     0.042 A 
ATOM     25  H3  UNL     1      -2.098  26.528  26.644  1.00  0.00     0.165 HD
HETATM   26  C10 UNL     1      -4.820  27.200  26.084  1.00  0.00     0.030 A 
HETATM   27  C14 UNL     1      -4.598  27.312  28.461  1.00  0.00    -0.001 A 
HETATM   28  C11 UNL     1      -6.140  27.553  26.177  1.00  0.00     0.002 A 
HETATM   29  C12 UNL     1      -6.696  27.789  27.407  1.00  0.00     0.001 A 
HETATM   30  C13 UNL     1      -5.944  27.673  28.545  1.00  0.00     0.014 A 
ENDBRANCH  20  21
ENDBRANCH  17  20
ENDBRANCH   1  16
TORSDOF 7
ENDMDL
