MODEL 1
REMARK VINA RESULT: -7.923972337      0.000      0.000
REMARK  7 active torsions:
REMARK  status: ('A' for Active; 'I' for Inactive)
REMARK    1  A    between atoms: C3_5  and  C4_6 
REMARK    2  A    between atoms: C4_6  and  N2_7 
REMARK       I    between atoms: N2_7  and  C5_9 
REMARK    3  A    between atoms: C5_9  and  C6_11 
REMARK    4  A    between atoms: C6_11  and  C7_12 
REMARK    5  A    between atoms: C15_22  and  O2_23 
REMARK    6  A    between atoms: C16_25  and  O3_26 
REMARK    7  A    between atoms: C17_28  and  O4_29 
ROOT
HETATM    1  C4  UNL     1      -0.218  25.383  31.934  1.00  0.00     0.149 C 
ENDROOT
BRANCH   1   2
HETATM    2  C3  UNL     1       0.283  25.725  33.360  1.00  0.00     0.126 C 
HETATM    3  N1  UNL     1      -0.387  24.895  34.266  1.00  0.00    -0.407 N 
HETATM    4  C2  UNL     1       0.369  23.921  34.986  1.00  0.00     0.104 C 
ATOM      5  H1  UNL     1      -1.393  24.984  34.408  1.00  0.00     0.154 HD
HETATM    6  C1  UNL     1       0.663  22.684  34.203  1.00  0.00     0.034 C 
HETATM    7  C17 UNL     1       1.540  24.589  35.605  1.00  0.00     0.171 C 
HETATM    8  C16 UNL     1       2.436  25.143  34.543  1.00  0.00     0.179 C 
HETATM    9  C15 UNL     1       1.751  25.812  33.423  1.00  0.00     0.173 C 
BRANCH   7  10
HETATM   10  O4  UNL     1       2.258  23.803  36.475  1.00  0.00    -0.391 OA
ATOM     11  H4  UNL     1       2.693  23.060  36.073  1.00  0.00     0.210 HD
ENDBRANCH   7  10
BRANCH   8  12
HETATM   12  O3  UNL     1       3.254  24.093  34.089  1.00  0.00    -0.390 OA
ATOM     13  H3  UNL     1       2.745  23.430  33.637  1.00  0.00     0.210 HD
ENDBRANCH   8  12
BRANCH   9  14
HETATM   14  O2  UNL     1       2.205  27.156  33.372  1.00  0.00    -0.391 OA
ATOM     15  H2  UNL     1       3.143  27.208  33.233  1.00  0.00     0.210 HD
ENDBRANCH   9  14
ENDBRANCH   1   2
BRANCH   1  16
HETATM   16  N2  UNL     1      -1.331  26.236  31.607  1.00  0.00    -0.359 N 
HETATM   17  C5  UNL     1      -1.744  26.547  30.303  1.00  0.00     0.222 C 
HETATM   18  O1  UNL     1      -1.130  26.079  29.322  1.00  0.00    -0.273 OA
ATOM     19  H2  UNL     1      -1.857  26.643  32.380  1.00  0.00     0.162 HD
BRANCH  17  20
HETATM   20  C6  UNL     1      -2.938  27.459  30.116  1.00  0.00     0.143 C 
BRANCH  20  21
HETATM   21  C7  UNL     1      -4.071  26.702  29.565  1.00  0.00    -0.022 A 
HETATM   22  C8  UNL     1      -4.504  25.486  30.107  1.00  0.00     0.097 A 
HETATM   23  N3  UNL     1      -5.549  25.113  29.385  1.00  0.00    -0.365 N 
HETATM   24  C9  UNL     1      -5.812  26.017  28.413  1.00  0.00     0.042 A 
ATOM     25  H3  UNL     1      -6.084  24.259  29.541  1.00  0.00     0.165 HD
HETATM   26  C10 UNL     1      -6.777  26.065  27.436  1.00  0.00     0.030 A 
HETATM   27  C14 UNL     1      -4.877  27.028  28.521  1.00  0.00    -0.001 A 
HETATM   28  C11 UNL     1      -6.824  27.113  26.557  1.00  0.00     0.002 A 
HETATM   29  C12 UNL     1      -5.901  28.122  26.652  1.00  0.00     0.001 A 
HETATM   30  C13 UNL     1      -4.933  28.092  27.619  1.00  0.00     0.014 A 
ENDBRANCH  20  21
ENDBRANCH  17  20
ENDBRANCH   1  16
TORSDOF 7
ENDMDL
