MODEL 1
REMARK VINA RESULT: -7.744907171      0.000      0.000
REMARK  6 active torsions:
REMARK  status: ('A' for Active; 'I' for Inactive)
REMARK    1  A    between atoms: C3_5  and  C4_6 
REMARK    2  A    between atoms: C4_6  and  N2_7 
REMARK       I    between atoms: N2_7  and  C5_9 
REMARK    3  A    between atoms: C5_9  and  C6_11 
REMARK    4  A    between atoms: C14_21  and  O2_22 
REMARK    5  A    between atoms: C15_24  and  O3_25 
REMARK    6  A    between atoms: C16_27  and  O4_28 
ROOT
HETATM    1  C4  UNL     1      -1.407  24.176  30.278  1.00  0.00     0.150 C 
ENDROOT
BRANCH   1   2
HETATM    2  C3  UNL     1      -1.361  24.909  31.561  1.00  0.00     0.126 C 
HETATM    3  N1  UNL     1      -1.488  23.964  32.669  1.00  0.00    -0.407 N 
HETATM    4  C2  UNL     1      -0.434  24.015  33.625  1.00  0.00     0.104 C 
ATOM      5  H1  UNL     1      -2.272  23.317  32.752  1.00  0.00     0.154 HD
HETATM    6  C1  UNL     1       0.893  23.506  33.191  1.00  0.00     0.034 C 
HETATM    7  C16 UNL     1      -0.354  25.407  34.240  1.00  0.00     0.171 C 
HETATM    8  C15 UNL     1      -0.601  26.482  33.241  1.00  0.00     0.179 C 
HETATM    9  C14 UNL     1      -0.362  25.954  31.794  1.00  0.00     0.173 C 
BRANCH   7  10
HETATM   10  O4  UNL     1       0.917  25.524  34.819  1.00  0.00    -0.391 OA
ATOM     11  H4  UNL     1       0.792  25.891  35.686  1.00  0.00     0.210 HD
ENDBRANCH   7  10
BRANCH   8  12
HETATM   12  O3  UNL     1       0.262  27.532  33.449  1.00  0.00    -0.390 OA
ATOM     13  H3  UNL     1      -0.242  28.251  33.813  1.00  0.00     0.210 HD
ENDBRANCH   8  12
BRANCH   9  14
HETATM   14  O2  UNL     1      -0.663  27.101  31.021  1.00  0.00    -0.391 OA
ATOM     15  H2  UNL     1      -0.263  27.872  31.406  1.00  0.00     0.210 HD
ENDBRANCH   9  14
ENDBRANCH   1   2
BRANCH   1  16
HETATM   16  N2  UNL     1      -1.253  24.836  29.039  1.00  0.00    -0.354 N 
HETATM   17  C5  UNL     1      -2.226  25.493  28.254  1.00  0.00     0.268 C 
HETATM   18  O1  UNL     1      -3.408  25.540  28.705  1.00  0.00    -0.266 OA
ATOM     19  H2  UNL     1      -0.307  24.838  28.657  1.00  0.00     0.162 HD
BRANCH  17  20
HETATM   20  C6  UNL     1      -1.914  26.104  26.970  1.00  0.00     0.102 A 
HETATM   21  C7  UNL     1      -2.717  26.096  25.866  1.00  0.00     0.049 A 
HETATM   22  C8  UNL     1      -2.066  26.780  24.845  1.00  0.00    -0.007 A 
HETATM   23  C9  UNL     1      -2.380  27.082  23.554  1.00  0.00     0.014 A 
HETATM   24  C13 UNL     1      -0.861  27.187  25.387  1.00  0.00     0.043 A 
HETATM   25  C10 UNL     1      -1.506  27.791  22.778  1.00  0.00     0.001 A 
HETATM   26  C11 UNL     1      -0.309  28.205  23.291  1.00  0.00     0.002 A 
HETATM   27  C12 UNL     1       0.009  27.900  24.599  1.00  0.00     0.030 A 
HETATM   28  N3  UNL     1      -0.799  26.766  26.667  1.00  0.00    -0.351 N 
ATOM     29  H3  UNL     1      -0.020  26.929  27.304  1.00  0.00     0.166 HD
ENDBRANCH  17  20
ENDBRANCH   1  16
TORSDOF 6
ENDMDL
