MODEL 3
REMARK VINA RESULT: -7.628552517      1.604      2.242
REMARK  6 active torsions:
REMARK  status: ('A' for Active; 'I' for Inactive)
REMARK    1  A    between atoms: C3_5  and  C4_6 
REMARK    2  A    between atoms: C4_6  and  N2_7 
REMARK       I    between atoms: N2_7  and  C5_9 
REMARK    3  A    between atoms: C5_9  and  C6_11 
REMARK    4  A    between atoms: C14_21  and  O2_22 
REMARK    5  A    between atoms: C15_24  and  O3_25 
REMARK    6  A    between atoms: C16_27  and  O4_28 
ROOT
HETATM    1  C4  UNL     1      -1.190  23.680  30.199  1.00  0.00     0.150 C 
ENDROOT
BRANCH   1   2
HETATM    2  C3  UNL     1      -0.115  23.752  31.212  1.00  0.00     0.126 C 
HETATM    3  N1  UNL     1      -0.186  25.033  31.910  1.00  0.00    -0.407 N 
HETATM    4  C2  UNL     1      -0.292  24.941  33.326  1.00  0.00     0.104 C 
ATOM      5  H1  UNL     1      -0.160  25.927  31.420  1.00  0.00     0.154 HD
HETATM    6  C1  UNL     1      -1.582  24.441  33.872  1.00  0.00     0.034 C 
HETATM    7  C16 UNL     1       0.910  24.195  33.894  1.00  0.00     0.171 C 
HETATM    8  C15 UNL     1       1.328  23.057  33.031  1.00  0.00     0.179 C 
HETATM    9  C14 UNL     1       0.160  22.617  32.096  1.00  0.00     0.173 C 
BRANCH   7  10
HETATM   10  O4  UNL     1       0.553  23.765  35.178  1.00  0.00    -0.391 OA
ATOM     11  H4  UNL     1       0.783  22.845  35.235  1.00  0.00     0.210 HD
ENDBRANCH   7  10
BRANCH   8  12
HETATM   12  O3  UNL     1       1.671  21.974  33.806  1.00  0.00    -0.390 OA
ATOM     13  H3  UNL     1       2.616  21.985  33.913  1.00  0.00     0.210 HD
ENDBRANCH   8  12
BRANCH   9  14
HETATM   14  O2  UNL     1       0.762  21.563  31.368  1.00  0.00    -0.391 OA
ATOM     15  H2  UNL     1       0.913  20.816  31.935  1.00  0.00     0.210 HD
ENDBRANCH   9  14
ENDBRANCH   1   2
BRANCH   1  16
HETATM   16  N2  UNL     1      -1.116  24.394  28.983  1.00  0.00    -0.354 N 
HETATM   17  C5  UNL     1      -2.057  25.279  28.413  1.00  0.00     0.268 C 
HETATM   18  O1  UNL     1      -3.116  25.510  29.067  1.00  0.00    -0.266 OA
ATOM     19  H2  UNL     1      -0.264  24.249  28.440  1.00  0.00     0.162 HD
BRANCH  17  20
HETATM   20  C6  UNL     1      -1.847  25.919  27.123  1.00  0.00     0.102 A 
HETATM   21  C7  UNL     1      -2.690  25.850  26.051  1.00  0.00     0.049 A 
HETATM   22  C8  UNL     1      -2.139  26.591  25.010  1.00  0.00    -0.007 A 
HETATM   23  C9  UNL     1      -2.528  26.871  23.735  1.00  0.00     0.014 A 
HETATM   24  C13 UNL     1      -0.951  27.093  25.508  1.00  0.00     0.043 A 
HETATM   25  C10 UNL     1      -1.746  27.654  22.931  1.00  0.00     0.001 A 
HETATM   26  C11 UNL     1      -0.568  28.162  23.400  1.00  0.00     0.002 A 
HETATM   27  C12 UNL     1      -0.174  27.878  24.691  1.00  0.00     0.030 A 
HETATM   28  N3  UNL     1      -0.803  26.672  26.781  1.00  0.00    -0.351 N 
ATOM     29  H3  UNL     1      -0.015  26.896  27.388  1.00  0.00     0.166 HD
ENDBRANCH  17  20
ENDBRANCH   1  16
TORSDOF 6
ENDMDL
