MODEL 2
REMARK VINA RESULT: -7.644410424      2.397      2.897
REMARK  6 active torsions:
REMARK  status: ('A' for Active; 'I' for Inactive)
REMARK    1  A    between atoms: C3_5  and  C4_6 
REMARK    2  A    between atoms: C4_6  and  N2_7 
REMARK       I    between atoms: N2_7  and  C5_9 
REMARK    3  A    between atoms: C5_9  and  C6_11 
REMARK    4  A    between atoms: C14_21  and  O2_22 
REMARK    5  A    between atoms: C15_24  and  O3_25 
REMARK    6  A    between atoms: C16_27  and  O4_28 
ROOT
HETATM    1  C4  UNL     1      -2.756  24.720  30.274  1.00  0.00     0.150 C 
ENDROOT
BRANCH   1   2
HETATM    2  C3  UNL     1      -1.860  23.906  31.123  1.00  0.00     0.126 C 
HETATM    3  N1  UNL     1      -2.619  23.339  32.235  1.00  0.00    -0.407 N 
HETATM    4  C2  UNL     1      -2.550  21.922  32.349  1.00  0.00     0.104 C 
ATOM      5  H1  UNL     1      -3.159  23.915  32.880  1.00  0.00     0.154 HD
HETATM    6  C1  UNL     1      -3.256  21.128  31.310  1.00  0.00     0.034 C 
HETATM    7  C16 UNL     1      -1.102  21.483  32.536  1.00  0.00     0.171 C 
HETATM    8  C15 UNL     1      -0.158  22.282  31.708  1.00  0.00     0.179 C 
HETATM    9  C14 UNL     1      -0.908  22.967  30.525  1.00  0.00     0.173 C 
BRANCH   7  10
HETATM   10  O4  UNL     1      -1.044  20.121  32.214  1.00  0.00    -0.391 OA
ATOM     11  H4  UNL     1      -0.647  20.058  31.353  1.00  0.00     0.210 HD
ENDBRANCH   7  10
BRANCH   8  12
HETATM   12  O3  UNL     1       0.811  21.468  31.171  1.00  0.00    -0.390 OA
ATOM     13  H3  UNL     1       0.520  21.207  30.305  1.00  0.00     0.210 HD
ENDBRANCH   8  12
BRANCH   9  14
HETATM   14  O2  UNL     1       0.146  23.672  29.894  1.00  0.00    -0.391 OA
ATOM     15  H2  UNL     1       0.551  23.131  29.226  1.00  0.00     0.210 HD
ENDBRANCH   9  14
ENDBRANCH   1   2
BRANCH   1  16
HETATM   16  N2  UNL     1      -2.309  25.309  29.070  1.00  0.00    -0.354 N 
HETATM   17  C5  UNL     1      -3.064  25.733  27.955  1.00  0.00     0.268 C 
HETATM   18  O1  UNL     1      -4.322  25.607  28.016  1.00  0.00    -0.266 OA
ATOM     19  H2  UNL     1      -1.301  25.447  28.997  1.00  0.00     0.162 HD
BRANCH  17  20
HETATM   20  C6  UNL     1      -2.448  26.298  26.763  1.00  0.00     0.102 A 
HETATM   21  C7  UNL     1      -3.013  26.350  25.521  1.00  0.00     0.049 A 
HETATM   22  C8  UNL     1      -2.112  26.961  24.655  1.00  0.00    -0.007 A 
HETATM   23  C9  UNL     1      -2.135  27.275  23.329  1.00  0.00     0.014 A 
HETATM   24  C13 UNL     1      -1.008  27.264  25.429  1.00  0.00     0.043 A 
HETATM   25  C10 UNL     1      -1.063  27.894  22.748  1.00  0.00     0.001 A 
HETATM   26  C11 UNL     1       0.041  28.203  23.491  1.00  0.00     0.002 A 
HETATM   27  C12 UNL     1       0.063  27.885  24.834  1.00  0.00     0.030 A 
HETATM   28  N3  UNL     1      -1.240  26.853  26.692  1.00  0.00    -0.351 N 
ATOM     29  H3  UNL     1      -0.591  26.952  27.472  1.00  0.00     0.166 HD
ENDBRANCH  17  20
ENDBRANCH   1  16
TORSDOF 6
ENDMDL
