MODEL 6
REMARK VINA RESULT: -7.042629925      3.963      6.339
REMARK  6 active torsions:
REMARK  status: ('A' for Active; 'I' for Inactive)
REMARK    1  A    between atoms: C3_6  and  C4_7 
REMARK    2  A    between atoms: C4_7  and  N2_8 
REMARK       I    between atoms: N2_8  and  C5_10 
REMARK    3  A    between atoms: C5_10  and  C6_12 
REMARK    4  A    between atoms: C14_21  and  O3_22 
REMARK    5  A    between atoms: C15_24  and  O4_25 
REMARK    6  A    between atoms: C16_27  and  O5_28 
ROOT
HETATM    1  C1  UNL     1      -7.651  25.756  29.842  1.00  0.00     0.043 C 
HETATM    2  C2  UNL     1      -6.451  26.072  29.015  1.00  0.00     0.213 C 
HETATM    3  N1  UNL     1      -5.510  26.957  29.673  1.00  0.00    -0.060 N 
ATOM      4  H11 UNL     1      -5.424  26.785  30.674  1.00  0.00     0.278 HD
ATOM      5  H12 UNL     1      -5.837  27.920  29.738  1.00  0.00     0.278 HD
HETATM    6  C3  UNL     1      -4.254  26.821  28.954  1.00  0.00     0.235 C 
HETATM    7  C14 UNL     1      -4.418  27.434  27.584  1.00  0.00     0.181 C 
HETATM    8  C15 UNL     1      -5.635  26.985  26.861  1.00  0.00     0.179 C 
HETATM    9  C16 UNL     1      -6.831  26.742  27.711  1.00  0.00     0.179 C 
ENDROOT
BRANCH   6  10
HETATM   10  C4  UNL     1      -3.156  27.564  29.648  1.00  0.00     0.158 C 
BRANCH  10  11
HETATM   11  N2  UNL     1      -2.393  26.660  30.473  1.00  0.00    -0.353 N 
HETATM   12  C5  UNL     1      -1.442  25.732  29.978  1.00  0.00     0.275 C 
HETATM   13  O1  UNL     1      -1.217  25.661  28.745  1.00  0.00    -0.265 OA
ATOM     14  H2  UNL     1      -2.549  26.690  31.481  1.00  0.00     0.162 HD
BRANCH  12  15
HETATM   15  C6  UNL     1      -0.703  24.839  30.885  1.00  0.00     0.144 A 
HETATM   16  C7  UNL     1      -0.632  23.465  30.781  1.00  0.00     0.057 A 
HETATM   17  C8  UNL     1       0.148  22.978  31.807  1.00  0.00     0.001 A 
HETATM   18  C9  UNL     1       0.586  21.747  32.239  1.00  0.00     0.014 A 
HETATM   19  C13 UNL     1       0.534  24.096  32.518  1.00  0.00     0.086 A 
HETATM   20  C10 UNL     1       1.389  21.602  33.350  1.00  0.00     0.001 A 
HETATM   21  C11 UNL     1       1.779  22.720  34.066  1.00  0.00     0.003 A 
HETATM   22  C12 UNL     1       1.342  23.947  33.634  1.00  0.00     0.038 A 
HETATM   23  O2  UNL     1       0.005  25.163  31.931  1.00  0.00    -0.304 OA
ENDBRANCH  12  15
ENDBRANCH  10  11
ENDBRANCH   6  10
BRANCH   7  24
HETATM   24  O3  UNL     1      -3.298  27.010  26.830  1.00  0.00    -0.391 OA
ATOM     25  H3  UNL     1      -2.533  27.270  27.329  1.00  0.00     0.210 HD
ENDBRANCH   7  24
BRANCH   8  26
HETATM   26  O4  UNL     1      -5.975  28.002  25.938  1.00  0.00    -0.390 OA
ATOM     27  H4  UNL     1      -6.332  28.729  26.436  1.00  0.00     0.210 HD
ENDBRANCH   8  26
BRANCH   9  28
HETATM   28  O5  UNL     1      -7.398  27.973  28.042  1.00  0.00    -0.391 OA
ATOM     29  H5  UNL     1      -8.311  27.932  27.781  1.00  0.00     0.210 HD
ENDBRANCH   9  28
TORSDOF 6
ENDMDL
