MODEL 5
REMARK VINA RESULT: -7.199645146      4.676      8.001
REMARK  6 active torsions:
REMARK  status: ('A' for Active; 'I' for Inactive)
REMARK    1  A    between atoms: C3_6  and  C4_7 
REMARK    2  A    between atoms: C4_7  and  N2_8 
REMARK       I    between atoms: N2_8  and  C5_10 
REMARK    3  A    between atoms: C5_10  and  C6_12 
REMARK    4  A    between atoms: C14_21  and  O3_22 
REMARK    5  A    between atoms: C15_24  and  O4_25 
REMARK    6  A    between atoms: C16_27  and  O5_28 
ROOT
HETATM    1  C1  UNL     1       0.766  22.550  36.287  1.00  0.00     0.043 C 
HETATM    2  C2  UNL     1       0.832  23.709  35.352  1.00  0.00     0.213 C 
HETATM    3  N1  UNL     1       0.826  23.329  33.954  1.00  0.00    -0.060 N 
ATOM      4  H11 UNL     1       0.223  22.531  33.754  1.00  0.00     0.278 HD
ATOM      5  H12 UNL     1       1.701  22.907  33.644  1.00  0.00     0.278 HD
HETATM    6  C3  UNL     1       0.466  24.524  33.210  1.00  0.00     0.235 C 
HETATM    7  C14 UNL     1       1.607  25.509  33.303  1.00  0.00     0.181 C 
HETATM    8  C15 UNL     1       2.107  25.726  34.684  1.00  0.00     0.179 C 
HETATM    9  C16 UNL     1       2.086  24.531  35.568  1.00  0.00     0.179 C 
ENDROOT
BRANCH   6  10
HETATM   10  C4  UNL     1       0.262  24.212  31.759  1.00  0.00     0.158 C 
BRANCH  10  11
HETATM   11  N2  UNL     1      -0.837  24.986  31.238  1.00  0.00    -0.353 N 
HETATM   12  C5  UNL     1      -1.536  24.682  30.041  1.00  0.00     0.275 C 
HETATM   13  O1  UNL     1      -1.208  23.679  29.361  1.00  0.00    -0.265 OA
ATOM     14  H2  UNL     1      -1.132  25.808  31.765  1.00  0.00     0.162 HD
BRANCH  12  15
HETATM   15  C6  UNL     1      -2.648  25.523  29.573  1.00  0.00     0.144 A 
HETATM   16  C7  UNL     1      -3.889  25.621  30.168  1.00  0.00     0.057 A 
HETATM   17  C8  UNL     1      -4.663  26.503  29.446  1.00  0.00     0.001 A 
HETATM   18  C9  UNL     1      -5.940  27.011  29.518  1.00  0.00     0.014 A 
HETATM   19  C13 UNL     1      -3.850  26.922  28.413  1.00  0.00     0.086 A 
HETATM   20  C10 UNL     1      -6.424  27.915  28.598  1.00  0.00     0.001 A 
HETATM   21  C11 UNL     1      -5.612  28.339  27.560  1.00  0.00     0.003 A 
HETATM   22  C12 UNL     1      -4.339  27.832  27.489  1.00  0.00     0.038 A 
HETATM   23  O2  UNL     1      -2.677  26.314  28.537  1.00  0.00    -0.304 OA
ENDBRANCH  12  15
ENDBRANCH  10  11
ENDBRANCH   6  10
BRANCH   7  24
HETATM   24  O3  UNL     1       1.097  26.743  32.838  1.00  0.00    -0.391 OA
ATOM     25  H3  UNL     1       0.937  26.628  31.909  1.00  0.00     0.210 HD
ENDBRANCH   7  24
BRANCH   8  26
HETATM   26  O4  UNL     1       3.453  26.150  34.582  1.00  0.00    -0.390 OA
ATOM     27  H4  UNL     1       3.840  26.074  35.447  1.00  0.00     0.210 HD
ENDBRANCH   8  26
BRANCH   9  28
HETATM   28  O5  UNL     1       3.165  23.712  35.233  1.00  0.00    -0.391 OA
ATOM     29  H5  UNL     1       3.795  24.261  34.782  1.00  0.00     0.210 HD
ENDBRANCH   9  28
TORSDOF 6
ENDMDL
