MODEL 4
REMARK VINA RESULT: -7.240341079      4.622      7.918
REMARK  6 active torsions:
REMARK  status: ('A' for Active; 'I' for Inactive)
REMARK    1  A    between atoms: C3_6  and  C4_7 
REMARK    2  A    between atoms: C4_7  and  N2_8 
REMARK       I    between atoms: N2_8  and  C5_10 
REMARK    3  A    between atoms: C5_10  and  C6_12 
REMARK    4  A    between atoms: C14_21  and  O3_22 
REMARK    5  A    between atoms: C15_24  and  O4_25 
REMARK    6  A    between atoms: C16_27  and  O5_28 
ROOT
HETATM    1  C1  UNL     1       0.625  22.357  36.022  1.00  0.00     0.043 C 
HETATM    2  C2  UNL     1       0.704  23.576  35.166  1.00  0.00     0.213 C 
HETATM    3  N1  UNL     1       0.752  23.286  33.747  1.00  0.00    -0.060 N 
ATOM      4  H11 UNL     1       0.170  22.493  33.475  1.00  0.00     0.278 HD
ATOM      5  H12 UNL     1       1.644  22.898  33.442  1.00  0.00     0.278 HD
HETATM    6  C3  UNL     1       0.397  24.521  33.069  1.00  0.00     0.235 C 
HETATM    7  C14 UNL     1       1.518  25.515  33.265  1.00  0.00     0.181 C 
HETATM    8  C15 UNL     1       1.967  25.650  34.673  1.00  0.00     0.179 C 
HETATM    9  C16 UNL     1       1.936  24.400  35.478  1.00  0.00     0.179 C 
ENDROOT
BRANCH   6  10
HETATM   10  C4  UNL     1       0.249  24.300  31.595  1.00  0.00     0.158 C 
BRANCH  10  11
HETATM   11  N2  UNL     1      -0.872  25.055  31.093  1.00  0.00    -0.353 N 
HETATM   12  C5  UNL     1      -1.576  24.750  29.900  1.00  0.00     0.275 C 
HETATM   13  O1  UNL     1      -1.233  23.763  29.204  1.00  0.00    -0.265 OA
ATOM     14  H2  UNL     1      -1.181  25.864  31.634  1.00  0.00     0.162 HD
BRANCH  12  15
HETATM   15  C6  UNL     1      -2.711  25.572  29.452  1.00  0.00     0.144 A 
HETATM   16  C7  UNL     1      -2.696  26.459  28.395  1.00  0.00     0.057 A 
HETATM   17  C8  UNL     1      -3.940  27.041  28.281  1.00  0.00     0.001 A 
HETATM   18  C9  UNL     1      -4.544  27.968  27.463  1.00  0.00     0.014 A 
HETATM   19  C13 UNL     1      -4.687  26.477  29.295  1.00  0.00     0.086 A 
HETATM   20  C10 UNL     1      -5.860  28.344  27.626  1.00  0.00     0.001 A 
HETATM   21  C11 UNL     1      -6.614  27.781  28.642  1.00  0.00     0.003 A 
HETATM   22  C12 UNL     1      -6.010  26.858  29.456  1.00  0.00     0.038 A 
HETATM   23  O2  UNL     1      -3.915  25.620  29.952  1.00  0.00    -0.304 OA
ENDBRANCH  12  15
ENDBRANCH  10  11
ENDBRANCH   6  10
BRANCH   7  24
HETATM   24  O3  UNL     1       1.003  26.769  32.862  1.00  0.00    -0.391 OA
ATOM     25  H3  UNL     1       0.995  27.312  33.642  1.00  0.00     0.210 HD
ENDBRANCH   7  24
BRANCH   8  26
HETATM   26  O4  UNL     1       3.308  26.099  34.646  1.00  0.00    -0.390 OA
ATOM     27  H4  UNL     1       3.858  25.339  34.498  1.00  0.00     0.210 HD
ENDBRANCH   8  26
BRANCH   9  28
HETATM   28  O5  UNL     1       3.039  23.620  35.130  1.00  0.00    -0.391 OA
ATOM     29  H5  UNL     1       3.402  23.282  35.940  1.00  0.00     0.210 HD
ENDBRANCH   9  28
TORSDOF 6
ENDMDL
