MODEL 3
REMARK VINA RESULT: -8.546976436      3.035      3.951
REMARK  6 active torsions:
REMARK  status: ('A' for Active; 'I' for Inactive)
REMARK    1  A    between atoms: C3_6  and  C4_7 
REMARK    2  A    between atoms: C4_7  and  N2_8 
REMARK       I    between atoms: N2_8  and  C5_10 
REMARK    3  A    between atoms: C5_10  and  C6_12 
REMARK    4  A    between atoms: C14_21  and  O3_22 
REMARK    5  A    between atoms: C15_24  and  O4_25 
REMARK    6  A    between atoms: C16_27  and  O5_28 
ROOT
HETATM    1  C1  UNL     1       1.402  28.413  25.178  1.00  0.00     0.043 C 
HETATM    2  C2  UNL     1      -0.048  28.065  25.150  1.00  0.00     0.213 C 
HETATM    3  N1  UNL     1      -0.377  26.885  25.924  1.00  0.00    -0.060 N 
ATOM      4  H11 UNL     1       0.164  26.800  26.784  1.00  0.00     0.278 HD
ATOM      5  H12 UNL     1      -0.063  26.016  25.492  1.00  0.00     0.278 HD
HETATM    6  C3  UNL     1      -1.812  26.933  26.147  1.00  0.00     0.235 C 
HETATM    7  C14 UNL     1      -2.511  26.697  24.829  1.00  0.00     0.181 C 
HETATM    8  C15 UNL     1      -1.996  27.532  23.714  1.00  0.00     0.179 C 
HETATM    9  C16 UNL     1      -0.534  27.803  23.740  1.00  0.00     0.179 C 
ENDROOT
BRANCH   6  10
HETATM   10  C4  UNL     1      -2.246  25.847  27.083  1.00  0.00     0.158 C 
BRANCH  10  11
HETATM   11  N2  UNL     1      -1.392  25.828  28.245  1.00  0.00    -0.353 N 
HETATM   12  C5  UNL     1      -1.830  25.511  29.557  1.00  0.00     0.275 C 
HETATM   13  O1  UNL     1      -3.033  25.219  29.763  1.00  0.00    -0.265 OA
ATOM     14  H2  UNL     1      -0.407  26.058  28.115  1.00  0.00     0.162 HD
BRANCH  12  15
HETATM   15  C6  UNL     1      -0.897  25.515  30.694  1.00  0.00     0.144 A 
HETATM   16  C7  UNL     1      -0.322  24.399  31.268  1.00  0.00     0.057 A 
HETATM   17  C8  UNL     1       0.492  24.798  32.305  1.00  0.00     0.001 A 
HETATM   18  C9  UNL     1       1.309  24.192  33.232  1.00  0.00     0.014 A 
HETATM   19  C13 UNL     1       0.383  26.173  32.330  1.00  0.00     0.086 A 
HETATM   20  C10 UNL     1       2.013  24.911  34.172  1.00  0.00     0.001 A 
HETATM   21  C11 UNL     1       1.908  26.292  34.200  1.00  0.00     0.003 A 
HETATM   22  C12 UNL     1       1.094  26.895  33.277  1.00  0.00     0.038 A 
HETATM   23  O2  UNL     1      -0.446  26.540  31.360  1.00  0.00    -0.304 OA
ENDBRANCH  12  15
ENDBRANCH  10  11
ENDBRANCH   6  10
BRANCH   7  24
HETATM   24  O3  UNL     1      -3.864  27.054  25.035  1.00  0.00    -0.391 OA
ATOM     25  H3  UNL     1      -4.048  27.751  24.417  1.00  0.00     0.210 HD
ENDBRANCH   7  24
BRANCH   8  26
HETATM   26  O4  UNL     1      -2.274  26.843  22.510  1.00  0.00    -0.390 OA
ATOM     27  H4  UNL     1      -2.122  27.451  21.795  1.00  0.00     0.210 HD
ENDBRANCH   8  26
BRANCH   9  28
HETATM   28  O5  UNL     1       0.137  26.666  23.289  1.00  0.00    -0.391 OA
ATOM     29  H5  UNL     1       0.710  26.948  22.586  1.00  0.00     0.210 HD
ENDBRANCH   9  28
TORSDOF 6
ENDMDL
