MODEL 1
REMARK VINA RESULT: -7.109495244      0.000      0.000
REMARK  4 active torsions:
REMARK  status: ('A' for Active; 'I' for Inactive)
REMARK    1  A    between atoms: C2_2  and  C4_4 
REMARK    2  A    between atoms: C6_9  and  O1_10 
REMARK    3  A    between atoms: C7_12  and  O2_13 
REMARK    4  A    between atoms: C8_15  and  O3_16 
ROOT
HETATM    1  C4  UNL     1      -0.086  28.257  25.516  1.00  0.00     0.220 C 
HETATM    2  N1  UNL     1      -0.241  27.123  26.369  1.00  0.00    -0.066 N 
ATOM      3  H11 UNL     1       0.223  27.238  27.270  1.00  0.00     0.277 HD
ATOM      4  H12 UNL     1       0.288  26.311  26.049  1.00  0.00     0.277 HD
HETATM    5  C5  UNL     1      -1.667  26.854  26.497  1.00  0.00     0.267 C 
HETATM    6  C6  UNL     1      -2.329  26.601  25.187  1.00  0.00     0.175 C 
HETATM    7  C7  UNL     1      -2.040  27.687  24.188  1.00  0.00     0.179 C 
HETATM    8  C8  UNL     1      -0.538  27.879  24.133  1.00  0.00     0.180 C 
ENDROOT
BRANCH   1   9
HETATM    9  C2  UNL     1       1.283  28.863  25.543  1.00  0.00     0.011 C 
HETATM   10  C1  UNL     1       2.374  27.827  25.299  1.00  0.00     0.011 C 
HETATM   11  C3  UNL     1       1.617  29.551  26.828  1.00  0.00     0.011 C 
ENDBRANCH   1   9
BRANCH   8  12
HETATM   12  O3  UNL     1       0.017  26.613  23.860  1.00  0.00    -0.391 OA
ATOM     13  H3  UNL     1      -0.387  26.003  24.466  1.00  0.00     0.210 HD
ENDBRANCH   8  12
BRANCH   7  14
HETATM   14  O2  UNL     1      -2.549  27.360  22.940  1.00  0.00    -0.390 OA
ATOM     15  H2  UNL     1      -3.059  28.077  22.583  1.00  0.00     0.210 HD
ENDBRANCH   7  14
BRANCH   6  16
HETATM   16  O1  UNL     1      -3.711  26.592  25.399  1.00  0.00    -0.391 OA
ATOM     17  H1  UNL     1      -3.959  25.714  25.666  1.00  0.00     0.210 HD
ENDBRANCH   6  16
TORSDOF 4
ENDMDL
