MODEL 13
REMARK VINA RESULT: -5.394051274      2.405      4.694
REMARK  4 active torsions:
REMARK  status: ('A' for Active; 'I' for Inactive)
REMARK    1  A    between atoms: C2_2  and  C4_4 
REMARK    2  A    between atoms: C6_9  and  O1_10 
REMARK    3  A    between atoms: C7_12  and  O2_13 
REMARK    4  A    between atoms: C8_15  and  O3_16 
ROOT
HETATM    1  C4  UNL     1      -3.268  27.210  26.061  1.00  0.00     0.220 C 
HETATM    2  N1  UNL     1      -3.048  27.291  24.653  1.00  0.00    -0.066 N 
ATOM      3  H11 UNL     1      -3.886  27.556  24.136  1.00  0.00     0.277 HD
ATOM      4  H12 UNL     1      -2.907  26.377  24.221  1.00  0.00     0.277 HD
HETATM    5  C5  UNL     1      -1.933  28.201  24.429  1.00  0.00     0.267 C 
HETATM    6  C6  UNL     1      -0.684  27.768  25.116  1.00  0.00     0.175 C 
HETATM    7  C7  UNL     1      -0.909  27.490  26.577  1.00  0.00     0.179 C 
HETATM    8  C8  UNL     1      -2.081  26.536  26.692  1.00  0.00     0.180 C 
ENDROOT
BRANCH   1   9
HETATM    9  C2  UNL     1      -4.573  26.583  26.445  1.00  0.00     0.011 C 
HETATM   10  C1  UNL     1      -5.754  27.507  26.175  1.00  0.00     0.011 C 
HETATM   11  C3  UNL     1      -4.654  26.183  27.884  1.00  0.00     0.011 C 
ENDBRANCH   1   9
BRANCH   8  12
HETATM   12  O3  UNL     1      -1.773  25.424  25.883  1.00  0.00    -0.391 OA
ATOM     13  H3  UNL     1      -2.042  25.649  25.000  1.00  0.00     0.210 HD
ENDBRANCH   8  12
BRANCH   7  14
HETATM   14  O2  UNL     1       0.230  26.957  27.160  1.00  0.00    -0.390 OA
ATOM     15  H2  UNL     1       0.143  26.018  27.277  1.00  0.00     0.210 HD
ENDBRANCH   7  14
BRANCH   6  16
HETATM   16  O1  UNL     1       0.237  28.816  25.032  1.00  0.00    -0.391 OA
ATOM     17  H1  UNL     1       0.665  28.896  25.877  1.00  0.00     0.210 HD
ENDBRANCH   6  16
TORSDOF 4
ENDMDL
