MODEL 10
REMARK VINA RESULT: -5.627801742      3.194      5.372
REMARK  4 active torsions:
REMARK  status: ('A' for Active; 'I' for Inactive)
REMARK    1  A    between atoms: C2_2  and  C4_4 
REMARK    2  A    between atoms: C6_9  and  O1_10 
REMARK    3  A    between atoms: C7_12  and  O2_13 
REMARK    4  A    between atoms: C8_15  and  O3_16 
ROOT
HETATM    1  C4  UNL     1      -4.526  26.552  27.188  1.00  0.00     0.220 C 
HETATM    2  N1  UNL     1      -3.994  27.793  27.649  1.00  0.00    -0.066 N 
ATOM      3  H11 UNL     1      -4.536  28.197  28.412  1.00  0.00     0.277 HD
ATOM      4  H12 UNL     1      -4.118  28.552  26.978  1.00  0.00     0.277 HD
HETATM    5  C5  UNL     1      -2.597  27.574  28.001  1.00  0.00     0.267 C 
HETATM    6  C6  UNL     1      -1.785  27.063  26.862  1.00  0.00     0.175 C 
HETATM    7  C7  UNL     1      -2.408  25.854  26.220  1.00  0.00     0.179 C 
HETATM    8  C8  UNL     1      -3.848  26.193  25.894  1.00  0.00     0.180 C 
ENDROOT
BRANCH   1   9
HETATM    9  C2  UNL     1      -6.020  26.520  27.097  1.00  0.00     0.011 C 
HETATM   10  C1  UNL     1      -6.647  27.856  27.480  1.00  0.00     0.011 C 
HETATM   11  C3  UNL     1      -6.658  25.478  27.961  1.00  0.00     0.011 C 
ENDBRANCH   1   9
BRANCH   8  12
HETATM   12  O3  UNL     1      -3.817  27.368  25.117  1.00  0.00    -0.391 OA
ATOM     13  H3  UNL     1      -3.301  27.168  24.345  1.00  0.00     0.210 HD
ENDBRANCH   8  12
BRANCH   7  14
HETATM   14  O2  UNL     1      -1.711  25.483  25.081  1.00  0.00    -0.390 OA
ATOM     15  H2  UNL     1      -0.776  25.451  25.249  1.00  0.00     0.210 HD
ENDBRANCH   7  14
BRANCH   6  16
HETATM   16  O1  UNL     1      -0.541  26.669  27.363  1.00  0.00    -0.391 OA
ATOM     17  H1  UNL     1       0.110  27.282  27.043  1.00  0.00     0.210 HD
ENDBRANCH   6  16
TORSDOF 4
ENDMDL
