MODEL 3
REMARK VINA RESULT: -6.004794729      2.450      4.474
REMARK  4 active torsions:
REMARK  status: ('A' for Active; 'I' for Inactive)
REMARK    1  A    between atoms: C2_2  and  C4_4 
REMARK    2  A    between atoms: C6_9  and  O1_10 
REMARK    3  A    between atoms: C7_12  and  O2_13 
REMARK    4  A    between atoms: C8_15  and  O3_16 
ROOT
HETATM    1  C4  UNL     1      -2.209  27.961  26.545  1.00  0.00     0.220 C 
HETATM    2  N1  UNL     1      -1.949  27.293  25.310  1.00  0.00    -0.066 N 
ATOM      3  H11 UNL     1      -2.787  27.172  24.742  1.00  0.00     0.277 HD
ATOM      4  H12 UNL     1      -1.726  26.305  25.433  1.00  0.00     0.277 HD
HETATM    5  C5  UNL     1      -0.898  28.027  24.620  1.00  0.00     0.267 C 
HETATM    6  C6  UNL     1       0.357  28.131  25.417  1.00  0.00     0.175 C 
HETATM    7  C7  UNL     1       0.105  28.661  26.802  1.00  0.00     0.179 C 
HETATM    8  C8  UNL     1      -0.996  27.826  27.424  1.00  0.00     0.180 C 
ENDROOT
BRANCH   1   9
HETATM    9  C2  UNL     1      -3.475  27.534  27.220  1.00  0.00     0.011 C 
HETATM   10  C1  UNL     1      -4.545  27.114  26.219  1.00  0.00     0.011 C 
HETATM   11  C3  UNL     1      -4.084  28.588  28.089  1.00  0.00     0.011 C 
ENDBRANCH   1   9
BRANCH   8  12
HETATM   12  O3  UNL     1      -0.580  26.483  27.333  1.00  0.00    -0.391 OA
ATOM     13  H3  UNL     1       0.362  26.498  27.215  1.00  0.00     0.210 HD
ENDBRANCH   8  12
BRANCH   7  14
HETATM   14  O2  UNL     1       1.260  28.615  27.567  1.00  0.00    -0.390 OA
ATOM     15  H2  UNL     1       1.552  27.719  27.688  1.00  0.00     0.210 HD
ENDBRANCH   7  14
BRANCH   6  16
HETATM   16  O1  UNL     1       1.200  29.041  24.774  1.00  0.00    -0.391 OA
ATOM     17  H1  UNL     1       2.097  28.799  24.974  1.00  0.00     0.210 HD
ENDBRANCH   6  16
TORSDOF 4
ENDMDL
