MODEL 3
REMARK VINA RESULT: -8.449242386      1.259      1.650
REMARK  11 active torsions:
REMARK  status: ('A' for Active; 'I' for Inactive)
REMARK    1  A    between atoms: C2_2  and  N1_3 
REMARK    2  A    between atoms: C2_2  and  P1_7 
REMARK    3  A    between atoms: P1_7  and  C3_10 
REMARK    4  A    between atoms: C3_10  and  C4_11 
REMARK    5  A    between atoms: C4_11  and  C5_12 
REMARK    6  A    between atoms: C4_11  and  C12_19 
REMARK    7  A    between atoms: C5_12  and  C6_13 
REMARK       I    between atoms: C12_19  and  N2_21 
REMARK    8  A    between atoms: N2_21  and  C13_23 
REMARK    9  A    between atoms: C13_23  and  C14_24 
REMARK   10  A    between atoms: C13_23  and  C21_31 
REMARK   11  A    between atoms: C14_24  and  C15_25 
ROOT
HETATM    1  C4  UNL     1      73.667  51.539   7.287  1.00  0.00     0.092 C 
ENDROOT
BRANCH   1   2
HETATM    2  C3  UNL     1      73.492  52.070   8.720  1.00  0.00     0.120 C 
BRANCH   2   3
HETATM    3  P1  UNL     1      72.562  53.514   8.890  1.00  0.00     0.137 P 
HETATM    4  O1  UNL     1      71.251  53.802   7.901  1.00  0.00    -0.666 OA
HETATM    5  O2  UNL     1      73.110  54.817   9.801  1.00  0.00    -0.666 OA
BRANCH   3   6
HETATM    6  C2  UNL     1      71.583  53.076  10.141  1.00  0.00     0.270 C 
HETATM    7  C1  UNL     1      71.207  51.611  10.256  1.00  0.00     0.051 C 
BRANCH   6   8
HETATM    8  N1  UNL     1      70.293  53.797  10.192  1.00  0.00    -0.066 N 
ATOM      9  H13 UNL     1      70.289  54.678   9.678  1.00  0.00     0.275 HD
ATOM     10  H12 UNL     1      69.547  53.351   9.658  1.00  0.00     0.275 HD
ATOM     11  H11 UNL     1      70.092  53.895  11.187  1.00  0.00     0.275 HD
ENDBRANCH   6   8
ENDBRANCH   3   6
ENDBRANCH   2   3
ENDBRANCH   1   2
BRANCH   1  12
HETATM   12  C5  UNL     1      75.071  51.030   7.080  1.00  0.00     0.053 C 
BRANCH  12  13
HETATM   13  C6  UNL     1      75.613  51.283   5.749  1.00  0.00    -0.057 A 
HETATM   14  C7  UNL     1      74.894  51.939   4.778  1.00  0.00     0.007 A 
HETATM   15  C8  UNL     1      75.464  52.154   3.518  1.00  0.00     0.001 A 
HETATM   16  C9  UNL     1      76.738  51.724   3.223  1.00  0.00     0.000 A 
HETATM   17  C10 UNL     1      77.460  51.066   4.197  1.00  0.00     0.001 A 
HETATM   18  C11 UNL     1      76.887  50.858   5.435  1.00  0.00     0.007 A 
ENDBRANCH  12  13
ENDBRANCH   1  12
BRANCH   1  19
HETATM   19  C12 UNL     1      72.747  50.398   7.010  1.00  0.00     0.223 C 
HETATM   20  O3  UNL     1      71.626  50.595   6.428  1.00  0.00    -0.273 OA
HETATM   21  N2  UNL     1      73.043  49.067   7.362  1.00  0.00    -0.346 N 
ATOM     22  H2  UNL     1      73.930  48.878   7.829  1.00  0.00     0.163 HD
BRANCH  21  23
HETATM   23  C13 UNL     1      72.141  47.930   7.093  1.00  0.00     0.189 C 
BRANCH  23  24
HETATM   24  C14 UNL     1      72.770  46.962   6.155  1.00  0.00     0.074 C 
BRANCH  24  25
HETATM   25  C15 UNL     1      73.222  47.653   4.938  1.00  0.00    -0.056 A 
HETATM   26  C16 UNL     1      74.554  47.749   4.608  1.00  0.00     0.007 A 
HETATM   27  C17 UNL     1      75.000  48.375   3.466  1.00  0.00     0.001 A 
HETATM   28  C18 UNL     1      74.043  48.923   2.628  1.00  0.00     0.000 A 
HETATM   29  C19 UNL     1      72.701  48.846   2.925  1.00  0.00     0.001 A 
HETATM   30  C20 UNL     1      72.295  48.208   4.084  1.00  0.00     0.007 A 
ENDBRANCH  24  25
ENDBRANCH  23  24
BRANCH  23  31
HETATM   31  C21 UNL     1      71.612  47.378   8.341  1.00  0.00     0.197 C 
HETATM   32  O4  UNL     1      71.636  48.053   9.427  1.00  0.00    -0.646 OA
HETATM   33  O5  UNL     1      71.053  46.117   8.462  1.00  0.00    -0.646 OA
ENDBRANCH  23  31
ENDBRANCH  21  23
ENDBRANCH   1  19
TORSDOF 11
ENDMDL
