MODEL 2
REMARK VINA RESULT: -8.453348550      1.133      1.346
REMARK  11 active torsions:
REMARK  status: ('A' for Active; 'I' for Inactive)
REMARK    1  A    between atoms: C2_2  and  N1_3 
REMARK    2  A    between atoms: C2_2  and  P1_7 
REMARK    3  A    between atoms: P1_7  and  C3_10 
REMARK    4  A    between atoms: C3_10  and  C4_11 
REMARK    5  A    between atoms: C4_11  and  C5_12 
REMARK    6  A    between atoms: C4_11  and  C12_19 
REMARK    7  A    between atoms: C5_12  and  C6_13 
REMARK       I    between atoms: C12_19  and  N2_21 
REMARK    8  A    between atoms: N2_21  and  C13_23 
REMARK    9  A    between atoms: C13_23  and  C14_24 
REMARK   10  A    between atoms: C13_23  and  C21_31 
REMARK   11  A    between atoms: C14_24  and  C15_25 
ROOT
HETATM    1  C4  UNL     1      72.921  51.411   7.859  1.00  0.00     0.092 C 
ENDROOT
BRANCH   1   2
HETATM    2  C3  UNL     1      72.118  51.460   9.171  1.00  0.00     0.120 C 
BRANCH   2   3
HETATM    3  P1  UNL     1      71.340  52.958   9.534  1.00  0.00     0.137 P 
HETATM    4  O1  UNL     1      70.182  53.046  10.729  1.00  0.00    -0.666 OA
HETATM    5  O2  UNL     1      71.461  54.287   8.510  1.00  0.00    -0.666 OA
BRANCH   3   6
HETATM    6  C2  UNL     1      72.475  53.637  10.517  1.00  0.00     0.270 C 
HETATM    7  C1  UNL     1      71.990  54.597  11.587  1.00  0.00     0.051 C 
BRANCH   6   8
HETATM    8  N1  UNL     1      73.539  54.377   9.806  1.00  0.00    -0.066 N 
ATOM      9  H13 UNL     1      73.415  55.389   9.811  1.00  0.00     0.275 HD
ATOM     10  H12 UNL     1      74.440  54.370  10.283  1.00  0.00     0.275 HD
ATOM     11  H11 UNL     1      73.560  53.965   8.873  1.00  0.00     0.275 HD
ENDBRANCH   6   8
ENDBRANCH   3   6
ENDBRANCH   2   3
ENDBRANCH   1   2
BRANCH   1  12
HETATM   12  C5  UNL     1      74.398  51.312   8.147  1.00  0.00     0.053 C 
BRANCH  12  13
HETATM   13  C6  UNL     1      75.252  51.915   7.130  1.00  0.00    -0.057 A 
HETATM   14  C7  UNL     1      74.823  52.952   6.335  1.00  0.00     0.007 A 
HETATM   15  C8  UNL     1      75.684  53.494   5.374  1.00  0.00     0.001 A 
HETATM   16  C9  UNL     1      76.963  53.011   5.203  1.00  0.00     0.000 A 
HETATM   17  C10 UNL     1      77.393  51.971   6.000  1.00  0.00     0.001 A 
HETATM   18  C11 UNL     1      76.534  51.445   6.943  1.00  0.00     0.007 A 
ENDBRANCH  12  13
ENDBRANCH   1  12
BRANCH   1  19
HETATM   19  C12 UNL     1      72.558  50.220   7.040  1.00  0.00     0.223 C 
HETATM   20  O3  UNL     1      71.655  50.302   6.138  1.00  0.00    -0.273 OA
HETATM   21  N2  UNL     1      73.168  48.960   7.200  1.00  0.00    -0.346 N 
ATOM     22  H2  UNL     1      73.892  48.862   7.912  1.00  0.00     0.163 HD
BRANCH  21  23
HETATM   23  C13 UNL     1      72.818  47.774   6.395  1.00  0.00     0.189 C 
BRANCH  23  24
HETATM   24  C14 UNL     1      73.873  47.483   5.387  1.00  0.00     0.074 C 
BRANCH  24  25
HETATM   25  C15 UNL     1      73.900  48.535   4.360  1.00  0.00    -0.056 A 
HETATM   26  C16 UNL     1      74.943  49.426   4.257  1.00  0.00     0.007 A 
HETATM   27  C17 UNL     1      74.998  50.408   3.293  1.00  0.00     0.001 A 
HETATM   28  C18 UNL     1      73.942  50.477   2.398  1.00  0.00     0.000 A 
HETATM   29  C19 UNL     1      72.882  49.602   2.470  1.00  0.00     0.001 A 
HETATM   30  C20 UNL     1      72.866  48.631   3.455  1.00  0.00     0.007 A 
ENDBRANCH  24  25
ENDBRANCH  23  24
BRANCH  23  31
HETATM   31  C21 UNL     1      72.414  46.660   7.255  1.00  0.00     0.197 C 
HETATM   32  O4  UNL     1      71.886  46.866   8.401  1.00  0.00    -0.646 OA
HETATM   33  O5  UNL     1      72.559  45.324   6.922  1.00  0.00    -0.646 OA
ENDBRANCH  23  31
ENDBRANCH  21  23
ENDBRANCH   1  19
TORSDOF 11
ENDMDL
