MODEL 1
REMARK VINA RESULT: -8.483878946      0.000      0.000
REMARK  11 active torsions:
REMARK  status: ('A' for Active; 'I' for Inactive)
REMARK    1  A    between atoms: C2_2  and  N1_3 
REMARK    2  A    between atoms: C2_2  and  P1_7 
REMARK    3  A    between atoms: P1_7  and  C3_10 
REMARK    4  A    between atoms: C3_10  and  C4_11 
REMARK    5  A    between atoms: C4_11  and  C5_12 
REMARK    6  A    between atoms: C4_11  and  C12_19 
REMARK    7  A    between atoms: C5_12  and  C6_13 
REMARK       I    between atoms: C12_19  and  N2_21 
REMARK    8  A    between atoms: N2_21  and  C13_23 
REMARK    9  A    between atoms: C13_23  and  C14_24 
REMARK   10  A    between atoms: C13_23  and  C21_31 
REMARK   11  A    between atoms: C14_24  and  C15_25 
ROOT
HETATM    1  C4  UNL     1      73.214  51.434   7.705  1.00  0.00     0.092 C 
ENDROOT
BRANCH   1   2
HETATM    2  C3  UNL     1      72.234  51.837   8.821  1.00  0.00     0.120 C 
BRANCH   2   3
HETATM    3  P1  UNL     1      72.090  53.528   9.134  1.00  0.00     0.137 P 
HETATM    4  O1  UNL     1      70.914  54.436   8.377  1.00  0.00    -0.666 OA
HETATM    5  O2  UNL     1      73.297  54.386   9.931  1.00  0.00    -0.666 OA
BRANCH   3   6
HETATM    6  C2  UNL     1      71.222  53.485  10.535  1.00  0.00     0.270 C 
HETATM    7  C1  UNL     1      70.730  52.131  11.011  1.00  0.00     0.051 C 
BRANCH   6   8
HETATM    8  N1  UNL     1      70.018  54.342  10.536  1.00  0.00    -0.066 N 
ATOM      9  H13 UNL     1      69.389  54.176   9.750  1.00  0.00     0.275 HD
ATOM     10  H12 UNL     1      69.346  54.113  11.269  1.00  0.00     0.275 HD
ATOM     11  H11 UNL     1      70.379  55.294  10.586  1.00  0.00     0.275 HD
ENDBRANCH   6   8
ENDBRANCH   3   6
ENDBRANCH   2   3
ENDBRANCH   1   2
BRANCH   1  12
HETATM   12  C5  UNL     1      74.552  51.056   8.288  1.00  0.00     0.053 C 
BRANCH  12  13
HETATM   13  C6  UNL     1      75.699  51.591   7.562  1.00  0.00    -0.057 A 
HETATM   14  C7  UNL     1      75.739  51.636   6.188  1.00  0.00     0.007 A 
HETATM   15  C8  UNL     1      76.865  52.159   5.543  1.00  0.00     0.001 A 
HETATM   16  C9  UNL     1      77.944  52.637   6.255  1.00  0.00     0.000 A 
HETATM   17  C10 UNL     1      77.903  52.592   7.633  1.00  0.00     0.001 A 
HETATM   18  C11 UNL     1      76.788  52.072   8.257  1.00  0.00     0.007 A 
ENDBRANCH  12  13
ENDBRANCH   1  12
BRANCH   1  19
HETATM   19  C12 UNL     1      72.722  50.248   6.947  1.00  0.00     0.223 C 
HETATM   20  O3  UNL     1      71.708  50.347   6.173  1.00  0.00    -0.273 OA
HETATM   21  N2  UNL     1      73.322  48.977   7.029  1.00  0.00    -0.346 N 
ATOM     22  H2  UNL     1      74.133  48.865   7.638  1.00  0.00     0.163 HD
BRANCH  21  23
HETATM   23  C13 UNL     1      72.845  47.797   6.282  1.00  0.00     0.189 C 
BRANCH  23  24
HETATM   24  C14 UNL     1      73.823  47.396   5.236  1.00  0.00     0.074 C 
BRANCH  24  25
HETATM   25  C15 UNL     1      73.872  48.408   4.170  1.00  0.00    -0.056 A 
HETATM   26  C16 UNL     1      75.036  49.065   3.843  1.00  0.00     0.007 A 
HETATM   27  C17 UNL     1      75.109  50.003   2.838  1.00  0.00     0.001 A 
HETATM   28  C18 UNL     1      73.945  50.277   2.140  1.00  0.00     0.000 A 
HETATM   29  C19 UNL     1      72.762  49.640   2.439  1.00  0.00     0.001 A 
HETATM   30  C20 UNL     1      72.731  48.704   3.457  1.00  0.00     0.007 A 
ENDBRANCH  24  25
ENDBRANCH  23  24
BRANCH  23  31
HETATM   31  C21 UNL     1      72.403  46.744   7.199  1.00  0.00     0.197 C 
HETATM   32  O4  UNL     1      71.800  47.027   8.291  1.00  0.00    -0.646 OA
HETATM   33  O5  UNL     1      72.586  45.390   6.978  1.00  0.00    -0.646 OA
ENDBRANCH  23  31
ENDBRANCH  21  23
ENDBRANCH   1  19
TORSDOF 11
ENDMDL
