MODEL 19
REMARK VINA RESULT: -7.725856700      2.579      6.722
REMARK  11 active torsions:
REMARK  status: ('A' for Active; 'I' for Inactive)
REMARK    1  A    between atoms: C2_2  and  N1_3 
REMARK    2  A    between atoms: C2_2  and  P1_7 
REMARK    3  A    between atoms: P1_7  and  C3_10 
REMARK    4  A    between atoms: C3_10  and  C4_11 
REMARK    5  A    between atoms: C4_11  and  C5_12 
REMARK    6  A    between atoms: C4_11  and  C12_19 
REMARK    7  A    between atoms: C5_12  and  C6_13 
REMARK       I    between atoms: C12_19  and  N2_21 
REMARK    8  A    between atoms: N2_21  and  C13_23 
REMARK    9  A    between atoms: C13_23  and  C14_24 
REMARK   10  A    between atoms: C13_23  and  C21_31 
REMARK   11  A    between atoms: C14_24  and  C15_25 
ROOT
HETATM    1  C4  UNL     1      73.095  48.895   5.079  1.00  0.00     0.092 C 
ENDROOT
BRANCH   1   2
HETATM    2  C3  UNL     1      72.031  48.001   5.740  1.00  0.00     0.120 C 
BRANCH   2   3
HETATM    3  P1  UNL     1      72.390  47.439   7.332  1.00  0.00     0.137 P 
HETATM    4  O1  UNL     1      71.887  48.297   8.670  1.00  0.00    -0.666 OA
HETATM    5  O2  UNL     1      73.516  46.220   7.606  1.00  0.00    -0.666 OA
BRANCH   3   6
HETATM    6  C2  UNL     1      71.179  46.337   7.524  1.00  0.00     0.270 C 
HETATM    7  C1  UNL     1      70.811  45.942   8.942  1.00  0.00     0.051 C 
BRANCH   6   8
HETATM    8  N1  UNL     1      71.402  45.054   6.825  1.00  0.00    -0.066 N 
ATOM      9  H13 UNL     1      72.027  44.416   7.317  1.00  0.00     0.275 HD
ATOM     10  H12 UNL     1      70.590  44.436   6.822  1.00  0.00     0.275 HD
ATOM     11  H11 UNL     1      71.726  45.320   5.896  1.00  0.00     0.275 HD
ENDBRANCH   6   8
ENDBRANCH   3   6
ENDBRANCH   2   3
ENDBRANCH   1   2
BRANCH   1  12
HETATM   12  C5  UNL     1      72.837  49.017   3.599  1.00  0.00     0.053 C 
BRANCH  12  13
HETATM   13  C6  UNL     1      74.030  48.900   2.767  1.00  0.00    -0.057 A 
HETATM   14  C7  UNL     1      74.582  49.982   2.124  1.00  0.00     0.007 A 
HETATM   15  C8  UNL     1      75.728  49.813   1.338  1.00  0.00     0.001 A 
HETATM   16  C9  UNL     1      76.322  48.579   1.191  1.00  0.00     0.000 A 
HETATM   17  C10 UNL     1      75.768  47.493   1.836  1.00  0.00     0.001 A 
HETATM   18  C11 UNL     1      74.638  47.673   2.608  1.00  0.00     0.007 A 
ENDBRANCH  12  13
ENDBRANCH   1  12
BRANCH   1  19
HETATM   19  C12 UNL     1      73.073  50.277   5.638  1.00  0.00     0.223 C 
HETATM   20  O3  UNL     1      71.988  50.955   5.651  1.00  0.00    -0.273 OA
HETATM   21  N2  UNL     1      74.212  50.910   6.173  1.00  0.00    -0.346 N 
ATOM     22  H2  UNL     1      75.092  50.395   6.177  1.00  0.00     0.163 HD
BRANCH  21  23
HETATM   23  C13 UNL     1      74.201  52.277   6.730  1.00  0.00     0.189 C 
BRANCH  23  24
HETATM   24  C14 UNL     1      74.495  52.260   8.188  1.00  0.00     0.074 C 
BRANCH  24  25
HETATM   25  C15 UNL     1      73.285  52.591   8.955  1.00  0.00    -0.056 A 
HETATM   26  C16 UNL     1      72.362  51.633   9.307  1.00  0.00     0.007 A 
HETATM   27  C17 UNL     1      71.231  51.916  10.039  1.00  0.00     0.001 A 
HETATM   28  C18 UNL     1      71.039  53.232  10.428  1.00  0.00     0.000 A 
HETATM   29  C19 UNL     1      71.941  54.217  10.094  1.00  0.00     0.001 A 
HETATM   30  C20 UNL     1      73.065  53.890   9.356  1.00  0.00     0.007 A 
ENDBRANCH  24  25
ENDBRANCH  23  24
BRANCH  23  31
HETATM   31  C21 UNL     1      75.014  53.179   5.912  1.00  0.00     0.197 C 
HETATM   32  O4  UNL     1      75.282  52.906   4.692  1.00  0.00    -0.646 OA
HETATM   33  O5  UNL     1      75.549  54.373   6.364  1.00  0.00    -0.646 OA
ENDBRANCH  23  31
ENDBRANCH  21  23
ENDBRANCH   1  19
TORSDOF 11
ENDMDL
