MODEL 18
REMARK VINA RESULT: -9.133940384      2.219      3.033
REMARK  8 active torsions:
REMARK  status: ('A' for Active; 'I' for Inactive)
REMARK    1  A    between atoms: C1_2  and  C2_3 
REMARK       I    between atoms: C1_2  and  N1_8 
REMARK    2  A    between atoms: C2_3  and  P1_4 
REMARK    3  A    between atoms: N1_8  and  C3_10 
REMARK    4  A    between atoms: C3_10  and  C4_11 
REMARK    5  A    between atoms: C4_11  and  C5_12 
REMARK    6  A    between atoms: C5_12  and  C6_13 
REMARK    7  A    between atoms: C10_17  and  O5_18 
REMARK    8  A    between atoms: O5_18  and  C11_19 
ROOT
HETATM    1  C6  UNL     1      15.959  56.144  36.723  1.00  0.00    -0.055 A 
HETATM    2  C7  UNL     1      16.016  55.629  37.970  1.00  0.00     0.007 A 
HETATM    3  C8  UNL     1      14.974  55.939  38.861  1.00  0.00     0.003 A 
HETATM    4  C9  UNL     1      13.912  56.736  38.515  1.00  0.00     0.037 A 
HETATM    5  C10 UNL     1      13.862  57.254  37.247  1.00  0.00     0.076 A 
HETATM    6  C17 UNL     1      14.883  56.950  36.380  1.00  0.00     0.044 A 
ENDROOT
BRANCH   1   7
HETATM    7  C5  UNL     1      16.990  55.925  35.661  1.00  0.00     0.040 C 
BRANCH   7   8
HETATM    8  C4  UNL     1      18.326  56.270  36.182  1.00  0.00     0.024 C 
BRANCH   8   9
HETATM    9  C3  UNL     1      19.346  55.259  36.497  1.00  0.00     0.123 C 
BRANCH   9  10
HETATM   10  N1  UNL     1      19.169  53.906  36.108  1.00  0.00    -0.361 N 
HETATM   11  C1  UNL     1      18.599  52.831  36.767  1.00  0.00     0.230 C 
HETATM   12  O1  UNL     1      18.124  52.926  37.908  1.00  0.00    -0.273 OA
ATOM     13  H1  UNL     1      19.525  53.687  35.178  1.00  0.00     0.162 HD
BRANCH  11  14
HETATM   14  C2  UNL     1      18.558  51.475  36.057  1.00  0.00     0.248 C 
BRANCH  14  15
HETATM   15  P1  UNL     1      20.158  50.945  35.716  1.00  0.00     0.268 P 
HETATM   16  O2  UNL     1      20.852  51.255  37.047  1.00  0.00    -0.639 OA
HETATM   17  O3  UNL     1      20.594  49.330  35.955  1.00  0.00    -0.639 OA
HETATM   18  O4  UNL     1      21.253  51.913  34.924  1.00  0.00    -0.639 OA
ENDBRANCH  14  15
ENDBRANCH  11  14
ENDBRANCH   9  10
ENDBRANCH   8   9
ENDBRANCH   7   8
ENDBRANCH   1   7
BRANCH   5  19
HETATM   19  O5  UNL     1      12.849  58.065  36.784  1.00  0.00    -0.311 OA
BRANCH  19  20
HETATM   20  C11 UNL     1      12.279  59.122  37.431  1.00  0.00     0.076 A 
HETATM   21  C12 UNL     1      10.925  59.374  37.360  1.00  0.00     0.037 A 
HETATM   22  C13 UNL     1      10.353  60.456  38.023  1.00  0.00     0.003 A 
HETATM   23  C14 UNL     1      11.119  61.317  38.778  1.00  0.00     0.000 A 
HETATM   24  C15 UNL     1      12.472  61.070  38.853  1.00  0.00     0.003 A 
HETATM   25  C16 UNL     1      13.041  59.985  38.186  1.00  0.00     0.037 A 
ENDBRANCH  19  20
ENDBRANCH   5  19
TORSDOF 8
ENDMDL
