MODEL 14
REMARK VINA RESULT: -9.321510359      2.041      3.101
REMARK  8 active torsions:
REMARK  status: ('A' for Active; 'I' for Inactive)
REMARK    1  A    between atoms: C1_2  and  C2_3 
REMARK       I    between atoms: C1_2  and  N1_8 
REMARK    2  A    between atoms: C2_3  and  P1_4 
REMARK    3  A    between atoms: N1_8  and  C3_10 
REMARK    4  A    between atoms: C3_10  and  C4_11 
REMARK    5  A    between atoms: C4_11  and  C5_12 
REMARK    6  A    between atoms: C5_12  and  C6_13 
REMARK    7  A    between atoms: C10_17  and  O5_18 
REMARK    8  A    between atoms: O5_18  and  C11_19 
ROOT
HETATM    1  C6  UNL     1      16.467  55.861  36.584  1.00  0.00    -0.055 A 
HETATM    2  C7  UNL     1      16.128  54.703  37.190  1.00  0.00     0.007 A 
HETATM    3  C8  UNL     1      15.244  54.763  38.282  1.00  0.00     0.003 A 
HETATM    4  C9  UNL     1      14.719  55.940  38.749  1.00  0.00     0.037 A 
HETATM    5  C10 UNL     1      15.068  57.112  38.128  1.00  0.00     0.076 A 
HETATM    6  C17 UNL     1      15.932  57.049  37.062  1.00  0.00     0.044 A 
ENDROOT
BRANCH   1   7
HETATM    7  C5  UNL     1      17.403  55.976  35.423  1.00  0.00     0.040 C 
BRANCH   7   8
HETATM    8  C4  UNL     1      18.755  56.319  35.902  1.00  0.00     0.024 C 
BRANCH   8   9
HETATM    9  C3  UNL     1      19.788  55.307  36.172  1.00  0.00     0.123 C 
BRANCH   9  10
HETATM   10  N1  UNL     1      19.496  53.924  36.049  1.00  0.00    -0.361 N 
HETATM   11  C1  UNL     1      19.276  52.947  37.004  1.00  0.00     0.230 C 
HETATM   12  O1  UNL     1      19.316  53.184  38.220  1.00  0.00    -0.273 OA
ATOM     13  H1  UNL     1      19.439  53.591  35.087  1.00  0.00     0.162 HD
BRANCH  11  14
HETATM   14  C2  UNL     1      18.974  51.521  36.536  1.00  0.00     0.248 C 
BRANCH  14  15
HETATM   15  P1  UNL     1      20.368  50.842  35.792  1.00  0.00     0.268 P 
HETATM   16  O2  UNL     1      21.362  50.878  36.958  1.00  0.00    -0.639 OA
HETATM   17  O3  UNL     1      20.591  49.168  35.757  1.00  0.00    -0.639 OA
HETATM   18  O4  UNL     1      21.411  51.761  34.881  1.00  0.00    -0.639 OA
ENDBRANCH  14  15
ENDBRANCH  11  14
ENDBRANCH   9  10
ENDBRANCH   8   9
ENDBRANCH   7   8
ENDBRANCH   1   7
BRANCH   5  19
HETATM   19  O5  UNL     1      14.605  58.353  38.506  1.00  0.00    -0.311 OA
BRANCH  19  20
HETATM   20  C11 UNL     1      13.438  58.947  38.128  1.00  0.00     0.076 A 
HETATM   21  C12 UNL     1      12.773  58.580  36.977  1.00  0.00     0.037 A 
HETATM   22  C13 UNL     1      11.582  59.193  36.599  1.00  0.00     0.003 A 
HETATM   23  C14 UNL     1      11.021  60.192  37.364  1.00  0.00     0.000 A 
HETATM   24  C15 UNL     1      11.679  60.563  38.515  1.00  0.00     0.003 A 
HETATM   25  C16 UNL     1      12.873  59.946  38.889  1.00  0.00     0.037 A 
ENDBRANCH  19  20
ENDBRANCH   5  19
TORSDOF 8
ENDMDL
