MODEL 10
REMARK VINA RESULT: -9.461449026      3.488      5.632
REMARK  8 active torsions:
REMARK  status: ('A' for Active; 'I' for Inactive)
REMARK    1  A    between atoms: C1_2  and  C2_3 
REMARK       I    between atoms: C1_2  and  N1_8 
REMARK    2  A    between atoms: C2_3  and  P1_4 
REMARK    3  A    between atoms: N1_8  and  C3_10 
REMARK    4  A    between atoms: C3_10  and  C4_11 
REMARK    5  A    between atoms: C4_11  and  C5_12 
REMARK    6  A    between atoms: C5_12  and  C6_13 
REMARK    7  A    between atoms: C10_17  and  O5_18 
REMARK    8  A    between atoms: O5_18  and  C11_19 
ROOT
HETATM    1  C6  UNL     1      19.337  54.591  37.214  1.00  0.00    -0.055 A 
HETATM    2  C7  UNL     1      19.726  55.309  36.139  1.00  0.00     0.007 A 
HETATM    3  C8  UNL     1      18.750  56.057  35.457  1.00  0.00     0.003 A 
HETATM    4  C9  UNL     1      17.433  56.085  35.839  1.00  0.00     0.037 A 
HETATM    5  C10 UNL     1      17.046  55.352  36.931  1.00  0.00     0.076 A 
HETATM    6  C17 UNL     1      18.003  54.622  37.594  1.00  0.00     0.044 A 
ENDROOT
BRANCH   1   7
HETATM    7  C5  UNL     1      20.242  53.733  38.041  1.00  0.00     0.040 C 
BRANCH   7   8
HETATM    8  C4  UNL     1      20.556  54.416  39.310  1.00  0.00     0.024 C 
BRANCH   8   9
HETATM    9  C3  UNL     1      21.924  54.535  39.836  1.00  0.00     0.123 C 
BRANCH   9  10
HETATM   10  N1  UNL     1      22.373  55.747  40.422  1.00  0.00    -0.361 N 
HETATM   11  C1  UNL     1      23.646  56.217  40.689  1.00  0.00     0.230 C 
HETATM   12  O1  UNL     1      24.666  55.565  40.424  1.00  0.00    -0.273 OA
ATOM     13  H1  UNL     1      21.625  56.383  40.696  1.00  0.00     0.162 HD
BRANCH  11  14
HETATM   14  C2  UNL     1      23.796  57.596  41.337  1.00  0.00     0.248 C 
BRANCH  14  15
HETATM   15  P1  UNL     1      25.200  57.627  42.329  1.00  0.00     0.268 P 
HETATM   16  O2  UNL     1      24.883  58.820  43.238  1.00  0.00    -0.639 OA
HETATM   17  O3  UNL     1      25.282  56.684  43.728  1.00  0.00    -0.639 OA
HETATM   18  O4  UNL     1      26.602  58.377  41.843  1.00  0.00    -0.639 OA
ENDBRANCH  14  15
ENDBRANCH  11  14
ENDBRANCH   9  10
ENDBRANCH   8   9
ENDBRANCH   7   8
ENDBRANCH   1   7
BRANCH   5  19
HETATM   19  O5  UNL     1      15.755  55.301  37.409  1.00  0.00    -0.311 OA
BRANCH  19  20
HETATM   20  C11 UNL     1      15.212  56.064  38.399  1.00  0.00     0.076 A 
HETATM   21  C12 UNL     1      14.820  55.522  39.604  1.00  0.00     0.037 A 
HETATM   22  C13 UNL     1      14.266  56.311  40.609  1.00  0.00     0.003 A 
HETATM   23  C14 UNL     1      14.089  57.666  40.436  1.00  0.00     0.000 A 
HETATM   24  C15 UNL     1      14.480  58.214  39.235  1.00  0.00     0.003 A 
HETATM   25  C16 UNL     1      15.034  57.420  38.231  1.00  0.00     0.037 A 
ENDBRANCH  19  20
ENDBRANCH   5  19
TORSDOF 8
ENDMDL
