MODEL 13
REMARK VINA RESULT: -9.400173003      3.597      6.102
REMARK  8 active torsions:
REMARK  status: ('A' for Active; 'I' for Inactive)
REMARK    1  A    between atoms: C1_2  and  C2_3 
REMARK       I    between atoms: C1_2  and  N1_8 
REMARK    2  A    between atoms: C2_3  and  P1_4 
REMARK    3  A    between atoms: N1_8  and  C3_10 
REMARK    4  A    between atoms: C3_10  and  C4_11 
REMARK    5  A    between atoms: C4_11  and  C5_12 
REMARK    6  A    between atoms: C5_12  and  C6_13 
REMARK    7  A    between atoms: C10_17  and  O5_18 
REMARK    8  A    between atoms: O5_18  and  C11_19 
ROOT
HETATM    1  C6  UNL     1      19.658  54.167  38.763  1.00  0.00    -0.055 A 
HETATM    2  C7  UNL     1      20.067  53.356  37.764  1.00  0.00     0.007 A 
HETATM    3  C8  UNL     1      19.089  52.802  36.920  1.00  0.00     0.003 A 
HETATM    4  C9  UNL     1      17.749  53.053  37.071  1.00  0.00     0.037 A 
HETATM    5  C10 UNL     1      17.342  53.877  38.088  1.00  0.00     0.076 A 
HETATM    6  C17 UNL     1      18.301  54.415  38.911  1.00  0.00     0.044 A 
ENDROOT
BRANCH   1   7
HETATM    7  C5  UNL     1      20.564  54.825  39.755  1.00  0.00     0.040 C 
BRANCH   7   8
HETATM    8  C4  UNL     1      21.887  54.171  39.734  1.00  0.00     0.024 C 
BRANCH   8   9
HETATM    9  C3  UNL     1      23.144  54.918  39.581  1.00  0.00     0.123 C 
BRANCH   9  10
HETATM   10  N1  UNL     1      23.731  55.584  40.688  1.00  0.00    -0.361 N 
HETATM   11  C1  UNL     1      25.032  55.604  41.159  1.00  0.00     0.230 C 
HETATM   12  O1  UNL     1      25.946  54.968  40.616  1.00  0.00    -0.273 OA
ATOM     13  H1  UNL     1      23.079  56.147  41.233  1.00  0.00     0.162 HD
BRANCH  11  14
HETATM   14  C2  UNL     1      25.348  56.443  42.400  1.00  0.00     0.248 C 
BRANCH  14  15
HETATM   15  P1  UNL     1      24.978  58.095  42.098  1.00  0.00     0.268 P 
HETATM   16  O2  UNL     1      23.469  58.104  42.369  1.00  0.00    -0.639 OA
HETATM   17  O3  UNL     1      25.126  59.245  43.327  1.00  0.00    -0.639 OA
HETATM   18  O4  UNL     1      24.701  58.666  40.561  1.00  0.00    -0.639 OA
ENDBRANCH  14  15
ENDBRANCH  11  14
ENDBRANCH   9  10
ENDBRANCH   8   9
ENDBRANCH   7   8
ENDBRANCH   1   7
BRANCH   5  19
HETATM   19  O5  UNL     1      16.026  54.202  38.339  1.00  0.00    -0.311 OA
BRANCH  19  20
HETATM   20  C11 UNL     1      15.534  55.420  38.702  1.00  0.00     0.076 A 
HETATM   21  C12 UNL     1      15.116  55.682  39.989  1.00  0.00     0.037 A 
HETATM   22  C13 UNL     1      14.613  56.929  40.350  1.00  0.00     0.003 A 
HETATM   23  C14 UNL     1      14.515  57.951  39.432  1.00  0.00     0.000 A 
HETATM   24  C15 UNL     1      14.932  57.696  38.144  1.00  0.00     0.003 A 
HETATM   25  C16 UNL     1      15.435  56.445  37.787  1.00  0.00     0.037 A 
ENDBRANCH  19  20
ENDBRANCH   5  19
TORSDOF 8
ENDMDL
