MODEL 17
REMARK VINA RESULT: -9.152440380      3.409      5.560
REMARK  8 active torsions:
REMARK  status: ('A' for Active; 'I' for Inactive)
REMARK    1  A    between atoms: C1_2  and  C2_3 
REMARK       I    between atoms: C1_2  and  N1_8 
REMARK    2  A    between atoms: C2_3  and  P1_4 
REMARK    3  A    between atoms: N1_8  and  C3_10 
REMARK    4  A    between atoms: C3_10  and  C4_11 
REMARK    5  A    between atoms: C4_11  and  C5_12 
REMARK    6  A    between atoms: C5_12  and  C6_13 
REMARK    7  A    between atoms: C10_17  and  O5_18 
REMARK    8  A    between atoms: O5_18  and  C11_19 
ROOT
HETATM    1  C6  UNL     1      18.724  53.970  37.469  1.00  0.00    -0.055 A 
HETATM    2  C7  UNL     1      18.708  52.662  37.133  1.00  0.00     0.007 A 
HETATM    3  C8  UNL     1      17.462  52.057  36.891  1.00  0.00     0.003 A 
HETATM    4  C9  UNL     1      16.275  52.738  36.982  1.00  0.00     0.037 A 
HETATM    5  C10 UNL     1      16.300  54.066  37.324  1.00  0.00     0.076 A 
HETATM    6  C17 UNL     1      17.519  54.653  37.560  1.00  0.00     0.044 A 
ENDROOT
BRANCH   1   7
HETATM    7  C5  UNL     1      19.958  54.760  37.772  1.00  0.00     0.040 C 
BRANCH   7   8
HETATM    8  C4  UNL     1      20.343  54.564  39.182  1.00  0.00     0.024 C 
BRANCH   8   9
HETATM    9  C3  UNL     1      21.735  54.648  39.649  1.00  0.00     0.123 C 
BRANCH   9  10
HETATM   10  N1  UNL     1      22.226  55.833  40.254  1.00  0.00    -0.361 N 
HETATM   11  C1  UNL     1      23.513  56.235  40.569  1.00  0.00     0.230 C 
HETATM   12  O1  UNL     1      24.505  55.527  40.340  1.00  0.00    -0.273 OA
ATOM     13  H1  UNL     1      21.504  56.509  40.501  1.00  0.00     0.162 HD
BRANCH  11  14
HETATM   14  C2  UNL     1      23.713  57.603  41.224  1.00  0.00     0.248 C 
BRANCH  14  15
HETATM   15  P1  UNL     1      25.096  57.566  42.245  1.00  0.00     0.268 P 
HETATM   16  O2  UNL     1      24.787  58.735  43.187  1.00  0.00    -0.639 OA
HETATM   17  O3  UNL     1      25.125  56.575  43.613  1.00  0.00    -0.639 OA
HETATM   18  O4  UNL     1      26.525  58.297  41.814  1.00  0.00    -0.639 OA
ENDBRANCH  14  15
ENDBRANCH  11  14
ENDBRANCH   9  10
ENDBRANCH   8   9
ENDBRANCH   7   8
ENDBRANCH   1   7
BRANCH   5  19
HETATM   19  O5  UNL     1      15.175  54.852  37.447  1.00  0.00    -0.311 OA
BRANCH  19  20
HETATM   20  C11 UNL     1      14.957  55.840  38.360  1.00  0.00     0.076 A 
HETATM   21  C12 UNL     1      14.765  55.565  39.698  1.00  0.00     0.037 A 
HETATM   22  C13 UNL     1      14.542  56.582  40.623  1.00  0.00     0.003 A 
HETATM   23  C14 UNL     1      14.506  57.903  40.236  1.00  0.00     0.000 A 
HETATM   24  C15 UNL     1      14.698  58.184  38.902  1.00  0.00     0.003 A 
HETATM   25  C16 UNL     1      14.921  57.163  37.978  1.00  0.00     0.037 A 
ENDBRANCH  19  20
ENDBRANCH   5  19
TORSDOF 8
ENDMDL
