MODEL 9
REMARK VINA RESULT: -9.479883916      2.213      2.638
REMARK  8 active torsions:
REMARK  status: ('A' for Active; 'I' for Inactive)
REMARK    1  A    between atoms: C1_2  and  C2_3 
REMARK       I    between atoms: C1_2  and  N1_8 
REMARK    2  A    between atoms: C2_3  and  P1_4 
REMARK    3  A    between atoms: N1_8  and  C3_10 
REMARK    4  A    between atoms: C3_10  and  C4_11 
REMARK    5  A    between atoms: C4_11  and  C5_12 
REMARK    6  A    between atoms: C5_12  and  C6_13 
REMARK    7  A    between atoms: C10_17  and  O5_18 
REMARK    8  A    between atoms: O5_18  and  C11_19 
ROOT
HETATM    1  C6  UNL     1      15.216  56.004  38.238  1.00  0.00    -0.055 A 
HETATM    2  C7  UNL     1      15.205  55.514  39.497  1.00  0.00     0.007 A 
HETATM    3  C8  UNL     1      14.790  56.368  40.534  1.00  0.00     0.003 A 
HETATM    4  C9  UNL     1      14.399  57.665  40.317  1.00  0.00     0.037 A 
HETATM    5  C10 UNL     1      14.413  58.154  39.037  1.00  0.00     0.076 A 
HETATM    6  C17 UNL     1      14.820  57.317  38.027  1.00  0.00     0.044 A 
ENDROOT
BRANCH   1   7
HETATM    7  C5  UNL     1      15.643  55.236  37.027  1.00  0.00     0.040 C 
BRANCH   7   8
HETATM    8  C4  UNL     1      17.070  55.487  36.753  1.00  0.00     0.024 C 
BRANCH   8   9
HETATM    9  C3  UNL     1      18.131  54.535  37.113  1.00  0.00     0.123 C 
BRANCH   9  10
HETATM   10  N1  UNL     1      18.364  53.377  36.327  1.00  0.00    -0.361 N 
HETATM   11  C1  UNL     1      17.767  52.129  36.337  1.00  0.00     0.230 C 
HETATM   12  O1  UNL     1      16.858  51.833  37.126  1.00  0.00    -0.273 OA
ATOM     13  H1  UNL     1      19.101  53.483  35.631  1.00  0.00     0.162 HD
BRANCH  11  14
HETATM   14  C2  UNL     1      18.253  51.077  35.337  1.00  0.00     0.248 C 
BRANCH  14  15
HETATM   15  P1  UNL     1      19.945  50.832  35.520  1.00  0.00     0.268 P 
HETATM   16  O2  UNL     1      20.124  51.174  37.004  1.00  0.00    -0.639 OA
HETATM   17  O3  UNL     1      20.554  49.298  35.882  1.00  0.00    -0.639 OA
HETATM   18  O4  UNL     1      21.050  52.007  35.120  1.00  0.00    -0.639 OA
ENDBRANCH  14  15
ENDBRANCH  11  14
ENDBRANCH   9  10
ENDBRANCH   8   9
ENDBRANCH   7   8
ENDBRANCH   1   7
BRANCH   5  19
HETATM   19  O5  UNL     1      14.043  59.436  38.696  1.00  0.00    -0.311 OA
BRANCH  19  20
HETATM   20  C11 UNL     1      12.827  59.849  38.239  1.00  0.00     0.076 A 
HETATM   21  C12 UNL     1      12.325  59.430  37.024  1.00  0.00     0.037 A 
HETATM   22  C13 UNL     1      11.083  59.858  36.566  1.00  0.00     0.003 A 
HETATM   23  C14 UNL     1      10.304  60.717  37.310  1.00  0.00     0.000 A 
HETATM   24  C15 UNL     1      10.799  61.138  38.524  1.00  0.00     0.003 A 
HETATM   25  C16 UNL     1      12.045  60.707  38.980  1.00  0.00     0.037 A 
ENDBRANCH  19  20
ENDBRANCH   5  19
TORSDOF 8
ENDMDL
