MODEL 1
REMARK VINA RESULT: -8.216238986      0.000      0.000
REMARK  6 active torsions:
REMARK  status: ('A' for Active; 'I' for Inactive)
REMARK    1  A    between atoms: N3_11  and  C6_12 
REMARK    2  A    between atoms: C7_14  and  C8_15 
REMARK    3  A    between atoms: C8_15  and  O4_16 
REMARK    4  A    between atoms: O4_16  and  P1_17 
REMARK    5  A    between atoms: C9_21  and  O8_22 
REMARK    6  A    between atoms: C10_24  and  O9_25 
ROOT
HETATM    1  N1  UNL     1      28.128 -21.718  15.180  1.00  0.00    -0.195 NA
HETATM    2  C1  UNL     1      27.585 -20.742  15.485  1.00  0.00     0.085 C 
HETATM    3  C2  UNL     1      26.910 -19.485  15.882  1.00  0.00     0.207 C 
HETATM    4  C3  UNL     1      27.892 -18.728  16.751  1.00  0.00     0.144 C 
HETATM    5  C4  UNL     1      29.191 -18.708  16.022  1.00  0.00     0.228 C 
HETATM    6  O1  UNL     1      30.271 -19.009  16.584  1.00  0.00    -0.273 OA
HETATM    7  N2  UNL     1      29.157 -18.332  14.650  1.00  0.00    -0.279 N 
ATOM      8  H2  UNL     1      30.016 -18.061  14.170  1.00  0.00     0.173 HD
HETATM    9  C5  UNL     1      27.914 -18.337  13.954  1.00  0.00     0.328 C 
HETATM   10  O2  UNL     1      27.797 -18.019  12.745  1.00  0.00    -0.247 OA
HETATM   11  N3  UNL     1      26.743 -18.720  14.657  1.00  0.00    -0.287 N 
ENDROOT
BRANCH  11  12
HETATM   12  C6  UNL     1      25.438 -18.370  14.182  1.00  0.00     0.260 C 
HETATM   13  O3  UNL     1      25.032 -19.030  13.056  1.00  0.00    -0.354 OA
HETATM   14  C7  UNL     1      24.162 -18.254  12.340  1.00  0.00     0.180 C 
HETATM   15  C9  UNL     1      23.998 -16.931  13.098  1.00  0.00     0.182 C 
HETATM   16  C10 UNL     1      25.344 -16.886  13.796  1.00  0.00     0.198 C 
BRANCH  14  17
HETATM   17  C8  UNL     1      24.808 -17.904  11.023  1.00  0.00     0.217 C 
BRANCH  17  18
HETATM   18  O4  UNL     1      23.888 -17.263  10.183  1.00  0.00    -0.280 OA
BRANCH  18  19
HETATM   19  P1  UNL     1      24.524 -16.233   9.224  1.00  0.00     0.422 P 
HETATM   20  O5  UNL     1      25.170 -15.310   8.192  1.00  0.00    -0.617 OA
HETATM   21  O6  UNL     1      23.117 -15.385   9.228  1.00  0.00    -0.617 OA
HETATM   22  O7  UNL     1      24.696 -17.516   8.163  1.00  0.00    -0.617 OA
ENDBRANCH  18  19
ENDBRANCH  17  18
ENDBRANCH  14  17
BRANCH  15  23
HETATM   23  O8  UNL     1      23.029 -17.032  14.075  1.00  0.00    -0.390 OA
ATOM     24  H8  UNL     1      23.415 -17.042  14.942  1.00  0.00     0.210 HD
ENDBRANCH  15  23
BRANCH  16  25
HETATM   25  O9  UNL     1      25.314 -16.081  14.926  1.00  0.00    -0.388 OA
ATOM     26  H9  UNL     1      25.421 -15.166  14.694  1.00  0.00     0.210 HD
ENDBRANCH  16  25
ENDBRANCH  11  12
TORSDOF 6
ENDMDL
