MODEL 3
REMARK VINA RESULT: -8.122699622      0.617      1.017
REMARK  6 active torsions:
REMARK  status: ('A' for Active; 'I' for Inactive)
REMARK    1  A    between atoms: N3_11  and  C6_12 
REMARK    2  A    between atoms: C7_14  and  C8_15 
REMARK    3  A    between atoms: C8_15  and  O4_16 
REMARK    4  A    between atoms: O4_16  and  P1_17 
REMARK    5  A    between atoms: C9_21  and  O8_22 
REMARK    6  A    between atoms: C10_24  and  O9_25 
ROOT
HETATM    1  N1  UNL     1      28.028 -21.790  15.201  1.00  0.00    -0.195 NA
HETATM    2  C1  UNL     1      27.435 -20.827  15.446  1.00  0.00     0.085 C 
HETATM    3  C2  UNL     1      26.696 -19.585  15.771  1.00  0.00     0.207 C 
HETATM    4  C3  UNL     1      27.524 -18.852  16.805  1.00  0.00     0.144 C 
HETATM    5  C4  UNL     1      28.921 -18.805  16.289  1.00  0.00     0.228 C 
HETATM    6  O1  UNL     1      29.902 -19.119  17.003  1.00  0.00    -0.273 OA
HETATM    7  N2  UNL     1      29.098 -18.386  14.941  1.00  0.00    -0.279 N 
ATOM      8  H2  UNL     1      30.019 -18.097  14.608  1.00  0.00     0.173 HD
HETATM    9  C5  UNL     1      27.978 -18.374  14.059  1.00  0.00     0.328 C 
HETATM   10  O2  UNL     1      28.049 -18.019  12.857  1.00  0.00    -0.247 OA
HETATM   11  N3  UNL     1      26.716 -18.783  14.558  1.00  0.00    -0.287 N 
ENDROOT
BRANCH  11  12
HETATM   12  C6  UNL     1      25.498 -18.423  13.897  1.00  0.00     0.260 C 
HETATM   13  O3  UNL     1      25.328 -18.966  12.654  1.00  0.00    -0.354 OA
HETATM   14  C7  UNL     1      24.559 -18.143  11.878  1.00  0.00     0.180 C 
HETATM   15  C9  UNL     1      24.198 -16.918  12.728  1.00  0.00     0.182 C 
HETATM   16  C10 UNL     1      25.398 -16.909  13.657  1.00  0.00     0.198 C 
BRANCH  14  17
HETATM   17  C8  UNL     1      25.407 -17.629  10.742  1.00  0.00     0.217 C 
BRANCH  17  18
HETATM   18  O4  UNL     1      24.939 -16.381  10.310  1.00  0.00    -0.280 OA
BRANCH  18  19
HETATM   19  P1  UNL     1      24.681 -16.298   8.789  1.00  0.00     0.422 P 
HETATM   20  O5  UNL     1      24.319 -16.151   7.312  1.00  0.00    -0.617 OA
HETATM   21  O6  UNL     1      26.104 -15.495   8.608  1.00  0.00    -0.617 OA
HETATM   22  O7  UNL     1      23.307 -15.434   9.198  1.00  0.00    -0.617 OA
ENDBRANCH  18  19
ENDBRANCH  17  18
ENDBRANCH  14  17
BRANCH  15  23
HETATM   23  O8  UNL     1      23.080 -17.156  13.499  1.00  0.00    -0.390 OA
ATOM     24  H8  UNL     1      23.320 -17.417  14.381  1.00  0.00     0.210 HD
ENDBRANCH  15  23
BRANCH  16  25
HETATM   25  O9  UNL     1      25.130 -16.236  14.840  1.00  0.00    -0.388 OA
ATOM     26  H9  UNL     1      24.949 -15.318  14.675  1.00  0.00     0.210 HD
ENDBRANCH  16  25
ENDBRANCH  11  12
TORSDOF 6
ENDMDL
