MODEL 6
REMARK VINA RESULT: -7.516921930      1.428      2.085
REMARK  6 active torsions:
REMARK  status: ('A' for Active; 'I' for Inactive)
REMARK    1  A    between atoms: N3_11  and  C6_12 
REMARK    2  A    between atoms: C7_14  and  C8_15 
REMARK    3  A    between atoms: C8_15  and  O4_16 
REMARK    4  A    between atoms: O4_16  and  P1_17 
REMARK    5  A    between atoms: C9_21  and  O8_22 
REMARK    6  A    between atoms: C10_24  and  O9_25 
ROOT
HETATM    1  N1  UNL     1      27.962 -18.704  17.860  1.00  0.00    -0.195 NA
HETATM    2  C1  UNL     1      27.845 -18.516  16.724  1.00  0.00     0.085 C 
HETATM    3  C2  UNL     1      27.716 -18.287  15.266  1.00  0.00     0.207 C 
HETATM    4  C3  UNL     1      29.084 -18.543  14.670  1.00  0.00     0.144 C 
HETATM    5  C4  UNL     1      29.553 -19.851  15.206  1.00  0.00     0.228 C 
HETATM    6  O1  UNL     1      30.701 -19.997  15.687  1.00  0.00    -0.273 OA
HETATM    7  N2  UNL     1      28.638 -20.939  15.148  1.00  0.00    -0.279 N 
ATOM      8  H2  UNL     1      28.969 -21.897  15.263  1.00  0.00     0.173 HD
HETATM    9  C5  UNL     1      27.254 -20.677  14.930  1.00  0.00     0.328 C 
HETATM   10  O2  UNL     1      26.381 -21.578  14.867  1.00  0.00    -0.247 OA
HETATM   11  N3  UNL     1      26.832 -19.332  14.776  1.00  0.00    -0.287 N 
ENDROOT
BRANCH  11  12
HETATM   12  C6  UNL     1      25.580 -19.006  14.161  1.00  0.00     0.260 C 
HETATM   13  O3  UNL     1      25.394 -19.525  12.910  1.00  0.00    -0.354 OA
HETATM   14  C7  UNL     1      24.569 -18.715  12.180  1.00  0.00     0.180 C 
HETATM   15  C9  UNL     1      24.186 -17.527  13.071  1.00  0.00     0.182 C 
HETATM   16  C10 UNL     1      25.413 -17.492  13.964  1.00  0.00     0.198 C 
BRANCH  14  17
HETATM   17  C8  UNL     1      25.359 -18.139  11.032  1.00  0.00     0.217 C 
BRANCH  17  18
HETATM   18  O4  UNL     1      24.503 -17.528  10.107  1.00  0.00    -0.280 OA
BRANCH  18  19
HETATM   19  P1  UNL     1      25.214 -16.568   9.129  1.00  0.00     0.422 P 
HETATM   20  O5  UNL     1      25.920 -15.531   8.256  1.00  0.00    -0.617 OA
HETATM   21  O6  UNL     1      26.445 -17.648   8.990  1.00  0.00    -0.617 OA
HETATM   22  O7  UNL     1      25.226 -15.483  10.403  1.00  0.00    -0.617 OA
ENDBRANCH  18  19
ENDBRANCH  17  18
ENDBRANCH  14  17
BRANCH  15  23
HETATM   23  O8  UNL     1      23.103 -17.829  13.870  1.00  0.00    -0.390 OA
ATOM     24  H8  UNL     1      23.257 -18.620  14.373  1.00  0.00     0.210 HD
ENDBRANCH  15  23
BRANCH  16  25
HETATM   25  O9  UNL     1      25.156 -16.859  15.171  1.00  0.00    -0.388 OA
ATOM     26  H9  UNL     1      25.038 -15.925  15.047  1.00  0.00     0.210 HD
ENDBRANCH  16  25
ENDBRANCH  11  12
TORSDOF 6
ENDMDL
