MODEL 7
REMARK VINA RESULT: -7.485175606      1.450      2.082
REMARK  6 active torsions:
REMARK  status: ('A' for Active; 'I' for Inactive)
REMARK    1  A    between atoms: N3_11  and  C6_12 
REMARK    2  A    between atoms: C7_14  and  C8_15 
REMARK    3  A    between atoms: C8_15  and  O4_16 
REMARK    4  A    between atoms: O4_16  and  P1_17 
REMARK    5  A    between atoms: C9_21  and  O8_22 
REMARK    6  A    between atoms: C10_24  and  O9_25 
ROOT
HETATM    1  N1  UNL     1      27.380 -19.274  18.054  1.00  0.00    -0.195 NA
HETATM    2  C1  UNL     1      27.377 -18.911  16.955  1.00  0.00     0.085 C 
HETATM    3  C2  UNL     1      27.395 -18.457  15.545  1.00  0.00     0.207 C 
HETATM    4  C3  UNL     1      28.825 -18.601  15.067  1.00  0.00     0.144 C 
HETATM    5  C4  UNL     1      29.271 -19.972  15.441  1.00  0.00     0.228 C 
HETATM    6  O1  UNL     1      30.366 -20.178  16.015  1.00  0.00    -0.273 OA
HETATM    7  N2  UNL     1      28.398 -21.047  15.117  1.00  0.00    -0.279 N 
ATOM      8  H2  UNL     1      28.742 -22.007  15.117  1.00  0.00     0.173 HD
HETATM    9  C5  UNL     1      27.037 -20.770  14.794  1.00  0.00     0.328 C 
HETATM   10  O2  UNL     1      26.202 -21.660  14.499  1.00  0.00    -0.247 OA
HETATM   11  N3  UNL     1      26.597 -19.422  14.806  1.00  0.00    -0.287 N 
ENDROOT
BRANCH  11  12
HETATM   12  C6  UNL     1      25.408 -19.017  14.118  1.00  0.00     0.260 C 
HETATM   13  O3  UNL     1      25.503 -18.997  12.755  1.00  0.00    -0.354 OA
HETATM   14  C7  UNL     1      24.655 -18.058  12.235  1.00  0.00     0.180 C 
HETATM   15  C9  UNL     1      23.933 -17.391  13.412  1.00  0.00     0.182 C 
HETATM   16  C10 UNL     1      24.991 -17.585  14.483  1.00  0.00     0.198 C 
BRANCH  14  17
HETATM   17  C8  UNL     1      25.480 -16.977  11.583  1.00  0.00     0.217 C 
BRANCH  17  18
HETATM   18  O4  UNL     1      25.228 -16.934  10.206  1.00  0.00    -0.280 OA
BRANCH  18  19
HETATM   19  P1  UNL     1      23.945 -16.163   9.825  1.00  0.00     0.422 P 
HETATM   20  O5  UNL     1      22.724 -15.300   9.508  1.00  0.00    -0.617 OA
HETATM   21  O6  UNL     1      24.275 -16.430   8.238  1.00  0.00    -0.617 OA
HETATM   22  O7  UNL     1      24.653 -14.857  10.594  1.00  0.00    -0.617 OA
ENDBRANCH  18  19
ENDBRANCH  17  18
ENDBRANCH  14  17
BRANCH  15  23
HETATM   23  O8  UNL     1      22.822 -18.115  13.793  1.00  0.00    -0.390 OA
ATOM     24  H8  UNL     1      22.215 -17.577  14.288  1.00  0.00     0.210 HD
ENDBRANCH  15  23
BRANCH  16  25
HETATM   25  O9  UNL     1      24.449 -17.535  15.759  1.00  0.00    -0.388 OA
ATOM     26  H9  UNL     1      24.191 -16.650  15.985  1.00  0.00     0.210 HD
ENDBRANCH  16  25
ENDBRANCH  11  12
TORSDOF 6
ENDMDL
