MODEL 4
REMARK VINA RESULT: -7.915193940      0.927      1.351
REMARK  6 active torsions:
REMARK  status: ('A' for Active; 'I' for Inactive)
REMARK    1  A    between atoms: N3_11  and  C6_12 
REMARK    2  A    between atoms: C7_14  and  C8_15 
REMARK    3  A    between atoms: C8_15  and  O4_16 
REMARK    4  A    between atoms: O4_16  and  P1_17 
REMARK    5  A    between atoms: C9_21  and  O8_22 
REMARK    6  A    between atoms: C10_24  and  O9_25 
ROOT
HETATM    1  N1  UNL     1      28.281 -21.740  15.195  1.00  0.00    -0.195 NA
HETATM    2  C1  UNL     1      27.625 -20.824  15.460  1.00  0.00     0.085 C 
HETATM    3  C2  UNL     1      26.804 -19.641  15.811  1.00  0.00     0.207 C 
HETATM    4  C3  UNL     1      27.581 -18.878  16.863  1.00  0.00     0.144 C 
HETATM    5  C4  UNL     1      28.972 -18.727  16.351  1.00  0.00     0.228 C 
HETATM    6  O1  UNL     1      29.971 -18.990  17.060  1.00  0.00    -0.273 OA
HETATM    7  N2  UNL     1      29.122 -18.267  15.013  1.00  0.00    -0.279 N 
ATOM      8  H2  UNL     1      30.021 -17.910  14.689  1.00  0.00     0.173 HD
HETATM    9  C5  UNL     1      28.004 -18.309  14.129  1.00  0.00     0.328 C 
HETATM   10  O2  UNL     1      28.052 -17.924  12.935  1.00  0.00    -0.247 OA
HETATM   11  N3  UNL     1      26.771 -18.813  14.616  1.00  0.00    -0.287 N 
ENDROOT
BRANCH  11  12
HETATM   12  C6  UNL     1      25.532 -18.520  13.960  1.00  0.00     0.260 C 
HETATM   13  O3  UNL     1      25.596 -18.461  12.596  1.00  0.00    -0.354 OA
HETATM   14  C7  UNL     1      24.644 -17.606  12.114  1.00  0.00     0.180 C 
HETATM   15  C9  UNL     1      23.882 -17.042  13.319  1.00  0.00     0.182 C 
HETATM   16  C10 UNL     1      24.976 -17.147  14.365  1.00  0.00     0.198 C 
BRANCH  14  17
HETATM   17  C8  UNL     1      25.338 -16.432  11.472  1.00  0.00     0.217 C 
BRANCH  17  18
HETATM   18  O4  UNL     1      25.003 -16.348  10.114  1.00  0.00    -0.280 OA
BRANCH  18  19
HETATM   19  P1  UNL     1      23.608 -15.743   9.847  1.00  0.00     0.422 P 
HETATM   20  O5  UNL     1      22.259 -15.050   9.661  1.00  0.00    -0.617 OA
HETATM   21  O6  UNL     1      23.977 -15.639   8.249  1.00  0.00    -0.617 OA
HETATM   22  O7  UNL     1      24.085 -14.511  10.873  1.00  0.00    -0.617 OA
ENDBRANCH  18  19
ENDBRANCH  17  18
ENDBRANCH  14  17
BRANCH  15  23
HETATM   23  O8  UNL     1      22.861 -17.886  13.705  1.00  0.00    -0.390 OA
ATOM     24  H8  UNL     1      22.670 -17.795  14.631  1.00  0.00     0.210 HD
ENDBRANCH  15  23
BRANCH  16  25
HETATM   25  O9  UNL     1      24.460 -17.181  15.652  1.00  0.00    -0.388 OA
ATOM     26  H9  UNL     1      24.847 -17.888  16.156  1.00  0.00     0.210 HD
ENDBRANCH  16  25
ENDBRANCH  11  12
TORSDOF 6
ENDMDL
