MODEL 5
REMARK VINA RESULT: -7.804415957      3.205      6.684
REMARK  6 active torsions:
REMARK  status: ('A' for Active; 'I' for Inactive)
REMARK    1  A    between atoms: N3_11  and  C6_12 
REMARK    2  A    between atoms: C7_14  and  C8_15 
REMARK    3  A    between atoms: C8_15  and  O4_16 
REMARK    4  A    between atoms: O4_16  and  P1_17 
REMARK    5  A    between atoms: C9_21  and  O8_22 
REMARK    6  A    between atoms: C10_24  and  O9_25 
ROOT
HETATM    1  N1  UNL     1      24.238 -19.390   9.044  1.00  0.00    -0.195 NA
HETATM    2  C1  UNL     1      24.869 -18.551   9.531  1.00  0.00     0.085 C 
HETATM    3  C2  UNL     1      25.674 -17.463  10.133  1.00  0.00     0.207 C 
HETATM    4  C3  UNL     1      26.020 -16.512   9.008  1.00  0.00     0.144 C 
HETATM    5  C4  UNL     1      24.752 -16.221   8.281  1.00  0.00     0.228 C 
HETATM    6  O1  UNL     1      24.676 -16.284   7.031  1.00  0.00    -0.273 OA
HETATM    7  N2  UNL     1      23.622 -15.865   9.068  1.00  0.00    -0.279 N 
ATOM      8  H2  UNL     1      22.812 -15.421   8.635  1.00  0.00     0.173 HD
HETATM    9  C5  UNL     1      23.632 -16.137  10.468  1.00  0.00     0.328 C 
HETATM   10  O2  UNL     1      22.676 -15.856  11.232  1.00  0.00    -0.247 OA
HETATM   11  N3  UNL     1      24.776 -16.756  11.032  1.00  0.00    -0.287 N 
ENDROOT
BRANCH  11  12
HETATM   12  C6  UNL     1      25.044 -16.692  12.437  1.00  0.00     0.260 C 
HETATM   13  O3  UNL     1      26.368 -16.642  12.776  1.00  0.00    -0.354 OA
HETATM   14  C7  UNL     1      26.564 -17.206  14.006  1.00  0.00     0.180 C 
HETATM   15  C9  UNL     1      25.198 -17.683  14.515  1.00  0.00     0.182 C 
HETATM   16  C10 UNL     1      24.518 -17.929  13.181  1.00  0.00     0.198 C 
BRANCH  14  17
HETATM   17  C8  UNL     1      27.402 -18.447  13.834  1.00  0.00     0.217 C 
BRANCH  17  18
HETATM   18  O4  UNL     1      28.760 -18.148  14.011  1.00  0.00    -0.280 OA
BRANCH  18  19
HETATM   19  P1  UNL     1      29.338 -18.625  15.361  1.00  0.00     0.422 P 
HETATM   20  O5  UNL     1      29.817 -19.183  16.700  1.00  0.00    -0.617 OA
HETATM   21  O6  UNL     1      30.753 -18.989  14.607  1.00  0.00    -0.617 OA
HETATM   22  O7  UNL     1      28.099 -19.750  15.350  1.00  0.00    -0.617 OA
ENDBRANCH  18  19
ENDBRANCH  17  18
ENDBRANCH  14  17
BRANCH  15  23
HETATM   23  O8  UNL     1      24.514 -16.663  15.144  1.00  0.00    -0.390 OA
ATOM     24  H8  UNL     1      23.711 -16.452  14.683  1.00  0.00     0.210 HD
ENDBRANCH  15  23
BRANCH  16  25
HETATM   25  O9  UNL     1      23.136 -17.892  13.290  1.00  0.00    -0.388 OA
ATOM     26  H9  UNL     1      22.869 -17.790  14.196  1.00  0.00     0.210 HD
ENDBRANCH  16  25
ENDBRANCH  11  12
TORSDOF 6
ENDMDL
