MODEL 8
REMARK VINA RESULT: -7.215735035      3.322      6.642
REMARK  6 active torsions:
REMARK  status: ('A' for Active; 'I' for Inactive)
REMARK    1  A    between atoms: N3_11  and  C6_12 
REMARK    2  A    between atoms: C7_14  and  C8_15 
REMARK    3  A    between atoms: C8_15  and  O4_16 
REMARK    4  A    between atoms: O4_16  and  P1_17 
REMARK    5  A    between atoms: C9_21  and  O8_22 
REMARK    6  A    between atoms: C10_24  and  O9_25 
ROOT
HETATM    1  N1  UNL     1      24.042 -19.491   9.203  1.00  0.00    -0.195 NA
HETATM    2  C1  UNL     1      24.774 -18.723   9.666  1.00  0.00     0.085 C 
HETATM    3  C2  UNL     1      25.710 -17.727  10.237  1.00  0.00     0.207 C 
HETATM    4  C3  UNL     1      26.183 -16.871   9.082  1.00  0.00     0.144 C 
HETATM    5  C4  UNL     1      24.969 -16.446   8.331  1.00  0.00     0.228 C 
HETATM    6  O1  UNL     1      24.892 -16.544   7.084  1.00  0.00    -0.273 OA
HETATM    7  N2  UNL     1      23.890 -15.918   9.093  1.00  0.00    -0.279 N 
ATOM      8  H2  UNL     1      23.147 -15.388   8.636  1.00  0.00     0.173 HD
HETATM    9  C5  UNL     1      23.856 -16.135  10.501  1.00  0.00     0.328 C 
HETATM   10  O2  UNL     1      22.940 -15.705  11.245  1.00  0.00    -0.247 OA
HETATM   11  N3  UNL     1      24.906 -16.877  11.100  1.00  0.00    -0.287 N 
ENDROOT
BRANCH  11  12
HETATM   12  C6  UNL     1      25.172 -16.796  12.505  1.00  0.00     0.260 C 
HETATM   13  O3  UNL     1      26.490 -16.890  12.854  1.00  0.00    -0.354 OA
HETATM   14  C7  UNL     1      26.612 -17.429  14.105  1.00  0.00     0.180 C 
HETATM   15  C9  UNL     1      25.196 -17.725  14.616  1.00  0.00     0.182 C 
HETATM   16  C10 UNL     1      24.500 -17.937  13.284  1.00  0.00     0.198 C 
BRANCH  14  17
HETATM   17  C8  UNL     1      27.300 -18.765  13.983  1.00  0.00     0.217 C 
BRANCH  17  18
HETATM   18  O4  UNL     1      28.182 -18.960  15.054  1.00  0.00    -0.280 OA
BRANCH  18  19
HETATM   19  P1  UNL     1      27.920 -20.251  15.859  1.00  0.00     0.422 P 
HETATM   20  O5  UNL     1      27.625 -21.455  16.753  1.00  0.00    -0.617 OA
HETATM   21  O6  UNL     1      26.823 -20.714  14.727  1.00  0.00    -0.617 OA
HETATM   22  O7  UNL     1      27.433 -19.231  17.093  1.00  0.00    -0.617 OA
ENDBRANCH  18  19
ENDBRANCH  17  18
ENDBRANCH  14  17
BRANCH  15  23
HETATM   23  O8  UNL     1      24.634 -16.611  15.203  1.00  0.00    -0.390 OA
ATOM     24  H8  UNL     1      25.160 -15.836  15.046  1.00  0.00     0.210 HD
ENDBRANCH  15  23
BRANCH  16  25
HETATM   25  O9  UNL     1      23.131 -17.734  13.379  1.00  0.00    -0.388 OA
ATOM     26  H9  UNL     1      22.878 -17.532  14.272  1.00  0.00     0.210 HD
ENDBRANCH  16  25
ENDBRANCH  11  12
TORSDOF 6
ENDMDL
