MODEL 16
REMARK VINA RESULT: -6.164114377      2.512      4.468
REMARK  6 active torsions:
REMARK  status: ('A' for Active; 'I' for Inactive)
REMARK    1  A    between atoms: N3_11  and  C6_12 
REMARK    2  A    between atoms: C7_14  and  C8_15 
REMARK    3  A    between atoms: C8_15  and  O4_16 
REMARK    4  A    between atoms: O4_16  and  P1_17 
REMARK    5  A    between atoms: C9_21  and  O8_22 
REMARK    6  A    between atoms: C10_24  and  O9_25 
ROOT
HETATM    1  N1  UNL     1      27.368 -21.314  14.889  1.00  0.00    -0.195 NA
HETATM    2  C1  UNL     1      27.137 -20.216  15.175  1.00  0.00     0.085 C 
HETATM    3  C2  UNL     1      26.864 -18.810  15.551  1.00  0.00     0.207 C 
HETATM    4  C3  UNL     1      27.962 -18.401  16.509  1.00  0.00     0.144 C 
HETATM    5  C4  UNL     1      29.255 -18.794  15.880  1.00  0.00     0.228 C 
HETATM    6  O1  UNL     1      30.137 -19.419  16.514  1.00  0.00    -0.273 OA
HETATM    7  N2  UNL     1      29.449 -18.427  14.520  1.00  0.00    -0.279 N 
ATOM      8  H2  UNL     1      30.384 -18.441  14.111  1.00  0.00     0.173 HD
HETATM    9  C5  UNL     1      28.326 -18.039  13.732  1.00  0.00     0.328 C 
HETATM   10  O2  UNL     1      28.412 -17.702  12.525  1.00  0.00    -0.247 OA
HETATM   11  N3  UNL     1      27.043 -18.032  14.335  1.00  0.00    -0.287 N 
ENDROOT
BRANCH  11  12
HETATM   12  C6  UNL     1      25.956 -17.288  13.773  1.00  0.00     0.260 C 
HETATM   13  O3  UNL     1      25.061 -16.792  14.679  1.00  0.00    -0.354 OA
HETATM   14  C7  UNL     1      23.821 -16.685  14.109  1.00  0.00     0.180 C 
HETATM   15  C9  UNL     1      23.937 -17.182  12.664  1.00  0.00     0.182 C 
HETATM   16  C10 UNL     1      25.096 -18.147  12.833  1.00  0.00     0.198 C 
BRANCH  14  17
HETATM   17  C8  UNL     1      22.891 -17.645  14.808  1.00  0.00     0.217 C 
BRANCH  17  18
HETATM   18  O4  UNL     1      23.244 -17.770  16.159  1.00  0.00    -0.280 OA
BRANCH  18  19
HETATM   19  P1  UNL     1      22.074 -17.535  17.139  1.00  0.00     0.422 P 
HETATM   20  O5  UNL     1      20.848 -17.385  18.039  1.00  0.00    -0.617 OA
HETATM   21  O6  UNL     1      23.015 -18.084  18.369  1.00  0.00    -0.617 OA
HETATM   22  O7  UNL     1      21.235 -18.640  16.202  1.00  0.00    -0.617 OA
ENDBRANCH  18  19
ENDBRANCH  17  18
ENDBRANCH  14  17
BRANCH  15  23
HETATM   23  O8  UNL     1      24.358 -16.175  11.821  1.00  0.00    -0.390 OA
ATOM     24  H8  UNL     1      24.579 -16.515  10.962  1.00  0.00     0.210 HD
ENDBRANCH  15  23
BRANCH  16  25
HETATM   25  O9  UNL     1      25.754 -18.381  11.634  1.00  0.00    -0.388 OA
ATOM     26  H9  UNL     1      25.186 -18.825  11.016  1.00  0.00     0.210 HD
ENDBRANCH  16  25
ENDBRANCH  11  12
TORSDOF 6
ENDMDL
