MODEL 3
REMARK VINA RESULT: -5.756273904      2.037      3.912
REMARK  6 active torsions:
REMARK  status: ('A' for Active; 'I' for Inactive)
REMARK    1  A    between atoms: O1_1  and  C1_3 
REMARK    2  A    between atoms: C1_3  and  C2_4 
REMARK    3  A    between atoms: C3_6  and  O3_7 
REMARK    4  A    between atoms: C4_9  and  O4_10 
REMARK    5  A    between atoms: C5_12  and  O5_13 
REMARK    6  A    between atoms: C6_15  and  O6_16 
ROOT
HETATM    1  C2  UNL     1     -14.377  60.020   8.105  1.00  0.00     0.179 C 
HETATM    2  O2  UNL     1     -13.106  60.352   7.764  1.00  0.00    -0.349 OA
HETATM    3  C3  UNL     1     -12.258  59.322   7.443  1.00  0.00     0.288 C 
HETATM    4  C4  UNL     1     -12.771  58.394   6.389  1.00  0.00     0.204 C 
HETATM    5  C5  UNL     1     -14.199  58.765   6.058  1.00  0.00     0.183 C 
HETATM    6  C6  UNL     1     -14.910  58.786   7.405  1.00  0.00     0.180 C 
ENDROOT
BRANCH   1   7
HETATM    7  C1  UNL     1     -14.614  59.953   9.599  1.00  0.00     0.198 C 
BRANCH   7   8
HETATM    8  O1  UNL     1     -13.530  60.511  10.276  1.00  0.00    -0.398 OA
ATOM      9  H1  UNL     1     -12.923  59.827  10.533  1.00  0.00     0.209 HD
ENDBRANCH   7   8
ENDBRANCH   1   7
BRANCH   6  10
HETATM   10  O6  UNL     1     -14.479  57.685   8.146  1.00  0.00    -0.390 OA
ATOM     11  H6  UNL     1     -15.250  57.166   8.339  1.00  0.00     0.210 HD
ENDBRANCH   6  10
BRANCH   3  12
HETATM   12  O3  UNL     1     -11.860  58.628   8.608  1.00  0.00    -0.369 OA
ATOM     13  H3  UNL     1     -11.951  59.185   9.372  1.00  0.00     0.212 HD
ENDBRANCH   3  12
BRANCH   5  14
HETATM   14  O5  UNL     1     -14.793  57.896   5.168  1.00  0.00    -0.390 OA
ATOM     15  H5  UNL     1     -15.543  57.441   5.533  1.00  0.00     0.210 HD
ENDBRANCH   5  14
BRANCH   4  16
HETATM   16  O4  UNL     1     -11.969  58.316   5.270  1.00  0.00    -0.388 OA
ATOM     17  H4  UNL     1     -12.188  58.943   4.591  1.00  0.00     0.210 HD
ENDBRANCH   4  16
TORSDOF 6
ENDMDL
