MODEL 2
REMARK VINA RESULT: -5.846129927      1.695      3.298
REMARK  6 active torsions:
REMARK  status: ('A' for Active; 'I' for Inactive)
REMARK    1  A    between atoms: O1_1  and  C1_3 
REMARK    2  A    between atoms: C1_3  and  C2_4 
REMARK    3  A    between atoms: C3_6  and  O3_7 
REMARK    4  A    between atoms: C4_9  and  O4_10 
REMARK    5  A    between atoms: C5_12  and  O5_13 
REMARK    6  A    between atoms: C6_15  and  O6_16 
ROOT
HETATM    1  C2  UNL     1     -13.862  59.361   6.642  1.00  0.00     0.179 C 
HETATM    2  O2  UNL     1     -15.181  59.155   6.888  1.00  0.00    -0.349 OA
HETATM    3  C3  UNL     1     -15.501  58.474   8.035  1.00  0.00     0.288 C 
HETATM    4  C4  UNL     1     -14.899  59.031   9.285  1.00  0.00     0.204 C 
HETATM    5  C5  UNL     1     -13.943  60.144   8.917  1.00  0.00     0.183 C 
HETATM    6  C6  UNL     1     -13.011  59.522   7.886  1.00  0.00     0.180 C 
ENDROOT
BRANCH   1   7
HETATM    7  C1  UNL     1     -13.255  58.360   5.682  1.00  0.00     0.198 C 
BRANCH   7   8
HETATM    8  O1  UNL     1     -11.863  58.427   5.746  1.00  0.00    -0.398 OA
ATOM      9  H1  UNL     1     -11.482  57.890   5.061  1.00  0.00     0.209 HD
ENDBRANCH   7   8
ENDBRANCH   1   7
BRANCH   6  10
HETATM   10  O6  UNL     1     -12.678  58.237   8.314  1.00  0.00    -0.390 OA
ATOM     11  H6  UNL     1     -11.959  57.944   7.768  1.00  0.00     0.210 HD
ENDBRANCH   6  10
BRANCH   3  12
HETATM   12  O3  UNL     1     -15.223  57.097   7.885  1.00  0.00    -0.369 OA
ATOM     13  H3  UNL     1     -15.462  56.622   8.672  1.00  0.00     0.212 HD
ENDBRANCH   3  12
BRANCH   5  14
HETATM   14  O5  UNL     1     -13.258  60.652  10.000  1.00  0.00    -0.390 OA
ATOM     15  H5  UNL     1     -12.324  60.737   9.846  1.00  0.00     0.210 HD
ENDBRANCH   5  14
BRANCH   4  16
HETATM   16  O4  UNL     1     -15.824  59.416  10.232  1.00  0.00    -0.388 OA
ATOM     17  H4  UNL     1     -16.477  58.754  10.427  1.00  0.00     0.210 HD
ENDBRANCH   4  16
TORSDOF 6
ENDMDL
