MODEL 4
REMARK VINA RESULT: -5.719185093      1.905      2.680
REMARK  6 active torsions:
REMARK  status: ('A' for Active; 'I' for Inactive)
REMARK    1  A    between atoms: O1_1  and  C1_3 
REMARK    2  A    between atoms: C1_3  and  C2_4 
REMARK    3  A    between atoms: C3_6  and  O3_7 
REMARK    4  A    between atoms: C4_9  and  O4_10 
REMARK    5  A    between atoms: C5_12  and  O5_13 
REMARK    6  A    between atoms: C6_15  and  O6_16 
ROOT
HETATM    1  C2  UNL     1     -14.789  59.656   7.375  1.00  0.00     0.179 C 
HETATM    2  O2  UNL     1     -13.915  60.385   8.112  1.00  0.00    -0.349 OA
HETATM    3  C3  UNL     1     -12.882  59.705   8.707  1.00  0.00     0.288 C 
HETATM    4  C4  UNL     1     -12.077  58.852   7.780  1.00  0.00     0.204 C 
HETATM    5  C5  UNL     1     -12.733  58.850   6.417  1.00  0.00     0.183 C 
HETATM    6  C6  UNL     1     -14.178  58.451   6.689  1.00  0.00     0.180 C 
ENDROOT
BRANCH   1   7
HETATM    7  C1  UNL     1     -16.056  59.285   8.118  1.00  0.00     0.198 C 
BRANCH   7   8
HETATM    8  O1  UNL     1     -16.806  58.388   7.357  1.00  0.00    -0.398 OA
ATOM      9  H1  UNL     1     -16.236  57.910   6.766  1.00  0.00     0.209 HD
ENDBRANCH   7   8
ENDBRANCH   1   7
BRANCH   6  10
HETATM   10  O6  UNL     1     -14.178  57.413   7.622  1.00  0.00    -0.390 OA
ATOM     11  H6  UNL     1     -15.087  57.214   7.810  1.00  0.00     0.210 HD
ENDBRANCH   6  10
BRANCH   3  12
HETATM   12  O3  UNL     1     -13.350  58.974   9.822  1.00  0.00    -0.369 OA
ATOM     13  H3  UNL     1     -13.280  58.041   9.659  1.00  0.00     0.212 HD
ENDBRANCH   3  12
BRANCH   5  14
HETATM   14  O5  UNL     1     -12.118  58.004   5.519  1.00  0.00    -0.390 OA
ATOM     15  H5  UNL     1     -12.006  57.122   5.853  1.00  0.00     0.210 HD
ENDBRANCH   5  14
BRANCH   4  16
HETATM   16  O4  UNL     1     -10.741  59.186   7.726  1.00  0.00    -0.388 OA
ATOM     17  H4  UNL     1     -10.350  59.083   6.866  1.00  0.00     0.210 HD
ENDBRANCH   4  16
TORSDOF 6
ENDMDL
