MODEL 6
REMARK VINA RESULT: -9.430208715      3.206      9.691
REMARK  12 active torsions:
REMARK  status: ('A' for Active; 'I' for Inactive)
REMARK    1  A    between atoms: C2_2  and  C4_4 
REMARK    2  A    between atoms: C4_4  and  N1_5 
REMARK       I    between atoms: N1_5  and  C5_7 
REMARK    3  A    between atoms: C5_7  and  C6_9 
REMARK       I    between atoms: N2_10  and  C7_11 
REMARK    4  A    between atoms: C7_11  and  C8_13 
REMARK    5  A    between atoms: C8_13  and  O3_14 
REMARK    6  A    between atoms: C8_13  and  C9_16 
REMARK    7  A    between atoms: C9_16  and  C10_17 
REMARK    8  A    between atoms: C9_16  and  N3_24 
REMARK    9  A    between atoms: C10_17  and  C11_18 
REMARK       I    between atoms: N3_24  and  C17_26 
REMARK   10  A    between atoms: C17_26  and  C18_28 
REMARK   11  A    between atoms: C18_28  and  O5_29 
REMARK   12  A    between atoms: O5_29  and  C19_30 
ROOT
HETATM    1  C9  UNL     1      15.848  22.277  17.446  1.00  0.00     0.126 C 
ENDROOT
BRANCH   1   2
HETATM    2  C8  UNL     1      15.666  23.185  18.638  1.00  0.00     0.233 C 
BRANCH   2   3
HETATM    3  C7  UNL     1      16.807  24.093  18.790  1.00  0.00     0.252 C 
HETATM    4  N2  UNL     1      18.182  23.720  18.825  1.00  0.00    -0.326 N 
HETATM    5  C6  UNL     1      19.279  24.704  18.908  1.00  0.00     0.198 C 
HETATM    6  C27 UNL     1      18.669  22.379  18.784  1.00  0.00     0.201 C 
HETATM    7  C28 UNL     1      20.073  24.295  20.105  1.00  0.00     0.032 C 
HETATM    8  S1  UNL     1      20.300  22.524  19.646  1.00  0.00    -0.137 SA
HETATM    9  C29 UNL     1      21.335  24.988  20.386  1.00  0.00     0.029 C 
HETATM   10  C30 UNL     1      19.125  24.301  21.305  1.00  0.00     0.029 C 
HETATM   11  O2  UNL     1      16.493  25.337  18.893  1.00  0.00    -0.270 OA
BRANCH   5  12
HETATM   12  C5  UNL     1      19.980  24.779  17.629  1.00  0.00     0.242 C 
HETATM   13  N1  UNL     1      19.598  24.255  16.384  1.00  0.00    -0.355 N 
ATOM     14  H1  UNL     1      18.723  23.735  16.324  1.00  0.00     0.162 HD
HETATM   15  O1  UNL     1      21.107  25.424  17.619  1.00  0.00    -0.271 OA
BRANCH  13  16
HETATM   16  C4  UNL     1      20.396  24.417  15.170  1.00  0.00     0.155 C 
BRANCH  16  17
HETATM   17  C2  UNL     1      19.801  25.498  14.371  1.00  0.00    -0.075 C 
HETATM   18  C1  UNL     1      18.596  25.407  13.841  1.00  0.00     0.015 C 
HETATM   19  C3  UNL     1      20.603  26.726  14.134  1.00  0.00     0.044 C 
ENDBRANCH  16  17
ENDBRANCH  13  16
ENDBRANCH   5  12
ENDBRANCH   2   3
BRANCH   2  20
HETATM   20  O3  UNL     1      14.512  23.978  18.451  1.00  0.00    -0.384 OA
ATOM     21  H3  UNL     1      14.421  24.138  17.520  1.00  0.00     0.210 HD
ENDBRANCH   2  20
ENDBRANCH   1   2
BRANCH   1  22
HETATM   22  C10 UNL     1      15.775  23.004  16.125  1.00  0.00     0.066 C 
BRANCH  22  23
HETATM   23  C11 UNL     1      15.041  22.179  15.120  1.00  0.00    -0.056 A 
HETATM   24  C12 UNL     1      13.643  22.168  15.104  1.00  0.00     0.007 A 
HETATM   25  C13 UNL     1      12.952  21.407  14.196  1.00  0.00     0.001 A 
HETATM   26  C14 UNL     1      13.613  20.626  13.270  1.00  0.00     0.000 A 
HETATM   27  C15 UNL     1      14.978  20.623  13.270  1.00  0.00     0.001 A 
HETATM   28  C16 UNL     1      15.696  21.402  14.197  1.00  0.00     0.007 A 
ENDBRANCH  22  23
ENDBRANCH   1  22
BRANCH   1  29
HETATM   29  N3  UNL     1      15.070  21.078  17.477  1.00  0.00    -0.351 N 
HETATM   30  C17 UNL     1      14.952  20.225  18.581  1.00  0.00     0.242 C 
HETATM   31  O4  UNL     1      15.551  20.482  19.671  1.00  0.00    -0.271 OA
ATOM     32  H3  UNL     1      14.561  20.825  16.629  1.00  0.00     0.163 HD
BRANCH  30  33
HETATM   33  C18 UNL     1      14.122  18.995  18.518  1.00  0.00     0.278 C 
BRANCH  33  34
HETATM   34  O5  UNL     1      12.812  19.258  18.955  1.00  0.00    -0.341 OA
BRANCH  34  35
HETATM   35  C19 UNL     1      11.866  18.283  18.912  1.00  0.00     0.081 A 
HETATM   36  C20 UNL     1      11.623  17.569  20.093  1.00  0.00    -0.026 A 
HETATM   37  C21 UNL     1      12.387  17.898  21.309  1.00  0.00     0.051 C 
HETATM   38  C22 UNL     1      10.658  16.563  20.102  1.00  0.00     0.036 A 
HETATM   39  C23 UNL     1       9.938  16.271  18.939  1.00  0.00     0.047 A 
HETATM   40  N4  UNL     1       8.957  15.235  18.972  1.00  0.00    -0.102 NA
HETATM   41  C24 UNL     1      10.187  16.978  17.794  1.00  0.00     0.036 A 
HETATM   42  C25 UNL     1      11.154  17.986  17.784  1.00  0.00    -0.026 A 
HETATM   43  C26 UNL     1      11.426  18.733  16.523  1.00  0.00     0.051 C 
ENDBRANCH  34  35
ENDBRANCH  33  34
ENDBRANCH  30  33
ENDBRANCH   1  29
TORSDOF 12
ENDMDL
