MODEL 17
REMARK VINA RESULT: -9.105447283      3.800     10.510
REMARK  12 active torsions:
REMARK  status: ('A' for Active; 'I' for Inactive)
REMARK    1  A    between atoms: C2_2  and  C4_4 
REMARK    2  A    between atoms: C4_4  and  N1_5 
REMARK       I    between atoms: N1_5  and  C5_7 
REMARK    3  A    between atoms: C5_7  and  C6_9 
REMARK       I    between atoms: N2_10  and  C7_11 
REMARK    4  A    between atoms: C7_11  and  C8_13 
REMARK    5  A    between atoms: C8_13  and  O3_14 
REMARK    6  A    between atoms: C8_13  and  C9_16 
REMARK    7  A    between atoms: C9_16  and  C10_17 
REMARK    8  A    between atoms: C9_16  and  N3_24 
REMARK    9  A    between atoms: C10_17  and  C11_18 
REMARK       I    between atoms: N3_24  and  C17_26 
REMARK   10  A    between atoms: C17_26  and  C18_28 
REMARK   11  A    between atoms: C18_28  and  O5_29 
REMARK   12  A    between atoms: O5_29  and  C19_30 
ROOT
HETATM    1  C9  UNL     1      14.744  21.690  17.541  1.00  0.00     0.126 C 
ENDROOT
BRANCH   1   2
HETATM    2  C8  UNL     1      15.205  22.190  18.889  1.00  0.00     0.233 C 
BRANCH   2   3
HETATM    3  C7  UNL     1      16.228  23.231  18.744  1.00  0.00     0.252 C 
HETATM    4  N2  UNL     1      17.638  23.028  18.705  1.00  0.00    -0.326 N 
HETATM    5  C6  UNL     1      18.601  24.123  18.482  1.00  0.00     0.198 C 
HETATM    6  C27 UNL     1      18.289  21.768  18.868  1.00  0.00     0.201 C 
HETATM    7  C28 UNL     1      19.536  24.055  19.645  1.00  0.00     0.032 C 
HETATM    8  S1  UNL     1      19.953  22.264  19.510  1.00  0.00    -0.137 SA
HETATM    9  C29 UNL     1      20.716  24.926  19.654  1.00  0.00     0.029 C 
HETATM   10  C30 UNL     1      18.696  24.197  20.915  1.00  0.00     0.029 C 
HETATM   11  O2  UNL     1      15.764  24.427  18.642  1.00  0.00    -0.270 OA
BRANCH   5  12
HETATM   12  C5  UNL     1      19.179  24.016  17.146  1.00  0.00     0.242 C 
HETATM   13  N1  UNL     1      20.311  24.660  16.622  1.00  0.00    -0.355 N 
ATOM     14  H1  UNL     1      20.822  25.306  17.223  1.00  0.00     0.162 HD
HETATM   15  O1  UNL     1      18.585  23.212  16.317  1.00  0.00    -0.271 OA
BRANCH  13  16
HETATM   16  C4  UNL     1      20.791  24.449  15.258  1.00  0.00     0.155 C 
BRANCH  16  17
HETATM   17  C2  UNL     1      20.365  25.593  14.439  1.00  0.00    -0.075 C 
HETATM   18  C1  UNL     1      21.092  26.688  14.319  1.00  0.00     0.015 C 
HETATM   19  C3  UNL     1      19.055  25.517  13.744  1.00  0.00     0.044 C 
ENDBRANCH  16  17
ENDBRANCH  13  16
ENDBRANCH   5  12
ENDBRANCH   2   3
BRANCH   2  20
HETATM   20  O3  UNL     1      14.111  22.759  19.578  1.00  0.00    -0.384 OA
ATOM     21  H3  UNL     1      13.335  22.265  19.341  1.00  0.00     0.210 HD
ENDBRANCH   2  20
ENDBRANCH   1   2
BRANCH   1  22
HETATM   22  C10 UNL     1      14.837  22.732  16.453  1.00  0.00     0.066 C 
BRANCH  22  23
HETATM   23  C11 UNL     1      14.726  22.091  15.111  1.00  0.00    -0.056 A 
HETATM   24  C12 UNL     1      13.470  21.788  14.576  1.00  0.00     0.007 A 
HETATM   25  C13 UNL     1      13.349  21.187  13.348  1.00  0.00     0.001 A 
HETATM   26  C14 UNL     1      14.463  20.860  12.602  1.00  0.00     0.000 A 
HETATM   27  C15 UNL     1      15.698  21.147  13.107  1.00  0.00     0.001 A 
HETATM   28  C16 UNL     1      15.832  21.765  14.364  1.00  0.00     0.007 A 
ENDBRANCH  22  23
ENDBRANCH   1  22
BRANCH   1  29
HETATM   29  N3  UNL     1      13.495  20.993  17.552  1.00  0.00    -0.351 N 
HETATM   30  C17 UNL     1      13.315  19.673  17.984  1.00  0.00     0.242 C 
HETATM   31  O4  UNL     1      14.294  18.989  18.418  1.00  0.00    -0.271 OA
ATOM     32  H3  UNL     1      12.672  21.496  17.219  1.00  0.00     0.163 HD
BRANCH  30  33
HETATM   33  C18 UNL     1      11.977  19.029  17.953  1.00  0.00     0.278 C 
BRANCH  33  34
HETATM   34  O5  UNL     1      12.103  17.630  17.892  1.00  0.00    -0.341 OA
BRANCH  34  35
HETATM   35  C19 UNL     1      11.024  16.834  18.119  1.00  0.00     0.081 A 
HETATM   36  C20 UNL     1      10.319  16.370  17.001  1.00  0.00    -0.026 A 
HETATM   37  C21 UNL     1      10.767  16.754  15.651  1.00  0.00     0.051 C 
HETATM   38  C22 UNL     1       9.210  15.545  17.182  1.00  0.00     0.036 A 
HETATM   39  C23 UNL     1       8.805  15.186  18.472  1.00  0.00     0.047 A 
HETATM   40  N4  UNL     1       7.665  14.343  18.631  1.00  0.00    -0.102 NA
HETATM   41  C24 UNL     1       9.505  15.648  19.553  1.00  0.00     0.036 A 
HETATM   42  C25 UNL     1      10.618  16.474  19.374  1.00  0.00    -0.026 A 
HETATM   43  C26 UNL     1      11.357  16.984  20.563  1.00  0.00     0.051 C 
ENDBRANCH  34  35
ENDBRANCH  33  34
ENDBRANCH  30  33
ENDBRANCH   1  29
TORSDOF 12
ENDMDL
