MODEL 3
REMARK VINA RESULT: -9.580741380      0.071      1.628
REMARK  12 active torsions:
REMARK  status: ('A' for Active; 'I' for Inactive)
REMARK    1  A    between atoms: C2_2  and  C4_4 
REMARK    2  A    between atoms: C4_4  and  N1_5 
REMARK       I    between atoms: N1_5  and  C5_7 
REMARK    3  A    between atoms: C5_7  and  C6_9 
REMARK       I    between atoms: N2_10  and  C7_11 
REMARK    4  A    between atoms: C7_11  and  C8_13 
REMARK    5  A    between atoms: C8_13  and  O3_14 
REMARK    6  A    between atoms: C8_13  and  C9_16 
REMARK    7  A    between atoms: C9_16  and  C10_17 
REMARK    8  A    between atoms: C9_16  and  N3_24 
REMARK    9  A    between atoms: C10_17  and  C11_18 
REMARK       I    between atoms: N3_24  and  C17_26 
REMARK   10  A    between atoms: C17_26  and  C18_28 
REMARK   11  A    between atoms: C18_28  and  O5_29 
REMARK   12  A    between atoms: O5_29  and  C19_30 
ROOT
HETATM    1  C9  UNL     1      19.946  24.264  18.319  1.00  0.00     0.126 C 
ENDROOT
BRANCH   1   2
HETATM    2  C8  UNL     1      19.258  23.661  19.519  1.00  0.00     0.233 C 
BRANCH   2   3
HETATM    3  C7  UNL     1      18.468  22.485  19.140  1.00  0.00     0.252 C 
HETATM    4  N2  UNL     1      17.146  22.493  18.610  1.00  0.00    -0.326 N 
HETATM    5  C6  UNL     1      16.444  21.267  18.183  1.00  0.00     0.198 C 
HETATM    6  C27 UNL     1      16.345  23.659  18.422  1.00  0.00     0.201 C 
HETATM    7  C28 UNL     1      15.164  21.270  18.952  1.00  0.00     0.032 C 
HETATM    8  S1  UNL     1      14.626  22.978  18.512  1.00  0.00    -0.137 SA
HETATM    9  C29 UNL     1      14.155  20.248  18.648  1.00  0.00     0.029 C 
HETATM   10  C30 UNL     1      15.523  21.310  20.437  1.00  0.00     0.029 C 
HETATM   11  O2  UNL     1      19.066  21.359  19.316  1.00  0.00    -0.270 OA
BRANCH   5  12
HETATM   12  C5  UNL     1      16.356  21.223  16.726  1.00  0.00     0.242 C 
HETATM   13  N1  UNL     1      15.215  21.118  15.917  1.00  0.00    -0.355 N 
ATOM     14  H1  UNL     1      14.303  21.052  16.369  1.00  0.00     0.162 HD
HETATM   15  O1  UNL     1      17.476  21.301  16.072  1.00  0.00    -0.271 OA
BRANCH  13  16
HETATM   16  C4  UNL     1      15.270  21.099  14.456  1.00  0.00     0.155 C 
BRANCH  16  17
HETATM   17  C2  UNL     1      13.913  20.848  13.948  1.00  0.00    -0.075 C 
HETATM   18  C1  UNL     1      12.925  21.706  14.115  1.00  0.00     0.015 C 
HETATM   19  C3  UNL     1      13.648  19.568  13.243  1.00  0.00     0.044 C 
ENDBRANCH  16  17
ENDBRANCH  13  16
ENDBRANCH   5  12
ENDBRANCH   2   3
BRANCH   2  20
HETATM   20  O3  UNL     1      20.229  23.240  20.455  1.00  0.00    -0.384 OA
ATOM     21  H3  UNL     1      20.687  24.013  20.761  1.00  0.00     0.210 HD
ENDBRANCH   2  20
ENDBRANCH   1   2
BRANCH   1  22
HETATM   22  C10 UNL     1      19.834  23.413  17.076  1.00  0.00     0.066 C 
BRANCH  22  23
HETATM   23  C11 UNL     1      19.549  24.268  15.887  1.00  0.00    -0.056 A 
HETATM   24  C12 UNL     1      20.586  24.657  15.034  1.00  0.00     0.007 A 
HETATM   25  C13 UNL     1      20.344  25.453  13.943  1.00  0.00     0.001 A 
HETATM   26  C14 UNL     1      19.069  25.897  13.653  1.00  0.00     0.000 A 
HETATM   27  C15 UNL     1      18.044  25.527  14.474  1.00  0.00     0.001 A 
HETATM   28  C16 UNL     1      18.282  24.710  15.594  1.00  0.00     0.007 A 
ENDBRANCH  22  23
ENDBRANCH   1  22
BRANCH   1  29
HETATM   29  N3  UNL     1      21.272  24.741  18.561  1.00  0.00    -0.351 N 
HETATM   30  C17 UNL     1      21.703  26.057  18.351  1.00  0.00     0.242 C 
HETATM   31  O4  UNL     1      20.903  26.945  17.922  1.00  0.00    -0.271 OA
ATOM     32  H3  UNL     1      21.957  24.071  18.913  1.00  0.00     0.163 HD
BRANCH  30  33
HETATM   33  C18 UNL     1      23.106  26.460  18.625  1.00  0.00     0.278 C 
BRANCH  33  34
HETATM   34  O5  UNL     1      23.199  27.118  19.864  1.00  0.00    -0.341 OA
BRANCH  34  35
HETATM   35  C19 UNL     1      23.611  26.443  20.970  1.00  0.00     0.081 A 
HETATM   36  C20 UNL     1      24.940  26.002  20.997  1.00  0.00    -0.026 A 
HETATM   37  C21 UNL     1      25.821  26.284  19.850  1.00  0.00     0.051 C 
HETATM   38  C22 UNL     1      25.413  25.311  22.112  1.00  0.00     0.036 A 
HETATM   39  C23 UNL     1      24.563  25.059  23.194  1.00  0.00     0.047 A 
HETATM   40  N4  UNL     1      25.069  24.347  24.322  1.00  0.00    -0.102 NA
HETATM   41  C24 UNL     1      23.267  25.497  23.151  1.00  0.00     0.036 A 
HETATM   42  C25 UNL     1      22.792  26.190  22.035  1.00  0.00    -0.026 A 
HETATM   43  C26 UNL     1      21.373  26.642  21.997  1.00  0.00     0.051 C 
ENDBRANCH  34  35
ENDBRANCH  33  34
ENDBRANCH  30  33
ENDBRANCH   1  29
TORSDOF 12
ENDMDL
