MODEL 1
REMARK VINA RESULT: -9.714417986      0.000      0.000
REMARK  12 active torsions:
REMARK  status: ('A' for Active; 'I' for Inactive)
REMARK    1  A    between atoms: C2_2  and  C4_4 
REMARK    2  A    between atoms: C4_4  and  N1_5 
REMARK       I    between atoms: N1_5  and  C5_7 
REMARK    3  A    between atoms: C5_7  and  C6_9 
REMARK       I    between atoms: N2_10  and  C7_11 
REMARK    4  A    between atoms: C7_11  and  C8_13 
REMARK    5  A    between atoms: C8_13  and  O3_14 
REMARK    6  A    between atoms: C8_13  and  C9_16 
REMARK    7  A    between atoms: C9_16  and  C10_17 
REMARK    8  A    between atoms: C9_16  and  N3_24 
REMARK    9  A    between atoms: C10_17  and  C11_18 
REMARK       I    between atoms: N3_24  and  C17_26 
REMARK   10  A    between atoms: C17_26  and  C18_28 
REMARK   11  A    between atoms: C18_28  and  O5_29 
REMARK   12  A    between atoms: O5_29  and  C19_30 
ROOT
HETATM    1  C9  UNL     1      19.943  24.290  18.338  1.00  0.00     0.126 C 
ENDROOT
BRANCH   1   2
HETATM    2  C8  UNL     1      19.246  23.680  19.530  1.00  0.00     0.233 C 
BRANCH   2   3
HETATM    3  C7  UNL     1      18.470  22.499  19.142  1.00  0.00     0.252 C 
HETATM    4  N2  UNL     1      17.146  22.496  18.614  1.00  0.00    -0.326 N 
HETATM    5  C6  UNL     1      16.458  21.266  18.178  1.00  0.00     0.198 C 
HETATM    6  C27 UNL     1      16.331  23.655  18.439  1.00  0.00     0.201 C 
HETATM    7  C28 UNL     1      15.179  21.246  18.949  1.00  0.00     0.032 C 
HETATM    8  S1  UNL     1      14.621  22.952  18.527  1.00  0.00    -0.137 SA
HETATM    9  C29 UNL     1      14.182  20.216  18.638  1.00  0.00     0.029 C 
HETATM   10  C30 UNL     1      15.541  21.277  20.434  1.00  0.00     0.029 C 
HETATM   11  O2  UNL     1      19.081  21.378  19.306  1.00  0.00    -0.270 OA
BRANCH   5  12
HETATM   12  C5  UNL     1      16.367  21.234  16.721  1.00  0.00     0.242 C 
HETATM   13  N1  UNL     1      15.223  21.146  15.912  1.00  0.00    -0.355 N 
ATOM     14  H1  UNL     1      14.312  21.084  16.366  1.00  0.00     0.162 HD
HETATM   15  O1  UNL     1      17.486  21.308  16.066  1.00  0.00    -0.271 OA
BRANCH  13  16
HETATM   16  C4  UNL     1      15.276  21.138  14.452  1.00  0.00     0.155 C 
BRANCH  16  17
HETATM   17  C2  UNL     1      13.955  20.739  13.946  1.00  0.00    -0.075 C 
HETATM   18  C1  UNL     1      13.767  19.637  13.245  1.00  0.00     0.015 C 
HETATM   19  C3  UNL     1      12.796  21.629  14.218  1.00  0.00     0.044 C 
ENDBRANCH  16  17
ENDBRANCH  13  16
ENDBRANCH   5  12
ENDBRANCH   2   3
BRANCH   2  20
HETATM   20  O3  UNL     1      20.211  23.266  20.476  1.00  0.00    -0.384 OA
ATOM     21  H3  UNL     1      21.060  23.552  20.163  1.00  0.00     0.210 HD
ENDBRANCH   2  20
ENDBRANCH   1   2
BRANCH   1  22
HETATM   22  C10 UNL     1      19.855  23.436  17.095  1.00  0.00     0.066 C 
BRANCH  22  23
HETATM   23  C11 UNL     1      19.559  24.285  15.904  1.00  0.00    -0.056 A 
HETATM   24  C12 UNL     1      18.247  24.686  15.633  1.00  0.00     0.007 A 
HETATM   25  C13 UNL     1      17.955  25.457  14.535  1.00  0.00     0.001 A 
HETATM   26  C14 UNL     1      18.946  25.861  13.663  1.00  0.00     0.000 A 
HETATM   27  C15 UNL     1      20.233  25.479  13.911  1.00  0.00     0.001 A 
HETATM   28  C16 UNL     1      20.542  24.690  15.035  1.00  0.00     0.007 A 
ENDBRANCH  22  23
ENDBRANCH   1  22
BRANCH   1  29
HETATM   29  N3  UNL     1      21.260  24.781  18.595  1.00  0.00    -0.351 N 
HETATM   30  C17 UNL     1      21.686  26.095  18.364  1.00  0.00     0.242 C 
HETATM   31  O4  UNL     1      20.889  26.968  17.900  1.00  0.00    -0.271 OA
ATOM     32  H3  UNL     1      21.942  24.125  18.975  1.00  0.00     0.163 HD
BRANCH  30  33
HETATM   33  C18 UNL     1      23.081  26.514  18.658  1.00  0.00     0.278 C 
BRANCH  33  34
HETATM   34  O5  UNL     1      23.159  27.128  19.920  1.00  0.00    -0.341 OA
BRANCH  34  35
HETATM   35  C19 UNL     1      23.660  26.447  20.984  1.00  0.00     0.081 A 
HETATM   36  C20 UNL     1      22.809  26.246  22.079  1.00  0.00    -0.026 A 
HETATM   37  C21 UNL     1      21.432  26.769  22.032  1.00  0.00     0.051 C 
HETATM   38  C22 UNL     1      23.273  25.547  23.192  1.00  0.00     0.036 A 
HETATM   39  C23 UNL     1      24.581  25.052  23.214  1.00  0.00     0.047 A 
HETATM   40  N4  UNL     1      25.035  24.343  24.366  1.00  0.00    -0.102 NA
HETATM   41  C24 UNL     1      25.399  25.257  22.136  1.00  0.00     0.036 A 
HETATM   42  C25 UNL     1      24.935  25.957  21.020  1.00  0.00    -0.026 A 
HETATM   43  C26 UNL     1      25.846  26.188  19.863  1.00  0.00     0.051 C 
ENDBRANCH  34  35
ENDBRANCH  33  34
ENDBRANCH  30  33
ENDBRANCH   1  29
TORSDOF 12
ENDMDL
