MODEL 5
REMARK VINA RESULT: -9.434459243      3.207      9.714
REMARK  12 active torsions:
REMARK  status: ('A' for Active; 'I' for Inactive)
REMARK    1  A    between atoms: C2_2  and  C4_4 
REMARK    2  A    between atoms: C4_4  and  N1_5 
REMARK       I    between atoms: N1_5  and  C5_7 
REMARK    3  A    between atoms: C5_7  and  C6_9 
REMARK       I    between atoms: N2_10  and  C7_11 
REMARK    4  A    between atoms: C7_11  and  C8_13 
REMARK    5  A    between atoms: C8_13  and  O3_14 
REMARK    6  A    between atoms: C8_13  and  C9_16 
REMARK    7  A    between atoms: C9_16  and  C10_17 
REMARK    8  A    between atoms: C9_16  and  N3_24 
REMARK    9  A    between atoms: C10_17  and  C11_18 
REMARK       I    between atoms: N3_24  and  C17_26 
REMARK   10  A    between atoms: C17_26  and  C18_28 
REMARK   11  A    between atoms: C18_28  and  O5_29 
REMARK   12  A    between atoms: O5_29  and  C19_30 
ROOT
HETATM    1  C9  UNL     1      15.858  22.271  17.446  1.00  0.00     0.126 C 
ENDROOT
BRANCH   1   2
HETATM    2  C8  UNL     1      15.672  23.179  18.637  1.00  0.00     0.233 C 
BRANCH   2   3
HETATM    3  C7  UNL     1      16.810  24.091  18.790  1.00  0.00     0.252 C 
HETATM    4  N2  UNL     1      18.186  23.722  18.828  1.00  0.00    -0.326 N 
HETATM    5  C6  UNL     1      19.280  24.709  18.911  1.00  0.00     0.198 C 
HETATM    6  C27 UNL     1      18.677  22.383  18.788  1.00  0.00     0.201 C 
HETATM    7  C28 UNL     1      20.073  24.304  20.110  1.00  0.00     0.032 C 
HETATM    8  S1  UNL     1      20.307  22.533  19.653  1.00  0.00    -0.137 SA
HETATM    9  C29 UNL     1      21.332  25.001  20.392  1.00  0.00     0.029 C 
HETATM   10  C30 UNL     1      19.123  24.307  21.308  1.00  0.00     0.029 C 
HETATM   11  O2  UNL     1      16.491  25.333  18.892  1.00  0.00    -0.270 OA
BRANCH   5  12
HETATM   12  C5  UNL     1      19.982  24.786  17.633  1.00  0.00     0.242 C 
HETATM   13  N1  UNL     1      19.603  24.261  16.388  1.00  0.00    -0.355 N 
ATOM     14  H1  UNL     1      18.728  23.741  16.327  1.00  0.00     0.162 HD
HETATM   15  O1  UNL     1      21.108  25.433  17.625  1.00  0.00    -0.271 OA
BRANCH  13  16
HETATM   16  C4  UNL     1      20.402  24.425  15.175  1.00  0.00     0.155 C 
BRANCH  16  17
HETATM   17  C2  UNL     1      19.803  25.501  14.372  1.00  0.00    -0.075 C 
HETATM   18  C1  UNL     1      18.594  25.407  13.851  1.00  0.00     0.015 C 
HETATM   19  C3  UNL     1      20.604  26.726  14.121  1.00  0.00     0.044 C 
ENDBRANCH  16  17
ENDBRANCH  13  16
ENDBRANCH   5  12
ENDBRANCH   2   3
BRANCH   2  20
HETATM   20  O3  UNL     1      14.515  23.968  18.449  1.00  0.00    -0.384 OA
ATOM     21  H3  UNL     1      13.947  23.506  17.845  1.00  0.00     0.210 HD
ENDBRANCH   2  20
ENDBRANCH   1   2
BRANCH   1  22
HETATM   22  C10 UNL     1      15.799  23.000  16.125  1.00  0.00     0.066 C 
BRANCH  22  23
HETATM   23  C11 UNL     1      15.061  22.184  15.116  1.00  0.00    -0.056 A 
HETATM   24  C12 UNL     1      13.663  22.171  15.108  1.00  0.00     0.007 A 
HETATM   25  C13 UNL     1      12.968  21.418  14.195  1.00  0.00     0.001 A 
HETATM   26  C14 UNL     1      13.625  20.647  13.258  1.00  0.00     0.000 A 
HETATM   27  C15 UNL     1      14.990  20.647  13.251  1.00  0.00     0.001 A 
HETATM   28  C16 UNL     1      15.712  21.418  14.181  1.00  0.00     0.007 A 
ENDBRANCH  22  23
ENDBRANCH   1  22
BRANCH   1  29
HETATM   29  N3  UNL     1      15.073  21.077  17.469  1.00  0.00    -0.351 N 
HETATM   30  C17 UNL     1      14.940  20.224  18.572  1.00  0.00     0.242 C 
HETATM   31  O4  UNL     1      15.529  20.478  19.668  1.00  0.00    -0.271 OA
ATOM     32  H3  UNL     1      14.571  20.826  16.617  1.00  0.00     0.163 HD
BRANCH  30  33
HETATM   33  C18 UNL     1      14.104  18.999  18.501  1.00  0.00     0.278 C 
BRANCH  33  34
HETATM   34  O5  UNL     1      12.766  19.292  18.821  1.00  0.00    -0.341 OA
BRANCH  34  35
HETATM   35  C19 UNL     1      11.848  18.294  18.909  1.00  0.00     0.081 A 
HETATM   36  C20 UNL     1      11.125  17.980  17.751  1.00  0.00    -0.026 A 
HETATM   37  C21 UNL     1      11.385  18.728  16.509  1.00  0.00     0.051 C 
HETATM   38  C22 UNL     1      10.175  16.960  17.789  1.00  0.00     0.036 A 
HETATM   39  C23 UNL     1       9.948  16.256  18.976  1.00  0.00     0.047 A 
HETATM   40  N4  UNL     1       8.969  15.218  18.990  1.00  0.00    -0.102 NA
HETATM   41  C24 UNL     1      10.664  16.575  20.098  1.00  0.00     0.036 A 
HETATM   42  C25 UNL     1      11.615  17.597  20.062  1.00  0.00    -0.026 A 
HETATM   43  C26 UNL     1      12.371  17.944  21.298  1.00  0.00     0.051 C 
ENDBRANCH  34  35
ENDBRANCH  33  34
ENDBRANCH  30  33
ENDBRANCH   1  29
TORSDOF 12
ENDMDL
