MODEL 2
REMARK VINA RESULT: -9.629025934      1.582      2.811
REMARK  12 active torsions:
REMARK  status: ('A' for Active; 'I' for Inactive)
REMARK    1  A    between atoms: C2_2  and  C4_4 
REMARK    2  A    between atoms: C4_4  and  N1_5 
REMARK       I    between atoms: N1_5  and  C5_7 
REMARK    3  A    between atoms: C5_7  and  C6_9 
REMARK       I    between atoms: N2_10  and  C7_11 
REMARK    4  A    between atoms: C7_11  and  C8_13 
REMARK    5  A    between atoms: C8_13  and  O3_14 
REMARK    6  A    between atoms: C8_13  and  C9_16 
REMARK    7  A    between atoms: C9_16  and  C10_17 
REMARK    8  A    between atoms: C9_16  and  N3_24 
REMARK    9  A    between atoms: C10_17  and  C11_18 
REMARK       I    between atoms: N3_24  and  C17_26 
REMARK   10  A    between atoms: C17_26  and  C18_28 
REMARK   11  A    between atoms: C18_28  and  O5_29 
REMARK   12  A    between atoms: O5_29  and  C19_30 
ROOT
HETATM    1  C9  UNL     1      19.518  24.353  19.037  1.00  0.00     0.126 C 
ENDROOT
BRANCH   1   2
HETATM    2  C8  UNL     1      18.933  23.440  20.087  1.00  0.00     0.233 C 
BRANCH   2   3
HETATM    3  C7  UNL     1      18.260  22.291  19.473  1.00  0.00     0.252 C 
HETATM    4  N2  UNL     1      17.002  22.310  18.803  1.00  0.00    -0.326 N 
HETATM    5  C6  UNL     1      16.425  21.122  18.146  1.00  0.00     0.198 C 
HETATM    6  C27 UNL     1      16.157  23.454  18.678  1.00  0.00     0.201 C 
HETATM    7  C28 UNL     1      15.072  20.963  18.759  1.00  0.00     0.032 C 
HETATM    8  S1  UNL     1      14.483  22.688  18.486  1.00  0.00    -0.137 SA
HETATM    9  C29 UNL     1      14.165  19.947  18.215  1.00  0.00     0.029 C 
HETATM   10  C30 UNL     1      15.270  20.820  20.268  1.00  0.00     0.029 C 
HETATM   11  O2  UNL     1      18.902  21.180  19.569  1.00  0.00    -0.270 OA
BRANCH   5  12
HETATM   12  C5  UNL     1      16.493  21.270  16.695  1.00  0.00     0.242 C 
HETATM   13  N1  UNL     1      15.443  21.396  15.772  1.00  0.00    -0.355 N 
ATOM     14  H1  UNL     1      14.485  21.376  16.122  1.00  0.00     0.162 HD
HETATM   15  O1  UNL     1      17.680  21.304  16.168  1.00  0.00    -0.271 OA
BRANCH  13  16
HETATM   16  C4  UNL     1      15.657  21.553  14.335  1.00  0.00     0.155 C 
BRANCH  16  17
HETATM   17  C2  UNL     1      14.371  21.344  13.654  1.00  0.00    -0.075 C 
HETATM   18  C1  UNL     1      14.279  20.734  12.488  1.00  0.00     0.015 C 
HETATM   19  C3  UNL     1      13.138  21.864  14.297  1.00  0.00     0.044 C 
ENDBRANCH  16  17
ENDBRANCH  13  16
ENDBRANCH   5  12
ENDBRANCH   2   3
BRANCH   2  20
HETATM   20  O3  UNL     1      19.970  22.941  20.906  1.00  0.00    -0.384 OA
ATOM     21  H3  UNL     1      20.791  23.099  20.456  1.00  0.00     0.210 HD
ENDBRANCH   2  20
ENDBRANCH   1   2
BRANCH   1  22
HETATM   22  C10 UNL     1      20.114  23.609  17.865  1.00  0.00     0.066 C 
BRANCH  22  23
HETATM   23  C11 UNL     1      19.692  24.242  16.581  1.00  0.00    -0.056 A 
HETATM   24  C12 UNL     1      20.631  24.488  15.575  1.00  0.00     0.007 A 
HETATM   25  C13 UNL     1      20.263  25.080  14.393  1.00  0.00     0.001 A 
HETATM   26  C14 UNL     1      18.955  25.455  14.160  1.00  0.00     0.000 A 
HETATM   27  C15 UNL     1      18.024  25.224  15.131  1.00  0.00     0.001 A 
HETATM   28  C16 UNL     1      18.391  24.615  16.345  1.00  0.00     0.007 A 
ENDBRANCH  22  23
ENDBRANCH   1  22
BRANCH   1  29
HETATM   29  N3  UNL     1      20.367  25.387  19.541  1.00  0.00    -0.351 N 
HETATM   30  C17 UNL     1      21.697  25.209  19.944  1.00  0.00     0.242 C 
HETATM   31  O4  UNL     1      22.253  24.070  19.874  1.00  0.00    -0.271 OA
ATOM     32  H3  UNL     1      19.974  26.325  19.613  1.00  0.00     0.163 HD
BRANCH  30  33
HETATM   33  C18 UNL     1      22.502  26.345  20.462  1.00  0.00     0.278 C 
BRANCH  33  34
HETATM   34  O5  UNL     1      22.891  27.196  19.413  1.00  0.00    -0.341 OA
BRANCH  34  35
HETATM   35  C19 UNL     1      23.848  26.804  18.531  1.00  0.00     0.081 A 
HETATM   36  C20 UNL     1      23.559  26.935  17.166  1.00  0.00    -0.026 A 
HETATM   37  C21 UNL     1      22.256  27.484  16.751  1.00  0.00     0.051 C 
HETATM   38  C22 UNL     1      24.510  26.553  16.222  1.00  0.00     0.036 A 
HETATM   39  C23 UNL     1      25.744  26.041  16.637  1.00  0.00     0.047 A 
HETATM   40  N4  UNL     1      26.701  25.654  15.651  1.00  0.00    -0.102 NA
HETATM   41  C24 UNL     1      26.010  25.920  17.973  1.00  0.00     0.036 A 
HETATM   42  C25 UNL     1      25.058  26.302  18.921  1.00  0.00    -0.026 A 
HETATM   43  C26 UNL     1      25.357  26.144  20.372  1.00  0.00     0.051 C 
ENDBRANCH  34  35
ENDBRANCH  33  34
ENDBRANCH  30  33
ENDBRANCH   1  29
TORSDOF 12
ENDMDL
