MODEL 4
REMARK VINA RESULT: -10.946444525      1.920      2.648
REMARK  15 active torsions:
REMARK  status: ('A' for Active; 'I' for Inactive)
REMARK    1  A    between atoms: C1_2  and  C2_4 
REMARK    2  A    between atoms: N2_8  and  C6_9 
REMARK    3  A    between atoms: C7_11  and  C8_12 
REMARK    4  A    between atoms: C8_12  and  O3_13 
REMARK    5  A    between atoms: O3_13  and  P1_14 
REMARK    6  A    between atoms: P1_14  and  O6_17 
REMARK    7  A    between atoms: O6_17  and  P2_18 
REMARK    8  A    between atoms: P2_18  and  O9_21 
REMARK    9  A    between atoms: O9_21  and  C9_22 
REMARK   10  A    between atoms: C9_22  and  C10_23 
REMARK   11  A    between atoms: C11_25  and  N3_26 
REMARK   12  A    between atoms: C17_39  and  O11_40 
REMARK   13  A    between atoms: C18_42  and  O12_43 
REMARK   14  A    between atoms: C19_45  and  O13_46 
REMARK   15  A    between atoms: C20_48  and  O14_49 
ROOT
HETATM    1  P2  UNL     1       9.525   6.360  26.417  1.00  0.00     0.417 P 
HETATM    2  O7  UNL     1      10.636   6.332  25.410  1.00  0.00    -0.624 OA
HETATM    3  O8  UNL     1      10.161   5.546  27.829  1.00  0.00    -0.624 OA
ENDROOT
BRANCH   1   4
HETATM    4  O6  UNL     1       9.030   7.842  26.819  1.00  0.00    -0.180 OA
BRANCH   4   5
HETATM    5  P1  UNL     1       8.080   8.665  25.745  1.00  0.00     0.417 P 
HETATM    6  O4  UNL     1       6.672   8.248  25.720  1.00  0.00    -0.624 OA
HETATM    7  O5  UNL     1       8.671   8.228  24.108  1.00  0.00    -0.624 OA
BRANCH   5   8
HETATM    8  O3  UNL     1       8.345  10.278  25.838  1.00  0.00    -0.287 OA
BRANCH   8   9
HETATM    9  C8  UNL     1       7.182  11.034  26.106  1.00  0.00     0.216 C 
BRANCH   9  10
HETATM   10  C7  UNL     1       7.673  11.875  27.324  1.00  0.00     0.180 C 
HETATM   11  O2  UNL     1       6.786  11.714  28.360  1.00  0.00    -0.353 OA
HETATM   12  C6  UNL     1       7.443  11.453  29.539  1.00  0.00     0.259 C 
HETATM   13  C20 UNL     1       8.867  11.959  29.285  1.00  0.00     0.198 C 
HETATM   14  C19 UNL     1       9.019  11.524  27.796  1.00  0.00     0.182 C 
BRANCH  12  15
HETATM   15  N2  UNL     1       7.538   9.979  29.601  1.00  0.00    -0.336 N 
HETATM   16  C5  UNL     1       6.476   9.198  29.393  1.00  0.00     0.093 A 
HETATM   17  C4  UNL     1       6.581   7.820  29.577  1.00  0.00     0.018 A 
HETATM   18  C3  UNL     1       7.770   7.277  29.972  1.00  0.00     0.019 A 
HETATM   19  C2  UNL     1       8.838   8.109  30.178  1.00  0.00     0.044 A 
HETATM   20  C21 UNL     1       8.713   9.468  29.990  1.00  0.00     0.110 A 
BRANCH  19  21
HETATM   21  C1  UNL     1      10.109   7.586  30.644  1.00  0.00     0.266 C 
HETATM   22  N1  UNL     1      11.307   7.944  29.986  1.00  0.00    -0.057 NA
HETATM   23  O1  UNL     1      10.210   6.794  31.642  1.00  0.00    -0.271 OA
ENDBRANCH  19  21
ENDBRANCH  12  15
BRANCH  13  24
HETATM   24  O14 UNL     1       8.875  13.352  29.262  1.00  0.00    -0.388 OA
ATOM     25  H14 UNL     1       9.710  13.674  29.583  1.00  0.00     0.210 HD
ENDBRANCH  13  24
BRANCH  14  26
HETATM   26  O13 UNL     1      10.065  12.231  27.191  1.00  0.00    -0.390 OA
ATOM     27  H13 UNL     1      10.870  12.269  27.694  1.00  0.00     0.210 HD
ENDBRANCH  14  26
ENDBRANCH   9  10
ENDBRANCH   8   9
ENDBRANCH   5   8
ENDBRANCH   4   5
ENDBRANCH   1   4
BRANCH   1  28
HETATM   28  O9  UNL     1       8.349   5.226  25.850  1.00  0.00    -0.287 OA
BRANCH  28  29
HETATM   29  C9  UNL     1       9.057   3.982  25.938  1.00  0.00     0.216 C 
BRANCH  29  30
HETATM   30  C10 UNL     1       8.368   2.984  25.109  1.00  0.00     0.180 C 
HETATM   31  O10 UNL     1       8.207   1.788  25.865  1.00  0.00    -0.353 OA
HETATM   32  C11 UNL     1       7.483   1.024  24.926  1.00  0.00     0.262 C 
HETATM   33  C17 UNL     1       6.266   1.985  24.832  1.00  0.00     0.198 C 
HETATM   34  C18 UNL     1       7.028   3.324  24.615  1.00  0.00     0.182 C 
BRANCH  32  35
HETATM   35  N3  UNL     1       7.162  -0.230  25.488  1.00  0.00    -0.297 N 
HETATM   36  C12 UNL     1       6.777  -1.385  24.848  1.00  0.00     0.188 A 
HETATM   37  N4  UNL     1       6.571  -2.364  25.729  1.00  0.00    -0.346 N 
HETATM   38  C13 UNL     1       6.837  -1.839  26.962  1.00  0.00     0.119 A 
ATOM     39  H4  UNL     1       6.273  -3.318  25.524  1.00  0.00     0.167 HD
HETATM   40  C14 UNL     1       6.777  -2.395  28.207  1.00  0.00     0.148 A 
HETATM   41  C16 UNL     1       7.198  -0.512  26.787  1.00  0.00     0.142 A 
HETATM   42  N5  UNL     1       6.442  -3.767  28.384  1.00  0.00    -0.080 NA
HETATM   43  N6  UNL     1       7.059  -1.647  29.286  1.00  0.00    -0.339 N 
HETATM   44  C15 UNL     1       7.399  -0.362  29.147  1.00  0.00     0.183 A 
ATOM     45  H6  UNL     1       7.013  -2.062  30.217  1.00  0.00     0.167 HD
HETATM   46  N7  UNL     1       7.466   0.188  27.897  1.00  0.00    -0.336 N 
ATOM     47  H7  UNL     1       7.729   1.169  27.807  1.00  0.00     0.168 HD
ENDBRANCH  32  35
BRANCH  33  48
HETATM   48  O11 UNL     1       5.385   1.672  23.857  1.00  0.00    -0.388 OA
ATOM     49  H11 UNL     1       4.477   1.836  24.083  1.00  0.00     0.210 HD
ENDBRANCH  33  48
BRANCH  34  50
HETATM   50  O12 UNL     1       7.073   3.493  23.197  1.00  0.00    -0.390 OA
ATOM     51  H12 UNL     1       6.240   3.231  22.822  1.00  0.00     0.210 HD
ENDBRANCH  34  50
ENDBRANCH  29  30
ENDBRANCH  28  29
ENDBRANCH   1  28
TORSDOF 15
ENDMDL
