MODEL 5
REMARK VINA RESULT: -10.843994784      3.201     11.287
REMARK  15 active torsions:
REMARK  status: ('A' for Active; 'I' for Inactive)
REMARK    1  A    between atoms: C1_2  and  C2_4 
REMARK    2  A    between atoms: N2_8  and  C6_9 
REMARK    3  A    between atoms: C7_11  and  C8_12 
REMARK    4  A    between atoms: C8_12  and  O3_13 
REMARK    5  A    between atoms: O3_13  and  P1_14 
REMARK    6  A    between atoms: P1_14  and  O6_17 
REMARK    7  A    between atoms: O6_17  and  P2_18 
REMARK    8  A    between atoms: P2_18  and  O9_21 
REMARK    9  A    between atoms: O9_21  and  C9_22 
REMARK   10  A    between atoms: C9_22  and  C10_23 
REMARK   11  A    between atoms: C11_25  and  N3_26 
REMARK   12  A    between atoms: C17_39  and  O11_40 
REMARK   13  A    between atoms: C18_42  and  O12_43 
REMARK   14  A    between atoms: C19_45  and  O13_46 
REMARK   15  A    between atoms: C20_48  and  O14_49 
ROOT
HETATM    1  P2  UNL     1       9.284   6.802  28.191  1.00  0.00     0.417 P 
HETATM    2  O7  UNL     1       8.265   6.899  29.286  1.00  0.00    -0.624 OA
HETATM    3  O8  UNL     1      10.834   6.773  29.001  1.00  0.00    -0.624 OA
ENDROOT
BRANCH   1   4
HETATM    4  O6  UNL     1       9.133   5.496  27.256  1.00  0.00    -0.180 OA
BRANCH   4   5
HETATM    5  P1  UNL     1       9.322   5.678  25.624  1.00  0.00     0.417 P 
HETATM    6  O4  UNL     1      10.619   6.228  25.210  1.00  0.00    -0.624 OA
HETATM    7  O5  UNL     1       8.154   6.943  25.117  1.00  0.00    -0.624 OA
BRANCH   5   8
HETATM    8  O3  UNL     1       8.823   4.342  24.819  1.00  0.00    -0.287 OA
BRANCH   8   9
HETATM    9  C8  UNL     1       7.992   3.492  25.583  1.00  0.00     0.216 C 
BRANCH   9  10
HETATM   10  C7  UNL     1       7.569   2.463  24.490  1.00  0.00     0.180 C 
HETATM   11  O2  UNL     1       8.475   1.431  24.479  1.00  0.00    -0.353 OA
HETATM   12  C6  UNL     1       7.838   0.212  24.466  1.00  0.00     0.259 C 
HETATM   13  C20 UNL     1       6.431   0.540  23.956  1.00  0.00     0.198 C 
HETATM   14  C19 UNL     1       6.223   1.906  24.675  1.00  0.00     0.182 C 
BRANCH  12  15
HETATM   15  N2  UNL     1       7.682  -0.150  25.891  1.00  0.00    -0.336 N 
HETATM   16  C5  UNL     1       6.521  -0.588  26.381  1.00  0.00     0.093 A 
HETATM   17  C4  UNL     1       6.384  -0.805  27.751  1.00  0.00     0.018 A 
HETATM   18  C3  UNL     1       7.439  -0.565  28.585  1.00  0.00     0.019 A 
HETATM   19  C2  UNL     1       8.615  -0.113  28.047  1.00  0.00     0.044 A 
HETATM   20  C21 UNL     1       8.729   0.093  26.690  1.00  0.00     0.110 A 
BRANCH  19  21
HETATM   21  C1  UNL     1       9.748   0.202  28.896  1.00  0.00     0.266 C 
HETATM   22  N1  UNL     1      10.840  -0.691  28.981  1.00  0.00    -0.057 NA
HETATM   23  O1  UNL     1       9.816   1.269  29.595  1.00  0.00    -0.271 OA
ENDBRANCH  19  21
ENDBRANCH  12  15
BRANCH  13  24
HETATM   24  O14 UNL     1       6.482   0.845  22.597  1.00  0.00    -0.388 OA
ATOM     25  H14 UNL     1       5.606   1.027  22.275  1.00  0.00     0.210 HD
ENDBRANCH  13  24
BRANCH  14  26
HETATM   26  O13 UNL     1       5.192   2.625  24.057  1.00  0.00    -0.390 OA
ATOM     27  H13 UNL     1       5.345   2.848  23.146  1.00  0.00     0.210 HD
ENDBRANCH  14  26
ENDBRANCH   9  10
ENDBRANCH   8   9
ENDBRANCH   5   8
ENDBRANCH   4   5
ENDBRANCH   1   4
BRANCH   1  28
HETATM   28  O9  UNL     1       9.306   8.356  27.433  1.00  0.00    -0.287 OA
BRANCH  28  29
HETATM   29  C9  UNL     1       8.134   8.978  27.975  1.00  0.00     0.216 C 
BRANCH  29  30
HETATM   30  C10 UNL     1       8.047  10.354  27.468  1.00  0.00     0.180 C 
HETATM   31  O10 UNL     1       6.683  10.662  27.201  1.00  0.00    -0.353 OA
HETATM   32  C11 UNL     1       6.828  12.009  26.808  1.00  0.00     0.262 C 
HETATM   33  C17 UNL     1       7.429  12.510  28.151  1.00  0.00     0.198 C 
HETATM   34  C18 UNL     1       8.531  11.429  28.344  1.00  0.00     0.182 C 
BRANCH  32  35
HETATM   35  N3  UNL     1       5.559  12.556  26.526  1.00  0.00    -0.297 N 
HETATM   36  C12 UNL     1       4.376  12.379  27.206  1.00  0.00     0.188 A 
HETATM   37  N4  UNL     1       3.395  13.074  26.630  1.00  0.00    -0.346 N 
HETATM   38  C13 UNL     1       3.952  13.722  25.564  1.00  0.00     0.119 A 
ATOM     39  H4  UNL     1       2.420  13.115  26.927  1.00  0.00     0.167 HD
HETATM   40  C14 UNL     1       3.403  14.554  24.632  1.00  0.00     0.148 A 
HETATM   41  C16 UNL     1       5.295  13.382  25.517  1.00  0.00     0.142 A 
HETATM   42  N5  UNL     1       2.032  14.933  24.701  1.00  0.00    -0.080 NA
HETATM   43  N6  UNL     1       4.167  15.045  23.643  1.00  0.00    -0.339 N 
HETATM   44  C15 UNL     1       5.462  14.725  23.567  1.00  0.00     0.183 A 
ATOM     45  H6  UNL     1       3.757  15.666  22.945  1.00  0.00     0.167 HD
HETATM   46  N7  UNL     1       6.010  13.897  24.509  1.00  0.00    -0.336 N 
ATOM     47  H7  UNL     1       7.000  13.664  24.440  1.00  0.00     0.168 HD
ENDBRANCH  32  35
BRANCH  33  48
HETATM   48  O11 UNL     1       7.886  13.781  28.115  1.00  0.00    -0.388 OA
ATOM     49  H11 UNL     1       8.698  13.891  27.634  1.00  0.00     0.210 HD
ENDBRANCH  33  48
BRANCH  34  50
HETATM   50  O12 UNL     1       9.711  12.005  27.781  1.00  0.00    -0.390 OA
ATOM     51  H12 UNL     1       9.830  12.882  28.127  1.00  0.00     0.210 HD
ENDBRANCH  34  50
ENDBRANCH  29  30
ENDBRANCH  28  29
ENDBRANCH   1  28
TORSDOF 15
ENDMDL
