MODEL 3
REMARK VINA RESULT: -10.997841720      2.948      5.297
REMARK  15 active torsions:
REMARK  status: ('A' for Active; 'I' for Inactive)
REMARK    1  A    between atoms: C1_2  and  C2_4 
REMARK    2  A    between atoms: N2_8  and  C6_9 
REMARK    3  A    between atoms: C7_11  and  C8_12 
REMARK    4  A    between atoms: C8_12  and  O3_13 
REMARK    5  A    between atoms: O3_13  and  P1_14 
REMARK    6  A    between atoms: P1_14  and  O6_17 
REMARK    7  A    between atoms: O6_17  and  P2_18 
REMARK    8  A    between atoms: P2_18  and  O9_21 
REMARK    9  A    between atoms: O9_21  and  C9_22 
REMARK   10  A    between atoms: C9_22  and  C10_23 
REMARK   11  A    between atoms: C11_25  and  N3_26 
REMARK   12  A    between atoms: C17_39  and  O11_40 
REMARK   13  A    between atoms: C18_42  and  O12_43 
REMARK   14  A    between atoms: C19_45  and  O13_46 
REMARK   15  A    between atoms: C20_48  and  O14_49 
ROOT
HETATM    1  P2  UNL     1       9.360   6.933  30.302  1.00  0.00     0.417 P 
HETATM    2  O7  UNL     1       9.443   5.575  30.930  1.00  0.00    -0.624 OA
HETATM    3  O8  UNL     1       7.757   7.025  29.608  1.00  0.00    -0.624 OA
ENDROOT
BRANCH   1   4
HETATM    4  O6  UNL     1       9.579   8.156  31.331  1.00  0.00    -0.180 OA
BRANCH   4   5
HETATM    5  P1  UNL     1       9.360   9.696  30.772  1.00  0.00     0.417 P 
HETATM    6  O4  UNL     1      10.358  10.146  29.793  1.00  0.00    -0.624 OA
HETATM    7  O5  UNL     1       9.631  10.786  32.171  1.00  0.00    -0.624 OA
BRANCH   5   8
HETATM    8  O3  UNL     1       7.795   9.960  30.368  1.00  0.00    -0.287 OA
BRANCH   8   9
HETATM    9  C8  UNL     1       7.589  11.142  29.622  1.00  0.00     0.216 C 
BRANCH   9  10
HETATM   10  C7  UNL     1       8.031  10.658  28.208  1.00  0.00     0.180 C 
HETATM   11  O2  UNL     1       6.988   9.982  27.624  1.00  0.00    -0.353 OA
HETATM   12  C6  UNL     1       6.787  10.402  26.329  1.00  0.00     0.259 C 
HETATM   13  C20 UNL     1       8.119  11.057  25.947  1.00  0.00     0.198 C 
HETATM   14  C19 UNL     1       8.457  11.737  27.306  1.00  0.00     0.182 C 
BRANCH  12  15
HETATM   15  N2  UNL     1       5.806  11.503  26.437  1.00  0.00    -0.336 N 
HETATM   16  C5  UNL     1       4.872  11.520  27.390  1.00  0.00     0.093 A 
HETATM   17  C4  UNL     1       3.894  12.514  27.384  1.00  0.00     0.018 A 
HETATM   18  C3  UNL     1       3.896  13.462  26.402  1.00  0.00     0.019 A 
HETATM   19  C2  UNL     1       4.868  13.412  25.439  1.00  0.00     0.044 A 
HETATM   20  C21 UNL     1       5.826  12.422  25.464  1.00  0.00     0.110 A 
BRANCH  19  21
HETATM   21  C1  UNL     1       4.884  14.368  24.348  1.00  0.00     0.266 C 
HETATM   22  N1  UNL     1       3.669  14.841  23.802  1.00  0.00    -0.057 NA
HETATM   23  O1  UNL     1       5.964  14.818  23.834  1.00  0.00    -0.271 OA
ENDBRANCH  19  21
ENDBRANCH  12  15
BRANCH  13  24
HETATM   24  O14 UNL     1       9.094  10.075  25.775  1.00  0.00    -0.388 OA
ATOM     25  H14 UNL     1       8.949   9.367  26.392  1.00  0.00     0.210 HD
ENDBRANCH  13  24
BRANCH  14  26
HETATM   26  O13 UNL     1       9.819  12.055  27.362  1.00  0.00    -0.390 OA
ATOM     27  H13 UNL     1      10.014  12.963  27.564  1.00  0.00     0.210 HD
ENDBRANCH  14  26
ENDBRANCH   9  10
ENDBRANCH   8   9
ENDBRANCH   5   8
ENDBRANCH   4   5
ENDBRANCH   1   4
BRANCH   1  28
HETATM   28  O9  UNL     1      10.357   6.858  28.891  1.00  0.00    -0.287 OA
BRANCH  28  29
HETATM   29  C9  UNL     1       9.427   7.157  27.842  1.00  0.00     0.216 C 
BRANCH  29  30
HETATM   30  C10 UNL     1       9.642   6.219  26.733  1.00  0.00     0.180 C 
HETATM   31  O10 UNL     1       8.690   5.165  26.828  1.00  0.00    -0.353 OA
HETATM   32  C11 UNL     1       9.027   4.450  25.660  1.00  0.00     0.262 C 
HETATM   33  C17 UNL     1       8.726   5.604  24.665  1.00  0.00     0.198 C 
HETATM   34  C18 UNL     1       9.515   6.746  25.368  1.00  0.00     0.182 C 
BRANCH  32  35
HETATM   35  N3  UNL     1       8.159   3.347  25.517  1.00  0.00    -0.297 N 
HETATM   36  C12 UNL     1       6.900   3.312  24.963  1.00  0.00     0.188 A 
HETATM   37  N4  UNL     1       6.403   2.074  25.005  1.00  0.00    -0.346 N 
HETATM   38  C13 UNL     1       7.360   1.292  25.586  1.00  0.00     0.119 A 
ATOM     39  H4  UNL     1       5.490   1.772  24.668  1.00  0.00     0.167 HD
HETATM   40  C14 UNL     1       7.373  -0.040  25.883  1.00  0.00     0.148 A 
HETATM   41  C16 UNL     1       8.439   2.105  25.899  1.00  0.00     0.142 A 
HETATM   42  N5  UNL     1       6.280  -0.882  25.529  1.00  0.00    -0.080 NA
HETATM   43  N6  UNL     1       8.438  -0.577  26.498  1.00  0.00    -0.339 N 
HETATM   44  C15 UNL     1       9.486   0.185  26.822  1.00  0.00     0.183 A 
ATOM     45  H6  UNL     1       8.447  -1.573  26.721  1.00  0.00     0.167 HD
HETATM   46  N7  UNL     1       9.473   1.518  26.515  1.00  0.00    -0.336 N 
ATOM     47  H7  UNL     1      10.282   2.087  26.766  1.00  0.00     0.168 HD
ENDBRANCH  32  35
BRANCH  33  48
HETATM   48  O11 UNL     1       9.107   5.354  23.393  1.00  0.00    -0.388 OA
ATOM     49  H11 UNL     1       8.403   5.406  22.757  1.00  0.00     0.210 HD
ENDBRANCH  33  48
BRANCH  34  50
HETATM   50  O12 UNL     1      10.797   6.746  24.737  1.00  0.00    -0.390 OA
ATOM     51  H12 UNL     1      10.780   7.329  23.988  1.00  0.00     0.210 HD
ENDBRANCH  34  50
ENDBRANCH  29  30
ENDBRANCH  28  29
ENDBRANCH   1  28
TORSDOF 15
ENDMDL
