MODEL 1
REMARK VINA RESULT: -11.018466128      0.000      0.000
REMARK  15 active torsions:
REMARK  status: ('A' for Active; 'I' for Inactive)
REMARK    1  A    between atoms: C1_2  and  C2_4 
REMARK    2  A    between atoms: N2_8  and  C6_9 
REMARK    3  A    between atoms: C7_11  and  C8_12 
REMARK    4  A    between atoms: C8_12  and  O3_13 
REMARK    5  A    between atoms: O3_13  and  P1_14 
REMARK    6  A    between atoms: P1_14  and  O6_17 
REMARK    7  A    between atoms: O6_17  and  P2_18 
REMARK    8  A    between atoms: P2_18  and  O9_21 
REMARK    9  A    between atoms: O9_21  and  C9_22 
REMARK   10  A    between atoms: C9_22  and  C10_23 
REMARK   11  A    between atoms: C11_25  and  N3_26 
REMARK   12  A    between atoms: C17_39  and  O11_40 
REMARK   13  A    between atoms: C18_42  and  O12_43 
REMARK   14  A    between atoms: C19_45  and  O13_46 
REMARK   15  A    between atoms: C20_48  and  O14_49 
ROOT
HETATM    1  P2  UNL     1       9.622   5.251  26.052  1.00  0.00     0.417 P 
HETATM    2  O7  UNL     1      10.602   6.293  25.604  1.00  0.00    -0.624 OA
HETATM    3  O8  UNL     1      10.588   3.844  26.438  1.00  0.00    -0.624 OA
ENDROOT
BRANCH   1   4
HETATM    4  O6  UNL     1       8.739   5.675  27.333  1.00  0.00    -0.180 OA
BRANCH   4   5
HETATM    5  P1  UNL     1       9.313   6.878  28.312  1.00  0.00     0.417 P 
HETATM    6  O4  UNL     1      10.712   6.719  28.731  1.00  0.00    -0.624 OA
HETATM    7  O5  UNL     1       8.402   6.753  29.853  1.00  0.00    -0.624 OA
BRANCH   5   8
HETATM    8  O3  UNL     1       8.903   8.355  27.735  1.00  0.00    -0.287 OA
BRANCH   8   9
HETATM    9  C8  UNL     1       7.588   8.424  27.225  1.00  0.00     0.216 C 
BRANCH   9  10
HETATM   10  C7  UNL     1       7.416   9.970  27.110  1.00  0.00     0.180 C 
HETATM   11  O2  UNL     1       6.635  10.408  28.151  1.00  0.00    -0.353 OA
HETATM   12  C6  UNL     1       7.190  11.510  28.758  1.00  0.00     0.259 C 
HETATM   13  C20 UNL     1       8.151  12.065  27.702  1.00  0.00     0.198 C 
HETATM   14  C19 UNL     1       8.680  10.719  27.122  1.00  0.00     0.182 C 
BRANCH  12  15
HETATM   15  N2  UNL     1       8.040  10.961  29.836  1.00  0.00    -0.336 N 
HETATM   16  C5  UNL     1       7.592  10.024  30.674  1.00  0.00     0.093 A 
HETATM   17  C4  UNL     1       8.383   9.618  31.748  1.00  0.00     0.018 A 
HETATM   18  C3  UNL     1       9.610  10.185  31.939  1.00  0.00     0.019 A 
HETATM   19  C2  UNL     1      10.036  11.146  31.061  1.00  0.00     0.044 A 
HETATM   20  C21 UNL     1       9.239  11.530  30.005  1.00  0.00     0.110 A 
BRANCH  19  21
HETATM   21  C1  UNL     1      11.312  11.811  31.248  1.00  0.00     0.266 C 
HETATM   22  N1  UNL     1      11.797  12.060  32.552  1.00  0.00    -0.057 NA
HETATM   23  O1  UNL     1      12.042  12.200  30.274  1.00  0.00    -0.271 OA
ENDBRANCH  19  21
ENDBRANCH  12  15
BRANCH  13  24
HETATM   24  O14 UNL     1       7.425  12.651  26.666  1.00  0.00    -0.388 OA
ATOM     25  H14 UNL     1       7.317  12.027  25.957  1.00  0.00     0.210 HD
ENDBRANCH  13  24
BRANCH  14  26
HETATM   26  O13 UNL     1       9.258  10.930  25.864  1.00  0.00    -0.390 OA
ATOM     27  H13 UNL     1       8.661  10.860  25.128  1.00  0.00     0.210 HD
ENDBRANCH  14  26
ENDBRANCH   9  10
ENDBRANCH   8   9
ENDBRANCH   5   8
ENDBRANCH   4   5
ENDBRANCH   1   4
BRANCH   1  28
HETATM   28  O9  UNL     1       8.799   4.736  24.620  1.00  0.00    -0.287 OA
BRANCH  28  29
HETATM   29  C9  UNL     1       7.671   4.029  25.154  1.00  0.00     0.216 C 
BRANCH  29  30
HETATM   30  C10 UNL     1       7.811   2.601  24.836  1.00  0.00     0.180 C 
HETATM   31  O10 UNL     1       7.742   1.851  26.043  1.00  0.00    -0.353 OA
HETATM   32  C11 UNL     1       7.822   0.549  25.505  1.00  0.00     0.262 C 
HETATM   33  C17 UNL     1       6.534   0.646  24.643  1.00  0.00     0.198 C 
HETATM   34  C18 UNL     1       6.809   2.007  23.942  1.00  0.00     0.182 C 
BRANCH  32  35
HETATM   35  N3  UNL     1       7.729  -0.397  26.547  1.00  0.00    -0.297 N 
HETATM   36  C12 UNL     1       8.513  -1.505  26.774  1.00  0.00     0.188 A 
HETATM   37  N4  UNL     1       8.111  -2.146  27.872  1.00  0.00    -0.346 N 
HETATM   38  C13 UNL     1       7.056  -1.438  28.372  1.00  0.00     0.119 A 
ATOM     39  H4  UNL     1       8.513  -2.998  28.262  1.00  0.00     0.167 HD
HETATM   40  C14 UNL     1       6.268  -1.651  29.466  1.00  0.00     0.148 A 
HETATM   41  C16 UNL     1       6.834  -0.358  27.530  1.00  0.00     0.142 A 
HETATM   42  N5  UNL     1       6.518  -2.738  30.351  1.00  0.00    -0.080 NA
HETATM   43  N6  UNL     1       5.252  -0.814  29.730  1.00  0.00    -0.339 N 
HETATM   44  C15 UNL     1       5.009   0.228  28.929  1.00  0.00     0.183 A 
ATOM     45  H6  UNL     1       4.663  -0.973  30.547  1.00  0.00     0.167 HD
HETATM   46  N7  UNL     1       5.807   0.443  27.839  1.00  0.00    -0.336 N 
ATOM     47  H7  UNL     1       5.611   1.243  27.238  1.00  0.00     0.168 HD
ENDBRANCH  32  35
BRANCH  33  48
HETATM   48  O11 UNL     1       6.349  -0.395  23.802  1.00  0.00    -0.388 OA
ATOM     49  H11 UNL     1       5.830  -1.104  24.165  1.00  0.00     0.210 HD
ENDBRANCH  33  48
BRANCH  34  50
HETATM   50  O12 UNL     1       7.425   1.660  22.700  1.00  0.00    -0.390 OA
ATOM     51  H12 UNL     1       7.126   0.801  22.429  1.00  0.00     0.210 HD
ENDBRANCH  34  50
ENDBRANCH  29  30
ENDBRANCH  28  29
ENDBRANCH   1  28
TORSDOF 15
ENDMDL
