MODEL 1
REMARK VINA RESULT: -10.534369946      0.000      0.000
REMARK  14 active torsions:
REMARK  status: ('A' for Active; 'I' for Inactive)
REMARK    1  A    between atoms: N5_13  and  C6_14 
REMARK    2  A    between atoms: C7_16  and  C8_17 
REMARK    3  A    between atoms: C8_17  and  O2_18 
REMARK    4  A    between atoms: O2_18  and  S1_19 
REMARK    5  A    between atoms: S1_19  and  N6_22 
REMARK       I    between atoms: N6_22  and  C9_24 
REMARK    6  A    between atoms: C9_24  and  C10_26 
REMARK    7  A    between atoms: C10_26  and  N7_27 
REMARK    8  A    between atoms: C10_26  and  C11_31 
REMARK    9  A    between atoms: C11_31  and  C12_32 
REMARK   10  A    between atoms: C12_32  and  C13_33 
REMARK   11  A    between atoms: C13_33  and  C14_34 
REMARK   12  A    between atoms: C14_34  and  N8_35 
REMARK   13  A    between atoms: C15_39  and  O6_40 
REMARK   14  A    between atoms: C16_42  and  O7_43 
ROOT
HETATM    1  C6  UNL     1       3.030   0.857  -5.195  1.00  0.00     0.262 C 
HETATM    2  O1  UNL     1       2.149  -0.216  -4.964  1.00  0.00    -0.353 OA
HETATM    3  C7  UNL     1       1.501   0.241  -3.806  1.00  0.00     0.180 C 
HETATM    4  C15 UNL     1       1.154   1.678  -4.053  1.00  0.00     0.182 C 
HETATM    5  C16 UNL     1       2.081   2.019  -5.227  1.00  0.00     0.198 C 
ENDROOT
BRANCH   3   6
HETATM    6  C8  UNL     1       0.260  -0.573  -3.512  1.00  0.00     0.226 C 
BRANCH   6   7
HETATM    7  O2  UNL     1      -0.556  -0.495  -4.639  1.00  0.00    -0.257 OA
BRANCH   7   8
HETATM    8  S1  UNL     1      -2.180  -0.535  -4.248  1.00  0.00     0.364 S 
HETATM    9  O3  UNL     1      -2.607   0.848  -3.811  1.00  0.00    -0.175 OA
HETATM   10  O4  UNL     1      -2.957  -0.894  -5.476  1.00  0.00    -0.175 OA
BRANCH   8  11
HETATM   11  N6  UNL     1      -2.402  -1.685  -2.990  1.00  0.00    -0.230 N 
HETATM   12  C9  UNL     1      -3.672  -1.922  -2.415  1.00  0.00     0.263 C 
HETATM   13  O5  UNL     1      -4.670  -1.291  -2.815  1.00  0.00    -0.270 OA
ATOM     14  H6  UNL     1      -1.596  -2.210  -2.650  1.00  0.00     0.183 HD
BRANCH  12  15
HETATM   15  C10 UNL     1      -3.832  -2.914  -1.340  1.00  0.00     0.275 C 
BRANCH  15  16
HETATM   16  N7  UNL     1      -3.377  -4.229  -1.739  1.00  0.00    -0.066 N 
ATOM     17  H73 UNL     1      -3.196  -4.268  -2.742  1.00  0.00     0.275 HD
ATOM     18  H72 UNL     1      -2.433  -4.413  -1.397  1.00  0.00     0.275 HD
ATOM     19  H71 UNL     1      -4.024  -4.963  -1.451  1.00  0.00     0.275 HD
ENDBRANCH  15  16
BRANCH  15  20
HETATM   20  C11 UNL     1      -3.015  -2.461  -0.140  1.00  0.00     0.043 C 
BRANCH  20  21
HETATM   21  C12 UNL     1      -2.283  -3.612   0.498  1.00  0.00     0.004 C 
BRANCH  21  22
HETATM   22  C13 UNL     1      -1.752  -3.168   1.831  1.00  0.00     0.027 C 
BRANCH  22  23
HETATM   23  C14 UNL     1      -2.834  -2.690   2.773  1.00  0.00     0.229 C 
BRANCH  23  24
HETATM   24  N8  UNL     1      -3.556  -3.903   3.189  1.00  0.00    -0.079 N 
ATOM     25  H83 UNL     1      -3.561  -4.640   2.484  1.00  0.00     0.274 HD
ATOM     26  H82 UNL     1      -3.078  -4.435   3.916  1.00  0.00     0.274 HD
ATOM     27  H81 UNL     1      -4.488  -3.586   3.457  1.00  0.00     0.274 HD
ENDBRANCH  23  24
ENDBRANCH  22  23
ENDBRANCH  21  22
ENDBRANCH  20  21
ENDBRANCH  15  20
ENDBRANCH  12  15
ENDBRANCH   8  11
ENDBRANCH   7   8
ENDBRANCH   6   7
ENDBRANCH   3   6
BRANCH   4  28
HETATM   28  O6  UNL     1       1.426   2.507  -2.974  1.00  0.00    -0.390 OA
ATOM     29  H6  UNL     1       1.139   3.403  -3.103  1.00  0.00     0.210 HD
ENDBRANCH   4  28
BRANCH   1  30
HETATM   30  N5  UNL     1       3.783   0.691  -6.403  1.00  0.00    -0.297 N 
HETATM   31  C3  UNL     1       3.313   0.344  -7.618  1.00  0.00     0.142 A 
HETATM   32  N3  UNL     1       2.104   0.057  -8.097  1.00  0.00    -0.336 N 
HETATM   33  C4  UNL     1       4.371   0.293  -8.519  1.00  0.00     0.119 A 
HETATM   34  C2  UNL     1       1.878  -0.271  -9.380  1.00  0.00     0.183 A 
ATOM     35  H3  UNL     1       1.310   0.087  -7.458  1.00  0.00     0.168 HD
HETATM   36  N2  UNL     1       2.928  -0.315 -10.242  1.00  0.00    -0.339 N 
HETATM   37  C1  UNL     1       4.182  -0.039  -9.844  1.00  0.00     0.148 A 
ATOM     38  H2  UNL     1       2.760  -0.565 -11.216  1.00  0.00     0.167 HD
HETATM   39  N1  UNL     1       5.268  -0.090 -10.758  1.00  0.00    -0.080 NA
HETATM   40  N4  UNL     1       5.465   0.611  -7.831  1.00  0.00    -0.346 N 
HETATM   41  C5  UNL     1       5.092   0.850  -6.545  1.00  0.00     0.188 A 
ATOM     42  H4  UNL     1       6.413   0.666  -8.201  1.00  0.00     0.167 HD
ENDBRANCH   1  30
BRANCH   5  43
HETATM   43  O7  UNL     1       2.706   3.228  -4.938  1.00  0.00    -0.388 OA
ATOM     44  H7  UNL     1       2.906   3.731  -5.719  1.00  0.00     0.210 HD
ENDBRANCH   5  43
TORSDOF 14
ENDMDL
