MODEL 2
REMARK VINA RESULT: -9.850560508      0.884      1.726
REMARK  14 active torsions:
REMARK  status: ('A' for Active; 'I' for Inactive)
REMARK    1  A    between atoms: N5_13  and  C6_14 
REMARK    2  A    between atoms: C7_16  and  C8_17 
REMARK    3  A    between atoms: C8_17  and  O2_18 
REMARK    4  A    between atoms: O2_18  and  S1_19 
REMARK    5  A    between atoms: S1_19  and  N6_22 
REMARK       I    between atoms: N6_22  and  C9_24 
REMARK    6  A    between atoms: C9_24  and  C10_26 
REMARK    7  A    between atoms: C10_26  and  N7_27 
REMARK    8  A    between atoms: C10_26  and  C11_31 
REMARK    9  A    between atoms: C11_31  and  C12_32 
REMARK   10  A    between atoms: C12_32  and  C13_33 
REMARK   11  A    between atoms: C13_33  and  C14_34 
REMARK   12  A    between atoms: C14_34  and  N8_35 
REMARK   13  A    between atoms: C15_39  and  O6_40 
REMARK   14  A    between atoms: C16_42  and  O7_43 
ROOT
HETATM    1  C6  UNL     1       2.697   0.455  -5.402  1.00  0.00     0.262 C 
HETATM    2  O1  UNL     1       1.337   0.102  -5.317  1.00  0.00    -0.353 OA
HETATM    3  C7  UNL     1       1.109   0.324  -3.949  1.00  0.00     0.180 C 
HETATM    4  C15 UNL     1       1.737   1.645  -3.625  1.00  0.00     0.182 C 
HETATM    5  C16 UNL     1       2.681   1.837  -4.819  1.00  0.00     0.198 C 
ENDROOT
BRANCH   3   6
HETATM    6  C8  UNL     1      -0.370   0.335  -3.633  1.00  0.00     0.226 C 
BRANCH   6   7
HETATM    7  O2  UNL     1      -1.023  -0.259  -4.711  1.00  0.00    -0.257 OA
BRANCH   7   8
HETATM    8  S1  UNL     1      -2.630  -0.576  -4.380  1.00  0.00     0.364 S 
HETATM    9  O3  UNL     1      -3.305   0.716  -3.976  1.00  0.00    -0.175 OA
HETATM   10  O4  UNL     1      -3.286  -1.069  -5.633  1.00  0.00    -0.175 OA
BRANCH   8  11
HETATM   11  N6  UNL     1      -2.700  -1.741  -3.119  1.00  0.00    -0.230 N 
HETATM   12  C9  UNL     1      -3.878  -1.951  -2.366  1.00  0.00     0.263 C 
HETATM   13  O5  UNL     1      -4.904  -1.284  -2.604  1.00  0.00    -0.270 OA
ATOM     14  H6  UNL     1      -1.870  -2.295  -2.909  1.00  0.00     0.183 HD
BRANCH  12  15
HETATM   15  C10 UNL     1      -3.908  -2.957  -1.291  1.00  0.00     0.275 C 
BRANCH  15  16
HETATM   16  N7  UNL     1      -3.430  -4.247  -1.739  1.00  0.00    -0.066 N 
ATOM     17  H73 UNL     1      -3.376  -4.910  -0.966  1.00  0.00     0.275 HD
ATOM     18  H72 UNL     1      -4.130  -4.721  -2.311  1.00  0.00     0.275 HD
ATOM     19  H71 UNL     1      -2.539  -4.177  -2.229  1.00  0.00     0.275 HD
ENDBRANCH  15  16
BRANCH  15  20
HETATM   20  C11 UNL     1      -3.018  -2.477  -0.156  1.00  0.00     0.043 C 
BRANCH  20  21
HETATM   21  C12 UNL     1      -2.104  -3.570   0.330  1.00  0.00     0.004 C 
BRANCH  21  22
HETATM   22  C13 UNL     1      -1.745  -3.298   1.764  1.00  0.00     0.027 C 
BRANCH  22  23
HETATM   23  C14 UNL     1      -2.886  -2.704   2.560  1.00  0.00     0.229 C 
BRANCH  23  24
HETATM   24  N8  UNL     1      -3.556  -3.848   3.198  1.00  0.00    -0.079 N 
ATOM     25  H83 UNL     1      -3.126  -4.748   2.983  1.00  0.00     0.274 HD
ATOM     26  H82 UNL     1      -3.423  -3.890   4.209  1.00  0.00     0.274 HD
ATOM     27  H81 UNL     1      -4.533  -3.783   2.915  1.00  0.00     0.274 HD
ENDBRANCH  23  24
ENDBRANCH  22  23
ENDBRANCH  21  22
ENDBRANCH  20  21
ENDBRANCH  15  20
ENDBRANCH  12  15
ENDBRANCH   8  11
ENDBRANCH   7   8
ENDBRANCH   6   7
ENDBRANCH   3   6
BRANCH   4  28
HETATM   28  O6  UNL     1       2.461   1.639  -2.441  1.00  0.00    -0.390 OA
ATOM     29  H6  UNL     1       3.149   2.292  -2.414  1.00  0.00     0.210 HD
ENDBRANCH   4  28
BRANCH   1  30
HETATM   30  N5  UNL     1       3.189   0.399  -6.747  1.00  0.00    -0.297 N 
HETATM   31  C3  UNL     1       4.475   0.438  -7.149  1.00  0.00     0.142 A 
HETATM   32  N3  UNL     1       5.643   0.534  -6.514  1.00  0.00    -0.336 N 
HETATM   33  C4  UNL     1       4.523   0.359  -8.536  1.00  0.00     0.119 A 
HETATM   34  C2  UNL     1       6.827   0.555  -7.148  1.00  0.00     0.183 A 
ATOM     35  H3  UNL     1       5.637   0.593  -5.496  1.00  0.00     0.168 HD
HETATM   36  N2  UNL     1       6.848   0.477  -8.504  1.00  0.00    -0.339 N 
HETATM   37  C1  UNL     1       5.717   0.377  -9.225  1.00  0.00     0.148 A 
ATOM     38  H2  UNL     1       7.745   0.493  -8.989  1.00  0.00     0.167 HD
HETATM   39  N1  UNL     1       5.757   0.296 -10.643  1.00  0.00    -0.080 NA
HETATM   40  N4  UNL     1       3.261   0.272  -8.949  1.00  0.00    -0.346 N 
HETATM   41  C5  UNL     1       2.461   0.298  -7.850  1.00  0.00     0.188 A 
ATOM     42  H4  UNL     1       2.949   0.198  -9.917  1.00  0.00     0.167 HD
ENDBRANCH   1  30
BRANCH   5  43
HETATM   43  O7  UNL     1       3.923   2.221  -4.322  1.00  0.00    -0.388 OA
ATOM     44  H7  UNL     1       4.131   3.127  -4.520  1.00  0.00     0.210 HD
ENDBRANCH   5  43
TORSDOF 14
ENDMDL
