MODEL 13
REMARK VINA RESULT: -9.255501954      3.483      5.462
REMARK  14 active torsions:
REMARK  status: ('A' for Active; 'I' for Inactive)
REMARK    1  A    between atoms: N5_13  and  C6_14 
REMARK    2  A    between atoms: C7_16  and  C8_17 
REMARK    3  A    between atoms: C8_17  and  O2_18 
REMARK    4  A    between atoms: O2_18  and  S1_19 
REMARK    5  A    between atoms: S1_19  and  N6_22 
REMARK       I    between atoms: N6_22  and  C9_24 
REMARK    6  A    between atoms: C9_24  and  C10_26 
REMARK    7  A    between atoms: C10_26  and  N7_27 
REMARK    8  A    between atoms: C10_26  and  C11_31 
REMARK    9  A    between atoms: C11_31  and  C12_32 
REMARK   10  A    between atoms: C12_32  and  C13_33 
REMARK   11  A    between atoms: C13_33  and  C14_34 
REMARK   12  A    between atoms: C14_34  and  N8_35 
REMARK   13  A    between atoms: C15_39  and  O6_40 
REMARK   14  A    between atoms: C16_42  and  O7_43 
ROOT
HETATM    1  C6  UNL     1       2.966   0.846  -5.146  1.00  0.00     0.262 C 
HETATM    2  O1  UNL     1       2.086  -0.224  -4.896  1.00  0.00    -0.353 OA
HETATM    3  C7  UNL     1       1.471   0.233  -3.719  1.00  0.00     0.180 C 
HETATM    4  C15 UNL     1       1.124   1.672  -3.953  1.00  0.00     0.182 C 
HETATM    5  C16 UNL     1       2.022   2.012  -5.150  1.00  0.00     0.198 C 
ENDROOT
BRANCH   3   6
HETATM    6  C8  UNL     1       0.234  -0.576  -3.396  1.00  0.00     0.226 C 
BRANCH   6   7
HETATM    7  O2  UNL     1      -0.539  -0.621  -4.554  1.00  0.00    -0.257 OA
BRANCH   7   8
HETATM    8  S1  UNL     1      -2.168  -0.427  -4.235  1.00  0.00     0.364 S 
HETATM    9  O3  UNL     1      -2.956  -1.285  -5.199  1.00  0.00    -0.175 OA
HETATM   10  O4  UNL     1      -2.443  -0.917  -2.847  1.00  0.00    -0.175 OA
BRANCH   8  11
HETATM   11  N6  UNL     1      -2.557   1.237  -4.415  1.00  0.00    -0.230 N 
HETATM   12  C9  UNL     1      -2.465   1.890  -5.666  1.00  0.00     0.263 C 
HETATM   13  O5  UNL     1      -2.092   1.263  -6.677  1.00  0.00    -0.270 OA
ATOM     14  H6  UNL     1      -2.862   1.767  -3.599  1.00  0.00     0.183 HD
BRANCH  12  15
HETATM   15  C10 UNL     1      -2.805   3.317  -5.791  1.00  0.00     0.275 C 
BRANCH  15  16
HETATM   16  N7  UNL     1      -2.163   3.933  -6.932  1.00  0.00    -0.066 N 
ATOM     17  H73 UNL     1      -1.172   4.098  -6.754  1.00  0.00     0.275 HD
ATOM     18  H72 UNL     1      -2.081   3.276  -7.708  1.00  0.00     0.275 HD
ATOM     19  H71 UNL     1      -2.634   4.790  -7.222  1.00  0.00     0.275 HD
ENDBRANCH  15  16
BRANCH  15  20
HETATM   20  C11 UNL     1      -4.312   3.441  -5.955  1.00  0.00     0.043 C 
BRANCH  20  21
HETATM   21  C12 UNL     1      -4.678   4.606  -6.835  1.00  0.00     0.004 C 
BRANCH  21  22
HETATM   22  C13 UNL     1      -5.157   5.735  -5.967  1.00  0.00     0.027 C 
BRANCH  22  23
HETATM   23  C14 UNL     1      -4.445   7.041  -6.243  1.00  0.00     0.229 C 
BRANCH  23  24
HETATM   24  N8  UNL     1      -3.284   7.052  -5.340  1.00  0.00    -0.079 N 
ATOM     25  H83 UNL     1      -3.422   7.617  -4.501  1.00  0.00     0.274 HD
ATOM     26  H82 UNL     1      -3.126   6.164  -4.863  1.00  0.00     0.274 HD
ATOM     27  H81 UNL     1      -2.497   7.356  -5.914  1.00  0.00     0.274 HD
ENDBRANCH  23  24
ENDBRANCH  22  23
ENDBRANCH  21  22
ENDBRANCH  20  21
ENDBRANCH  15  20
ENDBRANCH  12  15
ENDBRANCH   8  11
ENDBRANCH   7   8
ENDBRANCH   6   7
ENDBRANCH   3   6
BRANCH   4  28
HETATM   28  O6  UNL     1       1.428   2.496  -2.880  1.00  0.00    -0.390 OA
ATOM     29  H6  UNL     1       0.693   3.020  -2.584  1.00  0.00     0.210 HD
ENDBRANCH   4  28
BRANCH   1  30
HETATM   30  N5  UNL     1       3.687   0.680  -6.374  1.00  0.00    -0.297 N 
HETATM   31  C3  UNL     1       3.183   0.342  -7.578  1.00  0.00     0.142 A 
HETATM   32  N3  UNL     1       1.960   0.066  -8.027  1.00  0.00    -0.336 N 
HETATM   33  C4  UNL     1       4.217   0.287  -8.506  1.00  0.00     0.119 A 
HETATM   34  C2  UNL     1       1.699  -0.254  -9.306  1.00  0.00     0.183 A 
ATOM     35  H3  UNL     1       1.182   0.100  -7.368  1.00  0.00     0.168 HD
HETATM   36  N2  UNL     1       2.726  -0.302 -10.194  1.00  0.00    -0.339 N 
HETATM   37  C1  UNL     1       3.992  -0.037  -9.827  1.00  0.00     0.148 A 
ATOM     38  H2  UNL     1       2.531  -0.546 -11.165  1.00  0.00     0.167 HD
HETATM   39  N1  UNL     1       5.054  -0.092 -10.769  1.00  0.00    -0.080 NA
HETATM   40  N4  UNL     1       5.331   0.594  -7.845  1.00  0.00    -0.346 N 
HETATM   41  C5  UNL     1       4.992   0.830  -6.549  1.00  0.00     0.188 A 
ATOM     42  H4  UNL     1       6.270   0.643  -8.239  1.00  0.00     0.167 HD
ENDBRANCH   1  30
BRANCH   5  43
HETATM   43  O7  UNL     1       2.660   3.217  -4.875  1.00  0.00    -0.388 OA
ATOM     44  H7  UNL     1       3.039   3.239  -4.004  1.00  0.00     0.210 HD
ENDBRANCH   5  43
TORSDOF 14
ENDMDL
