MODEL 16
REMARK VINA RESULT: -9.202824764      3.336      5.749
REMARK  14 active torsions:
REMARK  status: ('A' for Active; 'I' for Inactive)
REMARK    1  A    between atoms: N5_13  and  C6_14 
REMARK    2  A    between atoms: C7_16  and  C8_17 
REMARK    3  A    between atoms: C8_17  and  O2_18 
REMARK    4  A    between atoms: O2_18  and  S1_19 
REMARK    5  A    between atoms: S1_19  and  N6_22 
REMARK       I    between atoms: N6_22  and  C9_24 
REMARK    6  A    between atoms: C9_24  and  C10_26 
REMARK    7  A    between atoms: C10_26  and  N7_27 
REMARK    8  A    between atoms: C10_26  and  C11_31 
REMARK    9  A    between atoms: C11_31  and  C12_32 
REMARK   10  A    between atoms: C12_32  and  C13_33 
REMARK   11  A    between atoms: C13_33  and  C14_34 
REMARK   12  A    between atoms: C14_34  and  N8_35 
REMARK   13  A    between atoms: C15_39  and  O6_40 
REMARK   14  A    between atoms: C16_42  and  O7_43 
ROOT
HETATM    1  C6  UNL     1       2.953   0.859  -5.155  1.00  0.00     0.262 C 
HETATM    2  O1  UNL     1       2.046  -0.198  -4.945  1.00  0.00    -0.353 OA
HETATM    3  C7  UNL     1       1.410   0.251  -3.777  1.00  0.00     0.180 C 
HETATM    4  C15 UNL     1       1.096   1.700  -3.995  1.00  0.00     0.182 C 
HETATM    5  C16 UNL     1       2.030   2.043  -5.163  1.00  0.00     0.198 C 
ENDROOT
BRANCH   3   6
HETATM    6  C8  UNL     1       0.150  -0.539  -3.499  1.00  0.00     0.226 C 
BRANCH   6   7
HETATM    7  O2  UNL     1      -0.535  -0.654  -4.707  1.00  0.00    -0.257 OA
BRANCH   7   8
HETATM    8  S1  UNL     1      -2.153  -0.261  -4.556  1.00  0.00     0.364 S 
HETATM    9  O3  UNL     1      -2.970  -1.275  -5.324  1.00  0.00    -0.175 OA
HETATM   10  O4  UNL     1      -2.533  -0.357  -3.111  1.00  0.00    -0.175 OA
BRANCH   8  11
HETATM   11  N6  UNL     1      -2.381   1.326  -5.174  1.00  0.00    -0.230 N 
HETATM   12  C9  UNL     1      -1.698   1.779  -6.327  1.00  0.00     0.263 C 
HETATM   13  O5  UNL     1      -0.904   1.026  -6.924  1.00  0.00    -0.270 OA
ATOM     14  H6  UNL     1      -3.025   1.957  -4.698  1.00  0.00     0.183 HD
BRANCH  12  15
HETATM   15  C10 UNL     1      -1.914   3.144  -6.834  1.00  0.00     0.275 C 
BRANCH  15  16
HETATM   16  N7  UNL     1      -0.756   3.654  -7.537  1.00  0.00    -0.066 N 
ATOM     17  H73 UNL     1       0.110   3.326  -7.109  1.00  0.00     0.275 HD
ATOM     18  H72 UNL     1      -0.659   3.217  -8.454  1.00  0.00     0.275 HD
ATOM     19  H71 UNL     1      -0.769   4.671  -7.613  1.00  0.00     0.275 HD
ENDBRANCH  15  16
BRANCH  15  20
HETATM   20  C11 UNL     1      -3.093   3.122  -7.794  1.00  0.00     0.043 C 
BRANCH  20  21
HETATM   21  C12 UNL     1      -2.639   3.030  -9.226  1.00  0.00     0.004 C 
BRANCH  21  22
HETATM   22  C13 UNL     1      -3.284   1.830  -9.861  1.00  0.00     0.027 C 
BRANCH  22  23
HETATM   23  C14 UNL     1      -2.298   0.734 -10.198  1.00  0.00     0.229 C 
BRANCH  23  24
HETATM   24  N8  UNL     1      -0.982   1.390 -10.237  1.00  0.00    -0.079 N 
ATOM     25  H83 UNL     1      -0.858   2.016 -11.033  1.00  0.00     0.274 HD
ATOM     26  H82 UNL     1      -0.852   2.093  -9.509  1.00  0.00     0.274 HD
ATOM     27  H81 UNL     1      -0.300   0.631 -10.202  1.00  0.00     0.274 HD
ENDBRANCH  23  24
ENDBRANCH  22  23
ENDBRANCH  21  22
ENDBRANCH  20  21
ENDBRANCH  15  20
ENDBRANCH  12  15
ENDBRANCH   8  11
ENDBRANCH   7   8
ENDBRANCH   6   7
ENDBRANCH   3   6
BRANCH   4  28
HETATM   28  O6  UNL     1       1.388   2.501  -2.900  1.00  0.00    -0.390 OA
ATOM     29  H6  UNL     1       0.682   3.089  -2.662  1.00  0.00     0.210 HD
ENDBRANCH   4  28
BRANCH   1  30
HETATM   30  N5  UNL     1       3.701   0.700  -6.366  1.00  0.00    -0.297 N 
HETATM   31  C3  UNL     1       3.230   0.342  -7.577  1.00  0.00     0.142 A 
HETATM   32  N3  UNL     1       2.022   0.035  -8.049  1.00  0.00    -0.336 N 
HETATM   33  C4  UNL     1       4.283   0.302  -8.485  1.00  0.00     0.119 A 
HETATM   34  C2  UNL     1       1.794  -0.300  -9.330  1.00  0.00     0.183 A 
ATOM     35  H3  UNL     1       1.231   0.057  -7.406  1.00  0.00     0.168 HD
HETATM   36  N2  UNL     1       2.839  -0.332 -10.197  1.00  0.00    -0.339 N 
HETATM   37  C1  UNL     1       4.092  -0.037  -9.807  1.00  0.00     0.148 A 
ATOM     38  H2  UNL     1       2.670  -0.587 -11.170  1.00  0.00     0.167 HD
HETATM   39  N1  UNL     1       5.174  -0.075 -10.727  1.00  0.00    -0.080 NA
HETATM   40  N4  UNL     1       5.376   0.639  -7.803  1.00  0.00    -0.346 N 
HETATM   41  C5  UNL     1       5.007   0.877  -6.517  1.00  0.00     0.188 A 
ATOM     42  H4  UNL     1       6.322   0.706  -8.179  1.00  0.00     0.167 HD
ENDBRANCH   1  30
BRANCH   5  43
HETATM   43  O7  UNL     1       2.684   3.231  -4.851  1.00  0.00    -0.388 OA
ATOM     44  H7  UNL     1       2.340   3.974  -5.332  1.00  0.00     0.210 HD
ENDBRANCH   5  43
TORSDOF 14
ENDMDL
