MODEL 14
REMARK VINA RESULT: -9.244086945      3.275      4.945
REMARK  14 active torsions:
REMARK  status: ('A' for Active; 'I' for Inactive)
REMARK    1  A    between atoms: N5_13  and  C6_14 
REMARK    2  A    between atoms: C7_16  and  C8_17 
REMARK    3  A    between atoms: C8_17  and  O2_18 
REMARK    4  A    between atoms: O2_18  and  S1_19 
REMARK    5  A    between atoms: S1_19  and  N6_22 
REMARK       I    between atoms: N6_22  and  C9_24 
REMARK    6  A    between atoms: C9_24  and  C10_26 
REMARK    7  A    between atoms: C10_26  and  N7_27 
REMARK    8  A    between atoms: C10_26  and  C11_31 
REMARK    9  A    between atoms: C11_31  and  C12_32 
REMARK   10  A    between atoms: C12_32  and  C13_33 
REMARK   11  A    between atoms: C13_33  and  C14_34 
REMARK   12  A    between atoms: C14_34  and  N8_35 
REMARK   13  A    between atoms: C15_39  and  O6_40 
REMARK   14  A    between atoms: C16_42  and  O7_43 
ROOT
HETATM    1  C6  UNL     1       2.930   0.853  -5.132  1.00  0.00     0.262 C 
HETATM    2  O1  UNL     1       2.031  -0.203  -4.890  1.00  0.00    -0.353 OA
HETATM    3  C7  UNL     1       1.425   0.254  -3.709  1.00  0.00     0.180 C 
HETATM    4  C15 UNL     1       1.104   1.701  -3.930  1.00  0.00     0.182 C 
HETATM    5  C16 UNL     1       2.006   2.036  -5.124  1.00  0.00     0.198 C 
ENDROOT
BRANCH   3   6
HETATM    6  C8  UNL     1       0.174  -0.536  -3.391  1.00  0.00     0.226 C 
BRANCH   6   7
HETATM    7  O2  UNL     1      -0.530  -0.682  -4.584  1.00  0.00    -0.257 OA
BRANCH   7   8
HETATM    8  S1  UNL     1      -2.169  -0.423  -4.387  1.00  0.00     0.364 S 
HETATM    9  O3  UNL     1      -2.923  -1.519  -5.105  1.00  0.00    -0.175 OA
HETATM   10  O4  UNL     1      -2.493  -0.516  -2.928  1.00  0.00    -0.175 OA
BRANCH   8  11
HETATM   11  N6  UNL     1      -2.550   1.124  -5.029  1.00  0.00    -0.230 N 
HETATM   12  C9  UNL     1      -1.879   1.646  -6.160  1.00  0.00     0.263 C 
HETATM   13  O5  UNL     1      -0.983   0.983  -6.719  1.00  0.00    -0.270 OA
ATOM     14  H6  UNL     1      -3.279   1.682  -4.584  1.00  0.00     0.183 HD
BRANCH  12  15
HETATM   15  C10 UNL     1      -2.227   2.974  -6.689  1.00  0.00     0.275 C 
BRANCH  15  16
HETATM   16  N7  UNL     1      -1.084   3.646  -7.269  1.00  0.00    -0.066 N 
ATOM     17  H73 UNL     1      -0.789   4.436  -6.695  1.00  0.00     0.275 HD
ATOM     18  H72 UNL     1      -0.243   3.072  -7.199  1.00  0.00     0.275 HD
ATOM     19  H71 UNL     1      -1.256   3.933  -8.233  1.00  0.00     0.275 HD
ENDBRANCH  15  16
BRANCH  15  20
HETATM   20  C11 UNL     1      -3.287   2.803  -7.765  1.00  0.00     0.043 C 
BRANCH  20  21
HETATM   21  C12 UNL     1      -4.676   2.834  -7.184  1.00  0.00     0.004 C 
BRANCH  21  22
HETATM   22  C13 UNL     1      -5.368   1.542  -7.515  1.00  0.00     0.027 C 
BRANCH  22  23
HETATM   23  C14 UNL     1      -6.194   1.000  -6.370  1.00  0.00     0.229 C 
BRANCH  23  24
HETATM   24  N8  UNL     1      -5.722  -0.379  -6.165  1.00  0.00    -0.079 N 
ATOM     25  H83 UNL     1      -5.711  -0.940  -7.017  1.00  0.00     0.274 HD
ATOM     26  H82 UNL     1      -4.723  -0.445  -5.965  1.00  0.00     0.274 HD
ATOM     27  H81 UNL     1      -6.315  -0.762  -5.429  1.00  0.00     0.274 HD
ENDBRANCH  23  24
ENDBRANCH  22  23
ENDBRANCH  21  22
ENDBRANCH  20  21
ENDBRANCH  15  20
ENDBRANCH  12  15
ENDBRANCH   8  11
ENDBRANCH   7   8
ENDBRANCH   6   7
ENDBRANCH   3   6
BRANCH   4  28
HETATM   28  O6  UNL     1       1.423   2.510  -2.849  1.00  0.00    -0.390 OA
ATOM     29  H6  UNL     1       1.169   3.418  -2.968  1.00  0.00     0.210 HD
ENDBRANCH   4  28
BRANCH   1  30
HETATM   30  N5  UNL     1       3.647   0.685  -6.361  1.00  0.00    -0.297 N 
HETATM   31  C3  UNL     1       3.139   0.348  -7.564  1.00  0.00     0.142 A 
HETATM   32  N3  UNL     1       1.913   0.075  -8.009  1.00  0.00    -0.336 N 
HETATM   33  C4  UNL     1       4.170   0.290  -8.495  1.00  0.00     0.119 A 
HETATM   34  C2  UNL     1       1.648  -0.245  -9.287  1.00  0.00     0.183 A 
ATOM     35  H3  UNL     1       1.138   0.110  -7.348  1.00  0.00     0.168 HD
HETATM   36  N2  UNL     1       2.672  -0.295 -10.178  1.00  0.00    -0.339 N 
HETATM   37  C1  UNL     1       3.940  -0.033  -9.815  1.00  0.00     0.148 A 
ATOM     38  H2  UNL     1       2.474  -0.539 -11.149  1.00  0.00     0.167 HD
HETATM   39  N1  UNL     1       4.999  -0.091 -10.760  1.00  0.00    -0.080 NA
HETATM   40  N4  UNL     1       5.286   0.595  -7.837  1.00  0.00    -0.346 N 
HETATM   41  C5  UNL     1       4.952   0.832  -6.540  1.00  0.00     0.188 A 
ATOM     42  H4  UNL     1       6.224   0.643  -8.234  1.00  0.00     0.167 HD
ENDBRANCH   1  30
BRANCH   5  43
HETATM   43  O7  UNL     1       2.666   3.227  -4.839  1.00  0.00    -0.388 OA
ATOM     44  H7  UNL     1       2.863   3.323  -3.914  1.00  0.00     0.210 HD
ENDBRANCH   5  43
TORSDOF 14
ENDMDL
