MODEL 17
REMARK VINA RESULT: -6.951797869      3.475      6.084
REMARK  5 active torsions:
REMARK  status: ('A' for Active; 'I' for Inactive)
REMARK    1  A    between atoms: N4_13  and  C5_14 
REMARK    2  A    between atoms: C7_16  and  O2_17 
REMARK    3  A    between atoms: C8_19  and  C9_20 
REMARK    4  A    between atoms: C9_20  and  O3_21 
REMARK    5  A    between atoms: O3_21  and  P1_22 
ROOT
HETATM    1  N1  UNL     1      -7.416   3.376  22.238  1.00  0.00    -0.234 N 
ATOM      2  H11 UNL     1      -7.204   3.970  21.437  1.00  0.00     0.174 HD
ATOM      3  H12 UNL     1      -6.913   3.442  23.124  1.00  0.00     0.174 HD
HETATM    4  C1  UNL     1      -8.361   2.477  22.189  1.00  0.00     0.680 A 
HETATM    5  N2  UNL     1      -8.657   1.649  23.307  1.00  0.00    -0.174 N 
ATOM      6  H2  UNL     1      -8.136   1.738  24.179  1.00  0.00     0.186 HD
HETATM    7  C2  UNL     1      -9.602   0.783  23.187  1.00  0.00     0.162 A 
HETATM    8  C3  UNL     1     -10.389   0.591  21.992  1.00  0.00     0.151 A 
HETATM    9  N3  UNL     1     -11.258  -0.345  22.176  1.00  0.00    -0.300 N 
ATOM     10  H3  UNL     1     -11.932  -0.670  21.483  1.00  0.00     0.171 HD
HETATM   11  C4  UNL     1     -11.127  -0.848  23.485  1.00  0.00     0.331 A 
HETATM   12  O1  UNL     1     -11.844  -1.773  23.951  1.00  0.00    -0.246 OA
HETATM   13  N4  UNL     1     -10.079  -0.148  24.155  1.00  0.00    -0.255 N 
HETATM   14  C10 UNL     1     -10.113   1.422  20.828  1.00  0.00     0.290 A 
HETATM   15  O8  UNL     1     -10.778   1.275  19.782  1.00  0.00    -0.265 OA
HETATM   16  N5  UNL     1      -9.064   2.386  20.953  1.00  0.00    -0.154 N 
ATOM     17  H5  UNL     1      -8.823   2.996  20.172  1.00  0.00     0.187 HD
ENDROOT
BRANCH  13  18
HETATM   18  C5  UNL     1      -9.678  -0.400  25.488  1.00  0.00     0.237 C 
HETATM   19  C6  UNL     1      -8.974  -1.725  25.689  1.00  0.00     0.088 C 
HETATM   20  C7  UNL     1      -8.557  -1.540  27.136  1.00  0.00     0.153 C 
HETATM   21  C8  UNL     1      -8.269  -0.038  27.164  1.00  0.00     0.177 C 
HETATM   22  O7  UNL     1      -8.733   0.483  25.981  1.00  0.00    -0.356 OA
BRANCH  20  23
HETATM   23  O2  UNL     1      -9.651  -1.835  27.946  1.00  0.00    -0.393 OA
ATOM     24  H2  UNL     1      -9.556  -1.355  28.760  1.00  0.00     0.210 HD
ENDBRANCH  20  23
BRANCH  21  25
HETATM   25  C9  UNL     1      -6.815   0.133  27.396  1.00  0.00     0.217 C 
BRANCH  25  26
HETATM   26  O3  UNL     1      -6.251   1.195  26.722  1.00  0.00    -0.280 OA
BRANCH  26  27
HETATM   27  P1  UNL     1      -5.131   0.871  25.734  1.00  0.00     0.422 P 
HETATM   28  O4  UNL     1      -5.188  -0.723  26.164  1.00  0.00    -0.617 OA
HETATM   29  O5  UNL     1      -5.884   1.407  24.416  1.00  0.00    -0.617 OA
HETATM   30  O6  UNL     1      -4.139   1.891  26.626  1.00  0.00    -0.617 OA
ENDBRANCH  26  27
ENDBRANCH  25  26
ENDBRANCH  21  25
ENDBRANCH  13  18
TORSDOF 5
ENDMDL
