MODEL 16
REMARK VINA RESULT: -6.988630511      1.776      2.044
REMARK  5 active torsions:
REMARK  status: ('A' for Active; 'I' for Inactive)
REMARK    1  A    between atoms: N4_13  and  C5_14 
REMARK    2  A    between atoms: C7_16  and  O2_17 
REMARK    3  A    between atoms: C8_19  and  C9_20 
REMARK    4  A    between atoms: C9_20  and  O3_21 
REMARK    5  A    between atoms: O3_21  and  P1_22 
ROOT
HETATM    1  N1  UNL     1      -4.387   2.285  22.980  1.00  0.00    -0.234 N 
ATOM      2  H11 UNL     1      -3.653   2.873  22.585  1.00  0.00     0.174 HD
ATOM      3  H12 UNL     1      -5.226   2.023  22.461  1.00  0.00     0.174 HD
HETATM    4  C1  UNL     1      -4.305   1.818  24.196  1.00  0.00     0.680 A 
HETATM    5  N2  UNL     1      -5.329   0.998  24.747  1.00  0.00    -0.174 N 
ATOM      6  H2  UNL     1      -6.157   0.754  24.202  1.00  0.00     0.186 HD
HETATM    7  C2  UNL     1      -5.182   0.573  25.953  1.00  0.00     0.162 A 
HETATM    8  C3  UNL     1      -4.046   0.869  26.792  1.00  0.00     0.151 A 
HETATM    9  N3  UNL     1      -4.183   0.303  27.944  1.00  0.00    -0.300 N 
ATOM     10  H3  UNL     1      -3.516   0.360  28.713  1.00  0.00     0.171 HD
HETATM   11  C4  UNL     1      -5.400  -0.406  27.971  1.00  0.00     0.331 A 
HETATM   12  O1  UNL     1      -5.804  -1.059  28.968  1.00  0.00    -0.246 OA
HETATM   13  N4  UNL     1      -6.060  -0.253  26.715  1.00  0.00    -0.255 N 
HETATM   14  C10 UNL     1      -2.979   1.706  26.260  1.00  0.00     0.290 A 
HETATM   15  O8  UNL     1      -1.986   1.977  26.966  1.00  0.00    -0.265 OA
HETATM   16  N5  UNL     1      -3.135   2.183  24.921  1.00  0.00    -0.154 N 
ATOM     17  H5  UNL     1      -2.422   2.774  24.494  1.00  0.00     0.187 HD
ENDROOT
BRANCH  13  18
HETATM   18  C5  UNL     1      -7.309  -0.834  26.396  1.00  0.00     0.237 C 
HETATM   19  C6  UNL     1      -8.359  -0.695  27.480  1.00  0.00     0.088 C 
HETATM   20  C7  UNL     1      -9.546  -1.247  26.714  1.00  0.00     0.153 C 
HETATM   21  C8  UNL     1      -9.238  -0.745  25.302  1.00  0.00     0.177 C 
HETATM   22  O7  UNL     1      -7.957  -0.251  25.320  1.00  0.00    -0.356 OA
BRANCH  20  23
HETATM   23  O2  UNL     1      -9.482  -2.637  26.755  1.00  0.00    -0.393 OA
ATOM     24  H2  UNL     1     -10.252  -2.956  27.209  1.00  0.00     0.210 HD
ENDBRANCH  20  23
BRANCH  21  25
HETATM   25  C9  UNL     1     -10.285   0.241  24.942  1.00  0.00     0.217 C 
BRANCH  25  26
HETATM   26  O3  UNL     1     -11.053   0.669  26.003  1.00  0.00    -0.280 OA
BRANCH  26  27
HETATM   27  P1  UNL     1     -12.423   1.260  25.672  1.00  0.00     0.422 P 
HETATM   28  O4  UNL     1     -13.168  -0.104  26.231  1.00  0.00    -0.617 OA
HETATM   29  O5  UNL     1     -12.287   2.574  26.593  1.00  0.00    -0.617 OA
HETATM   30  O6  UNL     1     -11.946   1.293  24.062  1.00  0.00    -0.617 OA
ENDBRANCH  26  27
ENDBRANCH  25  26
ENDBRANCH  21  25
ENDBRANCH  13  18
TORSDOF 5
ENDMDL
