MODEL 3
REMARK VINA RESULT: -9.341031939      0.132      1.014
REMARK  5 active torsions:
REMARK  status: ('A' for Active; 'I' for Inactive)
REMARK    1  A    between atoms: N4_13  and  C5_14 
REMARK    2  A    between atoms: C7_16  and  O2_17 
REMARK    3  A    between atoms: C8_19  and  C9_20 
REMARK    4  A    between atoms: C9_20  and  O3_21 
REMARK    5  A    between atoms: O3_21  and  P1_22 
ROOT
HETATM    1  N1  UNL     1      -4.551   2.221  23.159  1.00  0.00    -0.234 N 
ATOM      2  H11 UNL     1      -3.974   2.833  22.581  1.00  0.00     0.174 HD
ATOM      3  H12 UNL     1      -5.496   1.941  22.894  1.00  0.00     0.174 HD
HETATM    4  C1  UNL     1      -4.115   1.746  24.293  1.00  0.00     0.680 A 
HETATM    5  N2  UNL     1      -4.920   0.893  25.099  1.00  0.00    -0.174 N 
ATOM      6  H2  UNL     1      -5.862   0.631  24.808  1.00  0.00     0.186 HD
HETATM    7  C2  UNL     1      -4.426   0.462  26.206  1.00  0.00     0.162 A 
HETATM    8  C3  UNL     1      -3.105   0.782  26.693  1.00  0.00     0.151 A 
HETATM    9  N3  UNL     1      -2.896   0.202  27.827  1.00  0.00    -0.300 N 
ATOM     10  H3  UNL     1      -2.038   0.271  28.376  1.00  0.00     0.171 HD
HETATM   11  C4  UNL     1      -4.037  -0.540  28.186  1.00  0.00     0.331 A 
HETATM   12  O1  UNL     1      -4.125  -1.214  29.247  1.00  0.00    -0.246 OA
HETATM   13  N4  UNL     1      -5.030  -0.395  27.172  1.00  0.00    -0.255 N 
HETATM   14  C10 UNL     1      -2.254   1.652  25.893  1.00  0.00     0.290 A 
HETATM   15  O8  UNL     1      -1.109   1.946  26.293  1.00  0.00    -0.265 OA
HETATM   16  N5  UNL     1      -2.796   2.137  24.662  1.00  0.00    -0.154 N 
ATOM     17  H5  UNL     1      -2.249   2.751  24.059  1.00  0.00     0.187 HD
ENDROOT
BRANCH  13  18
HETATM   18  C5  UNL     1      -6.305  -1.008  27.212  1.00  0.00     0.237 C 
HETATM   19  C6  UNL     1      -7.334  -0.258  28.032  1.00  0.00     0.088 C 
HETATM   20  C7  UNL     1      -8.551  -1.094  27.683  1.00  0.00     0.153 C 
HETATM   21  C8  UNL     1      -8.243  -1.460  26.230  1.00  0.00     0.177 C 
HETATM   22  O7  UNL     1      -6.944  -1.086  25.987  1.00  0.00    -0.356 OA
BRANCH  20  23
HETATM   23  O2  UNL     1      -8.538  -2.235  28.480  1.00  0.00    -0.393 OA
ATOM     24  H2  UNL     1      -9.411  -2.362  28.830  1.00  0.00     0.210 HD
ENDBRANCH  20  23
BRANCH  21  25
HETATM   25  C9  UNL     1      -9.257  -0.793  25.378  1.00  0.00     0.217 C 
BRANCH  25  26
HETATM   26  O3  UNL     1      -9.022   0.547  25.155  1.00  0.00    -0.280 OA
BRANCH  26  27
HETATM   27  P1  UNL     1      -8.999   1.012  23.700  1.00  0.00     0.422 P 
HETATM   28  O4  UNL     1     -10.047   2.238  24.055  1.00  0.00    -0.617 OA
HETATM   29  O5  UNL     1      -7.412   1.270  23.611  1.00  0.00    -0.617 OA
HETATM   30  O6  UNL     1      -9.645  -0.480  23.282  1.00  0.00    -0.617 OA
ENDBRANCH  26  27
ENDBRANCH  25  26
ENDBRANCH  21  25
ENDBRANCH  13  18
TORSDOF 5
ENDMDL
