MODEL 6
REMARK VINA RESULT: -7.549283488      2.987      6.022
REMARK  5 active torsions:
REMARK  status: ('A' for Active; 'I' for Inactive)
REMARK    1  A    between atoms: N4_13  and  C5_14 
REMARK    2  A    between atoms: C7_16  and  O2_17 
REMARK    3  A    between atoms: C8_19  and  C9_20 
REMARK    4  A    between atoms: C9_20  and  O3_21 
REMARK    5  A    between atoms: O3_21  and  P1_22 
ROOT
HETATM    1  N1  UNL     1      -7.950   1.766  22.310  1.00  0.00    -0.234 N 
ATOM      2  H11 UNL     1      -8.382   1.966  21.408  1.00  0.00     0.174 HD
ATOM      3  H12 UNL     1      -7.055   2.163  22.594  1.00  0.00     0.174 HD
HETATM    4  C1  UNL     1      -8.522   0.975  23.177  1.00  0.00     0.680 A 
HETATM    5  N2  UNL     1      -7.919   0.695  24.435  1.00  0.00    -0.174 N 
ATOM      6  H2  UNL     1      -7.021   1.107  24.691  1.00  0.00     0.186 HD
HETATM    7  C2  UNL     1      -8.538  -0.094  25.242  1.00  0.00     0.162 A 
HETATM    8  C3  UNL     1      -9.809  -0.718  24.961  1.00  0.00     0.151 A 
HETATM    9  N3  UNL     1     -10.175  -1.451  25.959  1.00  0.00    -0.300 N 
ATOM     10  H3  UNL     1     -11.036  -1.996  26.006  1.00  0.00     0.171 HD
HETATM   11  C4  UNL     1      -9.199  -1.379  26.971  1.00  0.00     0.331 A 
HETATM   12  O1  UNL     1      -9.284  -1.992  28.067  1.00  0.00    -0.246 OA
HETATM   13  N4  UNL     1      -8.142  -0.520  26.543  1.00  0.00    -0.255 N 
HETATM   14  C10 UNL     1     -10.454  -0.453  23.683  1.00  0.00     0.290 A 
HETATM   15  O8  UNL     1     -11.553  -0.982  23.415  1.00  0.00    -0.265 OA
HETATM   16  N5  UNL     1      -9.772   0.421  22.780  1.00  0.00    -0.154 N 
ATOM     17  H5  UNL     1     -10.174   0.645  21.869  1.00  0.00     0.187 HD
ENDROOT
BRANCH  13  18
HETATM   18  C5  UNL     1      -6.995  -0.223  27.316  1.00  0.00     0.237 C 
HETATM   19  C6  UNL     1      -5.798  -1.104  27.023  1.00  0.00     0.088 C 
HETATM   20  C7  UNL     1      -4.773  -0.379  27.874  1.00  0.00     0.153 C 
HETATM   21  C8  UNL     1      -5.236   1.070  27.711  1.00  0.00     0.177 C 
HETATM   22  O7  UNL     1      -6.461   1.035  27.094  1.00  0.00    -0.356 OA
BRANCH  20  23
HETATM   23  O2  UNL     1      -4.932  -0.790  29.194  1.00  0.00    -0.393 OA
ATOM     24  H2  UNL     1      -4.869  -1.737  29.220  1.00  0.00     0.210 HD
ENDBRANCH  20  23
BRANCH  21  25
HETATM   25  C9  UNL     1      -4.179   1.794  26.965  1.00  0.00     0.217 C 
BRANCH  25  26
HETATM   26  O3  UNL     1      -2.913   1.268  27.116  1.00  0.00    -0.280 OA
BRANCH  26  27
HETATM   27  P1  UNL     1      -2.014   1.267  25.880  1.00  0.00     0.422 P 
HETATM   28  O4  UNL     1      -3.301   1.653  24.920  1.00  0.00    -0.617 OA
HETATM   29  O5  UNL     1      -0.988   2.396  26.394  1.00  0.00    -0.617 OA
HETATM   30  O6  UNL     1      -1.715  -0.358  26.181  1.00  0.00    -0.617 OA
ENDBRANCH  26  27
ENDBRANCH  25  26
ENDBRANCH  21  25
ENDBRANCH  13  18
TORSDOF 5
ENDMDL
