MODEL 14
REMARK VINA RESULT: -7.011959932      3.510      6.114
REMARK  5 active torsions:
REMARK  status: ('A' for Active; 'I' for Inactive)
REMARK    1  A    between atoms: N4_13  and  C5_14 
REMARK    2  A    between atoms: C7_16  and  O2_17 
REMARK    3  A    between atoms: C8_19  and  C9_20 
REMARK    4  A    between atoms: C9_20  and  O3_21 
REMARK    5  A    between atoms: O3_21  and  P1_22 
ROOT
HETATM    1  N1  UNL     1      -7.443   3.776  22.307  1.00  0.00    -0.234 N 
ATOM      2  H11 UNL     1      -7.215   4.409  21.540  1.00  0.00     0.174 HD
ATOM      3  H12 UNL     1      -7.042   3.871  23.240  1.00  0.00     0.174 HD
HETATM    4  C1  UNL     1      -8.279   2.786  22.147  1.00  0.00     0.680 A 
HETATM    5  N2  UNL     1      -8.596   1.903  23.217  1.00  0.00    -0.174 N 
ATOM      6  H2  UNL     1      -8.177   2.023  24.139  1.00  0.00     0.186 HD
HETATM    7  C2  UNL     1      -9.428   0.948  22.988  1.00  0.00     0.162 A 
HETATM    8  C3  UNL     1     -10.066   0.706  21.716  1.00  0.00     0.151 A 
HETATM    9  N3  UNL     1     -10.845  -0.320  21.796  1.00  0.00    -0.300 N 
ATOM     10  H3  UNL     1     -11.408  -0.695  21.033  1.00  0.00     0.171 HD
HETATM   11  C4  UNL     1     -10.794  -0.840  23.104  1.00  0.00     0.331 A 
HETATM   12  O1  UNL     1     -11.452  -1.845  23.481  1.00  0.00    -0.246 OA
HETATM   13  N4  UNL     1      -9.899  -0.052  23.888  1.00  0.00    -0.255 N 
HETATM   14  C10 UNL     1      -9.763   1.590  20.599  1.00  0.00     0.290 A 
HETATM   15  O8  UNL     1     -10.301   1.401  19.488  1.00  0.00    -0.265 OA
HETATM   16  N5  UNL     1      -8.840   2.654  20.844  1.00  0.00    -0.154 N 
ATOM     17  H5  UNL     1      -8.587   3.305  20.102  1.00  0.00     0.187 HD
ENDROOT
BRANCH  13  18
HETATM   18  C5  UNL     1      -9.610  -0.295  25.251  1.00  0.00     0.237 C 
HETATM   19  C6  UNL     1      -8.916  -1.615  25.518  1.00  0.00     0.088 C 
HETATM   20  C7  UNL     1      -8.624  -1.419  26.994  1.00  0.00     0.153 C 
HETATM   21  C8  UNL     1      -8.349   0.085  27.037  1.00  0.00     0.177 C 
HETATM   22  O7  UNL     1      -8.715   0.597  25.817  1.00  0.00    -0.356 OA
BRANCH  20  23
HETATM   23  O2  UNL     1      -9.779  -1.718  27.710  1.00  0.00    -0.393 OA
ATOM     24  H2  UNL     1     -10.137  -0.907  28.049  1.00  0.00     0.210 HD
ENDBRANCH  20  23
BRANCH  21  25
HETATM   25  C9  UNL     1      -6.920   0.267  27.391  1.00  0.00     0.217 C 
BRANCH  25  26
HETATM   26  O3  UNL     1      -6.261   1.209  26.630  1.00  0.00    -0.280 OA
BRANCH  26  27
HETATM   27  P1  UNL     1      -5.093   0.716  25.778  1.00  0.00     0.422 P 
HETATM   28  O4  UNL     1      -4.051   1.694  26.606  1.00  0.00    -0.617 OA
HETATM   29  O5  UNL     1      -5.240  -0.845  26.144  1.00  0.00    -0.617 OA
HETATM   30  O6  UNL     1      -5.882   1.357  24.442  1.00  0.00    -0.617 OA
ENDBRANCH  26  27
ENDBRANCH  25  26
ENDBRANCH  21  25
ENDBRANCH  13  18
TORSDOF 5
ENDMDL
