MODEL 2
REMARK VINA RESULT: -9.377900201      0.072      1.014
REMARK  5 active torsions:
REMARK  status: ('A' for Active; 'I' for Inactive)
REMARK    1  A    between atoms: N4_13  and  C5_14 
REMARK    2  A    between atoms: C7_16  and  O2_17 
REMARK    3  A    between atoms: C8_19  and  C9_20 
REMARK    4  A    between atoms: C9_20  and  O3_21 
REMARK    5  A    between atoms: O3_21  and  P1_22 
ROOT
HETATM    1  N1  UNL     1      -4.617   2.210  23.188  1.00  0.00    -0.234 N 
ATOM      2  H11 UNL     1      -4.056   2.831  22.606  1.00  0.00     0.174 HD
ATOM      3  H12 UNL     1      -5.562   1.919  22.935  1.00  0.00     0.174 HD
HETATM    4  C1  UNL     1      -4.161   1.737  24.316  1.00  0.00     0.680 A 
HETATM    5  N2  UNL     1      -4.945   0.871  25.128  1.00  0.00    -0.174 N 
ATOM      6  H2  UNL     1      -5.887   0.598  24.848  1.00  0.00     0.186 HD
HETATM    7  C2  UNL     1      -4.432   0.442  26.228  1.00  0.00     0.162 A 
HETATM    8  C3  UNL     1      -3.109   0.778  26.699  1.00  0.00     0.151 A 
HETATM    9  N3  UNL     1      -2.878   0.197  27.828  1.00  0.00    -0.300 N 
ATOM     10  H3  UNL     1      -2.015   0.275  28.366  1.00  0.00     0.171 HD
HETATM   11  C4  UNL     1      -4.005  -0.562  28.199  1.00  0.00     0.331 A 
HETATM   12  O1  UNL     1      -4.071  -1.240  29.258  1.00  0.00    -0.246 OA
HETATM   13  N4  UNL     1      -5.013  -0.426  27.198  1.00  0.00    -0.255 N 
HETATM   14  C10 UNL     1      -2.279   1.662  25.892  1.00  0.00     0.290 A 
HETATM   15  O8  UNL     1      -1.133   1.968  26.278  1.00  0.00    -0.265 OA
HETATM   16  N5  UNL     1      -2.842   2.144  24.669  1.00  0.00    -0.154 N 
ATOM     17  H5  UNL     1      -2.311   2.767  24.062  1.00  0.00     0.187 HD
ENDROOT
BRANCH  13  18
HETATM   18  C5  UNL     1      -6.279  -1.055  27.251  1.00  0.00     0.237 C 
HETATM   19  C6  UNL     1      -7.322  -0.294  28.043  1.00  0.00     0.088 C 
HETATM   20  C7  UNL     1      -8.525  -1.158  27.716  1.00  0.00     0.153 C 
HETATM   21  C8  UNL     1      -8.205  -1.565  26.276  1.00  0.00     0.177 C 
HETATM   22  O7  UNL     1      -6.911  -1.180  26.027  1.00  0.00    -0.356 OA
BRANCH  20  23
HETATM   23  O2  UNL     1      -8.500  -2.273  28.547  1.00  0.00    -0.393 OA
ATOM     24  H2  UNL     1      -8.931  -2.990  28.097  1.00  0.00     0.210 HD
ENDBRANCH  20  23
BRANCH  21  25
HETATM   25  C9  UNL     1      -9.225  -0.939  25.399  1.00  0.00     0.217 C 
BRANCH  25  26
HETATM   26  O3  UNL     1      -9.018   0.401  25.151  1.00  0.00    -0.280 OA
BRANCH  26  27
HETATM   27  P1  UNL     1      -9.121   0.859  23.697  1.00  0.00     0.422 P 
HETATM   28  O4  UNL     1      -7.499   1.173  23.662  1.00  0.00    -0.617 OA
HETATM   29  O5  UNL     1      -9.716  -0.517  23.110  1.00  0.00    -0.617 OA
HETATM   30  O6  UNL     1     -10.148   2.079  24.222  1.00  0.00    -0.617 OA
ENDBRANCH  26  27
ENDBRANCH  25  26
ENDBRANCH  21  25
ENDBRANCH  13  18
TORSDOF 5
ENDMDL
