MODEL 1
REMARK VINA RESULT: -9.386802258      0.000      0.000
REMARK  5 active torsions:
REMARK  status: ('A' for Active; 'I' for Inactive)
REMARK    1  A    between atoms: N4_13  and  C5_14 
REMARK    2  A    between atoms: C7_16  and  O2_17 
REMARK    3  A    between atoms: C8_19  and  C9_20 
REMARK    4  A    between atoms: C9_20  and  O3_21 
REMARK    5  A    between atoms: O3_21  and  P1_22 
ROOT
HETATM    1  N1  UNL     1      -4.604   2.190  23.199  1.00  0.00    -0.234 N 
ATOM      2  H11 UNL     1      -4.044   2.811  22.616  1.00  0.00     0.174 HD
ATOM      3  H12 UNL     1      -5.547   1.894  22.946  1.00  0.00     0.174 HD
HETATM    4  C1  UNL     1      -4.147   1.720  24.328  1.00  0.00     0.680 A 
HETATM    5  N2  UNL     1      -4.928   0.854  25.143  1.00  0.00    -0.174 N 
ATOM      6  H2  UNL     1      -5.869   0.577  24.862  1.00  0.00     0.186 HD
HETATM    7  C2  UNL     1      -4.414   0.429  26.243  1.00  0.00     0.162 A 
HETATM    8  C3  UNL     1      -3.093   0.770  26.714  1.00  0.00     0.151 A 
HETATM    9  N3  UNL     1      -2.860   0.193  27.845  1.00  0.00    -0.300 N 
ATOM     10  H3  UNL     1      -1.998   0.275  28.383  1.00  0.00     0.171 HD
HETATM   11  C4  UNL     1      -3.985  -0.569  28.217  1.00  0.00     0.331 A 
HETATM   12  O1  UNL     1      -4.049  -1.244  29.278  1.00  0.00    -0.246 OA
HETATM   13  N4  UNL     1      -4.993  -0.438  27.215  1.00  0.00    -0.255 N 
HETATM   14  C10 UNL     1      -2.266   1.655  25.906  1.00  0.00     0.290 A 
HETATM   15  O8  UNL     1      -1.120   1.966  26.292  1.00  0.00    -0.265 OA
HETATM   16  N5  UNL     1      -2.829   2.132  24.682  1.00  0.00    -0.154 N 
ATOM     17  H5  UNL     1      -2.299   2.756  24.073  1.00  0.00     0.187 HD
ENDROOT
BRANCH  13  18
HETATM   18  C5  UNL     1      -6.257  -1.071  27.270  1.00  0.00     0.237 C 
HETATM   19  C6  UNL     1      -7.310  -0.300  28.038  1.00  0.00     0.088 C 
HETATM   20  C7  UNL     1      -8.507  -1.175  27.716  1.00  0.00     0.153 C 
HETATM   21  C8  UNL     1      -8.173  -1.607  26.287  1.00  0.00     0.177 C 
HETATM   22  O7  UNL     1      -6.878  -1.222  26.042  1.00  0.00    -0.356 OA
BRANCH  20  23
HETATM   23  O2  UNL     1      -8.485  -2.274  28.569  1.00  0.00    -0.393 OA
ATOM     24  H2  UNL     1      -8.419  -3.060  28.039  1.00  0.00     0.210 HD
ENDBRANCH  20  23
BRANCH  21  25
HETATM   25  C9  UNL     1      -9.187  -1.003  25.390  1.00  0.00     0.217 C 
BRANCH  25  26
HETATM   26  O3  UNL     1      -9.068   0.362  25.233  1.00  0.00    -0.280 OA
BRANCH  26  27
HETATM   27  P1  UNL     1      -9.189   0.907  23.811  1.00  0.00     0.422 P 
HETATM   28  O4  UNL     1      -9.785  -0.541  23.286  1.00  0.00    -0.617 OA
HETATM   29  O5  UNL     1     -10.170   2.134  24.164  1.00  0.00    -0.617 OA
HETATM   30  O6  UNL     1      -7.523   1.116  23.820  1.00  0.00    -0.617 OA
ENDBRANCH  26  27
ENDBRANCH  25  26
ENDBRANCH  21  25
ENDBRANCH  13  18
TORSDOF 5
ENDMDL
