MODEL 1
REMARK VINA RESULT: -8.655665538      0.000      0.000
REMARK  10 active torsions:
REMARK  status: ('A' for Active; 'I' for Inactive)
REMARK    1  A    between atoms: N5_13  and  C6_14 
REMARK    2  A    between atoms: C7_16  and  C8_17 
REMARK    3  A    between atoms: C8_17  and  O2_18 
REMARK    4  A    between atoms: O2_18  and  P1_19 
REMARK    5  A    between atoms: P1_19  and  O5_22 
REMARK    6  A    between atoms: O5_22  and  P2_23 
REMARK    7  A    between atoms: P2_23  and  O8_26 
REMARK    8  A    between atoms: O8_26  and  P3_27 
REMARK    9  A    between atoms: C9_31  and  O12_32 
REMARK   10  A    between atoms: C10_34  and  O13_35 
ROOT
HETATM    1  C6  UNL     1      28.277  27.094  23.113  1.00  0.00     0.159 C 
HETATM    2  O1  UNL     1      27.534  25.912  23.270  1.00  0.00    -0.326 OA
HETATM    3  C7  UNL     1      28.088  25.360  24.350  1.00  0.00     0.186 C 
HETATM    4  C9  UNL     1      29.112  26.280  25.029  1.00  0.00     0.186 C 
HETATM    5  C10 UNL     1      28.469  27.595  24.499  1.00  0.00     0.224 C 
ENDROOT
BRANCH   3   6
HETATM    6  C8  UNL     1      27.374  24.694  25.455  1.00  0.00     0.216 C 
BRANCH   6   7
HETATM    7  O2  UNL     1      28.217  24.653  26.593  1.00  0.00    -0.287 OA
BRANCH   7   8
HETATM    8  P1  UNL     1      27.040  24.651  27.881  1.00  0.00     0.417 P 
HETATM    9  O3  UNL     1      27.669  25.067  29.111  1.00  0.00    -0.624 OA
HETATM   10  O4  UNL     1      25.930  25.907  27.289  1.00  0.00    -0.624 OA
BRANCH   8  11
HETATM   11  O5  UNL     1      26.129  23.250  27.901  1.00  0.00    -0.180 OA
BRANCH  11  12
HETATM   12  P2  UNL     1      27.220  21.903  28.013  1.00  0.00     0.428 P 
HETATM   13  O6  UNL     1      26.489  20.843  28.782  1.00  0.00    -0.624 OA
HETATM   14  O7  UNL     1      28.676  22.307  28.707  1.00  0.00    -0.624 OA
BRANCH  12  15
HETATM   15  O8  UNL     1      27.445  21.343  26.410  1.00  0.00    -0.173 OA
BRANCH  15  16
HETATM   16  P3  UNL     1      28.356  19.935  26.432  1.00  0.00     0.431 P 
HETATM   17  O9  UNL     1      29.295  19.865  27.585  1.00  0.00    -0.616 OA
HETATM   18  O10 UNL     1      27.270  18.631  26.526  1.00  0.00    -0.616 OA
HETATM   19  O11 UNL     1      29.220  19.875  24.972  1.00  0.00    -0.616 OA
ENDBRANCH  15  16
ENDBRANCH  12  15
ENDBRANCH  11  12
ENDBRANCH   8  11
ENDBRANCH   7   8
ENDBRANCH   6   7
ENDBRANCH   3   6
BRANCH   4  20
HETATM   20  O12 UNL     1      30.326  26.072  24.459  1.00  0.00    -0.390 OA
ATOM     21  H12 UNL     1      30.740  26.913  24.310  1.00  0.00     0.210 HD
ENDBRANCH   4  20
BRANCH   1  22
HETATM   22  N5  UNL     1      27.953  27.944  22.076  1.00  0.00    -0.273 N 
HETATM   23  C3  UNL     1      28.513  27.970  20.856  1.00  0.00     0.146 A 
HETATM   24  N3  UNL     1      29.592  27.352  20.399  1.00  0.00    -0.336 N 
HETATM   25  C4  UNL     1      27.813  28.778  20.022  1.00  0.00     0.120 A 
HETATM   26  C2  UNL     1      29.970  27.533  19.122  1.00  0.00     0.183 A 
ATOM     27  H3  UNL     1      30.132  26.742  21.012  1.00  0.00     0.168 HD
HETATM   28  N2  UNL     1      29.282  28.322  18.276  1.00  0.00    -0.339 N 
HETATM   29  C1  UNL     1      28.196  28.953  18.717  1.00  0.00     0.148 A 
ATOM     30  H2  UNL     1      29.589  28.434  17.310  1.00  0.00     0.167 HD
HETATM   31  N1  UNL     1      27.400  29.662  17.789  1.00  0.00    -0.080 NA
HETATM   32  N4  UNL     1      26.801  29.279  20.757  1.00  0.00    -0.346 N 
HETATM   33  C5  UNL     1      26.894  28.773  22.001  1.00  0.00     0.192 A 
ATOM     34  H4  UNL     1      26.088  29.928  20.427  1.00  0.00     0.167 HD
ENDBRANCH   1  22
BRANCH   5  35
HETATM   35  O13 UNL     1      29.496  28.509  24.690  1.00  0.00    -0.385 OA
ATOM     36  H13 UNL     1      29.739  29.036  23.937  1.00  0.00     0.210 HD
ENDBRANCH   5  35
TORSDOF 10
ENDMDL
