MODEL 5
REMARK VINA RESULT: -8.477860496      1.715      2.355
REMARK  10 active torsions:
REMARK  status: ('A' for Active; 'I' for Inactive)
REMARK    1  A    between atoms: N5_13  and  C6_14 
REMARK    2  A    between atoms: C7_16  and  C8_17 
REMARK    3  A    between atoms: C8_17  and  O2_18 
REMARK    4  A    between atoms: O2_18  and  P1_19 
REMARK    5  A    between atoms: P1_19  and  O5_22 
REMARK    6  A    between atoms: O5_22  and  P2_23 
REMARK    7  A    between atoms: P2_23  and  O8_26 
REMARK    8  A    between atoms: O8_26  and  P3_27 
REMARK    9  A    between atoms: C9_31  and  O12_32 
REMARK   10  A    between atoms: C10_34  and  O13_35 
ROOT
HETATM    1  C6  UNL     1      27.908  28.084  23.932  1.00  0.00     0.159 C 
HETATM    2  O1  UNL     1      27.509  27.778  25.245  1.00  0.00    -0.326 OA
HETATM    3  C7  UNL     1      27.604  26.448  25.277  1.00  0.00     0.186 C 
HETATM    4  C9  UNL     1      28.246  25.868  24.009  1.00  0.00     0.186 C 
HETATM    5  C10 UNL     1      29.043  27.161  23.669  1.00  0.00     0.224 C 
ENDROOT
BRANCH   3   6
HETATM    6  C8  UNL     1      28.138  25.637  26.387  1.00  0.00     0.216 C 
BRANCH   6   7
HETATM    7  O2  UNL     1      27.496  24.373  26.386  1.00  0.00    -0.287 OA
BRANCH   7   8
HETATM    8  P1  UNL     1      26.706  24.399  27.942  1.00  0.00     0.417 P 
HETATM    9  O3  UNL     1      27.573  25.022  28.913  1.00  0.00    -0.624 OA
HETATM   10  O4  UNL     1      25.322  25.450  27.570  1.00  0.00    -0.624 OA
BRANCH   8  11
HETATM   11  O5  UNL     1      26.029  22.921  28.330  1.00  0.00    -0.180 OA
BRANCH  11  12
HETATM   12  P2  UNL     1      27.270  21.712  28.199  1.00  0.00     0.428 P 
HETATM   13  O6  UNL     1      26.795  20.545  29.012  1.00  0.00    -0.624 OA
HETATM   14  O7  UNL     1      28.762  22.262  28.684  1.00  0.00    -0.624 OA
BRANCH  12  15
HETATM   15  O8  UNL     1      27.300  21.242  26.553  1.00  0.00    -0.173 OA
BRANCH  15  16
HETATM   16  P3  UNL     1      28.290  19.901  26.372  1.00  0.00     0.431 P 
HETATM   17  O9  UNL     1      29.305  19.773  27.454  1.00  0.00    -0.616 OA
HETATM   18  O10 UNL     1      27.290  18.527  26.390  1.00  0.00    -0.616 OA
HETATM   19  O11 UNL     1      29.060  20.047  24.866  1.00  0.00    -0.616 OA
ENDBRANCH  15  16
ENDBRANCH  12  15
ENDBRANCH  11  12
ENDBRANCH   8  11
ENDBRANCH   7   8
ENDBRANCH   6   7
ENDBRANCH   3   6
BRANCH   4  20
HETATM   20  O12 UNL     1      27.269  25.646  23.092  1.00  0.00    -0.390 OA
ATOM     21  H12 UNL     1      27.351  26.292  22.401  1.00  0.00     0.210 HD
ENDBRANCH   4  20
BRANCH   1  22
HETATM   22  N5  UNL     1      27.949  29.407  23.547  1.00  0.00    -0.273 N 
HETATM   23  C3  UNL     1      27.617  29.902  22.343  1.00  0.00     0.146 A 
HETATM   24  N3  UNL     1      27.354  29.275  21.207  1.00  0.00    -0.336 N 
HETATM   25  C4  UNL     1      27.569  31.256  22.376  1.00  0.00     0.120 A 
HETATM   26  C2  UNL     1      27.043  29.990  20.112  1.00  0.00     0.183 A 
ATOM     27  H3  UNL     1      27.387  28.257  21.162  1.00  0.00     0.168 HD
HETATM   28  N2  UNL     1      26.979  31.334  20.127  1.00  0.00    -0.339 N 
HETATM   29  C1  UNL     1      27.242  31.983  21.260  1.00  0.00     0.148 A 
ATOM     30  H2  UNL     1      26.733  31.849  19.282  1.00  0.00     0.167 HD
HETATM   31  N1  UNL     1      27.033  33.379  21.305  1.00  0.00    -0.080 NA
HETATM   32  N4  UNL     1      27.899  31.607  23.634  1.00  0.00    -0.346 N 
HETATM   33  C5  UNL     1      28.132  30.483  24.337  1.00  0.00     0.192 A 
ATOM     34  H4  UNL     1      27.961  32.560  23.993  1.00  0.00     0.167 HD
ENDBRANCH   1  22
BRANCH   5  35
HETATM   35  O13 UNL     1      29.371  26.949  22.336  1.00  0.00    -0.385 OA
ATOM     36  H13 UNL     1      30.152  27.386  22.018  1.00  0.00     0.210 HD
ENDBRANCH   5  35
TORSDOF 10
ENDMDL
