MODEL 9
REMARK VINA RESULT: -6.282698244      3.512      6.841
REMARK  5 active torsions:
REMARK  status: ('A' for Active; 'I' for Inactive)
REMARK    1  A    between atoms: C2_2  and  N1_3 
REMARK    2  A    between atoms: C2_2  and  C11_21 
REMARK    3  A    between atoms: C3_5  and  C4_6 
REMARK    4  A    between atoms: C6_8  and  N2_9 
REMARK       I    between atoms: N2_9  and  C7_11 
REMARK    5  A    between atoms: C10_18  and  O1_19 
ROOT
HETATM    1  C4  UNL     1      -2.963  15.963  16.601  1.00  0.00     0.014 A 
HETATM    2  C5  UNL     1      -3.124  16.581  17.821  1.00  0.00     0.045 A 
HETATM    3  C6  UNL     1      -3.000  17.970  17.971  1.00  0.00     0.035 A 
HETATM    4  C8  UNL     1      -2.709  18.664  16.825  1.00  0.00     0.032 A 
HETATM    5  C9  UNL     1      -2.546  18.044  15.587  1.00  0.00     0.039 A 
HETATM    6  C10 UNL     1      -2.671  16.693  15.467  1.00  0.00     0.077 A 
ENDROOT
BRANCH   1   7
HETATM    7  C3  UNL     1      -3.102  14.501  16.487  1.00  0.00     0.098 C 
HETATM    8  N1  UNL     1      -2.143  13.740  16.154  1.00  0.00    -0.384 N 
ATOM      9  H1  UNL     1      -1.249  14.192  15.963  1.00  0.00     0.159 HD
BRANCH   8  10
HETATM   10  C2  UNL     1      -2.183  12.322  16.020  1.00  0.00     0.178 C 
HETATM   11  C1  UNL     1      -2.288  11.854  14.588  1.00  0.00     0.043 C 
BRANCH  10  12
HETATM   12  C11 UNL     1      -0.972  11.734  16.644  1.00  0.00     0.196 C 
HETATM   13  O2  UNL     1      -0.471  10.641  16.264  1.00  0.00    -0.646 OA
HETATM   14  O3  UNL     1      -0.339  12.382  17.690  1.00  0.00    -0.646 OA
ENDBRANCH  10  12
ENDBRANCH   8  10
ENDBRANCH   1   7
BRANCH   6  15
HETATM   15  O1  UNL     1      -2.519  16.016  14.255  1.00  0.00    -0.360 OA
ATOM     16  H1  UNL     1      -1.686  15.601  14.066  1.00  0.00     0.217 HD
ENDBRANCH   6  15
BRANCH   3  17
HETATM   17  N2  UNL     1      -3.154  18.582  19.234  1.00  0.00    -0.331 N 
HETATM   18  C7  UNL     1      -2.158  18.534  20.222  1.00  0.00     0.186 C 
HETATM   19  N3  UNL     1      -2.449  18.232  21.595  1.00  0.00    -0.064 NA
HETATM   20  N4  UNL     1      -0.946  18.786  19.867  1.00  0.00    -0.373 N 
ATOM     21  H42 UNL     1      -0.740  19.001  18.891  1.00  0.00     0.158 HD
ATOM     22  H41 UNL     1      -0.222  18.751  20.585  1.00  0.00     0.158 HD
ATOM     23  H2  UNL     1      -4.022  19.078  19.437  1.00  0.00     0.168 HD
ENDBRANCH   3  17
TORSDOF 5
ENDMDL
