MODEL 10
REMARK VINA RESULT: -6.254933636      4.133      6.253
REMARK  5 active torsions:
REMARK  status: ('A' for Active; 'I' for Inactive)
REMARK    1  A    between atoms: C2_2  and  N1_3 
REMARK    2  A    between atoms: C2_2  and  C11_21 
REMARK    3  A    between atoms: C3_5  and  C4_6 
REMARK    4  A    between atoms: C6_8  and  N2_9 
REMARK       I    between atoms: N2_9  and  C7_11 
REMARK    5  A    between atoms: C10_18  and  O1_19 
ROOT
HETATM    1  C4  UNL     1      -3.047  16.052  17.398  1.00  0.00     0.014 A 
HETATM    2  C5  UNL     1      -4.036  16.900  16.951  1.00  0.00     0.045 A 
HETATM    3  C6  UNL     1      -4.402  18.052  17.662  1.00  0.00     0.035 A 
HETATM    4  C8  UNL     1      -3.710  18.272  18.825  1.00  0.00     0.032 A 
HETATM    5  C9  UNL     1      -2.708  17.418  19.281  1.00  0.00     0.039 A 
HETATM    6  C10 UNL     1      -2.370  16.305  18.572  1.00  0.00     0.077 A 
ENDROOT
BRANCH   1   7
HETATM    7  C3  UNL     1      -2.693  14.852  16.619  1.00  0.00     0.098 C 
HETATM    8  N1  UNL     1      -2.679  13.686  17.118  1.00  0.00    -0.384 N 
ATOM      9  H1  UNL     1      -2.928  13.608  18.104  1.00  0.00     0.159 HD
BRANCH   8  10
HETATM   10  C2  UNL     1      -2.353  12.472  16.445  1.00  0.00     0.178 C 
HETATM   11  C1  UNL     1      -2.328  12.603  14.941  1.00  0.00     0.043 C 
BRANCH  10  12
HETATM   12  C11 UNL     1      -1.034  11.986  16.921  1.00  0.00     0.196 C 
HETATM   13  O2  UNL     1      -0.498  10.931  16.484  1.00  0.00    -0.646 OA
HETATM   14  O3  UNL     1      -0.333  12.691  17.882  1.00  0.00    -0.646 OA
ENDBRANCH  10  12
ENDBRANCH   8  10
ENDBRANCH   1   7
BRANCH   6  15
HETATM   15  O1  UNL     1      -1.376  15.412  18.978  1.00  0.00    -0.360 OA
ATOM     16  H1  UNL     1      -1.621  14.672  19.521  1.00  0.00     0.217 HD
ENDBRANCH   6  15
BRANCH   3  17
HETATM   17  N2  UNL     1      -5.429  18.901  17.195  1.00  0.00    -0.331 N 
HETATM   18  C7  UNL     1      -6.760  18.473  17.067  1.00  0.00     0.186 C 
HETATM   19  N3  UNL     1      -7.550  18.753  15.902  1.00  0.00    -0.064 NA
HETATM   20  N4  UNL     1      -7.279  17.820  18.048  1.00  0.00    -0.373 N 
ATOM     21  H42 UNL     1      -6.717  17.621  18.876  1.00  0.00     0.158 HD
ATOM     22  H41 UNL     1      -8.246  17.509  17.955  1.00  0.00     0.158 HD
ATOM     23  H2  UNL     1      -5.196  19.860  16.940  1.00  0.00     0.168 HD
ENDBRANCH   3  17
TORSDOF 5
ENDMDL
