MODEL 5
REMARK VINA RESULT: -6.656450055      1.583      1.865
REMARK  5 active torsions:
REMARK  status: ('A' for Active; 'I' for Inactive)
REMARK    1  A    between atoms: C2_2  and  N1_3 
REMARK    2  A    between atoms: C2_2  and  C11_21 
REMARK    3  A    between atoms: C3_5  and  C4_6 
REMARK    4  A    between atoms: C6_8  and  N2_9 
REMARK       I    between atoms: N2_9  and  C7_11 
REMARK    5  A    between atoms: C10_18  and  O1_19 
ROOT
HETATM    1  C4  UNL     1      -0.924  15.078  17.551  1.00  0.00     0.014 A 
HETATM    2  C5  UNL     1      -1.585  14.834  16.368  1.00  0.00     0.045 A 
HETATM    3  C6  UNL     1      -1.959  13.540  15.981  1.00  0.00     0.035 A 
HETATM    4  C8  UNL     1      -1.623  12.541  16.858  1.00  0.00     0.032 A 
HETATM    5  C9  UNL     1      -0.955  12.782  18.058  1.00  0.00     0.039 A 
HETATM    6  C10 UNL     1      -0.602  14.049  18.411  1.00  0.00     0.077 A 
ENDROOT
BRANCH   1   7
HETATM    7  C3  UNL     1      -0.549  16.455  17.920  1.00  0.00     0.098 C 
HETATM    8  N1  UNL     1      -1.271  17.192  18.657  1.00  0.00    -0.384 N 
ATOM      9  H1  UNL     1      -2.144  16.786  18.994  1.00  0.00     0.159 HD
BRANCH   8  10
HETATM   10  C2  UNL     1      -0.991  18.529  19.066  1.00  0.00     0.178 C 
HETATM   11  C1  UNL     1      -1.766  19.571  18.295  1.00  0.00     0.043 C 
BRANCH  10  12
HETATM   12  C11 UNL     1      -1.279  18.671  20.515  1.00  0.00     0.196 C 
HETATM   13  O2  UNL     1      -0.402  18.497  21.404  1.00  0.00    -0.646 OA
HETATM   14  O3  UNL     1      -2.549  19.006  20.946  1.00  0.00    -0.646 OA
ENDBRANCH  10  12
ENDBRANCH   8  10
ENDBRANCH   1   7
BRANCH   6  15
HETATM   15  O1  UNL     1       0.067  14.353  19.599  1.00  0.00    -0.360 OA
ATOM     16  H1  UNL     1       0.947  14.018  19.725  1.00  0.00     0.217 HD
ENDBRANCH   6  15
BRANCH   3  17
HETATM   17  N2  UNL     1      -2.623  13.309  14.756  1.00  0.00    -0.331 N 
HETATM   18  C7  UNL     1      -2.440  12.134  14.009  1.00  0.00     0.186 C 
HETATM   19  N3  UNL     1      -2.228  12.150  12.590  1.00  0.00    -0.064 NA
HETATM   20  N4  UNL     1      -2.482  11.010  14.636  1.00  0.00    -0.373 N 
ATOM     21  H42 UNL     1      -2.633  11.000  15.645  1.00  0.00     0.158 HD
ATOM     22  H41 UNL     1      -2.349  10.157  14.093  1.00  0.00     0.158 HD
ATOM     23  H2  UNL     1      -3.259  14.022  14.400  1.00  0.00     0.168 HD
ENDBRANCH   3  17
TORSDOF 5
ENDMDL
