MODEL 8
REMARK VINA RESULT: -6.309985367      3.177      6.076
REMARK  5 active torsions:
REMARK  status: ('A' for Active; 'I' for Inactive)
REMARK    1  A    between atoms: C2_2  and  N1_3 
REMARK    2  A    between atoms: C2_2  and  C11_21 
REMARK    3  A    between atoms: C3_5  and  C4_6 
REMARK    4  A    between atoms: C6_8  and  N2_9 
REMARK       I    between atoms: N2_9  and  C7_11 
REMARK    5  A    between atoms: C10_18  and  O1_19 
ROOT
HETATM    1  C4  UNL     1      -0.644  15.899  16.719  1.00  0.00     0.014 A 
HETATM    2  C5  UNL     1      -0.921  16.763  15.683  1.00  0.00     0.045 A 
HETATM    3  C6  UNL     1      -0.278  18.003  15.559  1.00  0.00     0.035 A 
HETATM    4  C8  UNL     1       0.639  18.292  16.537  1.00  0.00     0.032 A 
HETATM    5  C9  UNL     1       0.924  17.421  17.587  1.00  0.00     0.039 A 
HETATM    6  C10 UNL     1       0.286  16.222  17.685  1.00  0.00     0.077 A 
ENDROOT
BRANCH   1   7
HETATM    7  C3  UNL     1      -1.342  14.604  16.810  1.00  0.00     0.098 C 
HETATM    8  N1  UNL     1      -1.751  13.968  15.792  1.00  0.00    -0.384 N 
ATOM      9  H1  UNL     1      -1.574  14.397  14.884  1.00  0.00     0.159 HD
BRANCH   8  10
HETATM   10  C2  UNL     1      -2.431  12.715  15.783  1.00  0.00     0.178 C 
HETATM   11  C1  UNL     1      -2.508  12.079  14.416  1.00  0.00     0.043 C 
BRANCH  10  12
HETATM   12  C11 UNL     1      -1.760  11.784  16.724  1.00  0.00     0.196 C 
HETATM   13  O2  UNL     1      -0.671  11.208  16.452  1.00  0.00    -0.646 OA
HETATM   14  O3  UNL     1      -2.321  11.510  17.958  1.00  0.00    -0.646 OA
ENDBRANCH  10  12
ENDBRANCH   8  10
ENDBRANCH   1   7
BRANCH   6  15
HETATM   15  O1  UNL     1       0.529  15.309  18.713  1.00  0.00    -0.360 OA
ATOM     16  H1  UNL     1      -0.091  14.602  18.852  1.00  0.00     0.217 HD
ENDBRANCH   6  15
BRANCH   3  17
HETATM   17  N2  UNL     1      -0.587  18.881  14.497  1.00  0.00    -0.331 N 
HETATM   18  C7  UNL     1      -1.888  19.358  14.268  1.00  0.00     0.186 C 
HETATM   19  N3  UNL     1      -2.479  19.384  12.961  1.00  0.00    -0.064 NA
HETATM   20  N4  UNL     1      -2.554  19.798  15.278  1.00  0.00    -0.373 N 
ATOM     21  H42 UNL     1      -2.133  19.780  16.208  1.00  0.00     0.158 HD
ATOM     22  H41 UNL     1      -3.499  20.145  15.112  1.00  0.00     0.158 HD
ATOM     23  H2  UNL     1       0.162  19.180  13.873  1.00  0.00     0.168 HD
ENDBRANCH   3  17
TORSDOF 5
ENDMDL
