MODEL 7
REMARK VINA RESULT: -6.349122296      2.440      2.700
REMARK  5 active torsions:
REMARK  status: ('A' for Active; 'I' for Inactive)
REMARK    1  A    between atoms: C2_2  and  N1_3 
REMARK    2  A    between atoms: C2_2  and  C11_21 
REMARK    3  A    between atoms: C3_5  and  C4_6 
REMARK    4  A    between atoms: C6_8  and  N2_9 
REMARK       I    between atoms: N2_9  and  C7_11 
REMARK    5  A    between atoms: C10_18  and  O1_19 
ROOT
HETATM    1  C4  UNL     1      -2.506  15.018  17.848  1.00  0.00     0.014 A 
HETATM    2  C5  UNL     1      -3.013  14.513  16.671  1.00  0.00     0.045 A 
HETATM    3  C6  UNL     1      -2.652  13.246  16.192  1.00  0.00     0.035 A 
HETATM    4  C8  UNL     1      -1.764  12.550  16.972  1.00  0.00     0.032 A 
HETATM    5  C9  UNL     1      -1.249  13.056  18.164  1.00  0.00     0.039 A 
HETATM    6  C10 UNL     1      -1.615  14.291  18.609  1.00  0.00     0.077 A 
ENDROOT
BRANCH   1   7
HETATM    7  C3  UNL     1      -2.912  16.355  18.316  1.00  0.00     0.098 C 
HETATM    8  N1  UNL     1      -2.079  17.252  18.649  1.00  0.00    -0.384 N 
ATOM      9  H1  UNL     1      -1.092  17.006  18.580  1.00  0.00     0.159 HD
BRANCH   8  10
HETATM   10  C2  UNL     1      -2.377  18.567  19.110  1.00  0.00     0.178 C 
HETATM   11  C1  UNL     1      -3.791  19.006  18.810  1.00  0.00     0.043 C 
BRANCH  10  12
HETATM   12  C11 UNL     1      -2.136  18.642  20.572  1.00  0.00     0.196 C 
HETATM   13  O2  UNL     1      -2.501  19.625  21.274  1.00  0.00    -0.646 OA
HETATM   14  O3  UNL     1      -1.487  17.613  21.228  1.00  0.00    -0.646 OA
ENDBRANCH  10  12
ENDBRANCH   8  10
ENDBRANCH   1   7
BRANCH   6  15
HETATM   15  O1  UNL     1      -1.133  14.851  19.794  1.00  0.00    -0.360 OA
ATOM     16  H1  UNL     1      -1.405  15.730  20.027  1.00  0.00     0.217 HD
ENDBRANCH   6  15
BRANCH   3  17
HETATM   17  N2  UNL     1      -3.172  12.752  14.975  1.00  0.00    -0.331 N 
HETATM   18  C7  UNL     1      -2.427  11.928  14.117  1.00  0.00     0.186 C 
HETATM   19  N3  UNL     1      -2.376  12.141  12.698  1.00  0.00    -0.064 NA
HETATM   20  N4  UNL     1      -1.784  10.942  14.637  1.00  0.00    -0.373 N 
ATOM     21  H42 UNL     1      -1.821  10.790  15.646  1.00  0.00     0.158 HD
ATOM     22  H41 UNL     1      -1.243  10.343  14.013  1.00  0.00     0.158 HD
ATOM     23  H2  UNL     1      -4.124  13.003  14.710  1.00  0.00     0.168 HD
ENDBRANCH   3  17
TORSDOF 5
ENDMDL
