MODEL 3
REMARK VINA RESULT: -7.163197454      2.224      2.633
REMARK  5 active torsions:
REMARK  status: ('A' for Active; 'I' for Inactive)
REMARK    1  A    between atoms: C2_2  and  N1_3 
REMARK    2  A    between atoms: C2_2  and  C11_21 
REMARK    3  A    between atoms: C3_5  and  C4_6 
REMARK    4  A    between atoms: C6_8  and  N2_9 
REMARK       I    between atoms: N2_9  and  C7_11 
REMARK    5  A    between atoms: C10_18  and  O1_19 
ROOT
HETATM    1  C4  UNL     1      -1.240  14.978  17.777  1.00  0.00     0.014 A 
HETATM    2  C5  UNL     1      -1.892  14.756  16.584  1.00  0.00     0.045 A 
HETATM    3  C6  UNL     1      -1.954  13.483  15.999  1.00  0.00     0.035 A 
HETATM    4  C8  UNL     1      -1.326  12.483  16.694  1.00  0.00     0.032 A 
HETATM    5  C9  UNL     1      -0.665  12.701  17.902  1.00  0.00     0.039 A 
HETATM    6  C10 UNL     1      -0.619  13.947  18.450  1.00  0.00     0.077 A 
ENDROOT
BRANCH   1   7
HETATM    7  C3  UNL     1      -1.199  16.332  18.358  1.00  0.00     0.098 C 
HETATM    8  N1  UNL     1      -1.967  16.704  19.296  1.00  0.00    -0.384 N 
ATOM      9  H1  UNL     1      -2.632  16.012  19.642  1.00  0.00     0.159 HD
BRANCH   8  10
HETATM   10  C2  UNL     1      -1.998  17.986  19.918  1.00  0.00     0.178 C 
HETATM   11  C1  UNL     1      -3.152  18.848  19.467  1.00  0.00     0.043 C 
BRANCH  10  12
HETATM   12  C11 UNL     1      -2.055  17.816  21.391  1.00  0.00     0.196 C 
HETATM   13  O2  UNL     1      -2.423  18.738  22.170  1.00  0.00    -0.646 OA
HETATM   14  O3  UNL     1      -1.695  16.614  21.972  1.00  0.00    -0.646 OA
ENDBRANCH  10  12
ENDBRANCH   8  10
ENDBRANCH   1   7
BRANCH   6  15
HETATM   15  O1  UNL     1       0.027  14.228  19.657  1.00  0.00    -0.360 OA
ATOM     16  H1  UNL     1       0.970  14.125  19.704  1.00  0.00     0.217 HD
ENDBRANCH   6  15
BRANCH   3  17
HETATM   17  N2  UNL     1      -2.615  13.280  14.768  1.00  0.00    -0.331 N 
HETATM   18  C7  UNL     1      -2.449  12.111  14.007  1.00  0.00     0.186 C 
HETATM   19  N3  UNL     1      -2.227  12.140  12.590  1.00  0.00    -0.064 NA
HETATM   20  N4  UNL     1      -2.515  10.981  14.620  1.00  0.00    -0.373 N 
ATOM     21  H42 UNL     1      -2.672  10.960  15.628  1.00  0.00     0.158 HD
ATOM     22  H41 UNL     1      -2.394  10.131  14.068  1.00  0.00     0.158 HD
ATOM     23  H2  UNL     1      -3.236  14.009  14.417  1.00  0.00     0.168 HD
ENDBRANCH   3  17
TORSDOF 5
ENDMDL
