MODEL 2
REMARK VINA RESULT: -7.392718790      2.037      2.456
REMARK  10 active torsions:
REMARK  status: ('A' for Active; 'I' for Inactive)
REMARK       I    between atoms: C1_2  and  N3_6 
REMARK    1  A    between atoms: N3_6  and  C2_8 
REMARK    2  A    between atoms: C5_11  and  O1_12 
REMARK    3  A    between atoms: C6_14  and  C7_15 
REMARK    4  A    between atoms: C7_15  and  N4_16 
REMARK    5  A    between atoms: N4_16  and  C8_17 
REMARK    6  A    between atoms: C8_17  and  C9_18 
REMARK    7  A    between atoms: N5_19  and  C10_21 
REMARK    8  A    between atoms: C10_21  and  C11_22 
REMARK    9  A    between atoms: C13_24  and  N6_25 
REMARK   10  A    between atoms: C17_32  and  O2_33 
ROOT
HETATM    1  C8  UNL     1       2.420  18.727  19.422  1.00  0.00     0.261 C 
ENDROOT
BRANCH   1   2
HETATM    2  N4  UNL     1       1.279  18.374  18.812  1.00  0.00    -0.455 NA
BRANCH   2   3
HETATM    3  C7  UNL     1       0.206  18.132  18.386  1.00  0.00     0.189 C 
BRANCH   3   4
HETATM    4  C6  UNL     1      -0.461  16.831  18.160  1.00  0.00     0.027 A 
HETATM    5  C5  UNL     1      -0.384  15.772  19.020  1.00  0.00     0.078 A 
HETATM    6  C4  UNL     1      -0.938  14.515  18.763  1.00  0.00     0.040 A 
HETATM    7  C3  UNL     1      -1.606  14.330  17.579  1.00  0.00     0.032 A 
HETATM    8  C2  UNL     1      -1.716  15.398  16.660  1.00  0.00     0.035 A 
HETATM    9  C18 UNL     1      -1.158  16.577  16.977  1.00  0.00     0.046 A 
BRANCH   5  10
HETATM   10  O1  UNL     1       0.312  15.974  20.237  1.00  0.00    -0.360 OA
ATOM     11  H1  UNL     1       0.006  15.528  21.018  1.00  0.00     0.217 HD
ENDBRANCH   5  10
BRANCH   8  12
HETATM   12  N3  UNL     1      -2.393  15.008  15.481  1.00  0.00    -0.331 N 
HETATM   13  C1  UNL     1      -2.018  13.999  14.584  1.00  0.00     0.186 C 
HETATM   14  N1  UNL     1      -2.376  14.135  13.169  1.00  0.00    -0.064 NA
HETATM   15  N2  UNL     1      -1.345  13.009  14.913  1.00  0.00    -0.373 N 
ATOM     16  H22 UNL     1      -1.071  12.274  14.260  1.00  0.00     0.158 HD
ATOM     17  H21 UNL     1      -1.095  12.914  15.897  1.00  0.00     0.158 HD
ATOM     18  H3  UNL     1      -3.249  15.518  15.259  1.00  0.00     0.168 HD
ENDBRANCH   8  12
ENDBRANCH   3   4
ENDBRANCH   2   3
ENDBRANCH   1   2
BRANCH   1  19
HETATM   19  C9  UNL     1       2.684  20.192  18.944  1.00  0.00     0.093 C 
HETATM   20  N5  UNL     1       2.552  20.517  17.791  1.00  0.00    -0.375 N 
ATOM     21  H5  UNL     1       2.287  19.719  17.214  1.00  0.00     0.164 HD
BRANCH  20  22
HETATM   22  C10 UNL     1       2.661  21.680  17.023  1.00  0.00     0.101 C 
BRANCH  22  23
HETATM   23  C11 UNL     1       3.330  21.335  15.768  1.00  0.00     0.015 A 
HETATM   24  C12 UNL     1       4.664  21.474  15.521  1.00  0.00     0.045 A 
HETATM   25  C13 UNL     1       5.151  21.381  14.250  1.00  0.00     0.035 A 
HETATM   26  C15 UNL     1       4.290  21.139  13.181  1.00  0.00     0.032 A 
HETATM   27  C16 UNL     1       2.953  20.992  13.387  1.00  0.00     0.039 A 
HETATM   28  C17 UNL     1       2.483  21.093  14.671  1.00  0.00     0.077 A 
BRANCH  25  29
HETATM   29  N6  UNL     1       6.518  21.647  13.838  1.00  0.00    -0.333 N 
HETATM   30  C14 UNL     1       7.139  21.097  13.019  1.00  0.00     0.201 C 
HETATM   31  N7  UNL     1       7.861  20.435  12.047  1.00  0.00    -0.066 NA
HETATM   32  N8  UNL     1       6.920  19.566  13.885  1.00  0.00    -0.066 NA
ATOM     33  H6  UNL     1       6.993  22.408  14.324  1.00  0.00     0.168 HD
ENDBRANCH  25  29
BRANCH  28  34
HETATM   34  O2  UNL     1       1.148  20.955  14.930  1.00  0.00    -0.360 OA
ATOM     35  H2  UNL     1       0.556  21.562  14.501  1.00  0.00     0.217 HD
ENDBRANCH  28  34
ENDBRANCH  22  23
ENDBRANCH  20  22
ENDBRANCH   1  19
TORSDOF 10
ENDMDL
