MODEL 1
REMARK VINA RESULT: -7.757895139      0.000      0.000
REMARK  10 active torsions:
REMARK  status: ('A' for Active; 'I' for Inactive)
REMARK       I    between atoms: C1_2  and  N3_6 
REMARK    1  A    between atoms: N3_6  and  C2_8 
REMARK    2  A    between atoms: C5_11  and  O1_12 
REMARK    3  A    between atoms: C6_14  and  C7_15 
REMARK    4  A    between atoms: C7_15  and  N4_16 
REMARK    5  A    between atoms: N4_16  and  C8_17 
REMARK    6  A    between atoms: C8_17  and  C9_18 
REMARK    7  A    between atoms: N5_19  and  C10_21 
REMARK    8  A    between atoms: C10_21  and  C11_22 
REMARK    9  A    between atoms: C13_24  and  N6_25 
REMARK   10  A    between atoms: C17_32  and  O2_33 
ROOT
HETATM    1  C8  UNL     1       2.590  18.951  19.461  1.00  0.00     0.261 C 
ENDROOT
BRANCH   1   2
HETATM    2  N4  UNL     1       1.458  18.485  18.914  1.00  0.00    -0.455 NA
BRANCH   2   3
HETATM    3  C7  UNL     1       0.424  18.217  18.415  1.00  0.00     0.189 C 
BRANCH   3   4
HETATM    4  C6  UNL     1      -0.294  16.925  18.340  1.00  0.00     0.027 A 
HETATM    5  C5  UNL     1      -0.229  15.956  19.301  1.00  0.00     0.078 A 
HETATM    6  C4  UNL     1      -0.834  14.701  19.187  1.00  0.00     0.040 A 
HETATM    7  C3  UNL     1      -1.541  14.423  18.045  1.00  0.00     0.032 A 
HETATM    8  C2  UNL     1      -1.641  15.396  17.026  1.00  0.00     0.035 A 
HETATM    9  C18 UNL     1      -1.033  16.580  17.207  1.00  0.00     0.046 A 
BRANCH   5  10
HETATM   10  O1  UNL     1       0.508  16.254  20.473  1.00  0.00    -0.360 OA
ATOM     11  H1  UNL     1       0.143  16.013  21.316  1.00  0.00     0.217 HD
ENDBRANCH   5  10
BRANCH   8  12
HETATM   12  N3  UNL     1      -2.365  14.915  15.909  1.00  0.00    -0.331 N 
HETATM   13  C1  UNL     1      -1.936  13.972  14.965  1.00  0.00     0.186 C 
HETATM   14  N1  UNL     1      -2.444  14.058  13.593  1.00  0.00    -0.064 NA
HETATM   15  N2  UNL     1      -1.098  13.090  15.214  1.00  0.00    -0.373 N 
ATOM     16  H22 UNL     1      -0.785  12.404  14.526  1.00  0.00     0.158 HD
ATOM     17  H21 UNL     1      -0.745  13.030  16.168  1.00  0.00     0.158 HD
ATOM     18  H3  UNL     1      -3.302  15.295  15.778  1.00  0.00     0.168 HD
ENDBRANCH   8  12
ENDBRANCH   3   4
ENDBRANCH   2   3
ENDBRANCH   1   2
BRANCH   1  19
HETATM   19  C9  UNL     1       2.600  20.474  19.107  1.00  0.00     0.093 C 
HETATM   20  N5  UNL     1       3.226  20.904  18.171  1.00  0.00    -0.375 N 
ATOM     21  H5  UNL     1       3.739  20.159  17.700  1.00  0.00     0.164 HD
BRANCH  20  22
HETATM   22  C10 UNL     1       3.446  22.137  17.551  1.00  0.00     0.101 C 
BRANCH  22  23
HETATM   23  C11 UNL     1       3.721  21.890  16.134  1.00  0.00     0.015 A 
HETATM   24  C12 UNL     1       2.781  21.633  15.181  1.00  0.00     0.045 A 
HETATM   25  C13 UNL     1       3.144  21.156  13.955  1.00  0.00     0.035 A 
HETATM   26  C15 UNL     1       4.486  20.928  13.656  1.00  0.00     0.032 A 
HETATM   27  C16 UNL     1       5.454  21.175  14.580  1.00  0.00     0.039 A 
HETATM   28  C17 UNL     1       5.068  21.650  15.807  1.00  0.00     0.077 A 
BRANCH  25  29
HETATM   29  N6  UNL     1       2.239  20.712  12.910  1.00  0.00    -0.333 N 
HETATM   30  C14 UNL     1       2.311  20.918  11.765  1.00  0.00     0.201 C 
HETATM   31  N7  UNL     1       2.410  21.172  10.412  1.00  0.00    -0.066 NA
HETATM   32  N8  UNL     1       2.266  22.662  12.079  1.00  0.00    -0.066 NA
ATOM     33  H6  UNL     1       1.444  20.150  13.214  1.00  0.00     0.168 HD
ENDBRANCH  25  29
BRANCH  28  34
HETATM   34  O2  UNL     1       6.003  21.912  16.771  1.00  0.00    -0.360 OA
ATOM     35  H2  UNL     1       5.969  21.390  17.564  1.00  0.00     0.217 HD
ENDBRANCH  28  34
ENDBRANCH  22  23
ENDBRANCH  20  22
ENDBRANCH   1  19
TORSDOF 10
ENDMDL
