MODEL 3
REMARK VINA RESULT: -7.354587527      1.456      1.592
REMARK  10 active torsions:
REMARK  status: ('A' for Active; 'I' for Inactive)
REMARK       I    between atoms: C1_2  and  N3_6 
REMARK    1  A    between atoms: N3_6  and  C2_8 
REMARK    2  A    between atoms: C5_11  and  O1_12 
REMARK    3  A    between atoms: C6_14  and  C7_15 
REMARK    4  A    between atoms: C7_15  and  N4_16 
REMARK    5  A    between atoms: N4_16  and  C8_17 
REMARK    6  A    between atoms: C8_17  and  C9_18 
REMARK    7  A    between atoms: N5_19  and  C10_21 
REMARK    8  A    between atoms: C10_21  and  C11_22 
REMARK    9  A    between atoms: C13_24  and  N6_25 
REMARK   10  A    between atoms: C17_32  and  O2_33 
ROOT
HETATM    1  C8  UNL     1       2.103  19.108  19.872  1.00  0.00     0.261 C 
ENDROOT
BRANCH   1   2
HETATM    2  N4  UNL     1       1.430  18.869  18.737  1.00  0.00    -0.455 NA
BRANCH   2   3
HETATM    3  C7  UNL     1       0.731  18.744  17.796  1.00  0.00     0.189 C 
BRANCH   3   4
HETATM    4  C6  UNL     1      -0.635  18.186  17.688  1.00  0.00     0.027 A 
HETATM    5  C5  UNL     1      -1.666  18.519  18.520  1.00  0.00     0.078 A 
HETATM    6  C4  UNL     1      -2.930  17.924  18.474  1.00  0.00     0.040 A 
HETATM    7  C3  UNL     1      -3.155  16.950  17.534  1.00  0.00     0.032 A 
HETATM    8  C2  UNL     1      -2.121  16.576  16.647  1.00  0.00     0.035 A 
HETATM    9  C18 UNL     1      -0.932  17.193  16.752  1.00  0.00     0.046 A 
BRANCH   5  10
HETATM   10  O1  UNL     1      -1.419  19.521  19.489  1.00  0.00    -0.360 OA
ATOM     11  H1  UNL     1      -0.560  19.565  19.893  1.00  0.00     0.217 HD
ENDBRANCH   5  10
BRANCH   8  12
HETATM   12  N3  UNL     1      -2.521  15.528  15.785  1.00  0.00    -0.331 N 
HETATM   13  C1  UNL     1      -2.145  14.181  15.860  1.00  0.00     0.186 C 
HETATM   14  N1  UNL     1      -2.069  13.394  14.626  1.00  0.00    -0.064 NA
HETATM   15  N2  UNL     1      -1.817  13.621  16.919  1.00  0.00    -0.373 N 
ATOM     16  H22 UNL     1      -1.543  12.640  16.974  1.00  0.00     0.158 HD
ATOM     17  H21 UNL     1      -1.870  14.169  17.778  1.00  0.00     0.158 HD
ATOM     18  H3  UNL     1      -3.153  15.782  15.026  1.00  0.00     0.168 HD
ENDBRANCH   8  12
ENDBRANCH   3   4
ENDBRANCH   2   3
ENDBRANCH   1   2
BRANCH   1  19
HETATM   19  C9  UNL     1       3.271  20.057  19.443  1.00  0.00     0.093 C 
HETATM   20  N5  UNL     1       3.070  21.065  18.814  1.00  0.00    -0.375 N 
ATOM     21  H5  UNL     1       2.079  21.170  18.596  1.00  0.00     0.164 HD
BRANCH  20  22
HETATM   22  C10 UNL     1       3.814  22.130  18.299  1.00  0.00     0.101 C 
BRANCH  22  23
HETATM   23  C11 UNL     1       3.971  21.921  16.859  1.00  0.00     0.015 A 
HETATM   24  C12 UNL     1       2.974  21.562  16.000  1.00  0.00     0.045 A 
HETATM   25  C13 UNL     1       3.263  21.134  14.737  1.00  0.00     0.035 A 
HETATM   26  C15 UNL     1       4.585  21.060  14.302  1.00  0.00     0.032 A 
HETATM   27  C16 UNL     1       5.607  21.412  15.129  1.00  0.00     0.039 A 
HETATM   28  C17 UNL     1       5.297  21.836  16.395  1.00  0.00     0.077 A 
BRANCH  25  29
HETATM   29  N6  UNL     1       2.313  20.594  13.781  1.00  0.00    -0.333 N 
HETATM   30  C14 UNL     1       2.187  20.878  12.658  1.00  0.00     0.201 C 
HETATM   31  N7  UNL     1       2.050  21.226  11.330  1.00  0.00    -0.066 NA
HETATM   32  N8  UNL     1       1.882  22.561  13.121  1.00  0.00    -0.066 NA
ATOM     33  H6  UNL     1       1.678  19.878  14.136  1.00  0.00     0.168 HD
ENDBRANCH  25  29
BRANCH  28  34
HETATM   34  O2  UNL     1       6.288  22.199  17.264  1.00  0.00    -0.360 OA
ATOM     35  H2  UNL     1       6.191  23.031  17.713  1.00  0.00     0.217 HD
ENDBRANCH  28  34
ENDBRANCH  22  23
ENDBRANCH  20  22
ENDBRANCH   1  19
TORSDOF 10
ENDMDL
