MODEL 2
REMARK VINA RESULT: -10.990978836      0.028      1.041
REMARK  3 active torsions:
REMARK  status: ('A' for Active; 'I' for Inactive)
REMARK    1  A    between atoms: O1_1  and  C1_3 
REMARK    2  A    between atoms: C1_3  and  C2_4 
REMARK    3  A    between atoms: C5_7  and  C6_8 
ROOT
HETATM    1  C2  UNL     1      56.355  15.441  53.066  1.00  0.00    -0.022 A 
HETATM    2  C3  UNL     1      55.968  16.367  52.105  1.00  0.00     0.011 A 
HETATM    3  C4  UNL     1      56.363  17.685  52.138  1.00  0.00     0.013 A 
HETATM    4  C5  UNL     1      57.179  18.137  53.160  1.00  0.00    -0.026 A 
HETATM    5  C12 UNL     1      57.559  17.221  54.108  1.00  0.00     0.013 A 
HETATM    6  C13 UNL     1      57.163  15.910  54.069  1.00  0.00     0.011 A 
ENDROOT
BRANCH   1   7
HETATM    7  C1  UNL     1      55.870  14.073  52.920  1.00  0.00     0.115 C 
HETATM    8  C14 UNL     1      55.163  13.750  51.647  1.00  0.00     0.315 C 
HETATM    9  N1  UNL     1      55.167  12.307  51.463  1.00  0.00     0.091 N 
HETATM   10  C15 UNL     1      55.070  11.585  52.704  1.00  0.00     0.273 C 
HETATM   11  C19 UNL     1      56.462  11.969  50.867  1.00  0.00     0.273 C 
HETATM   12  C16 UNL     1      56.281  11.777  53.587  1.00  0.00     0.038 C 
HETATM   13  C17 UNL     1      56.980  13.039  53.072  1.00  0.00     0.030 C 
HETATM   14  C18 UNL     1      57.525  12.651  51.701  1.00  0.00     0.038 C 
BRANCH   7  15
HETATM   15  O1  UNL     1      54.959  13.828  53.965  1.00  0.00    -0.383 OA
ATOM     16  H1  UNL     1      54.346  13.167  53.665  1.00  0.00     0.211 HD
ENDBRANCH   7  15
ENDBRANCH   1   7
BRANCH   4  17
HETATM   17  C6  UNL     1      57.613  19.543  53.221  1.00  0.00    -0.026 A 
HETATM   18  C7  UNL     1      58.415  19.969  54.260  1.00  0.00     0.012 A 
HETATM   19  C8  UNL     1      58.808  21.288  54.297  1.00  0.00     0.001 A 
HETATM   20  C9  UNL     1      58.403  22.175  53.301  1.00  0.00     0.000 A 
HETATM   21  C10 UNL     1      57.608  21.703  52.293  1.00  0.00     0.001 A 
HETATM   22  C11 UNL     1      57.201  20.388  52.234  1.00  0.00     0.012 A 
ENDBRANCH   4  17
TORSDOF 3
ENDMDL
