MODEL 7
REMARK VINA RESULT: -10.579524908      1.324      2.473
REMARK  3 active torsions:
REMARK  status: ('A' for Active; 'I' for Inactive)
REMARK    1  A    between atoms: O1_1  and  C1_3 
REMARK    2  A    between atoms: C1_3  and  C2_4 
REMARK    3  A    between atoms: C5_7  and  C6_8 
ROOT
HETATM    1  C2  UNL     1      56.375  14.592  52.606  1.00  0.00    -0.022 A 
HETATM    2  C3  UNL     1      57.122  15.057  53.682  1.00  0.00     0.011 A 
HETATM    3  C4  UNL     1      57.442  16.384  53.848  1.00  0.00     0.013 A 
HETATM    4  C5  UNL     1      57.018  17.320  52.920  1.00  0.00    -0.026 A 
HETATM    5  C12 UNL     1      56.283  16.858  51.858  1.00  0.00     0.013 A 
HETATM    6  C13 UNL     1      55.966  15.535  51.699  1.00  0.00     0.011 A 
ENDROOT
BRANCH   1   7
HETATM    7  C1  UNL     1      56.101  13.161  52.542  1.00  0.00     0.115 C 
HETATM    8  C14 UNL     1      56.362  12.377  53.784  1.00  0.00     0.315 C 
HETATM    9  N1  UNL     1      55.625  11.125  53.711  1.00  0.00     0.091 N 
HETATM   10  C15 UNL     1      55.538  10.605  52.371  1.00  0.00     0.273 C 
HETATM   11  C19 UNL     1      54.259  11.423  54.147  1.00  0.00     0.273 C 
HETATM   12  C16 UNL     1      54.723  11.486  51.455  1.00  0.00     0.038 C 
HETATM   13  C17 UNL     1      54.663  12.857  52.134  1.00  0.00     0.030 C 
HETATM   14  C18 UNL     1      53.802  12.641  53.375  1.00  0.00     0.038 C 
BRANCH   7  15
HETATM   15  O1  UNL     1      56.918  12.612  51.536  1.00  0.00    -0.383 OA
ATOM     16  H1  UNL     1      56.359  12.386  50.801  1.00  0.00     0.211 HD
ENDBRANCH   7  15
ENDBRANCH   1   7
BRANCH   4  17
HETATM   17  C6  UNL     1      57.352  18.746  53.072  1.00  0.00    -0.026 A 
HETATM   18  C7  UNL     1      57.977  19.186  54.221  1.00  0.00     0.012 A 
HETATM   19  C8  UNL     1      58.280  20.524  54.341  1.00  0.00     0.001 A 
HETATM   20  C9  UNL     1      57.961  21.416  53.319  1.00  0.00     0.000 A 
HETATM   21  C10 UNL     1      57.342  20.930  52.200  1.00  0.00     0.001 A 
HETATM   22  C11 UNL     1      57.028  19.596  52.057  1.00  0.00     0.012 A 
ENDBRANCH   4  17
TORSDOF 3
ENDMDL
