MODEL 16
REMARK VINA RESULT: -9.157317015      2.699      7.455
REMARK  3 active torsions:
REMARK  status: ('A' for Active; 'I' for Inactive)
REMARK    1  A    between atoms: O1_1  and  C1_3 
REMARK    2  A    between atoms: C1_3  and  C2_4 
REMARK    3  A    between atoms: C5_7  and  C6_8 
ROOT
HETATM    1  C2  UNL     1      57.244  17.579  53.184  1.00  0.00    -0.022 A 
HETATM    2  C3  UNL     1      57.565  16.793  54.285  1.00  0.00     0.011 A 
HETATM    3  C4  UNL     1      57.102  15.507  54.443  1.00  0.00     0.013 A 
HETATM    4  C5  UNL     1      56.278  14.945  53.482  1.00  0.00    -0.026 A 
HETATM    5  C12 UNL     1      55.962  15.723  52.397  1.00  0.00     0.013 A 
HETATM    6  C13 UNL     1      56.427  17.003  52.246  1.00  0.00     0.011 A 
ENDROOT
BRANCH   1   7
HETATM    7  C1  UNL     1      57.798  18.927  53.132  1.00  0.00     0.115 C 
HETATM    8  C14 UNL     1      57.602  19.679  51.859  1.00  0.00     0.315 C 
HETATM    9  N1  UNL     1      57.780  21.098  52.122  1.00  0.00     0.091 N 
HETATM   10  C15 UNL     1      58.778  21.360  53.127  1.00  0.00     0.273 C 
HETATM   11  C19 UNL     1      56.502  21.586  52.647  1.00  0.00     0.273 C 
HETATM   12  C16 UNL     1      58.379  20.850  54.492  1.00  0.00     0.038 C 
HETATM   13  C17 UNL     1      57.271  19.821  54.249  1.00  0.00     0.030 C 
HETATM   14  C18 UNL     1      56.083  20.637  53.748  1.00  0.00     0.038 C 
BRANCH   7  15
HETATM   15  O1  UNL     1      59.188  18.826  53.334  1.00  0.00    -0.383 OA
ATOM     16  H1  UNL     1      59.609  19.471  52.778  1.00  0.00     0.211 HD
ENDBRANCH   7  15
ENDBRANCH   1   7
BRANCH   4  17
HETATM   17  C6  UNL     1      55.765  13.573  53.629  1.00  0.00    -0.026 A 
HETATM   18  C7  UNL     1      54.442  13.368  53.962  1.00  0.00     0.012 A 
HETATM   19  C8  UNL     1      53.983  12.076  54.094  1.00  0.00     0.001 A 
HETATM   20  C9  UNL     1      54.842  10.996  53.893  1.00  0.00     0.000 A 
HETATM   21  C10 UNL     1      56.145  11.253  53.565  1.00  0.00     0.001 A 
HETATM   22  C11 UNL     1      56.627  12.536  53.427  1.00  0.00     0.012 A 
ENDBRANCH   4  17
TORSDOF 3
ENDMDL
