MODEL 15
REMARK VINA RESULT: -9.253422509      2.707      7.402
REMARK  3 active torsions:
REMARK  status: ('A' for Active; 'I' for Inactive)
REMARK    1  A    between atoms: O1_1  and  C1_3 
REMARK    2  A    between atoms: C1_3  and  C2_4 
REMARK    3  A    between atoms: C5_7  and  C6_8 
ROOT
HETATM    1  C2  UNL     1      57.394  17.526  53.448  1.00  0.00    -0.022 A 
HETATM    2  C3  UNL     1      56.584  16.996  52.450  1.00  0.00     0.011 A 
HETATM    3  C4  UNL     1      56.052  15.729  52.517  1.00  0.00     0.013 A 
HETATM    4  C5  UNL     1      56.318  14.924  53.611  1.00  0.00    -0.026 A 
HETATM    5  C12 UNL     1      57.118  15.448  54.594  1.00  0.00     0.013 A 
HETATM    6  C13 UNL     1      57.644  16.711  54.522  1.00  0.00     0.011 A 
ENDROOT
BRANCH   1   7
HETATM    7  C1  UNL     1      57.896  18.882  53.260  1.00  0.00     0.115 C 
HETATM    8  C14 UNL     1      57.608  19.523  51.944  1.00  0.00     0.315 C 
HETATM    9  N1  UNL     1      57.748  20.964  52.086  1.00  0.00     0.091 N 
HETATM   10  C15 UNL     1      58.785  21.337  53.012  1.00  0.00     0.273 C 
HETATM   11  C19 UNL     1      56.481  21.451  52.638  1.00  0.00     0.273 C 
HETATM   12  C16 UNL     1      58.475  20.926  54.432  1.00  0.00     0.038 C 
HETATM   13  C17 UNL     1      57.393  19.846  54.330  1.00  0.00     0.030 C 
HETATM   14  C18 UNL     1      56.153  20.580  53.831  1.00  0.00     0.038 C 
BRANCH   7  15
HETATM   15  O1  UNL     1      59.297  18.842  53.395  1.00  0.00    -0.383 OA
ATOM     16  H1  UNL     1      59.662  19.495  52.810  1.00  0.00     0.211 HD
ENDBRANCH   7  15
ENDBRANCH   1   7
BRANCH   4  17
HETATM   17  C6  UNL     1      55.764  13.562  53.705  1.00  0.00    -0.026 A 
HETATM   18  C7  UNL     1      56.581  12.473  53.479  1.00  0.00     0.012 A 
HETATM   19  C8  UNL     1      56.043  11.209  53.573  1.00  0.00     0.001 A 
HETATM   20  C9  UNL     1      54.696  11.035  53.892  1.00  0.00     0.000 A 
HETATM   21  C10 UNL     1      53.929  12.147  54.106  1.00  0.00     0.001 A 
HETATM   22  C11 UNL     1      54.445  13.422  54.018  1.00  0.00     0.012 A 
ENDBRANCH   4  17
TORSDOF 3
ENDMDL
