MODEL 1
REMARK VINA RESULT: -11.005808041      0.000      0.000
REMARK  3 active torsions:
REMARK  status: ('A' for Active; 'I' for Inactive)
REMARK    1  A    between atoms: O1_1  and  C1_3 
REMARK    2  A    between atoms: C1_3  and  C2_4 
REMARK    3  A    between atoms: C5_7  and  C6_8 
ROOT
HETATM    1  C2  UNL     1      56.359  15.449  53.069  1.00  0.00    -0.022 A 
HETATM    2  C3  UNL     1      55.976  16.373  52.104  1.00  0.00     0.011 A 
HETATM    3  C4  UNL     1      56.371  17.690  52.135  1.00  0.00     0.013 A 
HETATM    4  C5  UNL     1      57.184  18.144  53.159  1.00  0.00    -0.026 A 
HETATM    5  C12 UNL     1      57.560  17.231  54.112  1.00  0.00     0.013 A 
HETATM    6  C13 UNL     1      57.163  15.920  54.074  1.00  0.00     0.011 A 
ENDROOT
BRANCH   1   7
HETATM    7  C1  UNL     1      55.874  14.081  52.924  1.00  0.00     0.115 C 
HETATM    8  C14 UNL     1      55.174  13.754  51.648  1.00  0.00     0.315 C 
HETATM    9  N1  UNL     1      55.179  12.310  51.468  1.00  0.00     0.091 N 
HETATM   10  C15 UNL     1      55.074  11.592  52.711  1.00  0.00     0.273 C 
HETATM   11  C19 UNL     1      56.478  11.970  50.882  1.00  0.00     0.273 C 
HETATM   12  C16 UNL     1      56.279  11.787  53.601  1.00  0.00     0.038 C 
HETATM   13  C17 UNL     1      56.983  13.046  53.086  1.00  0.00     0.030 C 
HETATM   14  C18 UNL     1      57.536  12.654  51.720  1.00  0.00     0.038 C 
BRANCH   7  15
HETATM   15  O1  UNL     1      54.956  13.839  53.964  1.00  0.00    -0.383 OA
ATOM     16  H1  UNL     1      54.099  13.723  53.572  1.00  0.00     0.211 HD
ENDBRANCH   7  15
ENDBRANCH   1   7
BRANCH   4  17
HETATM   17  C6  UNL     1      57.618  19.551  53.219  1.00  0.00    -0.026 A 
HETATM   18  C7  UNL     1      57.211  20.436  52.242  1.00  0.00     0.012 A 
HETATM   19  C8  UNL     1      57.628  21.746  52.318  1.00  0.00     0.001 A 
HETATM   20  C9  UNL     1      58.446  22.169  53.366  1.00  0.00     0.000 A 
HETATM   21  C10 UNL     1      58.821  21.252  54.309  1.00  0.00     0.001 A 
HETATM   22  C11 UNL     1      58.417  19.936  54.254  1.00  0.00     0.012 A 
ENDBRANCH   4  17
TORSDOF 3
ENDMDL
