MODEL 3
REMARK VINA RESULT: -10.928602001      0.137      1.033
REMARK  3 active torsions:
REMARK  status: ('A' for Active; 'I' for Inactive)
REMARK    1  A    between atoms: O1_1  and  C1_3 
REMARK    2  A    between atoms: C1_3  and  C2_4 
REMARK    3  A    between atoms: C5_7  and  C6_8 
ROOT
HETATM    1  C2  UNL     1      56.222  15.482  52.874  1.00  0.00    -0.022 A 
HETATM    2  C3  UNL     1      56.990  15.917  53.947  1.00  0.00     0.011 A 
HETATM    3  C4  UNL     1      57.434  17.214  54.069  1.00  0.00     0.013 A 
HETATM    4  C5  UNL     1      57.118  18.147  53.097  1.00  0.00    -0.026 A 
HETATM    5  C12 UNL     1      56.360  17.715  52.037  1.00  0.00     0.013 A 
HETATM    6  C13 UNL     1      55.921  16.422  51.923  1.00  0.00     0.011 A 
ENDROOT
BRANCH   1   7
HETATM    7  C1  UNL     1      55.813  14.082  52.860  1.00  0.00     0.115 C 
HETATM    8  C14 UNL     1      55.046  13.625  51.666  1.00  0.00     0.315 C 
HETATM    9  N1  UNL     1      55.126  12.174  51.586  1.00  0.00     0.091 N 
HETATM   10  C15 UNL     1      55.153  11.544  52.880  1.00  0.00     0.273 C 
HETATM   11  C19 UNL     1      56.398  11.865  50.928  1.00  0.00     0.273 C 
HETATM   12  C16 UNL     1      56.404  11.870  53.661  1.00  0.00     0.038 C 
HETATM   13  C17 UNL     1      56.991  13.126  53.010  1.00  0.00     0.030 C 
HETATM   14  C18 UNL     1      57.469  12.666  51.635  1.00  0.00     0.038 C 
BRANCH   7  15
HETATM   15  O1  UNL     1      54.988  13.866  53.981  1.00  0.00    -0.383 OA
ATOM     16  H1  UNL     1      54.279  14.497  53.943  1.00  0.00     0.211 HD
ENDBRANCH   7  15
ENDBRANCH   1   7
BRANCH   4  17
HETATM   17  C6  UNL     1      57.584  19.540  53.200  1.00  0.00    -0.026 A 
HETATM   18  C7  UNL     1      57.174  20.472  52.269  1.00  0.00     0.012 A 
HETATM   19  C8  UNL     1      57.621  21.769  52.386  1.00  0.00     0.001 A 
HETATM   20  C9  UNL     1      58.473  22.132  53.428  1.00  0.00     0.000 A 
HETATM   21  C10 UNL     1      58.851  21.171  54.326  1.00  0.00     0.001 A 
HETATM   22  C11 UNL     1      58.416  19.867  54.229  1.00  0.00     0.012 A 
ENDBRANCH   4  17
TORSDOF 3
ENDMDL
