MODEL 4
REMARK VINA RESULT: -10.922630203      0.130      1.466
REMARK  3 active torsions:
REMARK  status: ('A' for Active; 'I' for Inactive)
REMARK    1  A    between atoms: O1_1  and  C1_3 
REMARK    2  A    between atoms: C1_3  and  C2_4 
REMARK    3  A    between atoms: C5_7  and  C6_8 
ROOT
HETATM    1  C2  UNL     1      56.227  15.486  52.863  1.00  0.00    -0.022 A 
HETATM    2  C3  UNL     1      56.993  15.920  53.938  1.00  0.00     0.011 A 
HETATM    3  C4  UNL     1      57.436  17.216  54.063  1.00  0.00     0.013 A 
HETATM    4  C5  UNL     1      57.122  18.151  53.091  1.00  0.00    -0.026 A 
HETATM    5  C12 UNL     1      56.367  17.720  52.030  1.00  0.00     0.013 A 
HETATM    6  C13 UNL     1      55.929  16.428  51.912  1.00  0.00     0.011 A 
ENDROOT
BRANCH   1   7
HETATM    7  C1  UNL     1      55.818  14.086  52.846  1.00  0.00     0.115 C 
HETATM    8  C14 UNL     1      55.064  13.627  51.644  1.00  0.00     0.315 C 
HETATM    9  N1  UNL     1      55.145  12.177  51.567  1.00  0.00     0.091 N 
HETATM   10  C15 UNL     1      55.158  11.548  52.861  1.00  0.00     0.273 C 
HETATM   11  C19 UNL     1      56.425  11.867  50.924  1.00  0.00     0.273 C 
HETATM   12  C16 UNL     1      56.400  11.875  53.656  1.00  0.00     0.038 C 
HETATM   13  C17 UNL     1      56.995  13.130  53.010  1.00  0.00     0.030 C 
HETATM   14  C18 UNL     1      57.488  12.669  51.642  1.00  0.00     0.038 C 
BRANCH   7  15
HETATM   15  O1  UNL     1      54.981  13.872  53.957  1.00  0.00    -0.383 OA
ATOM     16  H1  UNL     1      54.469  13.089  53.787  1.00  0.00     0.211 HD
ENDBRANCH   7  15
ENDBRANCH   1   7
BRANCH   4  17
HETATM   17  C6  UNL     1      57.588  19.544  53.198  1.00  0.00    -0.026 A 
HETATM   18  C7  UNL     1      58.419  19.912  54.236  1.00  0.00     0.012 A 
HETATM   19  C8  UNL     1      58.843  21.219  54.316  1.00  0.00     0.001 A 
HETATM   20  C9  UNL     1      58.439  22.154  53.363  1.00  0.00     0.000 A 
HETATM   21  C10 UNL     1      57.615  21.738  52.353  1.00  0.00     0.001 A 
HETATM   22  C11 UNL     1      57.177  20.436  52.252  1.00  0.00     0.012 A 
ENDBRANCH   4  17
TORSDOF 3
ENDMDL
