MODEL 14
REMARK VINA RESULT: -9.256098278      2.710      7.379
REMARK  3 active torsions:
REMARK  status: ('A' for Active; 'I' for Inactive)
REMARK    1  A    between atoms: O1_1  and  C1_3 
REMARK    2  A    between atoms: C1_3  and  C2_4 
REMARK    3  A    between atoms: C5_7  and  C6_8 
ROOT
HETATM    1  C2  UNL     1      57.399  17.551  53.446  1.00  0.00    -0.022 A 
HETATM    2  C3  UNL     1      56.584  17.023  52.452  1.00  0.00     0.011 A 
HETATM    3  C4  UNL     1      56.054  15.755  52.519  1.00  0.00     0.013 A 
HETATM    4  C5  UNL     1      56.328  14.947  53.609  1.00  0.00    -0.026 A 
HETATM    5  C12 UNL     1      57.134  15.470  54.589  1.00  0.00     0.013 A 
HETATM    6  C13 UNL     1      57.658  16.734  54.517  1.00  0.00     0.011 A 
ENDROOT
BRANCH   1   7
HETATM    7  C1  UNL     1      57.898  18.909  53.259  1.00  0.00     0.115 C 
HETATM    8  C14 UNL     1      57.610  19.549  51.944  1.00  0.00     0.315 C 
HETATM    9  N1  UNL     1      57.746  20.991  52.086  1.00  0.00     0.091 N 
HETATM   10  C15 UNL     1      58.782  21.366  53.012  1.00  0.00     0.273 C 
HETATM   11  C19 UNL     1      56.478  21.474  52.636  1.00  0.00     0.273 C 
HETATM   12  C16 UNL     1      58.471  20.954  54.432  1.00  0.00     0.038 C 
HETATM   13  C17 UNL     1      57.393  19.871  54.329  1.00  0.00     0.030 C 
HETATM   14  C18 UNL     1      56.151  20.602  53.829  1.00  0.00     0.038 C 
BRANCH   7  15
HETATM   15  O1  UNL     1      59.299  18.872  53.395  1.00  0.00    -0.383 OA
ATOM     16  H1  UNL     1      59.646  19.680  53.035  1.00  0.00     0.211 HD
ENDBRANCH   7  15
ENDBRANCH   1   7
BRANCH   4  17
HETATM   17  C6  UNL     1      55.777  13.584  53.703  1.00  0.00    -0.026 A 
HETATM   18  C7  UNL     1      54.444  13.403  54.006  1.00  0.00     0.012 A 
HETATM   19  C8  UNL     1      53.950  12.120  54.087  1.00  0.00     0.001 A 
HETATM   20  C9  UNL     1      54.785  11.025  53.867  1.00  0.00     0.000 A 
HETATM   21  C10 UNL     1      56.100  11.259  53.569  1.00  0.00     0.001 A 
HETATM   22  C11 UNL     1      56.616  12.533  53.482  1.00  0.00     0.012 A 
ENDBRANCH   4  17
TORSDOF 3
ENDMDL
