MODEL 2
REMARK VINA RESULT: -9.699162950      1.553      2.284
REMARK  9 active torsions:
REMARK  status: ('A' for Active; 'I' for Inactive)
REMARK    1  A    between atoms: C2_2  and  C3_3 
REMARK    2  A    between atoms: C3_3  and  C4_4 
REMARK    3  A    between atoms: C6_6  and  C7_7 
REMARK    4  A    between atoms: C15_15  and  O1_16 
REMARK    5  A    between atoms: O1_16  and  C16_17 
REMARK    6  A    between atoms: C16_17  and  C17_18 
REMARK    7  A    between atoms: C17_18  and  C18_19 
REMARK    8  A    between atoms: C18_19  and  N1_20 
REMARK    9  A    between atoms: N1_20  and  C19_23 
ROOT
HETATM    1  C4  UNL     1      56.605  16.195  54.159  1.00  0.00    -0.021 A 
HETATM    2  C5  UNL     1      57.048  17.498  54.249  1.00  0.00     0.022 A 
HETATM    3  C6  UNL     1      56.970  18.388  53.193  1.00  0.00    -0.025 A 
HETATM    4  C13 UNL     1      56.420  17.918  52.019  1.00  0.00     0.015 A 
HETATM    5  C14 UNL     1      55.974  16.610  51.925  1.00  0.00     0.038 A 
HETATM    6  C15 UNL     1      56.056  15.728  52.984  1.00  0.00     0.075 A 
ENDROOT
BRANCH   6   7
HETATM    7  O1  UNL     1      55.606  14.420  52.875  1.00  0.00    -0.351 OA
BRANCH   7   8
HETATM    8  C16 UNL     1      56.152  13.481  51.988  1.00  0.00     0.177 C 
BRANCH   8   9
HETATM    9  C17 UNL     1      56.040  12.083  52.576  1.00  0.00     0.054 C 
BRANCH   9  10
HETATM   10  C18 UNL     1      55.449  12.099  53.954  1.00  0.00     0.235 C 
BRANCH  10  11
HETATM   11  N1  UNL     1      54.672  10.920  54.257  1.00  0.00    -0.072 N 
ATOM     12  H12 UNL     1      54.867  10.163  53.603  1.00  0.00     0.277 HD
ATOM     13  H11 UNL     1      54.990  10.470  55.115  1.00  0.00     0.277 HD
BRANCH  11  14
HETATM   14  C19 UNL     1      53.235  11.237  54.309  1.00  0.00     0.177 C 
HETATM   15  C20 UNL     1      52.627  10.280  55.309  1.00  0.00     0.039 C 
HETATM   16  C21 UNL     1      53.005  12.653  54.711  1.00  0.00     0.039 C 
ENDBRANCH  11  14
ENDBRANCH  10  11
ENDBRANCH   9  10
ENDBRANCH   8   9
ENDBRANCH   7   8
ENDBRANCH   6   7
BRANCH   1  17
HETATM   17  C3  UNL     1      56.716  15.283  55.332  1.00  0.00     0.067 C 
BRANCH  17  18
HETATM   18  C2  UNL     1      57.170  16.059  56.519  1.00  0.00    -0.032 C 
HETATM   19  C1  UNL     1      56.394  16.193  57.562  1.00  0.00     0.007 C 
ENDBRANCH  17  18
ENDBRANCH   1  17
BRANCH   3  20
HETATM   20  C7  UNL     1      57.448  19.770  53.311  1.00  0.00    -0.026 A 
HETATM   21  C8  UNL     1      57.152  20.729  52.357  1.00  0.00     0.012 A 
HETATM   22  C9  UNL     1      57.611  22.028  52.482  1.00  0.00     0.001 A 
HETATM   23  C10 UNL     1      58.377  22.392  53.565  1.00  0.00     0.000 A 
HETATM   24  C11 UNL     1      58.694  21.455  54.544  1.00  0.00     0.001 A 
HETATM   25  C12 UNL     1      58.219  20.173  54.384  1.00  0.00     0.012 A 
ENDBRANCH   3  20
TORSDOF 9
ENDMDL
