MODEL 4
REMARK VINA RESULT: -9.340634114      2.779      8.128
REMARK  9 active torsions:
REMARK  status: ('A' for Active; 'I' for Inactive)
REMARK    1  A    between atoms: C2_2  and  C3_3 
REMARK    2  A    between atoms: C3_3  and  C4_4 
REMARK    3  A    between atoms: C6_6  and  C7_7 
REMARK    4  A    between atoms: C15_15  and  O1_16 
REMARK    5  A    between atoms: O1_16  and  C16_17 
REMARK    6  A    between atoms: C16_17  and  C17_18 
REMARK    7  A    between atoms: C17_18  and  C18_19 
REMARK    8  A    between atoms: C18_19  and  N1_20 
REMARK    9  A    between atoms: N1_20  and  C19_23 
ROOT
HETATM    1  C4  UNL     1      56.246  15.323  54.129  1.00  0.00    -0.021 A 
HETATM    2  C5  UNL     1      55.563  14.202  54.551  1.00  0.00     0.022 A 
HETATM    3  C6  UNL     1      54.832  13.404  53.690  1.00  0.00    -0.025 A 
HETATM    4  C13 UNL     1      54.809  13.776  52.362  1.00  0.00     0.015 A 
HETATM    5  C14 UNL     1      55.494  14.902  51.934  1.00  0.00     0.038 A 
HETATM    6  C15 UNL     1      56.221  15.692  52.801  1.00  0.00     0.075 A 
ENDROOT
BRANCH   6   7
HETATM    7  O1  UNL     1      56.902  16.818  52.358  1.00  0.00    -0.351 OA
BRANCH   7   8
HETATM    8  C16 UNL     1      56.269  18.009  51.973  1.00  0.00     0.177 C 
BRANCH   8   9
HETATM    9  C17 UNL     1      57.286  19.134  51.885  1.00  0.00     0.054 C 
BRANCH   9  10
HETATM   10  C18 UNL     1      57.443  19.853  53.192  1.00  0.00     0.235 C 
BRANCH  10  11
HETATM   11  N1  UNL     1      56.431  20.857  53.417  1.00  0.00    -0.072 N 
ATOM     12  H12 UNL     1      55.557  20.624  52.947  1.00  0.00     0.277 HD
ATOM     13  H11 UNL     1      56.096  20.844  54.380  1.00  0.00     0.277 HD
BRANCH  11  14
HETATM   14  C19 UNL     1      56.918  22.191  53.029  1.00  0.00     0.177 C 
HETATM   15  C20 UNL     1      55.868  23.176  53.493  1.00  0.00     0.039 C 
HETATM   16  C21 UNL     1      58.242  22.487  53.645  1.00  0.00     0.039 C 
ENDBRANCH  11  14
ENDBRANCH  10  11
ENDBRANCH   9  10
ENDBRANCH   8   9
ENDBRANCH   7   8
ENDBRANCH   6   7
BRANCH   1  17
HETATM   17  C3  UNL     1      57.017  16.143  55.105  1.00  0.00     0.067 C 
BRANCH  17  18
HETATM   18  C2  UNL     1      56.746  15.652  56.484  1.00  0.00    -0.032 C 
HETATM   19  C1  UNL     1      56.332  16.472  57.414  1.00  0.00     0.007 C 
ENDBRANCH  17  18
ENDBRANCH   1  17
BRANCH   3  20
HETATM   20  C7  UNL     1      54.113  12.216  54.161  1.00  0.00    -0.026 A 
HETATM   21  C8  UNL     1      52.965  12.314  54.931  1.00  0.00     0.012 A 
HETATM   22  C9  UNL     1      52.299  11.183  55.368  1.00  0.00     0.001 A 
HETATM   23  C10 UNL     1      52.768   9.932  55.042  1.00  0.00     0.000 A 
HETATM   24  C11 UNL     1      53.917   9.795  54.269  1.00  0.00     0.001 A 
HETATM   25  C12 UNL     1      54.552  10.944  53.854  1.00  0.00     0.012 A 
ENDBRANCH   3  20
TORSDOF 9
ENDMDL
