MODEL 3
REMARK VINA RESULT: -9.376627865      2.846      8.147
REMARK  9 active torsions:
REMARK  status: ('A' for Active; 'I' for Inactive)
REMARK    1  A    between atoms: C2_2  and  C3_3 
REMARK    2  A    between atoms: C3_3  and  C4_4 
REMARK    3  A    between atoms: C6_6  and  C7_7 
REMARK    4  A    between atoms: C15_15  and  O1_16 
REMARK    5  A    between atoms: O1_16  and  C16_17 
REMARK    6  A    between atoms: C16_17  and  C17_18 
REMARK    7  A    between atoms: C17_18  and  C18_19 
REMARK    8  A    between atoms: C18_19  and  N1_20 
REMARK    9  A    between atoms: N1_20  and  C19_23 
ROOT
HETATM    1  C4  UNL     1      56.265  15.255  54.245  1.00  0.00    -0.021 A 
HETATM    2  C5  UNL     1      55.579  14.128  54.649  1.00  0.00     0.022 A 
HETATM    3  C6  UNL     1      54.840  13.351  53.776  1.00  0.00    -0.025 A 
HETATM    4  C13 UNL     1      54.811  13.750  52.456  1.00  0.00     0.015 A 
HETATM    5  C14 UNL     1      55.499  14.881  52.047  1.00  0.00     0.038 A 
HETATM    6  C15 UNL     1      56.234  15.651  52.926  1.00  0.00     0.075 A 
ENDROOT
BRANCH   6   7
HETATM    7  O1  UNL     1      56.917  16.782  52.502  1.00  0.00    -0.351 OA
BRANCH   7   8
HETATM    8  C16 UNL     1      56.291  17.900  51.930  1.00  0.00     0.177 C 
BRANCH   8   9
HETATM    9  C17 UNL     1      57.321  18.979  51.637  1.00  0.00     0.054 C 
BRANCH   9  10
HETATM   10  C18 UNL     1      57.166  20.164  52.543  1.00  0.00     0.235 C 
BRANCH  10  11
HETATM   11  N1  UNL     1      57.358  21.427  51.870  1.00  0.00    -0.072 N 
ATOM     12  H12 UNL     1      58.168  21.405  51.252  1.00  0.00     0.277 HD
ATOM     13  H11 UNL     1      56.634  21.596  51.172  1.00  0.00     0.277 HD
BRANCH  11  14
HETATM   14  C19 UNL     1      57.446  22.531  52.841  1.00  0.00     0.177 C 
HETATM   15  C20 UNL     1      56.065  22.677  53.440  1.00  0.00     0.039 C 
HETATM   16  C21 UNL     1      58.462  22.250  53.893  1.00  0.00     0.039 C 
ENDBRANCH  11  14
ENDBRANCH  10  11
ENDBRANCH   9  10
ENDBRANCH   8   9
ENDBRANCH   7   8
ENDBRANCH   6   7
BRANCH   1  17
HETATM   17  C3  UNL     1      57.044  16.052  55.234  1.00  0.00     0.067 C 
BRANCH  17  18
HETATM   18  C2  UNL     1      56.712  15.592  56.610  1.00  0.00    -0.032 C 
HETATM   19  C1  UNL     1      56.336  16.446  57.525  1.00  0.00     0.007 C 
ENDBRANCH  17  18
ENDBRANCH   1  17
BRANCH   3  20
HETATM   20  C7  UNL     1      54.118  12.156  54.227  1.00  0.00    -0.026 A 
HETATM   21  C8  UNL     1      54.544  10.879  53.901  1.00  0.00     0.012 A 
HETATM   22  C9  UNL     1      53.851   9.763  54.333  1.00  0.00     0.001 A 
HETATM   23  C10 UNL     1      52.718   9.903  55.101  1.00  0.00     0.000 A 
HETATM   24  C11 UNL     1      52.261  11.171  55.448  1.00  0.00     0.001 A 
HETATM   25  C12 UNL     1      52.978  12.257  54.999  1.00  0.00     0.012 A 
ENDBRANCH   3  20
TORSDOF 9
ENDMDL
