MODEL 5
REMARK VINA RESULT: -9.109059029      2.439      7.962
REMARK  9 active torsions:
REMARK  status: ('A' for Active; 'I' for Inactive)
REMARK    1  A    between atoms: C2_2  and  C3_3 
REMARK    2  A    between atoms: C3_3  and  C4_4 
REMARK    3  A    between atoms: C6_6  and  C7_7 
REMARK    4  A    between atoms: C15_15  and  O1_16 
REMARK    5  A    between atoms: O1_16  and  C16_17 
REMARK    6  A    between atoms: C16_17  and  C17_18 
REMARK    7  A    between atoms: C17_18  and  C18_19 
REMARK    8  A    between atoms: C18_19  and  N1_20 
REMARK    9  A    between atoms: N1_20  and  C19_23 
ROOT
HETATM    1  C4  UNL     1      56.564  15.870  54.029  1.00  0.00    -0.021 A 
HETATM    2  C5  UNL     1      56.643  14.494  54.012  1.00  0.00     0.022 A 
HETATM    3  C6  UNL     1      56.234  13.735  52.931  1.00  0.00    -0.025 A 
HETATM    4  C13 UNL     1      55.732  14.418  51.843  1.00  0.00     0.015 A 
HETATM    5  C14 UNL     1      55.651  15.801  51.856  1.00  0.00     0.038 A 
HETATM    6  C15 UNL     1      56.062  16.550  52.940  1.00  0.00     0.075 A 
ENDROOT
BRANCH   6   7
HETATM    7  O1  UNL     1      55.974  17.935  52.939  1.00  0.00    -0.351 OA
BRANCH   7   8
HETATM    8  C16 UNL     1      56.799  18.766  52.168  1.00  0.00     0.177 C 
BRANCH   8   9
HETATM    9  C17 UNL     1      58.009  19.198  52.980  1.00  0.00     0.054 C 
BRANCH   9  10
HETATM   10  C18 UNL     1      57.658  20.236  54.003  1.00  0.00     0.235 C 
BRANCH  10  11
HETATM   11  N1  UNL     1      56.507  21.030  53.641  1.00  0.00    -0.072 N 
ATOM     12  H12 UNL     1      55.917  20.549  52.963  1.00  0.00     0.277 HD
ATOM     13  H11 UNL     1      55.840  21.096  54.409  1.00  0.00     0.277 HD
BRANCH  11  14
HETATM   14  C19 UNL     1      56.916  22.359  53.158  1.00  0.00     0.177 C 
HETATM   15  C20 UNL     1      55.817  23.314  53.567  1.00  0.00     0.039 C 
HETATM   16  C21 UNL     1      58.227  22.768  53.737  1.00  0.00     0.039 C 
ENDBRANCH  11  14
ENDBRANCH  10  11
ENDBRANCH   9  10
ENDBRANCH   8   9
ENDBRANCH   7   8
ENDBRANCH   6   7
BRANCH   1  17
HETATM   17  C3  UNL     1      57.020  16.633  55.225  1.00  0.00     0.067 C 
BRANCH  17  18
HETATM   18  C2  UNL     1      56.774  15.824  56.449  1.00  0.00    -0.032 C 
HETATM   19  C1  UNL     1      56.353  16.392  57.549  1.00  0.00     0.007 C 
ENDBRANCH  17  18
ENDBRANCH   1  17
BRANCH   3  20
HETATM   20  C7  UNL     1      56.327  12.271  52.935  1.00  0.00    -0.026 A 
HETATM   21  C8  UNL     1      57.137  11.588  52.043  1.00  0.00     0.012 A 
HETATM   22  C9  UNL     1      57.213  10.207  52.059  1.00  0.00     0.001 A 
HETATM   23  C10 UNL     1      56.479   9.482  52.969  1.00  0.00     0.000 A 
HETATM   24  C11 UNL     1      55.653  10.135  53.880  1.00  0.00     0.001 A 
HETATM   25  C12 UNL     1      55.605  11.510  53.833  1.00  0.00     0.012 A 
ENDBRANCH   3  20
TORSDOF 9
ENDMDL
