MODEL 4
REMARK VINA RESULT: -5.627991547      5.555      6.648
REMARK  2 active torsions:
REMARK  status: ('A' for Active; 'I' for Inactive)
REMARK    1  A    between atoms: N1_2  and  C1_4 
REMARK    2  A    between atoms: C4_7  and  O3_8 
ROOT
HETATM    1  C1  UNL     1     -34.009  -8.916 -49.133  1.00  0.00     0.115 A 
HETATM    2  C2  UNL     1     -33.942  -9.405 -50.449  1.00  0.00     0.040 A 
HETATM    3  C3  UNL     1     -33.939  -8.568 -51.507  1.00  0.00     0.041 A 
HETATM    4  C4  UNL     1     -33.999  -7.204 -51.356  1.00  0.00     0.093 A 
HETATM    5  C5  UNL     1     -34.065  -6.695 -50.059  1.00  0.00     0.078 A 
HETATM    6  N2  UNL     1     -34.114  -5.386 -49.848  1.00  0.00    -0.363 N 
ATOM      7  H2  UNL     1     -34.111  -4.780 -50.668  1.00  0.00     0.165 HD
HETATM    8  C6  UNL     1     -34.168  -4.794 -48.644  1.00  0.00     0.088 A 
HETATM    9  C7  UNL     1     -34.173  -5.595 -47.528  1.00  0.00     0.018 A 
HETATM   10  C8  UNL     1     -34.122  -6.978 -47.710  1.00  0.00     0.018 A 
HETATM   11  C9  UNL     1     -34.070  -7.557 -48.954  1.00  0.00     0.026 A 
ENDROOT
BRANCH   1  12
HETATM   12  N1  UNL     1     -34.006  -9.821 -48.060  1.00  0.00    -0.115 N 
HETATM   13  O1  UNL     1     -35.099 -10.352 -47.708  1.00  0.00    -0.532 OA
HETATM   14  O2  UNL     1     -32.903 -10.157 -47.379  1.00  0.00    -0.532 OA
ENDBRANCH   1  12
BRANCH   4  15
HETATM   15  O3  UNL     1     -33.998  -6.327 -52.417  1.00  0.00    -0.358 OA
ATOM     16  H3  UNL     1     -33.695  -6.563 -53.285  1.00  0.00     0.217 HD
ENDBRANCH   4  15
TORSDOF 2
ENDMDL
