MODEL 6
REMARK VINA RESULT: -5.575092714      3.877      5.013
REMARK  2 active torsions:
REMARK  status: ('A' for Active; 'I' for Inactive)
REMARK    1  A    between atoms: N1_2  and  C1_4 
REMARK    2  A    between atoms: C4_7  and  O3_8 
ROOT
HETATM    1  C1  UNL     1     -34.737 -10.256 -47.780  1.00  0.00     0.115 A 
HETATM    2  C2  UNL     1     -33.739  -9.447 -47.209  1.00  0.00     0.040 A 
HETATM    3  C3  UNL     1     -33.154  -8.457 -47.914  1.00  0.00     0.041 A 
HETATM    4  C4  UNL     1     -33.500  -8.188 -49.216  1.00  0.00     0.093 A 
HETATM    5  C5  UNL     1     -34.490  -8.977 -49.803  1.00  0.00     0.078 A 
HETATM    6  N2  UNL     1     -34.874  -8.759 -51.053  1.00  0.00    -0.363 N 
ATOM      7  H2  UNL     1     -34.412  -8.003 -51.560  1.00  0.00     0.165 HD
HETATM    8  C6  UNL     1     -35.822  -9.450 -51.707  1.00  0.00     0.088 A 
HETATM    9  C7  UNL     1     -36.455 -10.470 -51.040  1.00  0.00     0.018 A 
HETATM   10  C8  UNL     1     -36.076 -10.730 -49.722  1.00  0.00     0.018 A 
HETATM   11  C9  UNL     1     -35.102 -10.008 -49.078  1.00  0.00     0.026 A 
ENDROOT
BRANCH   1  12
HETATM   12  N1  UNL     1     -35.324 -11.273 -47.010  1.00  0.00    -0.115 N 
HETATM   13  O1  UNL     1     -36.357 -11.003 -46.332  1.00  0.00    -0.532 OA
HETATM   14  O2  UNL     1     -34.849 -12.523 -46.950  1.00  0.00    -0.532 OA
ENDBRANCH   1  12
BRANCH   4  15
HETATM   15  O3  UNL     1     -32.919  -7.185 -49.958  1.00  0.00    -0.358 OA
ATOM     16  H3  UNL     1     -32.182  -6.672 -49.651  1.00  0.00     0.217 HD
ENDBRANCH   4  15
TORSDOF 2
ENDMDL
