MODEL 3
REMARK VINA RESULT: -5.731900770      5.051      5.940
REMARK  2 active torsions:
REMARK  status: ('A' for Active; 'I' for Inactive)
REMARK    1  A    between atoms: N1_2  and  C1_4 
REMARK    2  A    between atoms: C4_7  and  O3_8 
ROOT
HETATM    1  C1  UNL     1     -33.964  -8.907 -47.690  1.00  0.00     0.115 A 
HETATM    2  C2  UNL     1     -33.691  -7.952 -46.697  1.00  0.00     0.040 A 
HETATM    3  C3  UNL     1     -33.359  -6.684 -47.018  1.00  0.00     0.041 A 
HETATM    4  C4  UNL     1     -33.272  -6.263 -48.323  1.00  0.00     0.093 A 
HETATM    5  C5  UNL     1     -33.542  -7.194 -49.326  1.00  0.00     0.078 A 
HETATM    6  N2  UNL     1     -33.485  -6.845 -50.605  1.00  0.00    -0.363 N 
ATOM      7  H2  UNL     1     -33.230  -5.880 -50.815  1.00  0.00     0.165 HD
HETATM    8  C6  UNL     1     -33.736  -7.657 -51.645  1.00  0.00     0.088 A 
HETATM    9  C7  UNL     1     -34.081  -8.959 -51.380  1.00  0.00     0.018 A 
HETATM   10  C8  UNL     1     -34.150  -9.365 -50.046  1.00  0.00     0.018 A 
HETATM   11  C9  UNL     1     -33.886  -8.512 -49.001  1.00  0.00     0.026 A 
ENDROOT
BRANCH   1  12
HETATM   12  N1  UNL     1     -34.311 -10.214 -47.313  1.00  0.00    -0.115 N 
HETATM   13  O1  UNL     1     -33.406 -10.980 -46.871  1.00  0.00    -0.532 OA
HETATM   14  O2  UNL     1     -35.554 -10.704 -47.395  1.00  0.00    -0.532 OA
ENDBRANCH   1  12
BRANCH   4  15
HETATM   15  O3  UNL     1     -32.935  -4.978 -48.679  1.00  0.00    -0.358 OA
ATOM     16  H3  UNL     1     -32.201  -4.771 -49.245  1.00  0.00     0.217 HD
ENDBRANCH   4  15
TORSDOF 2
ENDMDL
