MODEL 8
REMARK VINA RESULT: -8.572258122      2.917      5.941
REMARK  13 active torsions:
REMARK  status: ('A' for Active; 'I' for Inactive)
REMARK    1  A    between atoms: C2_2  and  O1_5 
REMARK    2  A    between atoms: O1_5  and  C5_6 
REMARK       I    between atoms: C5_6  and  N1_8 
REMARK    3  A    between atoms: N1_8  and  C6_10 
REMARK    4  A    between atoms: C6_10  and  C7_11 
REMARK    5  A    between atoms: C6_10  and  C14_18 
REMARK    6  A    between atoms: C7_11  and  C8_12 
REMARK    7  A    between atoms: C14_18  and  O3_19 
REMARK    8  A    between atoms: C14_18  and  C15_21 
REMARK    9  A    between atoms: C15_21  and  N2_22 
REMARK   10  A    between atoms: N2_22  and  C17_24 
REMARK   11  A    between atoms: N2_22  and  N3_31 
REMARK   12  A    between atoms: C17_24  and  C18_25 
REMARK       I    between atoms: N3_31  and  C24_33 
REMARK   13  A    between atoms: C24_33  and  C25_35 
ROOT
HETATM    1  C14 UNL     1       5.224  -1.229  15.114  1.00  0.00     0.192 C 
ENDROOT
BRANCH   1   2
HETATM    2  C6  UNL     1       3.933  -1.793  14.549  1.00  0.00     0.026 C 
BRANCH   2   3
HETATM    3  N1  UNL     1       3.728  -3.177  14.792  1.00  0.00    -0.307 N 
HETATM    4  C5  UNL     1       3.259  -3.741  16.024  1.00  0.00     0.365 C 
HETATM    5  O2  UNL     1       3.007  -2.979  16.991  1.00  0.00    -0.238 OA
ATOM      6  H1  UNL     1       3.931  -3.822  14.029  1.00  0.00     0.170 HD
BRANCH   4   7
HETATM    7  O1  UNL     1       3.060  -5.093  16.225  1.00  0.00    -0.294 OA
BRANCH   7   8
HETATM    8  C2  UNL     1       3.829  -5.793  17.150  1.00  0.00     0.061 C 
HETATM    9  C1  UNL     1       4.138  -7.162  16.522  1.00  0.00     0.046 C 
HETATM   10  C3  UNL     1       5.176  -5.163  17.419  1.00  0.00     0.046 C 
HETATM   11  C4  UNL     1       3.146  -6.066  18.463  1.00  0.00     0.046 C 
ENDBRANCH   7   8
ENDBRANCH   4   7
ENDBRANCH   2   3
BRANCH   2  12
HETATM   12  C7  UNL     1       2.755  -0.886  14.613  1.00  0.00     0.094 C 
BRANCH  12  13
HETATM   13  C8  UNL     1       2.289  -0.529  13.223  1.00  0.00    -0.053 A 
HETATM   14  C9  UNL     1       3.228  -0.448  12.204  1.00  0.00     0.007 A 
HETATM   15  C10 UNL     1       2.845  -0.112  10.935  1.00  0.00     0.001 A 
HETATM   16  C11 UNL     1       1.531   0.155  10.624  1.00  0.00     0.000 A 
HETATM   17  C12 UNL     1       0.606   0.076  11.629  1.00  0.00     0.001 A 
HETATM   18  C13 UNL     1       0.997  -0.266  12.919  1.00  0.00     0.007 A 
ENDBRANCH  12  13
ENDBRANCH   2  12
ENDBRANCH   1   2
BRANCH   1  19
HETATM   19  O3  UNL     1       4.903  -0.731  16.395  1.00  0.00    -0.388 OA
ATOM     20  H3  UNL     1       5.038   0.208  16.352  1.00  0.00     0.210 HD
ENDBRANCH   1  19
BRANCH   1  21
HETATM   21  C15 UNL     1       6.197  -2.372  15.216  1.00  0.00     0.302 C 
BRANCH  21  22
HETATM   22  N2  UNL     1       7.532  -2.037  14.725  1.00  0.00     0.018 N 
HETATM   23  C16 UNL     1       7.347  -0.767  14.020  1.00  0.00     0.303 C 
BRANCH  22  24
HETATM   24  C17 UNL     1       8.383  -1.821  15.867  1.00  0.00     0.303 C 
BRANCH  24  25
HETATM   25  C18 UNL     1       9.116  -3.040  16.293  1.00  0.00    -0.030 A 
HETATM   26  C19 UNL     1      10.401  -3.225  15.834  1.00  0.00     0.009 A 
HETATM   27  C20 UNL     1      11.084  -4.352  16.206  1.00  0.00     0.001 A 
HETATM   28  C21 UNL     1      10.486  -5.266  17.018  1.00  0.00     0.000 A 
HETATM   29  C22 UNL     1       9.208  -5.132  17.509  1.00  0.00     0.001 A 
HETATM   30  C23 UNL     1       8.537  -3.977  17.114  1.00  0.00     0.009 A 
ENDBRANCH  24  25
ENDBRANCH  22  24
BRANCH  22  31
HETATM   31  N3  UNL     1       8.054  -3.035  13.942  1.00  0.00    -0.181 N 
HETATM   32  C24 UNL     1       7.411  -4.292  13.676  1.00  0.00     0.275 C 
HETATM   33  O4  UNL     1       6.295  -4.537  14.164  1.00  0.00    -0.266 OA
ATOM     34  H3  UNL     1       8.967  -2.872  13.516  1.00  0.00     0.197 HD
BRANCH  32  35
HETATM   35  C25 UNL     1       8.032  -5.311  12.837  1.00  0.00     0.033 A 
HETATM   36  C26 UNL     1       9.180  -5.940  13.309  1.00  0.00     0.017 A 
HETATM   37  C27 UNL     1       9.825  -6.896  12.571  1.00  0.00     0.001 A 
HETATM   38  C28 UNL     1       9.334  -7.239  11.347  1.00  0.00     0.000 A 
HETATM   39  C29 UNL     1       8.186  -6.636  10.832  1.00  0.00     0.001 A 
HETATM   40  C30 UNL     1       7.569  -5.681  11.607  1.00  0.00     0.017 A 
ENDBRANCH  32  35
ENDBRANCH  22  31
ENDBRANCH  21  22
ENDBRANCH   1  21
TORSDOF 13
ENDMDL
