MODEL 6
REMARK VINA RESULT: -8.587577665      1.707      4.450
REMARK  13 active torsions:
REMARK  status: ('A' for Active; 'I' for Inactive)
REMARK    1  A    between atoms: C2_2  and  O1_5 
REMARK    2  A    between atoms: O1_5  and  C5_6 
REMARK       I    between atoms: C5_6  and  N1_8 
REMARK    3  A    between atoms: N1_8  and  C6_10 
REMARK    4  A    between atoms: C6_10  and  C7_11 
REMARK    5  A    between atoms: C6_10  and  C14_18 
REMARK    6  A    between atoms: C7_11  and  C8_12 
REMARK    7  A    between atoms: C14_18  and  O3_19 
REMARK    8  A    between atoms: C14_18  and  C15_21 
REMARK    9  A    between atoms: C15_21  and  N2_22 
REMARK   10  A    between atoms: N2_22  and  C17_24 
REMARK   11  A    between atoms: N2_22  and  N3_31 
REMARK   12  A    between atoms: C17_24  and  C18_25 
REMARK       I    between atoms: N3_31  and  C24_33 
REMARK   13  A    between atoms: C24_33  and  C25_35 
ROOT
HETATM    1  C14 UNL     1       4.669  -0.773  14.383  1.00  0.00     0.192 C 
ENDROOT
BRANCH   1   2
HETATM    2  C6  UNL     1       4.207   0.244  13.356  1.00  0.00     0.026 C 
BRANCH   2   3
HETATM    3  N1  UNL     1       5.164   1.243  13.031  1.00  0.00    -0.307 N 
HETATM    4  C5  UNL     1       6.191   1.115  12.039  1.00  0.00     0.365 C 
HETATM    5  O2  UNL     1       6.287   0.043  11.391  1.00  0.00    -0.238 OA
ATOM      6  H1  UNL     1       5.116   2.122  13.546  1.00  0.00     0.170 HD
BRANCH   4   7
HETATM    7  O1  UNL     1       7.101   2.110  11.740  1.00  0.00    -0.294 OA
BRANCH   7   8
HETATM    8  C2  UNL     1       6.919   2.928  10.629  1.00  0.00     0.061 C 
HETATM    9  C1  UNL     1       7.682   4.233  10.911  1.00  0.00     0.046 C 
HETATM   10  C3  UNL     1       7.529   2.374   9.362  1.00  0.00     0.046 C 
HETATM   11  C4  UNL     1       5.491   3.316  10.355  1.00  0.00     0.046 C 
ENDBRANCH   7   8
ENDBRANCH   4   7
ENDBRANCH   2   3
BRANCH   2  12
HETATM   12  C7  UNL     1       3.352  -0.292  12.263  1.00  0.00     0.094 C 
BRANCH  12  13
HETATM   13  C8  UNL     1       2.047   0.462  12.198  1.00  0.00    -0.053 A 
HETATM   14  C9  UNL     1       0.934  -0.073  12.833  1.00  0.00     0.007 A 
HETATM   15  C10 UNL     1      -0.269   0.573  12.782  1.00  0.00     0.001 A 
HETATM   16  C11 UNL     1      -0.422   1.763  12.109  1.00  0.00     0.000 A 
HETATM   17  C12 UNL     1       0.674   2.291  11.482  1.00  0.00     0.001 A 
HETATM   18  C13 UNL     1       1.897   1.632  11.535  1.00  0.00     0.007 A 
ENDBRANCH  12  13
ENDBRANCH   2  12
ENDBRANCH   1   2
BRANCH   1  19
HETATM   19  O3  UNL     1       3.624  -0.877  15.326  1.00  0.00    -0.388 OA
ATOM     20  H3  UNL     1       3.598  -1.789  15.588  1.00  0.00     0.210 HD
ENDBRANCH   1  19
BRANCH   1  21
HETATM   21  C15 UNL     1       4.862  -2.077  13.657  1.00  0.00     0.302 C 
BRANCH  21  22
HETATM   22  N2  UNL     1       5.929  -2.899  14.225  1.00  0.00     0.018 N 
HETATM   23  C16 UNL     1       6.304  -3.804  13.136  1.00  0.00     0.303 C 
BRANCH  22  24
HETATM   24  C17 UNL     1       7.043  -2.035  14.524  1.00  0.00     0.303 C 
BRANCH  24  25
HETATM   25  C18 UNL     1       8.292  -2.774  14.833  1.00  0.00    -0.030 A 
HETATM   26  C19 UNL     1       8.501  -3.192  16.128  1.00  0.00     0.009 A 
HETATM   27  C20 UNL     1       9.657  -3.861  16.433  1.00  0.00     0.001 A 
HETATM   28  C21 UNL     1      10.574  -4.102  15.457  1.00  0.00     0.000 A 
HETATM   29  C22 UNL     1      10.417  -3.711  14.147  1.00  0.00     0.001 A 
HETATM   30  C23 UNL     1       9.233  -3.032  13.866  1.00  0.00     0.009 A 
ENDBRANCH  24  25
ENDBRANCH  22  24
BRANCH  22  31
HETATM   31  N3  UNL     1       5.526  -3.543  15.367  1.00  0.00    -0.181 N 
HETATM   32  C24 UNL     1       4.436  -4.477  15.441  1.00  0.00     0.275 C 
HETATM   33  O4  UNL     1       3.785  -4.758  14.421  1.00  0.00    -0.266 OA
ATOM     34  H3  UNL     1       6.037  -3.345  16.227  1.00  0.00     0.197 HD
BRANCH  32  35
HETATM   35  C25 UNL     1       4.058  -5.119  16.695  1.00  0.00     0.033 A 
HETATM   36  C26 UNL     1       3.701  -6.464  16.662  1.00  0.00     0.017 A 
HETATM   37  C27 UNL     1       3.321  -7.129  17.797  1.00  0.00     0.001 A 
HETATM   38  C28 UNL     1       3.291  -6.462  18.984  1.00  0.00     0.000 A 
HETATM   39  C29 UNL     1       3.640  -5.114  19.067  1.00  0.00     0.001 A 
HETATM   40  C30 UNL     1       4.017  -4.484  17.902  1.00  0.00     0.017 A 
ENDBRANCH  32  35
ENDBRANCH  22  31
ENDBRANCH  21  22
ENDBRANCH   1  21
TORSDOF 13
ENDMDL
