MODEL 5
REMARK VINA RESULT: -8.642757713      1.757      8.979
REMARK  13 active torsions:
REMARK  status: ('A' for Active; 'I' for Inactive)
REMARK    1  A    between atoms: C2_2  and  O1_5 
REMARK    2  A    between atoms: O1_5  and  C5_6 
REMARK       I    between atoms: C5_6  and  N1_8 
REMARK    3  A    between atoms: N1_8  and  C6_10 
REMARK    4  A    between atoms: C6_10  and  C7_11 
REMARK    5  A    between atoms: C6_10  and  C14_18 
REMARK    6  A    between atoms: C7_11  and  C8_12 
REMARK    7  A    between atoms: C14_18  and  O3_19 
REMARK    8  A    between atoms: C14_18  and  C15_21 
REMARK    9  A    between atoms: C15_21  and  N2_22 
REMARK   10  A    between atoms: N2_22  and  C17_24 
REMARK   11  A    between atoms: N2_22  and  N3_31 
REMARK   12  A    between atoms: C17_24  and  C18_25 
REMARK       I    between atoms: N3_31  and  C24_33 
REMARK   13  A    between atoms: C24_33  and  C25_35 
ROOT
HETATM    1  C14 UNL     1       5.884  -1.904  12.504  1.00  0.00     0.192 C 
ENDROOT
BRANCH   1   2
HETATM    2  C6  UNL     1       6.102  -3.132  13.367  1.00  0.00     0.026 C 
BRANCH   2   3
HETATM    3  N1  UNL     1       5.080  -3.381  14.322  1.00  0.00    -0.307 N 
HETATM    4  C5  UNL     1       5.285  -3.548  15.731  1.00  0.00     0.365 C 
HETATM    5  O2  UNL     1       6.452  -3.484  16.193  1.00  0.00    -0.238 OA
ATOM      6  H1  UNL     1       4.123  -3.447  13.977  1.00  0.00     0.170 HD
BRANCH   4   7
HETATM    7  O1  UNL     1       4.267  -3.781  16.635  1.00  0.00    -0.294 OA
BRANCH   7   8
HETATM    8  C2  UNL     1       3.630  -5.017  16.684  1.00  0.00     0.061 C 
HETATM    9  C1  UNL     1       3.239  -5.254  18.152  1.00  0.00     0.046 C 
HETATM   10  C3  UNL     1       2.332  -5.062  15.912  1.00  0.00     0.046 C 
HETATM   11  C4  UNL     1       4.484  -6.186  16.273  1.00  0.00     0.046 C 
ENDBRANCH   7   8
ENDBRANCH   4   7
ENDBRANCH   2   3
BRANCH   2  12
HETATM   12  C7  UNL     1       6.719  -4.298  12.679  1.00  0.00     0.094 C 
BRANCH  12  13
HETATM   13  C8  UNL     1       8.148  -4.479  13.127  1.00  0.00    -0.053 A 
HETATM   14  C9  UNL     1       8.830  -3.384  13.642  1.00  0.00     0.007 A 
HETATM   15  C10 UNL     1      10.130  -3.505  14.043  1.00  0.00     0.001 A 
HETATM   16  C11 UNL     1      10.806  -4.701  13.954  1.00  0.00     0.000 A 
HETATM   17  C12 UNL     1      10.134  -5.780  13.445  1.00  0.00     0.001 A 
HETATM   18  C13 UNL     1       8.812  -5.655  13.037  1.00  0.00     0.007 A 
ENDBRANCH  12  13
ENDBRANCH   2  12
ENDBRANCH   1   2
BRANCH   1  19
HETATM   19  O3  UNL     1       5.312  -2.369  11.301  1.00  0.00    -0.388 OA
ATOM     20  H3  UNL     1       4.865  -1.624  10.918  1.00  0.00     0.210 HD
ENDBRANCH   1  19
BRANCH   1  21
HETATM   21  C15 UNL     1       4.921  -1.012  13.240  1.00  0.00     0.302 C 
BRANCH  21  22
HETATM   22  N2  UNL     1       5.417   0.351  13.414  1.00  0.00     0.018 N 
HETATM   23  C16 UNL     1       5.397   0.560  14.863  1.00  0.00     0.303 C 
BRANCH  22  24
HETATM   24  C17 UNL     1       6.782   0.389  12.952  1.00  0.00     0.303 C 
BRANCH  24  25
HETATM   25  C18 UNL     1       7.008   1.374  11.866  1.00  0.00    -0.030 A 
HETATM   26  C19 UNL     1       7.472   2.625  12.203  1.00  0.00     0.009 A 
HETATM   27  C20 UNL     1       7.671   3.550  11.213  1.00  0.00     0.001 A 
HETATM   28  C21 UNL     1       7.409   3.221   9.920  1.00  0.00     0.000 A 
HETATM   29  C22 UNL     1       6.947   1.987   9.524  1.00  0.00     0.001 A 
HETATM   30  C23 UNL     1       6.754   1.066  10.551  1.00  0.00     0.009 A 
ENDBRANCH  24  25
ENDBRANCH  22  24
BRANCH  22  31
HETATM   31  N3  UNL     1       4.668   1.262  12.713  1.00  0.00    -0.181 N 
HETATM   32  C24 UNL     1       3.263   1.133  12.440  1.00  0.00     0.275 C 
HETATM   33  O4  UNL     1       2.635   0.144  12.855  1.00  0.00    -0.266 OA
ATOM     34  H3  UNL     1       5.144   2.092  12.358  1.00  0.00     0.197 HD
BRANCH  32  35
HETATM   35  C25 UNL     1       2.532   2.140  11.679  1.00  0.00     0.033 A 
HETATM   36  C26 UNL     1       3.263   3.076  10.955  1.00  0.00     0.017 A 
HETATM   37  C27 UNL     1       2.646   4.059  10.230  1.00  0.00     0.001 A 
HETATM   38  C28 UNL     1       1.285   4.124  10.216  1.00  0.00     0.000 A 
HETATM   39  C29 UNL     1       0.508   3.208  10.926  1.00  0.00     0.001 A 
HETATM   40  C30 UNL     1       1.170   2.236  11.641  1.00  0.00     0.017 A 
ENDBRANCH  32  35
ENDBRANCH  22  31
ENDBRANCH  21  22
ENDBRANCH   1  21
TORSDOF 13
ENDMDL
