MODEL 1
REMARK VINA RESULT: -4.965399715      0.000      0.000
REMARK  6 active torsions:
REMARK  status: ('A' for Active; 'I' for Inactive)
REMARK       I    between atoms: C2_2  and  N1_4 
REMARK    1  A    between atoms: N1_4  and  C3_6 
REMARK    2  A    between atoms: C4_7  and  O2_8 
REMARK    3  A    between atoms: C5_11  and  C6_12 
REMARK    4  A    between atoms: C6_12  and  O4_13 
REMARK    5  A    between atoms: C7_15  and  O5_16 
REMARK    6  A    between atoms: C8_18  and  O6_19 
ROOT
HETATM    1  C3  UNL     1      74.615  16.000  25.399  1.00  0.00     0.170 C 
HETATM    2  C4  UNL     1      76.027  15.824  25.834  1.00  0.00     0.282 C 
HETATM    3  O3  UNL     1      76.240  15.568  27.149  1.00  0.00    -0.349 OA
HETATM    4  C5  UNL     1      75.348  14.772  27.793  1.00  0.00     0.179 C 
HETATM    5  C7  UNL     1      74.330  14.111  26.911  1.00  0.00     0.180 C 
HETATM    6  C8  UNL     1      73.607  15.244  26.205  1.00  0.00     0.177 C 
ENDROOT
BRANCH   1   7
HETATM    7  N1  UNL     1      74.272  17.407  25.291  1.00  0.00    -0.349 N 
HETATM    8  C2  UNL     1      74.355  18.160  24.101  1.00  0.00     0.214 C 
HETATM    9  C1  UNL     1      73.995  19.607  24.021  1.00  0.00     0.117 C 
HETATM   10  O1  UNL     1      74.749  17.587  23.063  1.00  0.00    -0.274 OA
ATOM     11  H1  UNL     1      73.950  17.884  26.134  1.00  0.00     0.163 HD
ENDBRANCH   1   7
BRANCH   2  12
HETATM   12  O2  UNL     1      76.686  14.877  25.017  1.00  0.00    -0.369 OA
ATOM     13  H2  UNL     1      77.190  14.270  25.548  1.00  0.00     0.212 HD
ENDBRANCH   2  12
BRANCH   6  14
HETATM   14  O6  UNL     1      72.542  14.777  25.443  1.00  0.00    -0.391 OA
ATOM     15  H6  UNL     1      72.140  13.997  25.807  1.00  0.00     0.210 HD
ENDBRANCH   6  14
BRANCH   5  16
HETATM   16  O5  UNL     1      74.872  13.234  26.002  1.00  0.00    -0.390 OA
ATOM     17  H5  UNL     1      74.823  12.325  26.272  1.00  0.00     0.210 HD
ENDBRANCH   5  16
BRANCH   4  18
HETATM   18  C6  UNL     1      76.071  13.779  28.680  1.00  0.00     0.198 C 
BRANCH  18  19
HETATM   19  O4  UNL     1      75.486  12.517  28.627  1.00  0.00    -0.398 OA
ATOM     20  H4  UNL     1      76.138  11.829  28.553  1.00  0.00     0.209 HD
ENDBRANCH  18  19
ENDBRANCH   4  18
TORSDOF 6
ENDMDL
