MODEL 5
REMARK VINA RESULT: -4.794288773      2.178      2.670
REMARK  6 active torsions:
REMARK  status: ('A' for Active; 'I' for Inactive)
REMARK       I    between atoms: C2_2  and  N1_4 
REMARK    1  A    between atoms: N1_4  and  C3_6 
REMARK    2  A    between atoms: C4_7  and  O2_8 
REMARK    3  A    between atoms: C5_11  and  C6_12 
REMARK    4  A    between atoms: C6_12  and  O4_13 
REMARK    5  A    between atoms: C7_15  and  O5_16 
REMARK    6  A    between atoms: C8_18  and  O6_19 
ROOT
HETATM    1  C3  UNL     1      75.918  15.005  26.298  1.00  0.00     0.170 C 
HETATM    2  C4  UNL     1      76.268  15.903  27.431  1.00  0.00     0.282 C 
HETATM    3  O3  UNL     1      75.286  16.181  28.325  1.00  0.00    -0.349 OA
HETATM    4  C5  UNL     1      74.417  15.185  28.642  1.00  0.00     0.179 C 
HETATM    5  C7  UNL     1      74.773  13.832  28.101  1.00  0.00     0.180 C 
HETATM    6  C8  UNL     1      74.847  14.003  26.594  1.00  0.00     0.177 C 
ENDROOT
BRANCH   1   7
HETATM    7  N1  UNL     1      75.624  15.767  25.097  1.00  0.00    -0.349 N 
HETATM    8  C2  UNL     1      76.055  15.410  23.801  1.00  0.00     0.214 C 
HETATM    9  C1  UNL     1      75.737  16.214  22.584  1.00  0.00     0.117 C 
HETATM   10  O1  UNL     1      76.735  14.371  23.667  1.00  0.00    -0.274 OA
ATOM     11  H1  UNL     1      75.069  16.617  25.196  1.00  0.00     0.163 HD
ENDBRANCH   1   7
BRANCH   2  12
HETATM   12  O2  UNL     1      77.438  15.451  28.083  1.00  0.00    -0.369 OA
ATOM     13  H2  UNL     1      77.334  15.494  29.027  1.00  0.00     0.212 HD
ENDBRANCH   2  12
BRANCH   6  14
HETATM   14  O6  UNL     1      75.047  12.788  25.949  1.00  0.00    -0.391 OA
ATOM     15  H6  UNL     1      74.386  12.604  25.292  1.00  0.00     0.210 HD
ENDBRANCH   6  14
BRANCH   5  16
HETATM   16  O5  UNL     1      75.953  13.331  28.596  1.00  0.00    -0.390 OA
ATOM     17  H5  UNL     1      76.555  14.000  28.899  1.00  0.00     0.210 HD
ENDBRANCH   5  16
BRANCH   4  18
HETATM   18  C6  UNL     1      74.167  15.160  30.136  1.00  0.00     0.198 C 
BRANCH  18  19
HETATM   19  O4  UNL     1      73.717  13.914  30.563  1.00  0.00    -0.398 OA
ATOM     20  H4  UNL     1      73.046  13.991  31.232  1.00  0.00     0.209 HD
ENDBRANCH  18  19
ENDBRANCH   4  18
TORSDOF 6
ENDMDL
