MODEL 6
REMARK VINA RESULT: -4.762464566      2.137      4.922
REMARK  6 active torsions:
REMARK  status: ('A' for Active; 'I' for Inactive)
REMARK       I    between atoms: C2_2  and  N1_4 
REMARK    1  A    between atoms: N1_4  and  C3_6 
REMARK    2  A    between atoms: C4_7  and  O2_8 
REMARK    3  A    between atoms: C5_11  and  C6_12 
REMARK    4  A    between atoms: C6_12  and  O4_13 
REMARK    5  A    between atoms: C7_15  and  O5_16 
REMARK    6  A    between atoms: C8_18  and  O6_19 
ROOT
HETATM    1  C3  UNL     1      74.508  14.977  27.907  1.00  0.00     0.170 C 
HETATM    2  C4  UNL     1      74.226  16.302  27.291  1.00  0.00     0.282 C 
HETATM    3  O3  UNL     1      75.062  16.714  26.305  1.00  0.00    -0.349 OA
HETATM    4  C5  UNL     1      75.533  15.779  25.440  1.00  0.00     0.179 C 
HETATM    5  C7  UNL     1      74.911  14.420  25.569  1.00  0.00     0.180 C 
HETATM    6  C8  UNL     1      75.172  13.988  27.002  1.00  0.00     0.177 C 
ENDROOT
BRANCH   1   7
HETATM    7  N1  UNL     1      75.227  15.125  29.160  1.00  0.00    -0.349 N 
HETATM    8  C2  UNL     1      75.058  14.284  30.281  1.00  0.00     0.214 C 
HETATM    9  C1  UNL     1      75.811  14.461  31.557  1.00  0.00     0.117 C 
HETATM   10  O1  UNL     1      74.236  13.347  30.200  1.00  0.00    -0.274 OA
ATOM     11  H1  UNL     1      75.900  15.888  29.236  1.00  0.00     0.163 HD
ENDBRANCH   1   7
BRANCH   2  12
HETATM   12  O2  UNL     1      72.876  16.384  26.881  1.00  0.00    -0.369 OA
ATOM     13  H2  UNL     1      72.695  17.232  26.492  1.00  0.00     0.212 HD
ENDBRANCH   2  12
BRANCH   6  14
HETATM   14  O6  UNL     1      74.755  12.681  27.227  1.00  0.00    -0.391 OA
ATOM     15  H6  UNL     1      75.469  12.056  27.209  1.00  0.00     0.210 HD
ENDBRANCH   6  14
BRANCH   5  16
HETATM   16  O5  UNL     1      73.566  14.398  25.288  1.00  0.00    -0.390 OA
ATOM     17  H5  UNL     1      73.021  14.707  26.002  1.00  0.00     0.210 HD
ENDBRANCH   5  16
BRANCH   4  18
HETATM   18  C6  UNL     1      75.483  16.301  24.019  1.00  0.00     0.198 C 
BRANCH  18  19
HETATM   19  O4  UNL     1      75.289  15.275  23.098  1.00  0.00    -0.398 OA
ATOM     20  H4  UNL     1      74.852  14.528  23.490  1.00  0.00     0.209 HD
ENDBRANCH  18  19
ENDBRANCH   4  18
TORSDOF 6
ENDMDL
