MODEL 14
REMARK VINA RESULT: -4.461589422      1.049      1.090
REMARK  6 active torsions:
REMARK  status: ('A' for Active; 'I' for Inactive)
REMARK       I    between atoms: C2_2  and  N1_4 
REMARK    1  A    between atoms: N1_4  and  C3_6 
REMARK    2  A    between atoms: C4_7  and  O2_8 
REMARK    3  A    between atoms: C5_11  and  C6_12 
REMARK    4  A    between atoms: C6_12  and  O4_13 
REMARK    5  A    between atoms: C7_15  and  O5_16 
REMARK    6  A    between atoms: C8_18  and  O6_19 
ROOT
HETATM    1  C3  UNL     1      74.489  16.056  26.096  1.00  0.00     0.170 C 
HETATM    2  C4  UNL     1      75.599  16.049  27.087  1.00  0.00     0.282 C 
HETATM    3  O3  UNL     1      75.362  15.440  28.275  1.00  0.00    -0.349 OA
HETATM    4  C5  UNL     1      74.604  14.311  28.270  1.00  0.00     0.179 C 
HETATM    5  C7  UNL     1      74.280  13.768  26.909  1.00  0.00     0.180 C 
HETATM    6  C8  UNL     1      73.556  14.890  26.186  1.00  0.00     0.177 C 
ENDROOT
BRANCH   1   7
HETATM    7  N1  UNL     1      73.774  17.320  26.120  1.00  0.00    -0.349 N 
HETATM    8  C2  UNL     1      73.728  18.230  25.043  1.00  0.00     0.214 C 
HETATM    9  C1  UNL     1      72.983  19.523  25.096  1.00  0.00     0.117 C 
HETATM   10  O1  UNL     1      74.341  17.940  23.994  1.00  0.00    -0.274 OA
ATOM     11  H1  UNL     1      73.270  17.566  26.972  1.00  0.00     0.163 HD
ENDBRANCH   1   7
BRANCH   2  12
HETATM   12  O2  UNL     1      76.791  15.571  26.497  1.00  0.00    -0.369 OA
ATOM     13  H2  UNL     1      77.516  15.632  27.109  1.00  0.00     0.212 HD
ENDBRANCH   2  12
BRANCH   6  14
HETATM   14  O6  UNL     1      73.082  14.478  24.946  1.00  0.00    -0.391 OA
ATOM     15  H6  UNL     1      72.175  14.719  24.796  1.00  0.00     0.210 HD
ENDBRANCH   6  14
BRANCH   5  16
HETATM   16  O5  UNL     1      75.384  13.360  26.199  1.00  0.00    -0.390 OA
ATOM     17  H5  UNL     1      75.309  13.501  25.263  1.00  0.00     0.210 HD
ENDBRANCH   5  16
BRANCH   4  18
HETATM   18  C6  UNL     1      75.213  13.262  29.177  1.00  0.00     0.198 C 
BRANCH  18  19
HETATM   19  O4  UNL     1      76.590  13.163  29.001  1.00  0.00    -0.398 OA
ATOM     20  H4  UNL     1      77.034  12.939  29.811  1.00  0.00     0.209 HD
ENDBRANCH  18  19
ENDBRANCH   4  18
TORSDOF 6
ENDMDL
