MODEL 3
REMARK VINA RESULT: -4.815627163      1.676      5.110
REMARK  6 active torsions:
REMARK  status: ('A' for Active; 'I' for Inactive)
REMARK       I    between atoms: C2_2  and  N1_4 
REMARK    1  A    between atoms: N1_4  and  C3_6 
REMARK    2  A    between atoms: C4_7  and  O2_8 
REMARK    3  A    between atoms: C5_11  and  C6_12 
REMARK    4  A    between atoms: C6_12  and  O4_13 
REMARK    5  A    between atoms: C7_15  and  O5_16 
REMARK    6  A    between atoms: C8_18  and  O6_19 
ROOT
HETATM    1  C3  UNL     1      74.752  14.852  27.066  1.00  0.00     0.170 C 
HETATM    2  C4  UNL     1      73.668  15.085  26.074  1.00  0.00     0.282 C 
HETATM    3  O3  UNL     1      73.318  16.372  25.833  1.00  0.00    -0.349 OA
HETATM    4  C5  UNL     1      74.304  17.307  25.819  1.00  0.00     0.179 C 
HETATM    5  C7  UNL     1      75.700  16.760  25.883  1.00  0.00     0.180 C 
HETATM    6  C8  UNL     1      75.761  15.952  27.167  1.00  0.00     0.177 C 
ENDROOT
BRANCH   1   7
HETATM    7  N1  UNL     1      74.207  14.502  28.365  1.00  0.00    -0.349 N 
HETATM    8  C2  UNL     1      74.797  13.579  29.255  1.00  0.00     0.214 C 
HETATM    9  C1  UNL     1      74.212  13.238  30.586  1.00  0.00     0.117 C 
HETATM   10  O1  UNL     1      75.859  13.020  28.912  1.00  0.00    -0.274 OA
ATOM     11  H1  UNL     1      73.339  14.953  28.655  1.00  0.00     0.163 HD
ENDBRANCH   1   7
BRANCH   2  12
HETATM   12  O2  UNL     1      73.938  14.396  24.869  1.00  0.00    -0.369 OA
ATOM     13  H2  UNL     1      73.130  14.173  24.422  1.00  0.00     0.212 HD
ENDBRANCH   2  12
BRANCH   6  14
HETATM   14  O6  UNL     1      77.047  15.487  27.420  1.00  0.00    -0.391 OA
ATOM     15  H6  UNL     1      77.480  15.958  28.122  1.00  0.00     0.210 HD
ENDBRANCH   6  14
BRANCH   5  16
HETATM   16  O5  UNL     1      76.042  15.986  24.801  1.00  0.00    -0.390 OA
ATOM     17  H5  UNL     1      76.343  15.115  25.033  1.00  0.00     0.210 HD
ENDBRANCH   5  16
BRANCH   4  18
HETATM   18  C6  UNL     1      74.113  18.259  24.657  1.00  0.00     0.198 C 
BRANCH  18  19
HETATM   19  O4  UNL     1      74.427  17.659  23.440  1.00  0.00    -0.398 OA
ATOM     20  H4  UNL     1      74.994  18.209  22.912  1.00  0.00     0.209 HD
ENDBRANCH  18  19
ENDBRANCH   4  18
TORSDOF 6
ENDMDL
