MODEL 4
REMARK VINA RESULT: -4.807785560      2.167      4.439
REMARK  6 active torsions:
REMARK  status: ('A' for Active; 'I' for Inactive)
REMARK       I    between atoms: C2_2  and  N1_4 
REMARK    1  A    between atoms: N1_4  and  C3_6 
REMARK    2  A    between atoms: C4_7  and  O2_8 
REMARK    3  A    between atoms: C5_11  and  C6_12 
REMARK    4  A    between atoms: C6_12  and  O4_13 
REMARK    5  A    between atoms: C7_15  and  O5_16 
REMARK    6  A    between atoms: C8_18  and  O6_19 
ROOT
HETATM    1  C3  UNL     1      74.354  15.531  27.439  1.00  0.00     0.170 C 
HETATM    2  C4  UNL     1      73.565  15.835  26.215  1.00  0.00     0.282 C 
HETATM    3  O3  UNL     1      74.243  16.335  25.152  1.00  0.00    -0.349 OA
HETATM    4  C5  UNL     1      75.492  15.855  24.914  1.00  0.00     0.179 C 
HETATM    5  C7  UNL     1      75.894  14.679  25.754  1.00  0.00     0.180 C 
HETATM    6  C8  UNL     1      75.779  15.150  27.193  1.00  0.00     0.177 C 
ENDROOT
BRANCH   1   7
HETATM    7  N1  UNL     1      74.244  16.602  28.413  1.00  0.00    -0.349 N 
HETATM    8  C2  UNL     1      74.220  16.410  29.811  1.00  0.00     0.214 C 
HETATM    9  C1  UNL     1      74.106  17.533  30.789  1.00  0.00     0.117 C 
HETATM   10  O1  UNL     1      74.297  15.244  30.251  1.00  0.00    -0.274 OA
ATOM     11  H1  UNL     1      74.180  17.558  28.064  1.00  0.00     0.163 HD
ENDBRANCH   1   7
BRANCH   2  12
HETATM   12  O2  UNL     1      72.777  14.723  25.839  1.00  0.00    -0.369 OA
ATOM     13  H2  UNL     1      72.018  15.003  25.341  1.00  0.00     0.212 HD
ENDBRANCH   2  12
BRANCH   6  14
HETATM   14  O6  UNL     1      76.247  14.191  28.085  1.00  0.00    -0.391 OA
ATOM     15  H6  UNL     1      76.536  14.562  28.910  1.00  0.00     0.210 HD
ENDBRANCH   6  14
BRANCH   5  16
HETATM   16  O5  UNL     1      75.126  13.559  25.542  1.00  0.00    -0.390 OA
ATOM     17  H5  UNL     1      74.755  13.194  26.337  1.00  0.00     0.210 HD
ENDBRANCH   5  16
BRANCH   4  18
HETATM   18  C6  UNL     1      75.684  15.596  23.434  1.00  0.00     0.198 C 
BRANCH  18  19
HETATM   19  O4  UNL     1      76.637  14.608  23.201  1.00  0.00    -0.398 OA
ATOM     20  H4  UNL     1      76.877  14.559  22.283  1.00  0.00     0.209 HD
ENDBRANCH  18  19
ENDBRANCH   4  18
TORSDOF 6
ENDMDL
