MODEL 3
REMARK VINA RESULT: -5.935736429      3.146      7.581
REMARK  12 active torsions:
REMARK  status: ('A' for Active; 'I' for Inactive)
REMARK    1  A    between atoms: O1_1  and  C1_3 
REMARK    2  A    between atoms: C1_3  and  C2_4 
REMARK    3  A    between atoms: C3_6  and  O3_7 
REMARK    4  A    between atoms: O3_7  and  C4_8 
REMARK    5  A    between atoms: C4_8  and  C5_9 
REMARK    6  A    between atoms: C6_11  and  O5_12 
REMARK    7  A    between atoms: C7_14  and  O6_15 
REMARK    8  A    between atoms: C8_17  and  O7_18 
REMARK    9  A    between atoms: C9_20  and  O8_21 
REMARK   10  A    between atoms: C10_23  and  O9_24 
REMARK   11  A    between atoms: C11_26  and  O10_27 
REMARK   12  A    between atoms: C12_29  and  O11_30 
ROOT
HETATM    1  O3  UNL     1      15.768 -36.002  30.906  1.00  0.00    -0.356 OA
ENDROOT
BRANCH   1   2
HETATM    2  C3  UNL     1      14.999 -36.840  30.164  1.00  0.00     0.291 C 
HETATM    3  O2  UNL     1      15.825 -37.824  29.622  1.00  0.00    -0.348 OA
HETATM    4  C2  UNL     1      15.195 -39.028  29.437  1.00  0.00     0.179 C 
HETATM    5  C12 UNL     1      13.781 -38.861  28.956  1.00  0.00     0.180 C 
HETATM    6  C11 UNL     1      12.990 -38.268  30.131  1.00  0.00     0.183 C 
HETATM    7  C10 UNL     1      13.891 -37.446  31.005  1.00  0.00     0.204 C 
BRANCH   4   8
HETATM    8  C1  UNL     1      16.015 -39.905  28.529  1.00  0.00     0.198 C 
BRANCH   8   9
HETATM    9  O1  UNL     1      16.500 -39.096  27.497  1.00  0.00    -0.398 OA
ATOM     10  H1  UNL     1      17.218 -39.564  27.086  1.00  0.00     0.209 HD
ENDBRANCH   8   9
ENDBRANCH   4   8
BRANCH   5  11
HETATM   11  O11 UNL     1      13.649 -37.992  27.896  1.00  0.00    -0.390 OA
ATOM     12  H11 UNL     1      13.231 -38.374  27.133  1.00  0.00     0.210 HD
ENDBRANCH   5  11
BRANCH   6  13
HETATM   13  O10 UNL     1      11.982 -37.445  29.619  1.00  0.00    -0.390 OA
ATOM     14  H10 UNL     1      11.751 -37.747  28.748  1.00  0.00     0.210 HD
ENDBRANCH   6  13
BRANCH   7  15
HETATM   15  O9  UNL     1      14.374 -38.132  32.106  1.00  0.00    -0.388 OA
ATOM     16  H9  UNL     1      13.681 -38.518  32.629  1.00  0.00     0.210 HD
ENDBRANCH   7  15
ENDBRANCH   1   2
BRANCH   1  17
HETATM   17  C4  UNL     1      17.078 -35.825  30.538  1.00  0.00     0.205 C 
BRANCH  17  18
HETATM   18  C5  UNL     1      18.017 -35.938  31.685  1.00  0.00     0.180 C 
HETATM   19  O4  UNL     1      17.495 -36.264  32.902  1.00  0.00    -0.349 OA
HETATM   20  C6  UNL     1      17.571 -37.607  33.227  1.00  0.00     0.288 C 
HETATM   21  C7  UNL     1      19.003 -38.056  33.486  1.00  0.00     0.204 C 
HETATM   22  C8  UNL     1      19.892 -37.137  32.668  1.00  0.00     0.183 C 
HETATM   23  C9  UNL     1      19.172 -36.892  31.357  1.00  0.00     0.180 C 
BRANCH  20  24
HETATM   24  O5  UNL     1      16.758 -37.829  34.336  1.00  0.00    -0.369 OA
ATOM     25  H5  UNL     1      16.121 -38.496  34.106  1.00  0.00     0.212 HD
ENDBRANCH  20  24
BRANCH  21  26
HETATM   26  O6  UNL     1      19.337 -37.992  34.829  1.00  0.00    -0.388 OA
ATOM     27  H6  UNL     1      19.094 -38.782  35.297  1.00  0.00     0.210 HD
ENDBRANCH  21  26
BRANCH  22  28
HETATM   28  O7  UNL     1      21.150 -37.683  32.454  1.00  0.00    -0.390 OA
ATOM     29  H7  UNL     1      21.755 -37.471  33.155  1.00  0.00     0.210 HD
ENDBRANCH  22  28
BRANCH  23  30
HETATM   30  O8  UNL     1      19.991 -36.383  30.375  1.00  0.00    -0.390 OA
ATOM     31  H8  UNL     1      20.676 -36.997  30.134  1.00  0.00     0.210 HD
ENDBRANCH  23  30
ENDBRANCH  17  18
ENDBRANCH   1  17
TORSDOF 12
ENDMDL
