MODEL 1
REMARK VINA RESULT: -5.976875799      0.000      0.000
REMARK  12 active torsions:
REMARK  status: ('A' for Active; 'I' for Inactive)
REMARK    1  A    between atoms: O1_1  and  C1_3 
REMARK    2  A    between atoms: C1_3  and  C2_4 
REMARK    3  A    between atoms: C3_6  and  O3_7 
REMARK    4  A    between atoms: O3_7  and  C4_8 
REMARK    5  A    between atoms: C4_8  and  C5_9 
REMARK    6  A    between atoms: C6_11  and  O5_12 
REMARK    7  A    between atoms: C7_14  and  O6_15 
REMARK    8  A    between atoms: C8_17  and  O7_18 
REMARK    9  A    between atoms: C9_20  and  O8_21 
REMARK   10  A    between atoms: C10_23  and  O9_24 
REMARK   11  A    between atoms: C11_26  and  O10_27 
REMARK   12  A    between atoms: C12_29  and  O11_30 
ROOT
HETATM    1  O3  UNL     1      20.829 -37.733  33.161  1.00  0.00    -0.356 OA
ENDROOT
BRANCH   1   2
HETATM    2  C3  UNL     1      22.066 -37.286  32.823  1.00  0.00     0.291 C 
HETATM    3  O2  UNL     1      22.280 -36.069  33.471  1.00  0.00    -0.348 OA
HETATM    4  C2  UNL     1      23.596 -35.834  33.775  1.00  0.00     0.179 C 
HETATM    5  C12 UNL     1      24.523 -36.300  32.686  1.00  0.00     0.180 C 
HETATM    6  C11 UNL     1      24.466 -37.834  32.695  1.00  0.00     0.183 C 
HETATM    7  C10 UNL     1      23.130 -38.304  33.189  1.00  0.00     0.204 C 
BRANCH   4   8
HETATM    8  C1  UNL     1      23.795 -34.383  34.122  1.00  0.00     0.198 C 
BRANCH   8   9
HETATM    9  O1  UNL     1      23.760 -33.661  32.925  1.00  0.00    -0.398 OA
ATOM     10  H1  UNL     1      24.619 -33.273  32.805  1.00  0.00     0.209 HD
ENDBRANCH   8   9
ENDBRANCH   4   8
BRANCH   5  11
HETATM   11  O11 UNL     1      24.158 -35.885  31.426  1.00  0.00    -0.390 OA
ATOM     12  H11 UNL     1      24.658 -36.290  30.726  1.00  0.00     0.210 HD
ENDBRANCH   5  11
BRANCH   6  13
HETATM   13  O10 UNL     1      24.652 -38.293  31.387  1.00  0.00    -0.390 OA
ATOM     14  H10 UNL     1      25.572 -38.495  31.260  1.00  0.00     0.210 HD
ENDBRANCH   6  13
BRANCH   7  15
HETATM   15  O9  UNL     1      23.117 -38.626  34.535  1.00  0.00    -0.388 OA
ATOM     16  H9  UNL     1      22.727 -37.943  35.070  1.00  0.00     0.210 HD
ENDBRANCH   7  15
ENDBRANCH   1   2
BRANCH   1  17
HETATM   17  C4  UNL     1      20.207 -38.621  32.320  1.00  0.00     0.205 C 
BRANCH  17  18
HETATM   18  C5  UNL     1      18.965 -38.069  31.718  1.00  0.00     0.180 C 
HETATM   19  O4  UNL     1      17.805 -38.204  32.422  1.00  0.00    -0.349 OA
HETATM   20  C6  UNL     1      17.450 -37.098  33.176  1.00  0.00     0.288 C 
HETATM   21  C7  UNL     1      17.033 -35.919  32.307  1.00  0.00     0.204 C 
HETATM   22  C8  UNL     1      17.768 -36.080  30.989  1.00  0.00     0.183 C 
HETATM   23  C9  UNL     1      19.153 -36.598  31.325  1.00  0.00     0.180 C 
BRANCH  20  24
HETATM   24  O5  UNL     1      16.430 -37.479  34.045  1.00  0.00    -0.369 OA
ATOM     25  H5  UNL     1      16.493 -36.941  34.826  1.00  0.00     0.212 HD
ENDBRANCH  20  24
BRANCH  21  26
HETATM   26  O6  UNL     1      15.664 -35.879  32.102  1.00  0.00    -0.388 OA
ATOM     27  H6  UNL     1      15.413 -36.266  31.271  1.00  0.00     0.210 HD
ENDBRANCH  21  26
BRANCH  22  28
HETATM   28  O7  UNL     1      17.838 -34.888  30.282  1.00  0.00    -0.390 OA
ATOM     29  H7  UNL     1      17.912 -34.136  30.858  1.00  0.00     0.210 HD
ENDBRANCH  22  28
BRANCH  23  30
HETATM   30  O8  UNL     1      20.051 -36.456  30.292  1.00  0.00    -0.390 OA
ATOM     31  H8  UNL     1      20.007 -35.590  29.903  1.00  0.00     0.210 HD
ENDBRANCH  23  30
ENDBRANCH  17  18
ENDBRANCH   1  17
TORSDOF 12
ENDMDL
