MODEL 2
REMARK VINA RESULT: -5.949656979      3.841      6.072
REMARK  12 active torsions:
REMARK  status: ('A' for Active; 'I' for Inactive)
REMARK    1  A    between atoms: O1_1  and  C1_3 
REMARK    2  A    between atoms: C1_3  and  C2_4 
REMARK    3  A    between atoms: C3_6  and  O3_7 
REMARK    4  A    between atoms: O3_7  and  C4_8 
REMARK    5  A    between atoms: C4_8  and  C5_9 
REMARK    6  A    between atoms: C6_11  and  O5_12 
REMARK    7  A    between atoms: C7_14  and  O6_15 
REMARK    8  A    between atoms: C8_17  and  O7_18 
REMARK    9  A    between atoms: C9_20  and  O8_21 
REMARK   10  A    between atoms: C10_23  and  O9_24 
REMARK   11  A    between atoms: C11_26  and  O10_27 
REMARK   12  A    between atoms: C12_29  and  O11_30 
ROOT
HETATM    1  O3  UNL     1      17.226 -39.399  31.056  1.00  0.00    -0.356 OA
ENDROOT
BRANCH   1   2
HETATM    2  C3  UNL     1      17.647 -38.108  31.049  1.00  0.00     0.291 C 
HETATM    3  O2  UNL     1      16.696 -37.337  31.716  1.00  0.00    -0.348 OA
HETATM    4  C2  UNL     1      17.225 -36.243  32.352  1.00  0.00     0.179 C 
HETATM    5  C12 UNL     1      18.318 -35.592  31.549  1.00  0.00     0.180 C 
HETATM    6  C11 UNL     1      19.503 -36.568  31.561  1.00  0.00     0.183 C 
HETATM    7  C10 UNL     1      19.016 -37.981  31.693  1.00  0.00     0.204 C 
BRANCH   4   8
HETATM    8  C1  UNL     1      16.128 -35.280  32.721  1.00  0.00     0.198 C 
BRANCH   8   9
HETATM    9  O1  UNL     1      15.365 -35.058  31.571  1.00  0.00    -0.398 OA
ATOM     10  H1  UNL     1      14.451 -35.099  31.826  1.00  0.00     0.209 HD
ENDBRANCH   8   9
ENDBRANCH   4   8
BRANCH   5  11
HETATM   11  O11 UNL     1      17.987 -35.367  30.232  1.00  0.00    -0.390 OA
ATOM     12  H11 UNL     1      17.454 -34.592  30.095  1.00  0.00     0.210 HD
ENDBRANCH   5  11
BRANCH   6  13
HETATM   13  O10 UNL     1      20.196 -36.439  30.353  1.00  0.00    -0.390 OA
ATOM     14  H10 UNL     1      19.581 -36.525  29.634  1.00  0.00     0.210 HD
ENDBRANCH   6  13
BRANCH   7  15
HETATM   15  O9  UNL     1      19.038 -38.457  32.993  1.00  0.00    -0.388 OA
ATOM     16  H9  UNL     1      19.920 -38.588  33.318  1.00  0.00     0.210 HD
ENDBRANCH   7  15
ENDBRANCH   1   2
BRANCH   1  17
HETATM   17  C4  UNL     1      15.898 -39.648  31.292  1.00  0.00     0.205 C 
BRANCH  17  18
HETATM   18  C5  UNL     1      15.022 -39.207  30.175  1.00  0.00     0.180 C 
HETATM   19  O4  UNL     1      14.807 -40.086  29.154  1.00  0.00    -0.349 OA
HETATM   20  C6  UNL     1      13.635 -40.814  29.251  1.00  0.00     0.288 C 
HETATM   21  C7  UNL     1      12.400 -39.947  29.046  1.00  0.00     0.204 C 
HETATM   22  C8  UNL     1      12.786 -38.546  29.482  1.00  0.00     0.183 C 
HETATM   23  C9  UNL     1      13.674 -38.700  30.701  1.00  0.00     0.180 C 
BRANCH  20  24
HETATM   24  O5  UNL     1      13.693 -41.849  28.320  1.00  0.00    -0.369 OA
ATOM     25  H5  UNL     1      13.189 -41.588  27.558  1.00  0.00     0.212 HD
ENDBRANCH  20  24
BRANCH  21  26
HETATM   26  O6  UNL     1      11.971 -39.950  27.729  1.00  0.00    -0.388 OA
ATOM     27  H6  UNL     1      11.034 -39.815  27.656  1.00  0.00     0.210 HD
ENDBRANCH  21  26
BRANCH  22  28
HETATM   28  O7  UNL     1      11.676 -37.764  29.768  1.00  0.00    -0.390 OA
ATOM     29  H7  UNL     1      11.618 -37.551  30.692  1.00  0.00     0.210 HD
ENDBRANCH  22  28
BRANCH  23  30
HETATM   30  O8  UNL     1      13.812 -37.537  31.423  1.00  0.00    -0.390 OA
ATOM     31  H8  UNL     1      13.017 -37.016  31.407  1.00  0.00     0.210 HD
ENDBRANCH  23  30
ENDBRANCH  17  18
ENDBRANCH   1  17
TORSDOF 12
ENDMDL
