MODEL 6
REMARK VINA RESULT: -7.407547282      4.269      6.585
REMARK  1 active torsions:
REMARK  status: ('A' for Active; 'I' for Inactive)
REMARK    1  A    between atoms: C2_5  and  C3_6 
ROOT
HETATM    1  C3  UNL     1       9.636 -22.955  -7.688  1.00  0.00    -0.004 A 
HETATM    2  C4  UNL     1      10.771 -23.509  -8.271  1.00  0.00     0.036 A 
HETATM    3  C5  UNL     1      10.678 -24.570  -9.146  1.00  0.00     0.048 A 
HETATM    4 BR1  UNL     1      12.270 -25.274  -9.903  1.00  0.00    -0.048 Br
HETATM    5  C6  UNL     1       9.434 -25.088  -9.448  1.00  0.00     0.122 A 
HETATM    6  C7  UNL     1       8.279 -24.547  -8.875  1.00  0.00     0.107 A 
HETATM    7  C8  UNL     1       8.409 -23.492  -8.008  1.00  0.00     0.053 A 
HETATM    8  O1  UNL     1       7.190 -25.250  -9.349  1.00  0.00    -0.323 OA
HETATM    9  C9  UNL     1       7.611 -26.222 -10.297  1.00  0.00     0.352 A 
HETATM   10  O2  UNL     1       9.027 -26.124 -10.272  1.00  0.00    -0.322 OA
ENDROOT
BRANCH   1  11
HETATM   11  C2  UNL     1       9.777 -21.836  -6.767  1.00  0.00     0.061 A 
HETATM   12  N2  UNL     1      10.669 -20.830  -6.785  1.00  0.00    -0.297 N 
HETATM   13  N1  UNL     1      10.453 -20.002  -5.751  1.00  0.00    -0.283 N 
ATOM     14  H2  UNL     1      11.403 -20.713  -7.483  1.00  0.00     0.187 HD
HETATM   15  C1  UNL     1      11.279 -18.823  -5.529  1.00  0.00     0.179 C 
HETATM   16  C11 UNL     1       9.418 -20.440  -5.028  1.00  0.00     0.134 A 
HETATM   17  C10 UNL     1       8.989 -21.588  -5.658  1.00  0.00     0.078 A 
HETATM   18  N3  UNL     1       8.885 -19.837  -3.858  1.00  0.00    -0.081 NA
ENDBRANCH   1  11
TORSDOF 1
ENDMDL
