MODEL 11
REMARK VINA RESULT: -7.088094235      2.127      3.029
REMARK  1 active torsions:
REMARK  status: ('A' for Active; 'I' for Inactive)
REMARK    1  A    between atoms: C2_5  and  C3_6 
ROOT
HETATM    1  C3  UNL     1      10.545 -22.755  -7.476  1.00  0.00    -0.004 A 
HETATM    2  C4  UNL     1      11.265 -21.661  -7.007  1.00  0.00     0.036 A 
HETATM    3  C5  UNL     1      10.757 -20.842  -6.023  1.00  0.00     0.048 A 
HETATM    4 BR1  UNL     1      11.796 -19.367  -5.435  1.00  0.00    -0.048 Br
HETATM    5  C6  UNL     1       9.512 -21.116  -5.492  1.00  0.00     0.122 A 
HETATM    6  C7  UNL     1       8.770 -22.211  -5.947  1.00  0.00     0.107 A 
HETATM    7  C8  UNL     1       9.306 -23.005  -6.928  1.00  0.00     0.053 A 
HETATM    8  O1  UNL     1       7.579 -22.246  -5.251  1.00  0.00    -0.323 OA
HETATM    9  C9  UNL     1       7.552 -21.210  -4.276  1.00  0.00     0.352 A 
HETATM   10  O2  UNL     1       8.753 -20.493  -4.515  1.00  0.00    -0.322 OA
ENDROOT
BRANCH   1  11
HETATM   11  C2  UNL     1      11.116 -23.596  -8.518  1.00  0.00     0.061 A 
HETATM   12  N2  UNL     1      12.354 -23.575  -9.042  1.00  0.00    -0.297 N 
HETATM   13  N1  UNL     1      12.473 -24.522  -9.985  1.00  0.00    -0.283 N 
ATOM     14  H2  UNL     1      13.095 -22.933  -8.762  1.00  0.00     0.187 HD
HETATM   15  C1  UNL     1      13.717 -24.721 -10.718  1.00  0.00     0.179 C 
HETATM   16  C11 UNL     1      11.321 -25.188 -10.108  1.00  0.00     0.134 A 
HETATM   17  C10 UNL     1      10.466 -24.614  -9.192  1.00  0.00     0.078 A 
HETATM   18  N3  UNL     1      11.052 -26.260 -11.000  1.00  0.00    -0.081 NA
ENDBRANCH   1  11
TORSDOF 1
ENDMDL
