MODEL 12
REMARK VINA RESULT: -7.079588727      2.052      2.754
REMARK  1 active torsions:
REMARK  status: ('A' for Active; 'I' for Inactive)
REMARK    1  A    between atoms: C2_5  and  C3_6 
ROOT
HETATM    1  C3  UNL     1      10.055 -22.204  -7.376  1.00  0.00    -0.004 A 
HETATM    2  C4  UNL     1      10.865 -21.150  -6.964  1.00  0.00     0.036 A 
HETATM    3  C5  UNL     1      10.531 -20.378  -5.872  1.00  0.00     0.048 A 
HETATM    4 BR1  UNL     1      11.684 -18.957  -5.370  1.00  0.00    -0.048 Br
HETATM    5  C6  UNL     1       9.372 -20.660  -5.176  1.00  0.00     0.122 A 
HETATM    6  C7  UNL     1       8.543 -21.715  -5.571  1.00  0.00     0.107 A 
HETATM    7  C8  UNL     1       8.906 -22.462  -6.662  1.00  0.00     0.053 A 
HETATM    8  O1  UNL     1       7.468 -21.767  -4.706  1.00  0.00    -0.323 OA
HETATM    9  C9  UNL     1       7.614 -20.787  -3.686  1.00  0.00     0.352 A 
HETATM   10  O2  UNL     1       8.784 -20.079  -4.065  1.00  0.00    -0.322 OA
ENDROOT
BRANCH   1  11
HETATM   11  C2  UNL     1      10.443 -22.995  -8.535  1.00  0.00     0.061 A 
HETATM   12  N2  UNL     1      10.481 -22.639  -9.831  1.00  0.00    -0.297 N 
HETATM   13  N1  UNL     1      10.897 -23.671 -10.581  1.00  0.00    -0.283 N 
ATOM     14  H2  UNL     1      10.230 -21.719 -10.191  1.00  0.00     0.187 HD
HETATM   15  C1  UNL     1      11.032 -23.560 -12.028  1.00  0.00     0.179 C 
HETATM   16  C11 UNL     1      11.142 -24.729  -9.803  1.00  0.00     0.134 A 
HETATM   17  C10 UNL     1      10.859 -24.314  -8.519  1.00  0.00     0.078 A 
HETATM   18  N3  UNL     1      11.597 -26.006 -10.226  1.00  0.00    -0.081 NA
ENDBRANCH   1  11
TORSDOF 1
ENDMDL
