MODEL 4
REMARK VINA RESULT: -7.488106142      1.701      2.420
REMARK  1 active torsions:
REMARK  status: ('A' for Active; 'I' for Inactive)
REMARK    1  A    between atoms: C2_5  and  C3_6 
ROOT
HETATM    1  C3  UNL     1       9.638 -22.706  -7.093  1.00  0.00    -0.004 A 
HETATM    2  C4  UNL     1      10.659 -21.786  -6.873  1.00  0.00     0.036 A 
HETATM    3  C5  UNL     1      10.551 -20.822  -5.895  1.00  0.00     0.048 A 
HETATM    4 BR1  UNL     1      11.983 -19.600  -5.654  1.00  0.00    -0.048 Br
HETATM    5  C6  UNL     1       9.409 -20.772  -5.120  1.00  0.00     0.122 A 
HETATM    6  C7  UNL     1       8.372 -21.687  -5.321  1.00  0.00     0.107 A 
HETATM    7  C8  UNL     1       8.512 -22.633  -6.305  1.00  0.00     0.053 A 
HETATM    8  O1  UNL     1       7.367 -21.408  -4.417  1.00  0.00    -0.323 OA
HETATM    9  C9  UNL     1       7.763 -20.346  -3.559  1.00  0.00     0.352 A 
HETATM   10  O2  UNL     1       9.018 -19.941  -4.084  1.00  0.00    -0.322 OA
ENDROOT
BRANCH   1  11
HETATM   11  C2  UNL     1       9.790 -23.710  -8.138  1.00  0.00     0.061 A 
HETATM   12  N2  UNL     1       8.846 -24.300  -8.891  1.00  0.00    -0.297 N 
HETATM   13  N1  UNL     1       9.411 -25.172  -9.741  1.00  0.00    -0.283 N 
ATOM     14  H2  UNL     1       7.846 -24.113  -8.825  1.00  0.00     0.187 HD
HETATM   15  C1  UNL     1       8.614 -25.953 -10.678  1.00  0.00     0.179 C 
HETATM   16  C11 UNL     1      10.736 -25.178  -9.570  1.00  0.00     0.134 A 
HETATM   17  C10 UNL     1      10.982 -24.265  -8.567  1.00  0.00     0.078 A 
HETATM   18  N3  UNL     1      11.679 -25.967 -10.281  1.00  0.00    -0.081 NA
ENDBRANCH   1  11
TORSDOF 1
ENDMDL
