MODEL 13
REMARK VINA RESULT: -7.037335194      2.032      2.955
REMARK  1 active torsions:
REMARK  status: ('A' for Active; 'I' for Inactive)
REMARK    1  A    between atoms: C2_5  and  C3_6 
ROOT
HETATM    1  C3  UNL     1       9.109 -22.343  -6.655  1.00  0.00    -0.004 A 
HETATM    2  C4  UNL     1      10.230 -21.521  -6.596  1.00  0.00     0.036 A 
HETATM    3  C5  UNL     1      10.354 -20.552  -5.624  1.00  0.00     0.048 A 
HETATM    4 BR1  UNL     1      11.911 -19.467  -5.607  1.00  0.00    -0.048 Br
HETATM    5  C6  UNL     1       9.346 -20.398  -4.693  1.00  0.00     0.122 A 
HETATM    6  C7  UNL     1       8.211 -21.213  -4.732  1.00  0.00     0.107 A 
HETATM    7  C8  UNL     1       8.120 -22.167  -5.713  1.00  0.00     0.053 A 
HETATM    8  O1  UNL     1       7.377 -20.844  -3.695  1.00  0.00    -0.323 OA
HETATM    9  C9  UNL     1       7.989 -19.823  -2.916  1.00  0.00     0.352 A 
HETATM   10  O2  UNL     1       9.186 -19.535  -3.622  1.00  0.00    -0.322 OA
ENDROOT
BRANCH   1  11
HETATM   11  C2  UNL     1       9.016 -23.355  -7.698  1.00  0.00     0.061 A 
HETATM   12  N2  UNL     1       9.985 -23.851  -8.486  1.00  0.00    -0.297 N 
HETATM   13  N1  UNL     1       9.476 -24.773  -9.319  1.00  0.00    -0.283 N 
ATOM     14  H2  UNL     1      10.965 -23.570  -8.456  1.00  0.00     0.187 HD
HETATM   15  C1  UNL     1      10.310 -25.474 -10.287  1.00  0.00     0.179 C 
HETATM   16  C11 UNL     1       8.164 -24.905  -9.102  1.00  0.00     0.134 A 
HETATM   17  C10 UNL     1       7.869 -24.020  -8.088  1.00  0.00     0.078 A 
HETATM   18  N3  UNL     1       7.276 -25.779  -9.783  1.00  0.00    -0.081 NA
ENDBRANCH   1  11
TORSDOF 1
ENDMDL
