MODEL 8
REMARK VINA RESULT: -7.292349489      3.893      6.058
REMARK  1 active torsions:
REMARK  status: ('A' for Active; 'I' for Inactive)
REMARK    1  A    between atoms: C2_5  and  C3_6 
ROOT
HETATM    1  C3  UNL     1       9.884 -22.750  -7.668  1.00  0.00    -0.004 A 
HETATM    2  C4  UNL     1       8.689 -23.406  -7.949  1.00  0.00     0.036 A 
HETATM    3  C5  UNL     1       8.636 -24.428  -8.871  1.00  0.00     0.048 A 
HETATM    4 BR1  UNL     1       6.971 -25.275  -9.203  1.00  0.00    -0.048 Br
HETATM    5  C6  UNL     1       9.792 -24.808  -9.524  1.00  0.00     0.122 A 
HETATM    6  C7  UNL     1      11.004 -24.164  -9.258  1.00  0.00     0.107 A 
HETATM    7  C8  UNL     1      11.021 -23.150  -8.334  1.00  0.00     0.053 A 
HETATM    8  O1  UNL     1      11.982 -24.741 -10.043  1.00  0.00    -0.323 OA
HETATM    9  C9  UNL     1      11.436 -25.821 -10.789  1.00  0.00     0.352 A 
HETATM   10  O2  UNL     1      10.052 -25.777 -10.479  1.00  0.00    -0.322 OA
ENDROOT
BRANCH   1  11
HETATM   11  C2  UNL     1       9.897 -21.674  -6.688  1.00  0.00     0.061 A 
HETATM   12  N2  UNL     1       9.085 -21.475  -5.635  1.00  0.00    -0.297 N 
HETATM   13  N1  UNL     1       9.441 -20.357  -4.982  1.00  0.00    -0.283 N 
ATOM     14  H2  UNL     1       8.312 -22.085  -5.371  1.00  0.00     0.187 HD
HETATM   15  C1  UNL     1       8.725 -19.904  -3.796  1.00  0.00     0.179 C 
HETATM   16  C11 UNL     1      10.491 -19.793  -5.585  1.00  0.00     0.134 A 
HETATM   17  C10 UNL     1      10.783 -20.612  -6.655  1.00  0.00     0.078 A 
HETATM   18  N3  UNL     1      11.154 -18.601  -5.194  1.00  0.00    -0.081 NA
ENDBRANCH   1  11
TORSDOF 1
ENDMDL
