MODEL 3
REMARK VINA RESULT: -7.681942352      4.290      6.468
REMARK  1 active torsions:
REMARK  status: ('A' for Active; 'I' for Inactive)
REMARK    1  A    between atoms: C2_5  and  C3_6 
ROOT
HETATM    1  C3  UNL     1       9.580 -22.877  -7.568  1.00  0.00    -0.004 A 
HETATM    2  C4  UNL     1      10.734 -23.427  -8.119  1.00  0.00     0.036 A 
HETATM    3  C5  UNL     1      10.669 -24.483  -9.002  1.00  0.00     0.048 A 
HETATM    4 BR1  UNL     1      12.284 -25.182  -9.711  1.00  0.00    -0.048 Br
HETATM    5  C6  UNL     1       9.435 -25.001  -9.345  1.00  0.00     0.122 A 
HETATM    6  C7  UNL     1       8.263 -24.464  -8.805  1.00  0.00     0.107 A 
HETATM    7  C8  UNL     1       8.364 -23.413  -7.929  1.00  0.00     0.053 A 
HETATM    8  O1  UNL     1       7.190 -25.166  -9.316  1.00  0.00    -0.323 OA
HETATM    9  C9  UNL     1       7.641 -26.133 -10.256  1.00  0.00     0.352 A 
HETATM   10  O2  UNL     1       9.055 -26.033 -10.186  1.00  0.00    -0.322 OA
ENDROOT
BRANCH   1  11
HETATM   11  C2  UNL     1       9.692 -21.762  -6.638  1.00  0.00     0.061 A 
HETATM   12  N2  UNL     1       8.974 -21.507  -5.530  1.00  0.00    -0.297 N 
HETATM   13  N1  UNL     1       9.399 -20.370  -4.956  1.00  0.00    -0.283 N 
ATOM     14  H2  UNL     1       8.217 -22.092  -5.177  1.00  0.00     0.187 HD
HETATM   15  C1  UNL     1       8.792 -19.856  -3.735  1.00  0.00     0.179 C 
HETATM   16  C11 UNL     1      10.402 -19.849  -5.669  1.00  0.00     0.134 A 
HETATM   17  C10 UNL     1      10.591 -20.716  -6.724  1.00  0.00     0.078 A 
HETATM   18  N3  UNL     1      11.112 -18.654  -5.384  1.00  0.00    -0.081 NA
ENDBRANCH   1  11
TORSDOF 1
ENDMDL
