MODEL 2
REMARK VINA RESULT: -7.714385041      1.978      2.848
REMARK  1 active torsions:
REMARK  status: ('A' for Active; 'I' for Inactive)
REMARK    1  A    between atoms: C2_5  and  C3_6 
ROOT
HETATM    1  C3  UNL     1       9.994 -22.448  -6.938  1.00  0.00    -0.004 A 
HETATM    2  C4  UNL     1      10.845 -21.372  -6.703  1.00  0.00     0.036 A 
HETATM    3  C5  UNL     1      10.542 -20.418  -5.757  1.00  0.00     0.048 A 
HETATM    4 BR1  UNL     1      11.750 -18.978  -5.492  1.00  0.00    -0.048 Br
HETATM    5  C6  UNL     1       9.375 -20.536  -5.029  1.00  0.00     0.122 A 
HETATM    6  C7  UNL     1       8.505 -21.609  -5.247  1.00  0.00     0.107 A 
HETATM    7  C8  UNL     1       8.837 -22.540  -6.198  1.00  0.00     0.053 A 
HETATM    8  O1  UNL     1       7.431 -21.476  -4.391  1.00  0.00    -0.323 OA
HETATM    9  C9  UNL     1       7.615 -20.346  -3.547  1.00  0.00     0.352 A 
HETATM   10  O2  UNL     1       8.811 -19.756  -4.033  1.00  0.00    -0.322 OA
ENDROOT
BRANCH   1  11
HETATM   11  C2  UNL     1      10.350 -23.435  -7.948  1.00  0.00     0.061 A 
HETATM   12  N2  UNL     1      11.568 -23.835  -8.352  1.00  0.00    -0.297 N 
HETATM   13  N1  UNL     1      11.454 -24.769  -9.310  1.00  0.00    -0.283 N 
ATOM     14  H2  UNL     1      12.450 -23.480  -7.985  1.00  0.00     0.187 HD
HETATM   15  C1  UNL     1      12.624 -25.378  -9.928  1.00  0.00     0.179 C 
HETATM   16  C11 UNL     1      10.163 -25.007  -9.560  1.00  0.00     0.134 A 
HETATM   17  C10 UNL     1       9.465 -24.175  -8.711  1.00  0.00     0.078 A 
HETATM   18  N3  UNL     1       9.639 -25.927 -10.506  1.00  0.00    -0.081 NA
ENDBRANCH   1  11
TORSDOF 1
ENDMDL
