MODEL 2
REMARK VINA RESULT: -7.345940859      2.566      3.129
REMARK  1 active torsions:
REMARK  status: ('A' for Active; 'I' for Inactive)
REMARK    1  A    between atoms: C2_5  and  C3_6 
ROOT
HETATM    1  C3  UNL     1      -1.018  10.208  -5.342  1.00  0.00    -0.005 A 
HETATM    2  C4  UNL     1      -1.990  10.380  -4.382  1.00  0.00     0.017 A 
HETATM    3  C5  UNL     1      -2.502  11.607  -4.110  1.00  0.00     0.040 A 
HETATM    4  C6  UNL     1      -2.053  12.700  -4.792  1.00  0.00     0.105 A 
HETATM    5  C7  UNL     1      -1.081  12.566  -5.759  1.00  0.00     0.105 A 
HETATM    6  C8  UNL     1      -0.573  11.307  -6.021  1.00  0.00     0.053 A 
HETATM    7  O1  UNL     1      -0.839  13.835  -6.265  1.00  0.00    -0.323 OA
HETATM    8  C9  UNL     1      -1.794  14.718  -5.712  1.00  0.00     0.352 C 
HETATM    9  O2  UNL     1      -2.441  14.033  -4.667  1.00  0.00    -0.323 OA
ENDROOT
BRANCH   1  10
HETATM   10  C2  UNL     1      -0.479   8.856  -5.617  1.00  0.00     0.061 A 
HETATM   11  N2  UNL     1      -0.064   7.946  -4.741  1.00  0.00    -0.297 N 
HETATM   12  N1  UNL     1       0.354   6.845  -5.376  1.00  0.00    -0.283 N 
ATOM     13  H2  UNL     1      -0.065   8.069  -3.728  1.00  0.00     0.187 HD
HETATM   14  C1  UNL     1       0.880   5.630  -4.779  1.00  0.00     0.179 C 
HETATM   15  C11 UNL     1       0.210   7.038  -6.706  1.00  0.00     0.134 A 
HETATM   16  C10 UNL     1      -0.316   8.305  -6.869  1.00  0.00     0.078 A 
HETATM   17  N3  UNL     1       0.552   6.079  -7.704  1.00  0.00    -0.081 NA
ENDBRANCH   1  10
TORSDOF 1
ENDMDL
