MODEL 4
REMARK VINA RESULT: -6.975828916      3.800      6.275
REMARK  1 active torsions:
REMARK  status: ('A' for Active; 'I' for Inactive)
REMARK    1  A    between atoms: C2_5  and  C3_6 
ROOT
HETATM    1  C3  UNL     1       0.575  10.536  -7.739  1.00  0.00    -0.005 A 
HETATM    2  C4  UNL     1       1.594  11.283  -8.284  1.00  0.00     0.017 A 
HETATM    3  C5  UNL     1       2.467  10.741  -9.171  1.00  0.00     0.040 A 
HETATM    4  C6  UNL     1       2.344   9.432  -9.538  1.00  0.00     0.105 A 
HETATM    5  C7  UNL     1       1.336   8.655  -9.013  1.00  0.00     0.105 A 
HETATM    6  C8  UNL     1       0.458   9.226  -8.111  1.00  0.00     0.053 A 
HETATM    7  O1  UNL     1       1.472   7.391  -9.569  1.00  0.00    -0.323 OA
HETATM    8  C9  UNL     1       2.473   7.454 -10.565  1.00  0.00     0.352 C 
HETATM    9  O2  UNL     1       3.127   8.692 -10.423  1.00  0.00    -0.323 OA
ENDROOT
BRANCH   1  10
HETATM   10  C2  UNL     1      -0.363  11.154  -6.774  1.00  0.00     0.061 A 
HETATM   11  N2  UNL     1      -0.925  10.596  -5.706  1.00  0.00    -0.297 N 
HETATM   12  N1  UNL     1      -1.715  11.477  -5.082  1.00  0.00    -0.283 N 
ATOM     13  H2  UNL     1      -0.774   9.633  -5.405  1.00  0.00     0.187 HD
HETATM   14  C1  UNL     1      -2.503  11.258  -3.881  1.00  0.00     0.179 C 
HETATM   15  C11 UNL     1      -1.671  12.646  -5.759  1.00  0.00     0.134 A 
HETATM   16  C10 UNL     1      -0.819  12.452  -6.830  1.00  0.00     0.078 A 
HETATM   17  N3  UNL     1      -2.388  13.821  -5.391  1.00  0.00    -0.081 NA
ENDBRANCH   1  10
TORSDOF 1
ENDMDL
