MODEL 5
REMARK VINA RESULT: -6.894244321      3.841      6.396
REMARK  1 active torsions:
REMARK  status: ('A' for Active; 'I' for Inactive)
REMARK    1  A    between atoms: C2_5  and  C3_6 
ROOT
HETATM    1  C3  UNL     1       0.824  11.101  -7.853  1.00  0.00    -0.005 A 
HETATM    2  C4  UNL     1       1.825  11.900  -8.359  1.00  0.00     0.017 A 
HETATM    3  C5  UNL     1       2.697  11.433  -9.288  1.00  0.00     0.040 A 
HETATM    4  C6  UNL     1       2.591  10.150  -9.740  1.00  0.00     0.105 A 
HETATM    5  C7  UNL     1       1.602   9.321  -9.257  1.00  0.00     0.105 A 
HETATM    6  C8  UNL     1       0.725   9.816  -8.311  1.00  0.00     0.053 A 
HETATM    7  O1  UNL     1       1.753   8.100  -9.897  1.00  0.00    -0.323 OA
HETATM    8  C9  UNL     1       2.741   8.246 -10.897  1.00  0.00     0.352 C 
HETATM    9  O2  UNL     1       3.376   9.483 -10.680  1.00  0.00    -0.323 OA
ENDROOT
BRANCH   1  10
HETATM   10  C2  UNL     1      -0.112  11.638  -6.840  1.00  0.00     0.061 A 
HETATM   11  N2  UNL     1      -0.436  12.907  -6.616  1.00  0.00    -0.297 N 
HETATM   12  N1  UNL     1      -1.318  12.993  -5.613  1.00  0.00    -0.283 N 
ATOM     13  H2  UNL     1      -0.065  13.704  -7.134  1.00  0.00     0.187 HD
HETATM   14  C1  UNL     1      -1.916  14.199  -5.066  1.00  0.00     0.179 C 
HETATM   15  C11 UNL     1      -1.580  11.745  -5.166  1.00  0.00     0.134 A 
HETATM   16  C10 UNL     1      -0.824  10.881  -5.935  1.00  0.00     0.078 A 
HETATM   17  N3  UNL     1      -2.477  11.439  -4.102  1.00  0.00    -0.081 NA
ENDBRANCH   1  10
TORSDOF 1
ENDMDL
