MODEL 7
REMARK VINA RESULT: -6.786875492      4.006      6.292
REMARK  1 active torsions:
REMARK  status: ('A' for Active; 'I' for Inactive)
REMARK    1  A    between atoms: C2_5  and  C3_6 
ROOT
HETATM    1  C3  UNL     1      -0.219   9.146  -6.705  1.00  0.00    -0.005 A 
HETATM    2  C4  UNL     1      -0.201   7.818  -6.345  1.00  0.00     0.017 A 
HETATM    3  C5  UNL     1       0.435   6.891  -7.105  1.00  0.00     0.040 A 
HETATM    4  C6  UNL     1       1.073   7.269  -8.251  1.00  0.00     0.105 A 
HETATM    5  C7  UNL     1       1.075   8.590  -8.643  1.00  0.00     0.105 A 
HETATM    6  C8  UNL     1       0.422   9.518  -7.854  1.00  0.00     0.053 A 
HETATM    7  O1  UNL     1       1.793   8.657  -9.828  1.00  0.00    -0.323 OA
HETATM    8  C9  UNL     1       2.368   7.388 -10.066  1.00  0.00     0.352 C 
HETATM    9  O2  UNL     1       1.776   6.485  -9.164  1.00  0.00    -0.323 OA
ENDROOT
BRANCH   1  10
HETATM   10  C2  UNL     1      -0.921  10.134  -5.855  1.00  0.00     0.061 A 
HETATM   11  N2  UNL     1      -1.554   9.923  -4.704  1.00  0.00    -0.297 N 
HETATM   12  N1  UNL     1      -2.064  11.068  -4.235  1.00  0.00    -0.283 N 
ATOM     13  H2  UNL     1      -1.638   9.016  -4.245  1.00  0.00     0.187 HD
HETATM   14  C1  UNL     1      -2.822  11.258  -3.011  1.00  0.00     0.179 C 
HETATM   15  C11 UNL     1      -1.757  12.059  -5.102  1.00  0.00     0.134 A 
HETATM   16  C10 UNL     1      -1.036  11.480  -6.128  1.00  0.00     0.078 A 
HETATM   17  N3  UNL     1      -2.135  13.423  -4.936  1.00  0.00    -0.081 NA
ENDBRANCH   1  10
TORSDOF 1
ENDMDL
