MODEL 6
REMARK VINA RESULT: -7.263444127      3.987      5.845
REMARK  1 active torsions:
REMARK  status: ('A' for Active; 'I' for Inactive)
REMARK    1  A    between atoms: C4_8  and  C5_9 
ROOT
HETATM    1  C5  UNL     1      14.248  -8.870  -8.075  1.00  0.00    -0.004 A 
HETATM    2  C6  UNL     1      12.954  -8.808  -7.547  1.00  0.00     0.036 A 
HETATM    3  C7  UNL     1      12.594  -9.326  -6.325  1.00  0.00     0.048 A 
HETATM    4 BR1  UNL     1      10.805  -9.202  -5.677  1.00  0.00    -0.048 Br
HETATM    5  C8  UNL     1      13.534  -9.955  -5.541  1.00  0.00     0.122 A 
HETATM    6  C9  UNL     1      14.816 -10.036  -6.024  1.00  0.00     0.107 A 
HETATM    7  C10 UNL     1      15.165  -9.496  -7.283  1.00  0.00     0.053 A 
HETATM    8  O1  UNL     1      15.575 -10.700  -5.073  1.00  0.00    -0.323 OA
HETATM    9  C11 UNL     1      14.702 -11.252  -4.103  1.00  0.00     0.352 C 
HETATM   10  O2  UNL     1      13.464 -10.558  -4.294  1.00  0.00    -0.322 OA
ENDROOT
BRANCH   1  11
HETATM   11  C4  UNL     1      14.533  -8.282  -9.378  1.00  0.00     0.064 A 
HETATM   12  N1  UNL     1      14.540  -7.030  -9.816  1.00  0.00    -0.295 N 
HETATM   13  C1  UNL     1      14.237  -5.842  -9.034  1.00  0.00     0.178 C 
HETATM   14  N2  UNL     1      14.882  -6.991 -11.120  1.00  0.00    -0.285 N 
HETATM   15  C2  UNL     1      15.114  -8.222 -11.590  1.00  0.00     0.133 A 
ATOM     16  H2  UNL     1      14.955  -6.137 -11.674  1.00  0.00     0.188 HD
HETATM   17  N3  UNL     1      15.494  -8.578 -12.911  1.00  0.00    -0.081 NA
HETATM   18  C3  UNL     1      14.899  -9.046 -10.506  1.00  0.00     0.078 A 
ENDBRANCH   1  11
TORSDOF 1
ENDMDL
