MODEL 8
REMARK VINA RESULT: -7.040576211      1.319      2.152
REMARK  1 active torsions:
REMARK  status: ('A' for Active; 'I' for Inactive)
REMARK    1  A    between atoms: C4_8  and  C5_9 
ROOT
HETATM    1  C5  UNL     1      14.699  -9.235  -7.704  1.00  0.00    -0.004 A 
HETATM    2  C6  UNL     1      14.392  -8.397  -8.781  1.00  0.00     0.036 A 
HETATM    3  C7  UNL     1      15.253  -8.126  -9.819  1.00  0.00     0.048 A 
HETATM    4 BR1  UNL     1      14.757  -6.970 -11.252  1.00  0.00    -0.048 Br
HETATM    5  C8  UNL     1      16.507  -8.694  -9.836  1.00  0.00     0.122 A 
HETATM    6  C9  UNL     1      16.846  -9.522  -8.797  1.00  0.00     0.107 A 
HETATM    7  C10 UNL     1      15.945  -9.787  -7.740  1.00  0.00     0.053 A 
HETATM    8  O1  UNL     1      18.137  -9.969  -9.029  1.00  0.00    -0.323 OA
HETATM    9  C11 UNL     1      18.691  -9.217 -10.095  1.00  0.00     0.352 C 
HETATM   10  O2  UNL     1      17.564  -8.606 -10.730  1.00  0.00    -0.322 OA
ENDROOT
BRANCH   1  11
HETATM   11  C4  UNL     1      13.713  -9.466  -6.656  1.00  0.00     0.064 A 
HETATM   12  N1  UNL     1      13.779 -10.077  -5.480  1.00  0.00    -0.295 N 
HETATM   13  C1  UNL     1      14.951 -10.718  -4.907  1.00  0.00     0.178 C 
HETATM   14  N2  UNL     1      12.585 -10.022  -4.855  1.00  0.00    -0.285 N 
HETATM   15  C2  UNL     1      11.685  -9.370  -5.601  1.00  0.00     0.133 A 
ATOM     16  H2  UNL     1      12.393 -10.424  -3.937  1.00  0.00     0.188 HD
HETATM   17  N3  UNL     1      10.327  -9.115  -5.277  1.00  0.00    -0.081 NA
HETATM   18  C3  UNL     1      12.379  -9.013  -6.737  1.00  0.00     0.078 A 
ENDBRANCH   1  11
TORSDOF 1
ENDMDL
