MODEL 3
REMARK VINA RESULT: -7.738371491      1.694      2.392
REMARK  1 active torsions:
REMARK  status: ('A' for Active; 'I' for Inactive)
REMARK    1  A    between atoms: C4_8  and  C5_9 
ROOT
HETATM    1  C5  UNL     1      13.997  -9.193  -6.791  1.00  0.00    -0.004 A 
HETATM    2  C6  UNL     1      15.220  -9.701  -7.243  1.00  0.00     0.036 A 
HETATM    3  C7  UNL     1      15.908  -9.206  -8.325  1.00  0.00     0.048 A 
HETATM    4 BR1  UNL     1      17.571  -9.957  -8.879  1.00  0.00    -0.048 Br
HETATM    5  C8  UNL     1      15.397  -8.146  -9.038  1.00  0.00     0.122 A 
HETATM    6  C9  UNL     1      14.199  -7.619  -8.626  1.00  0.00     0.107 A 
HETATM    7  C10 UNL     1      13.508  -8.143  -7.509  1.00  0.00     0.053 A 
HETATM    8  O1  UNL     1      13.889  -6.575  -9.484  1.00  0.00    -0.323 OA
HETATM    9  C11 UNL     1      14.781  -6.614 -10.584  1.00  0.00     0.352 C 
HETATM   10  O2  UNL     1      15.857  -7.452 -10.147  1.00  0.00    -0.322 OA
ENDROOT
BRANCH   1  11
HETATM   11  C4  UNL     1      13.349  -9.781  -5.626  1.00  0.00     0.064 A 
HETATM   12  N1  UNL     1      12.092  -9.779  -5.200  1.00  0.00    -0.295 N 
HETATM   13  C1  UNL     1      10.964  -9.131  -5.850  1.00  0.00     0.178 C 
HETATM   14  N2  UNL     1      11.984 -10.482  -4.054  1.00  0.00    -0.285 N 
HETATM   15  C2  UNL     1      13.170 -10.975  -3.682  1.00  0.00     0.133 A 
ATOM     16  H2  UNL     1      11.113 -10.620  -3.540  1.00  0.00     0.188 HD
HETATM   17  N3  UNL     1      13.449 -11.763  -2.534  1.00  0.00    -0.081 NA
HETATM   18  C3  UNL     1      14.040 -10.544  -4.660  1.00  0.00     0.078 A 
ENDBRANCH   1  11
TORSDOF 1
ENDMDL
