MODEL 1
REMARK VINA RESULT: -8.070230479      0.000      0.000
REMARK  1 active torsions:
REMARK  status: ('A' for Active; 'I' for Inactive)
REMARK    1  A    between atoms: C4_8  and  C5_9 
ROOT
HETATM    1  C5  UNL     1      14.539  -9.549  -6.660  1.00  0.00    -0.004 A 
HETATM    2  C6  UNL     1      14.219  -8.387  -7.369  1.00  0.00     0.036 A 
HETATM    3  C7  UNL     1      14.952  -7.900  -8.426  1.00  0.00     0.048 A 
HETATM    4 BR1  UNL     1      14.448  -6.306  -9.341  1.00  0.00    -0.048 Br
HETATM    5  C8  UNL     1      16.081  -8.568  -8.843  1.00  0.00     0.122 A 
HETATM    6  C9  UNL     1      16.429  -9.714  -8.173  1.00  0.00     0.107 A 
HETATM    7  C10 UNL     1      15.659 -10.196  -7.089  1.00  0.00     0.053 A 
HETATM    8  O1  UNL     1      17.582 -10.204  -8.764  1.00  0.00    -0.323 OA
HETATM    9  C11 UNL     1      18.090  -9.221  -9.649  1.00  0.00     0.352 C 
HETATM   10  O2  UNL     1      16.997  -8.321  -9.855  1.00  0.00    -0.322 OA
ENDROOT
BRANCH   1  11
HETATM   11  C4  UNL     1      13.691  -9.988  -5.559  1.00  0.00     0.064 A 
HETATM   12  N1  UNL     1      12.393  -9.861  -5.318  1.00  0.00    -0.295 N 
HETATM   13  C1  UNL     1      11.421  -9.192  -6.168  1.00  0.00     0.178 C 
HETATM   14  N2  UNL     1      12.072 -10.454  -4.150  1.00  0.00    -0.285 N 
HETATM   15  C2  UNL     1      13.152 -10.997  -3.577  1.00  0.00     0.133 A 
ATOM     16  H2  UNL     1      11.131 -10.485  -3.756  1.00  0.00     0.188 HD
HETATM   17  N3  UNL     1      13.206 -11.701  -2.346  1.00  0.00    -0.081 NA
HETATM   18  C3  UNL     1      14.180 -10.713  -4.451  1.00  0.00     0.078 A 
ENDBRANCH   1  11
TORSDOF 1
ENDMDL
