MODEL 4
REMARK VINA RESULT: -7.695947011      3.941      5.760
REMARK  1 active torsions:
REMARK  status: ('A' for Active; 'I' for Inactive)
REMARK    1  A    between atoms: C4_8  and  C5_9 
ROOT
HETATM    1  C5  UNL     1      14.962  -9.831  -6.672  1.00  0.00    -0.004 A 
HETATM    2  C6  UNL     1      13.652  -9.344  -6.706  1.00  0.00     0.036 A 
HETATM    3  C7  UNL     1      12.720  -9.564  -5.719  1.00  0.00     0.048 A 
HETATM    4 BR1  UNL     1      10.951  -8.864  -5.842  1.00  0.00    -0.048 Br
HETATM    5  C8  UNL     1      13.057 -10.306  -4.610  1.00  0.00     0.122 A 
HETATM    6  C9  UNL     1      14.334 -10.802  -4.538  1.00  0.00     0.107 A 
HETATM    7  C10 UNL     1      15.276 -10.564  -5.565  1.00  0.00     0.053 A 
HETATM    8  O1  UNL     1      14.439 -11.505  -3.349  1.00  0.00    -0.323 OA
HETATM    9  C11 UNL     1      13.143 -11.653  -2.796  1.00  0.00     0.352 C 
HETATM   10  O2  UNL     1      12.344 -10.682  -3.481  1.00  0.00    -0.322 OA
ENDROOT
BRANCH   1  11
HETATM   11  C4  UNL     1      15.879  -9.536  -7.765  1.00  0.00     0.064 A 
HETATM   12  N1  UNL     1      16.011  -8.490  -8.570  1.00  0.00    -0.295 N 
HETATM   13  C1  UNL     1      15.199  -7.283  -8.553  1.00  0.00     0.178 C 
HETATM   14  N2  UNL     1      17.030  -8.686  -9.432  1.00  0.00    -0.285 N 
HETATM   15  C2  UNL     1      17.609  -9.874  -9.225  1.00  0.00     0.133 A 
ATOM     16  H2  UNL     1      17.320  -8.017 -10.146  1.00  0.00     0.188 HD
HETATM   17  N3  UNL     1      18.707 -10.427  -9.934  1.00  0.00    -0.081 NA
HETATM   18  C3  UNL     1      16.897 -10.422  -8.179  1.00  0.00     0.078 A 
ENDBRANCH   1  11
TORSDOF 1
ENDMDL
