MODEL 5
REMARK VINA RESULT: -7.495099886      3.906      5.928
REMARK  1 active torsions:
REMARK  status: ('A' for Active; 'I' for Inactive)
REMARK    1  A    between atoms: C4_8  and  C5_9 
ROOT
HETATM    1  C5  UNL     1      14.181  -9.075  -7.388  1.00  0.00    -0.004 A 
HETATM    2  C6  UNL     1      12.858  -8.836  -7.001  1.00  0.00     0.036 A 
HETATM    3  C7  UNL     1      12.294  -9.316  -5.843  1.00  0.00     0.048 A 
HETATM    4 BR1  UNL     1      10.480  -8.945  -5.388  1.00  0.00    -0.048 Br
HETATM    5  C8  UNL     1      13.042 -10.087  -4.983  1.00  0.00     0.122 A 
HETATM    6  C9  UNL     1      14.345 -10.345  -5.327  1.00  0.00     0.107 A 
HETATM    7  C10 UNL     1      14.906  -9.840  -6.523  1.00  0.00     0.053 A 
HETATM    8  O1  UNL     1      14.891 -11.129  -4.323  1.00  0.00    -0.323 OA
HETATM    9  C11 UNL     1      13.846 -11.564  -3.471  1.00  0.00     0.352 C 
HETATM   10  O2  UNL     1      12.749 -10.696  -3.772  1.00  0.00    -0.322 OA
ENDROOT
BRANCH   1  11
HETATM   11  C4  UNL     1      14.690  -8.512  -8.633  1.00  0.00     0.064 A 
HETATM   12  N1  UNL     1      15.567  -8.954  -9.526  1.00  0.00    -0.295 N 
HETATM   13  C1  UNL     1      16.293 -10.212  -9.470  1.00  0.00     0.178 C 
HETATM   14  N2  UNL     1      15.701  -8.064 -10.531  1.00  0.00    -0.285 N 
HETATM   15  C2  UNL     1      14.914  -7.000 -10.335  1.00  0.00     0.133 A 
ATOM     16  H2  UNL     1      16.320  -8.186 -11.333  1.00  0.00     0.188 HD
HETATM   17  N3  UNL     1      14.785  -5.863 -11.175  1.00  0.00    -0.081 NA
HETATM   18  C3  UNL     1      14.271  -7.267  -9.145  1.00  0.00     0.078 A 
ENDBRANCH   1  11
TORSDOF 1
ENDMDL
