MODEL 2
REMARK VINA RESULT: -5.494834022      2.770      7.054
REMARK  12 active torsions:
REMARK  status: ('A' for Active; 'I' for Inactive)
REMARK    1  A    between atoms: O1_1  and  C1_3 
REMARK    2  A    between atoms: C1_3  and  C2_4 
REMARK    3  A    between atoms: C3_6  and  O3_7 
REMARK    4  A    between atoms: C4_9  and  O4_10 
REMARK    5  A    between atoms: C5_12  and  O5_13 
REMARK    6  A    between atoms: C6_15  and  O6_16 
REMARK    7  A    between atoms: O6_16  and  C7_17 
REMARK    8  A    between atoms: C8_19  and  C9_20 
REMARK    9  A    between atoms: C9_20  and  O8_21 
REMARK   10  A    between atoms: C10_23  and  O9_24 
REMARK   11  A    between atoms: C11_26  and  O10_27 
REMARK   12  A    between atoms: C12_29  and  O11_30 
ROOT
HETATM    1  O6  UNL     1      24.036  28.563  24.133  1.00  0.00    -0.348 OA
ENDROOT
BRANCH   1   2
HETATM    2  C6  UNL     1      24.829  28.257  23.069  1.00  0.00     0.187 C 
HETATM    3  C2  UNL     1      25.398  26.886  23.036  1.00  0.00     0.180 C 
HETATM    4  O2  UNL     1      26.787  26.861  22.849  1.00  0.00    -0.349 OA
HETATM    5  C3  UNL     1      27.175  27.496  21.686  1.00  0.00     0.288 C 
HETATM    6  C4  UNL     1      26.581  28.882  21.542  1.00  0.00     0.204 C 
HETATM    7  C5  UNL     1      26.000  29.232  22.903  1.00  0.00     0.183 C 
BRANCH   3   8
HETATM    8  C1  UNL     1      24.789  26.059  21.893  1.00  0.00     0.198 C 
BRANCH   8   9
HETATM    9  O1  UNL     1      23.684  26.824  21.450  1.00  0.00    -0.398 OA
ATOM     10  H1  UNL     1      24.040  27.390  20.776  1.00  0.00     0.209 HD
ENDBRANCH   8   9
ENDBRANCH   3   8
BRANCH   5  11
HETATM   11  O3  UNL     1      28.572  27.680  21.775  1.00  0.00    -0.369 OA
ATOM     12  H3  UNL     1      28.770  28.485  21.309  1.00  0.00     0.212 HD
ENDBRANCH   5  11
BRANCH   6  13
HETATM   13  O4  UNL     1      27.502  29.817  21.109  1.00  0.00    -0.388 OA
ATOM     14  H4  UNL     1      27.839  30.357  21.814  1.00  0.00     0.210 HD
ENDBRANCH   6  13
BRANCH   7  15
HETATM   15  O5  UNL     1      25.583  30.545  22.972  1.00  0.00    -0.390 OA
ATOM     16  H5  UNL     1      26.025  31.028  23.660  1.00  0.00     0.210 HD
ENDBRANCH   7  15
ENDBRANCH   1   2
BRANCH   1  17
HETATM   17  C7  UNL     1      22.725  28.879  23.843  1.00  0.00     0.292 C 
HETATM   18  O7  UNL     1      22.727  29.307  22.495  1.00  0.00    -0.348 OA
HETATM   19  C8  UNL     1      21.486  29.801  22.118  1.00  0.00     0.179 C 
HETATM   20  C10 UNL     1      21.312  31.149  22.763  1.00  0.00     0.180 C 
HETATM   21  C11 UNL     1      21.976  31.265  24.099  1.00  0.00     0.183 C 
HETATM   22  C12 UNL     1      22.253  29.956  24.772  1.00  0.00     0.204 C 
BRANCH  19  23
HETATM   23  C9  UNL     1      21.487  29.947  20.618  1.00  0.00     0.198 C 
BRANCH  23  24
HETATM   24  O8  UNL     1      21.679  28.676  20.080  1.00  0.00    -0.398 OA
ATOM     25  H8  UNL     1      21.212  28.647  19.254  1.00  0.00     0.209 HD
ENDBRANCH  23  24
ENDBRANCH  19  23
BRANCH  20  26
HETATM   26  O9  UNL     1      21.831  32.107  21.891  1.00  0.00    -0.390 OA
ATOM     27  H9  UNL     1      21.128  32.385  21.315  1.00  0.00     0.210 HD
ENDBRANCH  20  26
BRANCH  21  28
HETATM   28  O10 UNL     1      23.147  32.015  23.960  1.00  0.00    -0.390 OA
ATOM     29  H10 UNL     1      23.619  32.007  24.785  1.00  0.00     0.210 HD
ENDBRANCH  21  28
BRANCH  22  30
HETATM   30  O11 UNL     1      21.079  29.548  25.450  1.00  0.00    -0.388 OA
ATOM     31  H11 UNL     1      21.294  29.190  26.303  1.00  0.00     0.210 HD
ENDBRANCH  22  30
ENDBRANCH   1  17
TORSDOF 12
ENDMDL
