MODEL 1
REMARK VINA RESULT: -5.809861752      0.000      0.000
REMARK  12 active torsions:
REMARK  status: ('A' for Active; 'I' for Inactive)
REMARK    1  A    between atoms: O1_1  and  C1_3 
REMARK    2  A    between atoms: C1_3  and  C2_4 
REMARK    3  A    between atoms: C3_6  and  O3_7 
REMARK    4  A    between atoms: C4_9  and  O4_10 
REMARK    5  A    between atoms: C5_12  and  O5_13 
REMARK    6  A    between atoms: C6_15  and  O6_16 
REMARK    7  A    between atoms: O6_16  and  C7_17 
REMARK    8  A    between atoms: C8_19  and  C9_20 
REMARK    9  A    between atoms: C9_20  and  O8_21 
REMARK   10  A    between atoms: C10_23  and  O9_24 
REMARK   11  A    between atoms: C11_26  and  O10_27 
REMARK   12  A    between atoms: C12_29  and  O11_30 
ROOT
HETATM    1  O6  UNL     1      21.694  32.010  24.037  1.00  0.00    -0.348 OA
ENDROOT
BRANCH   1   2
HETATM    2  C6  UNL     1      21.031  32.596  25.073  1.00  0.00     0.187 C 
HETATM    3  C2  UNL     1      21.311  32.059  26.429  1.00  0.00     0.180 C 
HETATM    4  O2  UNL     1      20.155  31.719  27.145  1.00  0.00    -0.349 OA
HETATM    5  C3  UNL     1      19.292  32.785  27.294  1.00  0.00     0.288 C 
HETATM    6  C4  UNL     1      18.993  33.492  25.988  1.00  0.00     0.204 C 
HETATM    7  C5  UNL     1      19.509  32.577  24.890  1.00  0.00     0.183 C 
BRANCH   3   8
HETATM    8  C1  UNL     1      22.068  33.085  27.287  1.00  0.00     0.198 C 
BRANCH   8   9
HETATM    9  O1  UNL     1      22.713  33.926  26.349  1.00  0.00    -0.398 OA
ATOM     10  H1  UNL     1      23.446  34.297  26.827  1.00  0.00     0.209 HD
ENDBRANCH   8   9
ENDBRANCH   3   8
BRANCH   5  11
HETATM   11  O3  UNL     1      18.061  32.249  27.734  1.00  0.00    -0.369 OA
ATOM     12  H3  UNL     1      17.570  32.970  28.109  1.00  0.00     0.212 HD
ENDBRANCH   5  11
BRANCH   6  13
HETATM   13  O4  UNL     1      17.653  33.792  25.835  1.00  0.00    -0.388 OA
ATOM     14  H4  UNL     1      17.340  33.642  24.951  1.00  0.00     0.210 HD
ENDBRANCH   6  13
BRANCH   7  15
HETATM   15  O5  UNL     1      19.143  33.010  23.632  1.00  0.00    -0.390 OA
ATOM     16  H5  UNL     1      18.354  32.584  23.320  1.00  0.00     0.210 HD
ENDBRANCH   7  15
ENDBRANCH   1   2
BRANCH   1  17
HETATM   17  C7  UNL     1      22.607  31.033  24.376  1.00  0.00     0.292 C 
HETATM   18  O7  UNL     1      23.857  31.503  23.911  1.00  0.00    -0.348 OA
HETATM   19  C8  UNL     1      24.846  30.541  24.055  1.00  0.00     0.179 C 
HETATM   20  C10 UNL     1      24.618  29.486  23.008  1.00  0.00     0.180 C 
HETATM   21  C11 UNL     1      23.175  29.271  22.676  1.00  0.00     0.183 C 
HETATM   22  C12 UNL     1      22.218  29.739  23.729  1.00  0.00     0.204 C 
BRANCH  19  23
HETATM   23  C9  UNL     1      26.176  31.213  23.826  1.00  0.00     0.198 C 
BRANCH  23  24
HETATM   24  O8  UNL     1      25.917  32.546  23.513  1.00  0.00    -0.398 OA
ATOM     25  H8  UNL     1      25.366  32.551  22.739  1.00  0.00     0.209 HD
ENDBRANCH  23  24
ENDBRANCH  19  23
BRANCH  20  26
HETATM   26  O9  UNL     1      25.317  29.867  21.862  1.00  0.00    -0.390 OA
ATOM     27  H9  UNL     1      25.205  29.182  21.213  1.00  0.00     0.210 HD
ENDBRANCH  20  26
BRANCH  21  28
HETATM   28  O10 UNL     1      22.899  29.873  21.445  1.00  0.00    -0.390 OA
ATOM     29  H10 UNL     1      22.146  29.445  21.055  1.00  0.00     0.210 HD
ENDBRANCH  21  28
BRANCH  22  30
HETATM   30  O11 UNL     1      22.093  28.717  24.700  1.00  0.00    -0.388 OA
ATOM     31  H11 UNL     1      21.242  28.297  24.634  1.00  0.00     0.210 HD
ENDBRANCH  22  30
ENDBRANCH   1  17
TORSDOF 12
ENDMDL
