MODEL 4
REMARK VINA RESULT: -5.272511063      1.682      6.138
REMARK  12 active torsions:
REMARK  status: ('A' for Active; 'I' for Inactive)
REMARK    1  A    between atoms: O1_1  and  C1_3 
REMARK    2  A    between atoms: C1_3  and  C2_4 
REMARK    3  A    between atoms: C3_6  and  O3_7 
REMARK    4  A    between atoms: C4_9  and  O4_10 
REMARK    5  A    between atoms: C5_12  and  O5_13 
REMARK    6  A    between atoms: C6_15  and  O6_16 
REMARK    7  A    between atoms: O6_16  and  C7_17 
REMARK    8  A    between atoms: C8_19  and  C9_20 
REMARK    9  A    between atoms: C9_20  and  O8_21 
REMARK   10  A    between atoms: C10_23  and  O9_24 
REMARK   11  A    between atoms: C11_26  and  O10_27 
REMARK   12  A    between atoms: C12_29  and  O11_30 
ROOT
HETATM    1  O6  UNL     1      23.329  31.968  24.677  1.00  0.00    -0.348 OA
ENDROOT
BRANCH   1   2
HETATM    2  C6  UNL     1      23.252  31.035  23.688  1.00  0.00     0.187 C 
HETATM    3  C2  UNL     1      21.919  30.422  23.456  1.00  0.00     0.180 C 
HETATM    4  O2  UNL     1      21.941  29.020  23.455  1.00  0.00    -0.349 OA
HETATM    5  C3  UNL     1      22.801  28.505  22.507  1.00  0.00     0.288 C 
HETATM    6  C4  UNL     1      24.184  29.120  22.567  1.00  0.00     0.204 C 
HETATM    7  C5  UNL     1      24.246  29.884  23.880  1.00  0.00     0.183 C 
BRANCH   3   8
HETATM    8  C1  UNL     1      21.339  30.849  22.099  1.00  0.00     0.198 C 
BRANCH   8   9
HETATM    9  O1  UNL     1      21.677  32.219  21.983  1.00  0.00    -0.398 OA
ATOM     10  H1  UNL     1      22.607  32.252  22.174  1.00  0.00     0.209 HD
ENDBRANCH   8   9
ENDBRANCH   3   8
BRANCH   5  11
HETATM   11  O3  UNL     1      22.971  27.138  22.817  1.00  0.00    -0.369 OA
ATOM     12  H3  UNL     1      23.855  27.045  23.154  1.00  0.00     0.212 HD
ENDBRANCH   5  11
BRANCH   6  13
HETATM   13  O4  UNL     1      25.193  28.181  22.458  1.00  0.00    -0.388 OA
ATOM     14  H4  UNL     1      25.740  28.137  23.233  1.00  0.00     0.210 HD
ENDBRANCH   6  13
BRANCH   7  15
HETATM   15  O5  UNL     1      25.515  30.349  24.156  1.00  0.00    -0.390 OA
ATOM     16  H5  UNL     1      25.657  30.477  25.086  1.00  0.00     0.210 HD
ENDBRANCH   7  15
ENDBRANCH   1   2
BRANCH   1  17
HETATM   17  C7  UNL     1      22.304  31.961  25.599  1.00  0.00     0.292 C 
HETATM   18  O7  UNL     1      21.180  32.491  24.924  1.00  0.00    -0.348 OA
HETATM   19  C8  UNL     1      20.111  32.681  25.788  1.00  0.00     0.179 C 
HETATM   20  C10 UNL     1      20.420  33.877  26.647  1.00  0.00     0.180 C 
HETATM   21  C11 UNL     1      21.877  34.041  26.944  1.00  0.00     0.183 C 
HETATM   22  C12 UNL     1      22.691  32.795  26.783  1.00  0.00     0.204 C 
BRANCH  19  23
HETATM   23  C9  UNL     1      18.888  32.953  24.951  1.00  0.00     0.198 C 
BRANCH  23  24
HETATM   24  O8  UNL     1      19.324  33.207  23.653  1.00  0.00    -0.398 OA
ATOM     25  H8  UNL     1      19.043  34.087  23.429  1.00  0.00     0.209 HD
ENDBRANCH  23  24
ENDBRANCH  19  23
BRANCH  20  26
HETATM   26  O9  UNL     1      19.939  35.009  25.988  1.00  0.00    -0.390 OA
ATOM     27  H9  UNL     1      19.235  34.731  25.413  1.00  0.00     0.210 HD
ENDBRANCH  20  26
BRANCH  21  28
HETATM   28  O10 UNL     1      22.386  35.077  26.155  1.00  0.00    -0.390 OA
ATOM     29  H10 UNL     1      22.182  34.899  25.244  1.00  0.00     0.210 HD
ENDBRANCH  21  28
BRANCH  22  30
HETATM   30  O11 UNL     1      22.587  32.040  27.977  1.00  0.00    -0.388 OA
ATOM     31  H11 UNL     1      22.832  31.135  27.821  1.00  0.00     0.210 HD
ENDBRANCH  22  30
ENDBRANCH   1  17
TORSDOF 12
ENDMDL
