MODEL 3
REMARK VINA RESULT: -5.325761731      1.535      2.669
REMARK  12 active torsions:
REMARK  status: ('A' for Active; 'I' for Inactive)
REMARK    1  A    between atoms: O1_1  and  C1_3 
REMARK    2  A    between atoms: C1_3  and  C2_4 
REMARK    3  A    between atoms: C3_6  and  O3_7 
REMARK    4  A    between atoms: C4_9  and  O4_10 
REMARK    5  A    between atoms: C5_12  and  O5_13 
REMARK    6  A    between atoms: C6_15  and  O6_16 
REMARK    7  A    between atoms: O6_16  and  C7_17 
REMARK    8  A    between atoms: C8_19  and  C9_20 
REMARK    9  A    between atoms: C9_20  and  O8_21 
REMARK   10  A    between atoms: C10_23  and  O9_24 
REMARK   11  A    between atoms: C11_26  and  O10_27 
REMARK   12  A    between atoms: C12_29  and  O11_30 
ROOT
HETATM    1  O6  UNL     1      20.494  30.994  24.733  1.00  0.00    -0.348 OA
ENDROOT
BRANCH   1   2
HETATM    2  C6  UNL     1      20.359  32.091  25.529  1.00  0.00     0.187 C 
HETATM    3  C2  UNL     1      20.783  31.942  26.944  1.00  0.00     0.180 C 
HETATM    4  O2  UNL     1      19.806  32.346  27.866  1.00  0.00    -0.349 OA
HETATM    5  C3  UNL     1      19.421  33.659  27.688  1.00  0.00     0.288 C 
HETATM    6  C4  UNL     1      19.052  33.978  26.254  1.00  0.00     0.204 C 
HETATM    7  C5  UNL     1      18.927  32.638  25.546  1.00  0.00     0.183 C 
BRANCH   3   8
HETATM    8  C1  UNL     1      22.034  32.782  27.241  1.00  0.00     0.198 C 
BRANCH   8   9
HETATM    9  O1  UNL     1      22.393  33.339  25.991  1.00  0.00    -0.398 OA
ATOM     10  H1  UNL     1      21.587  33.716  25.657  1.00  0.00     0.209 HD
ENDBRANCH   8   9
ENDBRANCH   3   8
BRANCH   5  11
HETATM   11  O3  UNL     1      18.241  33.839  28.441  1.00  0.00    -0.369 OA
ATOM     12  H3  UNL     1      18.509  34.170  29.290  1.00  0.00     0.212 HD
ENDBRANCH   5  11
BRANCH   6  13
HETATM   13  O4  UNL     1      17.899  34.734  26.153  1.00  0.00    -0.388 OA
ATOM     14  H4  UNL     1      17.109  34.213  26.229  1.00  0.00     0.210 HD
ENDBRANCH   6  13
BRANCH   7  15
HETATM   15  O5  UNL     1      18.416  32.765  24.271  1.00  0.00    -0.390 OA
ATOM     16  H5  UNL     1      17.474  32.888  24.270  1.00  0.00     0.210 HD
ENDBRANCH   7  15
ENDBRANCH   1   2
BRANCH   1  17
HETATM   17  C7  UNL     1      21.394  31.106  23.694  1.00  0.00     0.292 C 
HETATM   18  O7  UNL     1      20.890  30.280  22.663  1.00  0.00    -0.348 OA
HETATM   19  C8  UNL     1      21.785  30.182  21.607  1.00  0.00     0.179 C 
HETATM   20  C10 UNL     1      22.919  29.297  22.046  1.00  0.00     0.180 C 
HETATM   21  C11 UNL     1      23.234  29.403  23.505  1.00  0.00     0.183 C 
HETATM   22  C12 UNL     1      22.749  30.661  24.156  1.00  0.00     0.204 C 
BRANCH  19  23
HETATM   23  C9  UNL     1      21.059  29.549  20.448  1.00  0.00     0.198 C 
BRANCH  23  24
HETATM   24  O8  UNL     1      21.938  29.539  19.366  1.00  0.00    -0.398 OA
ATOM     25  H8  UNL     1      21.807  30.350  18.890  1.00  0.00     0.209 HD
ENDBRANCH  23  24
ENDBRANCH  19  23
BRANCH  20  26
HETATM   26  O9  UNL     1      22.579  27.981  21.728  1.00  0.00    -0.390 OA
ATOM     27  H9  UNL     1      21.732  27.998  21.298  1.00  0.00     0.210 HD
ENDBRANCH  20  26
BRANCH  21  28
HETATM   28  O10 UNL     1      22.733  28.274  24.160  1.00  0.00    -0.390 OA
ATOM     29  H10 UNL     1      23.439  27.651  24.284  1.00  0.00     0.210 HD
ENDBRANCH  21  28
BRANCH  22  30
HETATM   30  O11 UNL     1      23.708  31.677  23.930  1.00  0.00    -0.388 OA
ATOM     31  H11 UNL     1      24.178  31.877  24.731  1.00  0.00     0.210 HD
ENDBRANCH  22  30
ENDBRANCH   1  17
TORSDOF 12
ENDMDL
