MODEL 5
REMARK VINA RESULT: -5.246304598      1.510      1.760
REMARK  2 active torsions:
REMARK  status: ('A' for Active; 'I' for Inactive)
REMARK    1  A    between atoms: O1_1  and  C1_3 
REMARK    2  A    between atoms: C5_7  and  O2_8 
ROOT
HETATM    1  C1  UNL     1      54.583  29.558  21.089  1.00  0.00     0.068 A 
HETATM    2  C2  UNL     1      55.964  29.599  21.070  1.00  0.00     0.037 A 
HETATM    3  C3  UNL     1      56.544  30.436  20.140  1.00  0.00     0.005 A 
HETATM    4  C4  UNL     1      55.778  31.191  19.276  1.00  0.00     0.037 A 
HETATM    5  C5  UNL     1      54.401  31.143  19.303  1.00  0.00     0.068 A 
HETATM    6  C6  UNL     1      53.810  30.309  20.228  1.00  0.00     0.072 A 
ENDROOT
BRANCH   1   7
HETATM    7  O1  UNL     1      53.931  28.736  22.001  1.00  0.00    -0.361 OA
ATOM      8  H1  UNL     1      53.201  28.201  21.714  1.00  0.00     0.217 HD
ENDBRANCH   1   7
BRANCH   5   9
HETATM    9  O2  UNL     1      53.609  31.898  18.439  1.00  0.00    -0.361 OA
ATOM     10  H2  UNL     1      53.114  32.654  18.730  1.00  0.00     0.217 HD
ENDBRANCH   5   9
TORSDOF 2
ENDMDL
