MODEL 4
REMARK VINA RESULT: -5.304892919      1.356      2.732
REMARK  2 active torsions:
REMARK  status: ('A' for Active; 'I' for Inactive)
REMARK    1  A    between atoms: O1_1  and  C1_3 
REMARK    2  A    between atoms: C5_7  and  O2_8 
ROOT
HETATM    1  C1  UNL     1      55.884  30.161  20.250  1.00  0.00     0.068 A 
HETATM    2  C2  UNL     1      57.125  29.566  20.373  1.00  0.00     0.037 A 
HETATM    3  C3  UNL     1      57.208  28.473  21.210  1.00  0.00     0.005 A 
HETATM    4  C4  UNL     1      56.101  28.003  21.887  1.00  0.00     0.037 A 
HETATM    5  C5  UNL     1      54.867  28.602  21.758  1.00  0.00     0.068 A 
HETATM    6  C6  UNL     1      54.774  29.696  20.924  1.00  0.00     0.072 A 
ENDROOT
BRANCH   1   7
HETATM    7  O1  UNL     1      55.729  31.267  19.423  1.00  0.00    -0.361 OA
ATOM      8  H1  UNL     1      54.921  31.764  19.450  1.00  0.00     0.217 HD
ENDBRANCH   1   7
BRANCH   5   9
HETATM    9  O2  UNL     1      53.737  28.142  22.433  1.00  0.00    -0.361 OA
ATOM     10  H2  UNL     1      52.855  28.351  22.152  1.00  0.00     0.217 HD
ENDBRANCH   5   9
TORSDOF 2
ENDMDL
