MODEL 3
REMARK VINA RESULT: -5.305643329      1.370      1.818
REMARK  2 active torsions:
REMARK  status: ('A' for Active; 'I' for Inactive)
REMARK    1  A    between atoms: O1_1  and  C1_3 
REMARK    2  A    between atoms: C5_7  and  O2_8 
ROOT
HETATM    1  C1  UNL     1      54.890  28.569  21.767  1.00  0.00     0.068 A 
HETATM    2  C2  UNL     1      56.087  27.901  21.943  1.00  0.00     0.037 A 
HETATM    3  C3  UNL     1      57.174  28.385  21.245  1.00  0.00     0.005 A 
HETATM    4  C4  UNL     1      57.063  29.481  20.414  1.00  0.00     0.037 A 
HETATM    5  C5  UNL     1      55.864  30.140  20.244  1.00  0.00     0.068 A 
HETATM    6  C6  UNL     1      54.772  29.664  20.938  1.00  0.00     0.072 A 
ENDROOT
BRANCH   1   7
HETATM    7  O1  UNL     1      53.755  28.135  22.440  1.00  0.00    -0.361 OA
ATOM      8  H1  UNL     1      53.543  27.209  22.457  1.00  0.00     0.217 HD
ENDBRANCH   1   7
BRANCH   5   9
HETATM    9  O2  UNL     1      55.732  31.249  19.410  1.00  0.00    -0.361 OA
ATOM     10  H2  UNL     1      56.203  31.328  18.589  1.00  0.00     0.217 HD
ENDBRANCH   5   9
TORSDOF 2
ENDMDL
