MODEL 1
REMARK VINA RESULT: -5.504335269      0.000      0.000
REMARK  2 active torsions:
REMARK  status: ('A' for Active; 'I' for Inactive)
REMARK    1  A    between atoms: O1_1  and  C1_3 
REMARK    2  A    between atoms: C5_7  and  O2_8 
ROOT
HETATM    1  C1  UNL     1      55.928  28.452  21.619  1.00  0.00     0.068 A 
HETATM    2  C2  UNL     1      57.057  28.872  20.942  1.00  0.00     0.037 A 
HETATM    3  C3  UNL     1      56.906  29.950  20.096  1.00  0.00     0.005 A 
HETATM    4  C4  UNL     1      55.686  30.573  19.938  1.00  0.00     0.037 A 
HETATM    5  C5  UNL     1      54.564  30.147  20.617  1.00  0.00     0.068 A 
HETATM    6  C6  UNL     1      54.704  29.070  21.465  1.00  0.00     0.072 A 
ENDROOT
BRANCH   1   7
HETATM    7  O1  UNL     1      56.008  27.371  22.488  1.00  0.00    -0.361 OA
ATOM      8  H1  UNL     1      55.286  26.757  22.544  1.00  0.00     0.217 HD
ENDBRANCH   1   7
BRANCH   5   9
HETATM    9  O2  UNL     1      53.322  30.763  20.471  1.00  0.00    -0.361 OA
ATOM     10  H2  UNL     1      52.504  30.306  20.630  1.00  0.00     0.217 HD
ENDBRANCH   5   9
TORSDOF 2
ENDMDL
