MODEL 2
REMARK VINA RESULT: -5.469470558      0.050      2.929
REMARK  2 active torsions:
REMARK  status: ('A' for Active; 'I' for Inactive)
REMARK    1  A    between atoms: O1_1  and  C1_3 
REMARK    2  A    between atoms: C5_7  and  O2_8 
ROOT
HETATM    1  C1  UNL     1      54.598  30.148  20.610  1.00  0.00     0.068 A 
HETATM    2  C2  UNL     1      55.670  30.629  19.883  1.00  0.00     0.037 A 
HETATM    3  C3  UNL     1      56.875  29.980  20.053  1.00  0.00     0.005 A 
HETATM    4  C4  UNL     1      56.996  28.905  20.909  1.00  0.00     0.037 A 
HETATM    5  C5  UNL     1      55.921  28.432  21.631  1.00  0.00     0.068 A 
HETATM    6  C6  UNL     1      54.713  29.074  21.468  1.00  0.00     0.072 A 
ENDROOT
BRANCH   1   7
HETATM    7  O1  UNL     1      53.354  30.755  20.487  1.00  0.00    -0.361 OA
ATOM      8  H1  UNL     1      52.675  30.570  21.125  1.00  0.00     0.217 HD
ENDBRANCH   1   7
BRANCH   5   9
HETATM    9  O2  UNL     1      56.024  27.347  22.500  1.00  0.00    -0.361 OA
ATOM     10  H2  UNL     1      56.808  26.816  22.563  1.00  0.00     0.217 HD
ENDBRANCH   5   9
TORSDOF 2
ENDMDL
