MODEL 2
REMARK VINA RESULT: -8.968222065      3.906      7.245
REMARK  7 active torsions:
REMARK  status: ('A' for Active; 'I' for Inactive)
REMARK    1  A    between atoms: N5_13  and  C6_14 
REMARK    2  A    between atoms: C7_16  and  C8_17 
REMARK    3  A    between atoms: C8_17  and  O2_18 
REMARK    4  A    between atoms: O2_18  and  P1_19 
REMARK    5  A    between atoms: C12_28  and  N6_29 
REMARK    6  A    between atoms: C14_33  and  N7_34 
REMARK    7  A    between atoms: C16_38  and  N8_39 
ROOT
HETATM    1  C6  UNL     1      36.747   1.523 127.065  1.00  0.00     0.262 C 
HETATM    2  O1  UNL     1      36.283   1.740 128.338  1.00  0.00    -0.353 OA
HETATM    3  C7  UNL     1      36.215   0.527 128.999  1.00  0.00     0.180 C 
HETATM    4  C9  UNL     1      37.479  -0.159 128.525  1.00  0.00     0.190 C 
HETATM    5  O6  UNL     1      37.390  -1.527 128.506  1.00  0.00    -0.334 OA
HETATM    6  C10 UNL     1      36.976  -1.936 127.254  1.00  0.00     0.267 C 
HETATM    7  O7  UNL     1      36.538  -0.813 126.584  1.00  0.00    -0.332 OA
HETATM    8  C11 UNL     1      37.412   0.166 127.033  1.00  0.00     0.207 C 
HETATM    9  C12 UNL     1      35.874  -2.941 127.403  1.00  0.00     0.147 C 
HETATM   10  C13 UNL     1      36.153  -4.195 127.653  1.00  0.00     0.046 C 
HETATM   11  C14 UNL     1      37.566  -4.616 127.786  1.00  0.00     0.206 C 
HETATM   12  C15 UNL     1      38.338  -3.890 126.734  1.00  0.00     0.046 C 
HETATM   13  C16 UNL     1      38.049  -2.624 126.493  1.00  0.00     0.147 C 
ENDROOT
BRANCH   9  14
HETATM   14  N6  UNL     1      34.513  -2.562 127.279  1.00  0.00    -0.114 N 
HETATM   15  O8  UNL     1      34.004  -2.546 126.144  1.00  0.00    -0.532 OA
HETATM   16  O9  UNL     1      33.796  -2.222 128.411  1.00  0.00    -0.532 OA
ENDBRANCH   9  14
BRANCH  13  17
HETATM   17  N8  UNL     1      38.797  -1.957 125.487  1.00  0.00    -0.114 N 
HETATM   18  O12 UNL     1      38.336  -1.957 124.309  1.00  0.00    -0.532 OA
HETATM   19  O13 UNL     1      39.989  -1.322 125.769  1.00  0.00    -0.532 OA
ENDBRANCH  13  17
BRANCH   3  20
HETATM   20  C8  UNL     1      36.198   0.711 130.496  1.00  0.00     0.217 C 
BRANCH  20  21
HETATM   21  O2  UNL     1      36.465   2.050 130.753  1.00  0.00    -0.280 OA
BRANCH  21  22
HETATM   22  P1  UNL     1      35.109   2.927 131.189  1.00  0.00     0.422 P 
HETATM   23  O3  UNL     1      33.869   2.040 131.241  1.00  0.00    -0.617 OA
HETATM   24  O4  UNL     1      34.787   4.216 130.172  1.00  0.00    -0.617 OA
HETATM   25  O5  UNL     1      35.351   3.467 132.793  1.00  0.00    -0.617 OA
ENDBRANCH  21  22
ENDBRANCH  20  21
ENDBRANCH   3  20
BRANCH   1  26
HETATM   26  N5  UNL     1      37.634   2.540 126.578  1.00  0.00    -0.297 N 
HETATM   27  C3  UNL     1      37.859   3.763 127.095  1.00  0.00     0.142 A 
HETATM   28  N3  UNL     1      37.351   4.380 128.171  1.00  0.00    -0.336 N 
HETATM   29  C4  UNL     1      38.794   4.434 126.317  1.00  0.00     0.119 A 
HETATM   30  C2  UNL     1      37.713   5.637 128.531  1.00  0.00     0.183 A 
ATOM     31  H3  UNL     1      36.666   3.885 128.741  1.00  0.00     0.168 HD
HETATM   32  N2  UNL     1      38.616   6.270 127.768  1.00  0.00    -0.339 N 
HETATM   33  C1  UNL     1      39.163   5.707 126.677  1.00  0.00     0.148 A 
ATOM     34  H2  UNL     1      38.899   7.216 128.025  1.00  0.00     0.167 HD
HETATM   35  N1  UNL     1      40.131   6.400 125.869  1.00  0.00    -0.080 NA
HETATM   36  N4  UNL     1      39.112   3.588 125.336  1.00  0.00    -0.346 N 
HETATM   37  C5  UNL     1      38.421   2.450 125.488  1.00  0.00     0.188 A 
ATOM     38  H4  UNL     1      39.779   3.777 124.588  1.00  0.00     0.167 HD
ENDBRANCH   1  26
BRANCH  11  39
HETATM   39  N7  UNL     1      37.734  -6.032 127.669  1.00  0.00    -0.143 N 
HETATM   40  O10 UNL     1      38.250  -6.512 126.654  1.00  0.00    -0.536 OA
HETATM   41  O11 UNL     1      37.327  -6.859 128.672  1.00  0.00    -0.536 OA
ENDBRANCH  11  39
TORSDOF 7
ENDMDL
