MODEL 3
REMARK VINA RESULT: -8.933958610      2.957      7.721
REMARK  7 active torsions:
REMARK  status: ('A' for Active; 'I' for Inactive)
REMARK    1  A    between atoms: N5_13  and  C6_14 
REMARK    2  A    between atoms: C7_16  and  C8_17 
REMARK    3  A    between atoms: C8_17  and  O2_18 
REMARK    4  A    between atoms: O2_18  and  P1_19 
REMARK    5  A    between atoms: C12_28  and  N6_29 
REMARK    6  A    between atoms: C14_33  and  N7_34 
REMARK    7  A    between atoms: C16_38  and  N8_39 
ROOT
HETATM    1  C6  UNL     1      39.376  -0.753 129.887  1.00  0.00     0.262 C 
HETATM    2  O1  UNL     1      38.386  -0.180 129.129  1.00  0.00    -0.353 OA
HETATM    3  C7  UNL     1      38.243  -0.906 127.961  1.00  0.00     0.180 C 
HETATM    4  C9  UNL     1      38.390  -2.329 128.458  1.00  0.00     0.190 C 
HETATM    5  O6  UNL     1      38.891  -3.193 127.519  1.00  0.00    -0.334 OA
HETATM    6  C10 UNL     1      40.264  -3.253 127.647  1.00  0.00     0.267 C 
HETATM    7  O7  UNL     1      40.640  -2.217 128.476  1.00  0.00    -0.332 OA
HETATM    8  C11 UNL     1      39.593  -2.163 129.384  1.00  0.00     0.207 C 
HETATM    9  C12 UNL     1      40.892  -3.117 126.292  1.00  0.00     0.147 C 
HETATM   10  C13 UNL     1      40.982  -4.154 125.500  1.00  0.00     0.046 C 
HETATM   11  C14 UNL     1      40.460  -5.465 125.948  1.00  0.00     0.206 C 
HETATM   12  C15 UNL     1      40.830  -5.610 127.389  1.00  0.00     0.046 C 
HETATM   13  C16 UNL     1      40.732  -4.557 128.180  1.00  0.00     0.147 C 
ENDROOT
BRANCH   9  14
HETATM   14  N6  UNL     1      41.399  -1.872 125.840  1.00  0.00    -0.114 N 
HETATM   15  O8  UNL     1      42.611  -1.789 125.569  1.00  0.00    -0.532 OA
HETATM   16  O9  UNL     1      40.543  -0.794 125.715  1.00  0.00    -0.532 OA
ENDBRANCH   9  14
BRANCH  13  17
HETATM   17  N8  UNL     1      41.090  -4.721 129.543  1.00  0.00    -0.114 N 
HETATM   18  O12 UNL     1      40.239  -5.241 130.321  1.00  0.00    -0.532 OA
HETATM   19  O13 UNL     1      42.324  -4.331 130.022  1.00  0.00    -0.532 OA
ENDBRANCH  13  17
BRANCH   3  20
HETATM   20  C8  UNL     1      36.899  -0.666 127.320  1.00  0.00     0.217 C 
BRANCH  20  21
HETATM   21  O2  UNL     1      35.934  -1.195 128.168  1.00  0.00    -0.280 OA
BRANCH  21  22
HETATM   22  P1  UNL     1      34.827  -2.177 127.387  1.00  0.00     0.422 P 
HETATM   23  O3  UNL     1      35.306  -3.625 127.344  1.00  0.00    -0.617 OA
HETATM   24  O4  UNL     1      34.486  -1.692 125.824  1.00  0.00    -0.617 OA
HETATM   25  O5  UNL     1      33.407  -2.194 128.340  1.00  0.00    -0.617 OA
ENDBRANCH  21  22
ENDBRANCH  20  21
ENDBRANCH   3  20
BRANCH   1  26
HETATM   26  N5  UNL     1      39.119  -0.747 131.299  1.00  0.00    -0.297 N 
HETATM   27  C3  UNL     1      37.927  -0.792 131.925  1.00  0.00     0.142 A 
HETATM   28  N3  UNL     1      36.676  -0.853 131.451  1.00  0.00    -0.336 N 
HETATM   29  C4  UNL     1      38.123  -0.767 133.300  1.00  0.00     0.119 A 
HETATM   30  C2  UNL     1      35.589  -0.891 132.262  1.00  0.00     0.183 A 
ATOM     31  H3  UNL     1      36.535  -0.873 130.441  1.00  0.00     0.168 HD
HETATM   32  N2  UNL     1      35.795  -0.866 133.587  1.00  0.00    -0.339 N 
HETATM   33  C1  UNL     1      37.025  -0.805 134.125  1.00  0.00     0.148 A 
ATOM     34  H2  UNL     1      34.989  -0.893 134.210  1.00  0.00     0.167 HD
HETATM   35  N1  UNL     1      37.230  -0.778 135.549  1.00  0.00    -0.080 NA
HETATM   36  N4  UNL     1      39.445  -0.705 133.470  1.00  0.00    -0.346 N 
HETATM   37  C5  UNL     1      40.047  -0.694 132.273  1.00  0.00     0.188 A 
ATOM     38  H4  UNL     1      39.922  -0.673 134.370  1.00  0.00     0.167 HD
ENDBRANCH   1  26
BRANCH  11  39
HETATM   39  N7  UNL     1      40.963  -6.555 125.171  1.00  0.00    -0.143 N 
HETATM   40  O10 UNL     1      41.963  -6.400 124.462  1.00  0.00    -0.536 OA
HETATM   41  O11 UNL     1      40.347  -7.769 125.208  1.00  0.00    -0.536 OA
ENDBRANCH  11  39
TORSDOF 7
ENDMDL
