MODEL 1
REMARK VINA RESULT: -9.574535133      0.000      0.000
REMARK  7 active torsions:
REMARK  status: ('A' for Active; 'I' for Inactive)
REMARK    1  A    between atoms: N5_13  and  C6_14 
REMARK    2  A    between atoms: C7_16  and  C8_17 
REMARK    3  A    between atoms: C8_17  and  O2_18 
REMARK    4  A    between atoms: O2_18  and  P1_19 
REMARK    5  A    between atoms: C12_28  and  N6_29 
REMARK    6  A    between atoms: C14_33  and  N7_34 
REMARK    7  A    between atoms: C16_38  and  N8_39 
ROOT
HETATM    1  C6  UNL     1      36.752  -3.668 127.422  1.00  0.00     0.262 C 
HETATM    2  O1  UNL     1      36.085  -3.127 126.352  1.00  0.00    -0.353 OA
HETATM    3  C7  UNL     1      35.566  -1.900 126.724  1.00  0.00     0.180 C 
HETATM    4  C9  UNL     1      36.690  -1.329 127.563  1.00  0.00     0.190 C 
HETATM    5  O6  UNL     1      36.267  -0.453 128.530  1.00  0.00    -0.334 OA
HETATM    6  C10 UNL     1      36.055  -1.147 129.705  1.00  0.00     0.267 C 
HETATM    7  O7  UNL     1      36.076  -2.490 129.394  1.00  0.00    -0.332 OA
HETATM    8  C11 UNL     1      37.044  -2.554 128.403  1.00  0.00     0.207 C 
HETATM    9  C12 UNL     1      34.731  -0.745 130.282  1.00  0.00     0.147 C 
HETATM   10  C13 UNL     1      34.622   0.354 130.983  1.00  0.00     0.046 C 
HETATM   11  C14 UNL     1      35.815   1.201 131.204  1.00  0.00     0.206 C 
HETATM   12  C15 UNL     1      36.962   0.279 131.463  1.00  0.00     0.046 C 
HETATM   13  C16 UNL     1      37.062  -0.827 130.747  1.00  0.00     0.147 C 
ENDROOT
BRANCH   9  14
HETATM   14  N6  UNL     1      33.573  -1.540 130.084  1.00  0.00    -0.114 N 
HETATM   15  O8  UNL     1      32.889  -1.849 131.077  1.00  0.00    -0.532 OA
HETATM   16  O9  UNL     1      33.238  -1.948 128.806  1.00  0.00    -0.532 OA
ENDBRANCH   9  14
BRANCH  13  17
HETATM   17  N8  UNL     1      38.160  -1.687 131.013  1.00  0.00    -0.114 N 
HETATM   18  O12 UNL     1      37.984  -2.635 131.833  1.00  0.00    -0.532 OA
HETATM   19  O13 UNL     1      39.385  -1.511 130.405  1.00  0.00    -0.532 OA
ENDBRANCH  13  17
BRANCH   3  20
HETATM   20  C8  UNL     1      35.261  -1.040 125.524  1.00  0.00     0.217 C 
BRANCH  20  21
HETATM   21  O2  UNL     1      36.401  -1.015 124.730  1.00  0.00    -0.280 OA
BRANCH  21  22
HETATM   22  P1  UNL     1      37.005   0.524 124.480  1.00  0.00     0.422 P 
HETATM   23  O3  UNL     1      36.427   1.516 125.485  1.00  0.00    -0.617 OA
HETATM   24  O4  UNL     1      36.723   1.115 122.941  1.00  0.00    -0.617 OA
HETATM   25  O5  UNL     1      38.682   0.468 124.808  1.00  0.00    -0.617 OA
ENDBRANCH  21  22
ENDBRANCH  20  21
ENDBRANCH   3  20
BRANCH   1  26
HETATM   26  N5  UNL     1      37.953  -4.373 127.076  1.00  0.00    -0.297 N 
HETATM   27  C3  UNL     1      38.744  -4.186 126.002  1.00  0.00     0.142 A 
HETATM   28  N3  UNL     1      38.662  -3.329 124.976  1.00  0.00    -0.336 N 
HETATM   29  C4  UNL     1      39.807  -5.080 126.046  1.00  0.00     0.119 A 
HETATM   30  C2  UNL     1      39.577  -3.299 123.975  1.00  0.00     0.183 A 
ATOM     31  H3  UNL     1      37.882  -2.674 124.946  1.00  0.00     0.168 HD
HETATM   32  N2  UNL     1      40.597  -4.168 124.032  1.00  0.00    -0.339 N 
HETATM   33  C1  UNL     1      40.736  -5.053 125.034  1.00  0.00     0.148 A 
ATOM     34  H2  UNL     1      41.293  -4.158 123.287  1.00  0.00     0.167 HD
HETATM   35  N1  UNL     1      41.836  -5.979 125.081  1.00  0.00    -0.080 NA
HETATM   36  N4  UNL     1      39.627  -5.792 127.159  1.00  0.00    -0.346 N 
HETATM   37  C5  UNL     1      38.517  -5.372 127.781  1.00  0.00     0.188 A 
ATOM     38  H4  UNL     1      40.238  -6.540 127.486  1.00  0.00     0.167 HD
ENDBRANCH   1  26
BRANCH  11  39
HETATM   39  N7  UNL     1      35.643   2.129 132.279  1.00  0.00    -0.143 N 
HETATM   40  O10 UNL     1      35.115   3.226 132.071  1.00  0.00    -0.536 OA
HETATM   41  O11 UNL     1      36.058   1.811 133.537  1.00  0.00    -0.536 OA
ENDBRANCH  11  39
TORSDOF 7
ENDMDL
