MODEL 4
REMARK VINA RESULT: -10.233630581      1.129      2.313
REMARK  10 active torsions:
REMARK  status: ('A' for Active; 'I' for Inactive)
REMARK    1  A    between atoms: N2_12  and  C11_13 
REMARK    2  A    between atoms: C12_14  and  C13_15 
REMARK    3  A    between atoms: C13_15  and  C14_16 
REMARK    4  A    between atoms: C14_16  and  C15_17 
REMARK    5  A    between atoms: C15_17  and  C16_18 
REMARK    6  A    between atoms: C16_18  and  C17_19 
REMARK    7  A    between atoms: C17_19  and  C18_20 
REMARK    8  A    between atoms: C18_20  and  C19_21 
REMARK    9  A    between atoms: C19_21  and  C20_22 
REMARK   10  A    between atoms: C20_22  and  N3_23 
ROOT
HETATM    1  C15 UNL     1      13.994  -8.776  21.938  1.00  0.00     0.000 C 
ENDROOT
BRANCH   1   2
HETATM    2  C14 UNL     1      13.231 -10.064  21.985  1.00  0.00     0.004 C 
BRANCH   2   3
HETATM    3  C13 UNL     1      12.859 -10.584  20.625  1.00  0.00     0.028 C 
BRANCH   3   4
HETATM    4  C12 UNL     1      13.895 -11.565  20.123  1.00  0.00    -0.009 C 
HETATM    5  C11 UNL     1      14.795 -11.231  19.254  1.00  0.00     0.093 C 
BRANCH   5   6
HETATM    6  N2  UNL     1      15.833 -11.999  18.688  1.00  0.00    -0.326 N 
HETATM    7  C2  UNL     1      17.101 -11.794  19.219  1.00  0.00     0.014 A 
HETATM    8  C1  UNL     1      17.219 -10.791  20.300  1.00  0.00     0.068 C 
HETATM    9  C3  UNL     1      18.172 -12.472  18.773  1.00  0.00     0.052 A 
HETATM   10  C4  UNL     1      18.112 -13.411  17.774  1.00  0.00     0.060 A 
HETATM   11  N1  UNL     1      19.230 -14.134  17.285  1.00  0.00    -0.101 NA
HETATM   12  C5  UNL     1      16.854 -13.634  17.234  1.00  0.00     0.015 A 
HETATM   13  C6  UNL     1      16.749 -14.613  16.263  1.00  0.00     0.015 A 
HETATM   14  C10 UNL     1      15.752 -12.913  17.719  1.00  0.00     0.051 A 
HETATM   15  C7  UNL     1      15.517 -14.910  15.745  1.00  0.00     0.001 A 
HETATM   16  C8  UNL     1      14.437 -14.213  16.222  1.00  0.00     0.002 A 
HETATM   17  C9  UNL     1      14.509 -13.225  17.194  1.00  0.00     0.031 A 
ENDBRANCH   5   6
ENDBRANCH   3   4
ENDBRANCH   2   3
ENDBRANCH   1   2
BRANCH   1  18
HETATM   18  C16 UNL     1      15.058  -8.859  23.031  1.00  0.00     0.000 C 
BRANCH  18  19
HETATM   19  C17 UNL     1      14.914  -7.728  24.010  1.00  0.00     0.000 C 
BRANCH  19  20
HETATM   20  C18 UNL     1      13.645  -7.922  24.814  1.00  0.00     0.002 C 
BRANCH  20  21
HETATM   21  C19 UNL     1      13.147  -6.641  25.407  1.00  0.00     0.020 C 
BRANCH  21  22
HETATM   22  C20 UNL     1      11.683  -6.321  25.092  1.00  0.00     0.129 C 
BRANCH  22  23
HETATM   23  N3  UNL     1      11.379  -6.550  23.714  1.00  0.00    -0.350 N 
HETATM   24  C21 UNL     1      11.910  -5.698  22.806  1.00  0.00     0.010 A 
HETATM   25  C22 UNL     1      12.742  -4.548  23.234  1.00  0.00     0.068 C 
HETATM   26  C23 UNL     1      11.639  -5.913  21.467  1.00  0.00     0.052 A 
HETATM   27  C24 UNL     1      10.849  -6.967  21.061  1.00  0.00     0.060 A 
HETATM   28  N4  UNL     1      10.582  -7.176  19.680  1.00  0.00    -0.101 NA
HETATM   29  C25 UNL     1      10.324  -7.812  22.007  1.00  0.00     0.015 A 
HETATM   30  C26 UNL     1       9.521  -8.852  21.638  1.00  0.00     0.015 A 
HETATM   31  C30 UNL     1      10.589  -7.607  23.367  1.00  0.00     0.046 A 
HETATM   32  C27 UNL     1       8.945  -9.728  22.571  1.00  0.00     0.001 A 
HETATM   33  C28 UNL     1       9.210  -9.514  23.902  1.00  0.00     0.002 A 
HETATM   34  C29 UNL     1      10.025  -8.461  24.293  1.00  0.00     0.030 A 
ENDBRANCH  22  23
ENDBRANCH  21  22
ENDBRANCH  20  21
ENDBRANCH  19  20
ENDBRANCH  18  19
ENDBRANCH   1  18
TORSDOF 10
ENDMDL
