MODEL 2
REMARK VINA RESULT: -10.451728566      5.959     11.861
REMARK  10 active torsions:
REMARK  status: ('A' for Active; 'I' for Inactive)
REMARK    1  A    between atoms: N2_12  and  C11_13 
REMARK    2  A    between atoms: C12_14  and  C13_15 
REMARK    3  A    between atoms: C13_15  and  C14_16 
REMARK    4  A    between atoms: C14_16  and  C15_17 
REMARK    5  A    between atoms: C15_17  and  C16_18 
REMARK    6  A    between atoms: C16_18  and  C17_19 
REMARK    7  A    between atoms: C17_19  and  C18_20 
REMARK    8  A    between atoms: C18_20  and  C19_21 
REMARK    9  A    between atoms: C19_21  and  C20_22 
REMARK   10  A    between atoms: C20_22  and  N3_23 
ROOT
HETATM    1  C15 UNL     1       7.926  -9.282  29.682  1.00  0.00     0.000 C 
ENDROOT
BRANCH   1   2
HETATM    2  C14 UNL     1       8.343  -9.581  31.090  1.00  0.00     0.004 C 
BRANCH   2   3
HETATM    3  C13 UNL     1       8.247  -8.391  32.003  1.00  0.00     0.028 C 
BRANCH   3   4
HETATM    4  C12 UNL     1       8.800  -7.154  31.332  1.00  0.00    -0.009 C 
HETATM    5  C11 UNL     1       8.739  -5.985  31.885  1.00  0.00     0.093 C 
BRANCH   5   6
HETATM    6  N2  UNL     1       9.206  -4.739  31.419  1.00  0.00    -0.326 N 
HETATM    7  C2  UNL     1       8.965  -3.650  32.248  1.00  0.00     0.014 A 
HETATM    8  C1  UNL     1       8.240  -3.917  33.509  1.00  0.00     0.068 C 
HETATM    9  C3  UNL     1       9.369  -2.411  31.921  1.00  0.00     0.052 A 
HETATM   10  C4  UNL     1      10.044  -2.115  30.763  1.00  0.00     0.060 A 
HETATM   11  N1  UNL     1      10.475  -0.814  30.397  1.00  0.00    -0.101 NA
HETATM   12  C5  UNL     1      10.299  -3.189  29.924  1.00  0.00     0.015 A 
HETATM   13  C6  UNL     1      11.025  -2.934  28.776  1.00  0.00     0.015 A 
HETATM   14  C10 UNL     1       9.867  -4.474  30.290  1.00  0.00     0.051 A 
HETATM   15  C7  UNL     1      11.353  -3.975  27.948  1.00  0.00     0.001 A 
HETATM   16  C8  UNL     1      10.939  -5.232  28.306  1.00  0.00     0.002 A 
HETATM   17  C9  UNL     1      10.208  -5.520  29.450  1.00  0.00     0.031 A 
ENDBRANCH   5   6
ENDBRANCH   3   4
ENDBRANCH   2   3
ENDBRANCH   1   2
BRANCH   1  18
HETATM   18  C16 UNL     1       8.347 -10.483  28.837  1.00  0.00     0.000 C 
BRANCH  18  19
HETATM   19  C17 UNL     1       8.916 -10.041  27.519  1.00  0.00     0.000 C 
BRANCH  19  20
HETATM   20  C18 UNL     1       9.063  -8.533  27.518  1.00  0.00     0.002 C 
BRANCH  20  21
HETATM   21  C19 UNL     1       9.289  -7.985  26.144  1.00  0.00     0.020 C 
BRANCH  21  22
HETATM   22  C20 UNL     1      10.392  -8.693  25.350  1.00  0.00     0.129 C 
BRANCH  22  23
HETATM   23  N3  UNL     1      10.508  -8.162  24.027  1.00  0.00    -0.350 N 
HETATM   24  C21 UNL     1      11.338  -7.108  23.846  1.00  0.00     0.010 A 
HETATM   25  C22 UNL     1      12.065  -6.505  24.988  1.00  0.00     0.068 C 
HETATM   26  C23 UNL     1      11.474  -6.591  22.571  1.00  0.00     0.052 A 
HETATM   27  C24 UNL     1      10.785  -7.131  21.507  1.00  0.00     0.060 A 
HETATM   28  N4  UNL     1      10.938  -6.589  20.201  1.00  0.00    -0.101 NA
HETATM   29  C25 UNL     1       9.949  -8.199  21.724  1.00  0.00     0.015 A 
HETATM   30  C26 UNL     1       9.237  -8.741  20.694  1.00  0.00     0.015 A 
HETATM   31  C30 UNL     1       9.800  -8.733  23.010  1.00  0.00     0.046 A 
HETATM   32  C27 UNL     1       8.355  -9.819  20.872  1.00  0.00     0.001 A 
HETATM   33  C28 UNL     1       8.216 -10.332  22.139  1.00  0.00     0.002 A 
HETATM   34  C29 UNL     1       8.934  -9.791  23.196  1.00  0.00     0.030 A 
ENDBRANCH  22  23
ENDBRANCH  21  22
ENDBRANCH  20  21
ENDBRANCH  19  20
ENDBRANCH  18  19
ENDBRANCH   1  18
TORSDOF 10
ENDMDL
