MODEL 1
REMARK VINA RESULT: -10.632972305      0.000      0.000
REMARK  10 active torsions:
REMARK  status: ('A' for Active; 'I' for Inactive)
REMARK    1  A    between atoms: N2_12  and  C11_13 
REMARK    2  A    between atoms: C12_14  and  C13_15 
REMARK    3  A    between atoms: C13_15  and  C14_16 
REMARK    4  A    between atoms: C14_16  and  C15_17 
REMARK    5  A    between atoms: C15_17  and  C16_18 
REMARK    6  A    between atoms: C16_18  and  C17_19 
REMARK    7  A    between atoms: C17_19  and  C18_20 
REMARK    8  A    between atoms: C18_20  and  C19_21 
REMARK    9  A    between atoms: C19_21  and  C20_22 
REMARK   10  A    between atoms: C20_22  and  N3_23 
ROOT
HETATM    1  C15 UNL     1      14.613  -9.376  21.983  1.00  0.00     0.000 C 
ENDROOT
BRANCH   1   2
HETATM    2  C14 UNL     1      13.291 -10.079  21.940  1.00  0.00     0.004 C 
BRANCH   2   3
HETATM    3  C13 UNL     1      12.924 -10.570  20.568  1.00  0.00     0.028 C 
BRANCH   3   4
HETATM    4  C12 UNL     1      13.940 -11.573  20.068  1.00  0.00    -0.009 C 
HETATM    5  C11 UNL     1      14.801 -11.279  19.145  1.00  0.00     0.093 C 
BRANCH   5   6
HETATM    6  N2  UNL     1      15.815 -12.072  18.571  1.00  0.00    -0.326 N 
HETATM    7  C2  UNL     1      17.092 -11.898  19.092  1.00  0.00     0.014 A 
HETATM    8  C1  UNL     1      17.242 -10.900  20.172  1.00  0.00     0.068 C 
HETATM    9  C3  UNL     1      18.142 -12.603  18.637  1.00  0.00     0.052 A 
HETATM   10  C4  UNL     1      18.051 -13.539  17.638  1.00  0.00     0.060 A 
HETATM   11  N1  UNL     1      19.147 -14.290  17.140  1.00  0.00    -0.101 NA
HETATM   12  C5  UNL     1      16.784 -13.732  17.108  1.00  0.00     0.015 A 
HETATM   13  C6  UNL     1      16.647 -14.707  16.138  1.00  0.00     0.015 A 
HETATM   14  C10 UNL     1      15.703 -12.984  17.602  1.00  0.00     0.051 A 
HETATM   15  C7  UNL     1      15.403 -14.975  15.630  1.00  0.00     0.001 A 
HETATM   16  C8  UNL     1      14.345 -14.252  16.115  1.00  0.00     0.002 A 
HETATM   17  C9  UNL     1      14.449 -13.265  17.087  1.00  0.00     0.031 A 
ENDBRANCH   5   6
ENDBRANCH   3   4
ENDBRANCH   2   3
ENDBRANCH   1   2
BRANCH   1  18
HETATM   18  C16 UNL     1      14.376  -8.043  22.690  1.00  0.00     0.000 C 
BRANCH  18  19
HETATM   19  C17 UNL     1      14.702  -8.144  24.154  1.00  0.00     0.000 C 
BRANCH  19  20
HETATM   20  C18 UNL     1      13.735  -7.285  24.942  1.00  0.00     0.002 C 
BRANCH  20  21
HETATM   21  C19 UNL     1      12.541  -8.056  25.409  1.00  0.00     0.020 C 
BRANCH  21  22
HETATM   22  C20 UNL     1      11.194  -7.393  25.105  1.00  0.00     0.129 C 
BRANCH  22  23
HETATM   23  N3  UNL     1      10.424  -8.168  24.183  1.00  0.00    -0.350 N 
HETATM   24  C21 UNL     1       9.674  -9.176  24.687  1.00  0.00     0.010 A 
HETATM   25  C22 UNL     1       9.685  -9.485  26.136  1.00  0.00     0.068 C 
HETATM   26  C23 UNL     1       8.911  -9.927  23.811  1.00  0.00     0.052 A 
HETATM   27  C24 UNL     1       8.910  -9.661  22.459  1.00  0.00     0.060 A 
HETATM   28  N4  UNL     1       8.118 -10.441  21.572  1.00  0.00    -0.101 NA
HETATM   29  C25 UNL     1       9.684  -8.632  21.979  1.00  0.00     0.015 A 
HETATM   30  C26 UNL     1       9.720  -8.358  20.643  1.00  0.00     0.015 A 
HETATM   31  C30 UNL     1      10.462  -7.863  22.854  1.00  0.00     0.046 A 
HETATM   32  C27 UNL     1      10.513  -7.332  20.106  1.00  0.00     0.001 A 
HETATM   33  C28 UNL     1      11.273  -6.587  20.973  1.00  0.00     0.002 A 
HETATM   34  C29 UNL     1      11.247  -6.853  22.335  1.00  0.00     0.030 A 
ENDBRANCH  22  23
ENDBRANCH  21  22
ENDBRANCH  20  21
ENDBRANCH  19  20
ENDBRANCH  18  19
ENDBRANCH   1  18
TORSDOF 10
ENDMDL
