MODEL 1
REMARK VINA RESULT: -11.408239929      0.000      0.000
REMARK  8 active torsions:
REMARK  status: ('A' for Active; 'I' for Inactive)
REMARK    1  A    between atoms: C2_2  and  C3_4 
REMARK    2  A    between atoms: C3_4  and  O2_5 
REMARK    3  A    between atoms: C6_9  and  O3_10 
REMARK    4  A    between atoms: C9_14  and  O4_15 
REMARK    5  A    between atoms: C11_18  and  O5_19 
REMARK    6  A    between atoms: O5_19  and  C12_20 
REMARK    7  A    between atoms: C14_22  and  N1_23 
REMARK    8  A    between atoms: C15_27  and  O6_28 
ROOT
HETATM    1  C3  UNL     1      12.447  -6.747  23.539  1.00  0.00     0.124 C 
HETATM    2  C4  UNL     1      12.444  -8.266  23.436  1.00  0.00     0.088 C 
HETATM    3  C5  UNL     1      13.783  -8.655  22.933  1.00  0.00    -0.009 A 
HETATM    4  C6  UNL     1      14.057  -9.409  21.841  1.00  0.00     0.088 A 
HETATM    5  C7  UNL     1      15.388  -9.667  21.495  1.00  0.00     0.066 A 
HETATM    6  C8  UNL     1      16.461  -9.189  22.215  1.00  0.00     0.066 A 
HETATM    7  C9  UNL     1      16.184  -8.414  23.337  1.00  0.00     0.090 A 
HETATM    8  C10 UNL     1      14.852  -8.159  23.680  1.00  0.00     0.014 A 
HETATM    9  C11 UNL     1      14.462  -7.352  24.852  1.00  0.00     0.164 C 
HETATM   10  C18 UNL     1      13.558  -6.190  24.381  1.00  0.00     0.083 C 
HETATM   11  C19 UNL     1      17.836  -9.482  21.819  1.00  0.00     0.197 A 
HETATM   12  O8  UNL     1      18.832  -9.060  22.457  1.00  0.00    -0.286 OA
HETATM   13  C20 UNL     1      18.064 -10.311  20.619  1.00  0.00     0.029 A 
HETATM   14  C21 UNL     1      19.349 -10.608  20.214  1.00  0.00     0.016 A 
HETATM   15  C22 UNL     1      19.540 -11.379  19.095  1.00  0.00     0.001 A 
HETATM   16  C23 UNL     1      18.484 -11.876  18.348  1.00  0.00     0.001 A 
HETATM   17  C24 UNL     1      17.193 -11.580  18.751  1.00  0.00     0.016 A 
HETATM   18  C25 UNL     1      17.010 -10.799  19.884  1.00  0.00     0.029 A 
HETATM   19  C26 UNL     1      15.655 -10.482  20.315  1.00  0.00     0.197 A 
HETATM   20  O9  UNL     1      14.659 -10.913  19.665  1.00  0.00    -0.286 OA
ENDROOT
BRANCH   9  21
HETATM   21  O5  UNL     1      15.480  -6.933  25.661  1.00  0.00    -0.351 OA
BRANCH  21  22
HETATM   22  C12 UNL     1      15.135  -7.053  27.029  1.00  0.00     0.263 C 
HETATM   23  C13 UNL     1      16.319  -7.512  27.781  1.00  0.00     0.096 C 
HETATM   24  C14 UNL     1      16.795  -6.499  28.807  1.00  0.00     0.219 C 
HETATM   25  C15 UNL     1      15.574  -6.150  29.628  1.00  0.00     0.177 C 
HETATM   26  C16 UNL     1      14.581  -5.509  28.702  1.00  0.00     0.151 C 
HETATM   27  C17 UNL     1      13.170  -5.746  29.239  1.00  0.00     0.042 C 
HETATM   28  O7  UNL     1      14.693  -5.787  27.382  1.00  0.00    -0.354 OA
BRANCH  24  29
HETATM   29  N1  UNL     1      17.877  -6.991  29.604  1.00  0.00    -0.072 N 
ATOM     30  H13 UNL     1      18.278  -7.835  29.197  1.00  0.00     0.274 HD
ATOM     31  H12 UNL     1      18.689  -6.375  29.539  1.00  0.00     0.274 HD
ATOM     32  H11 UNL     1      17.610  -7.143  30.577  1.00  0.00     0.274 HD
ENDBRANCH  24  29
BRANCH  25  33
HETATM   33  O6  UNL     1      15.079  -7.329  30.189  1.00  0.00    -0.391 OA
ATOM     34  H6  UNL     1      14.227  -7.140  30.564  1.00  0.00     0.210 HD
ENDBRANCH  25  33
ENDBRANCH  21  22
ENDBRANCH   9  21
BRANCH   7  35
HETATM   35  O4  UNL     1      17.184  -7.897  24.107  1.00  0.00    -0.359 OA
ATOM     36  H4  UNL     1      16.995  -7.399  24.893  1.00  0.00     0.217 HD
ENDBRANCH   7  35
BRANCH   1  37
HETATM   37  C2  UNL     1      11.122  -6.248  24.004  1.00  0.00     0.157 C 
HETATM   38  C1  UNL     1      10.323  -7.008  24.995  1.00  0.00     0.094 C 
HETATM   39  O1  UNL     1      10.695  -5.198  23.557  1.00  0.00    -0.295 OA
ENDBRANCH   1  37
BRANCH   1  40
HETATM   40  O2  UNL     1      12.669  -6.304  22.215  1.00  0.00    -0.382 OA
ATOM     41  H2  UNL     1      13.555  -6.527  21.957  1.00  0.00     0.211 HD
ENDBRANCH   1  40
BRANCH   4  42
HETATM   42  O3  UNL     1      13.025  -9.911  21.087  1.00  0.00    -0.359 OA
ATOM     43  H3  UNL     1      12.713 -10.793  21.247  1.00  0.00     0.217 HD
ENDBRANCH   4  42
TORSDOF 8
ENDMDL
