MODEL 14
REMARK VINA RESULT: -10.217460762      3.623      8.946
REMARK  8 active torsions:
REMARK  status: ('A' for Active; 'I' for Inactive)
REMARK    1  A    between atoms: C2_2  and  C3_4 
REMARK    2  A    between atoms: C3_4  and  O2_5 
REMARK    3  A    between atoms: C6_9  and  O3_10 
REMARK    4  A    between atoms: C9_14  and  O4_15 
REMARK    5  A    between atoms: C11_18  and  O5_19 
REMARK    6  A    between atoms: O5_19  and  C12_20 
REMARK    7  A    between atoms: C14_22  and  N1_23 
REMARK    8  A    between atoms: C15_27  and  O6_28 
ROOT
HETATM    1  C3  UNL     1      18.060 -13.054  18.600  1.00  0.00     0.124 C 
HETATM    2  C4  UNL     1      17.306 -11.772  18.270  1.00  0.00     0.088 C 
HETATM    3  C5  UNL     1      17.289 -10.965  19.512  1.00  0.00    -0.009 A 
HETATM    4  C6  UNL     1      16.200 -10.461  20.142  1.00  0.00     0.088 A 
HETATM    5  C7  UNL     1      16.362  -9.730  21.325  1.00  0.00     0.066 A 
HETATM    6  C8  UNL     1      17.589  -9.487  21.900  1.00  0.00     0.066 A 
HETATM    7  C9  UNL     1      18.710 -10.003  21.256  1.00  0.00     0.090 A 
HETATM    8  C10 UNL     1      18.544 -10.732  20.074  1.00  0.00     0.014 A 
HETATM    9  C11 UNL     1      19.672 -11.313  19.321  1.00  0.00     0.164 C 
HETATM   10  C18 UNL     1      19.436 -12.832  19.158  1.00  0.00     0.083 C 
HETATM   11  C19 UNL     1      17.714  -8.719  23.136  1.00  0.00     0.197 A 
HETATM   12  O8  UNL     1      18.820  -8.483  23.682  1.00  0.00    -0.286 OA
HETATM   13  C20 UNL     1      16.486  -8.199  23.771  1.00  0.00     0.029 A 
HETATM   14  C21 UNL     1      16.565  -7.470  24.939  1.00  0.00     0.016 A 
HETATM   15  C22 UNL     1      15.412  -6.995  25.514  1.00  0.00     0.001 A 
HETATM   16  C23 UNL     1      14.162  -7.220  24.962  1.00  0.00     0.001 A 
HETATM   17  C24 UNL     1      14.079  -7.952  23.789  1.00  0.00     0.016 A 
HETATM   18  C25 UNL     1      15.249  -8.428  23.216  1.00  0.00     0.029 A 
HETATM   19  C26 UNL     1      15.172  -9.199  21.982  1.00  0.00     0.197 A 
HETATM   20  O9  UNL     1      14.052  -9.431  21.441  1.00  0.00    -0.286 OA
ENDROOT
BRANCH   9  21
HETATM   21  O5  UNL     1      20.923 -11.022  19.789  1.00  0.00    -0.351 OA
BRANCH  21  22
HETATM   22  C12 UNL     1      21.626 -12.198  20.147  1.00  0.00     0.263 C 
HETATM   23  C13 UNL     1      22.981 -12.139  19.565  1.00  0.00     0.096 C 
HETATM   24  C14 UNL     1      24.075 -12.115  20.619  1.00  0.00     0.219 C 
HETATM   25  C15 UNL     1      23.786 -13.287  21.530  1.00  0.00     0.177 C 
HETATM   26  C16 UNL     1      22.453 -13.037  22.173  1.00  0.00     0.151 C 
HETATM   27  C17 UNL     1      21.809 -14.376  22.530  1.00  0.00     0.042 C 
HETATM   28  O7  UNL     1      21.602 -12.200  21.534  1.00  0.00    -0.354 OA
BRANCH  24  29
HETATM   29  N1  UNL     1      25.387 -12.163  20.051  1.00  0.00    -0.072 N 
ATOM     30  H13 UNL     1      25.784 -13.100  20.124  1.00  0.00     0.274 HD
ATOM     31  H12 UNL     1      25.350 -12.079  19.034  1.00  0.00     0.274 HD
ATOM     32  H11 UNL     1      26.015 -11.467  20.454  1.00  0.00     0.274 HD
ENDBRANCH  24  29
BRANCH  25  33
HETATM   33  O6  UNL     1      23.781 -14.446  20.751  1.00  0.00    -0.391 OA
ATOM     34  H6  UNL     1      22.882 -14.744  20.675  1.00  0.00     0.210 HD
ENDBRANCH  25  33
ENDBRANCH  21  22
ENDBRANCH   9  21
BRANCH   7  35
HETATM   35  O4  UNL     1      19.965  -9.814  21.756  1.00  0.00    -0.359 OA
ATOM     36  H4  UNL     1      20.733 -10.122  21.290  1.00  0.00     0.217 HD
ENDBRANCH   7  35
BRANCH   1  37
HETATM   37  C2  UNL     1      18.102 -13.960  17.418  1.00  0.00     0.157 C 
HETATM   38  C1  UNL     1      16.870 -14.284  16.658  1.00  0.00     0.094 C 
HETATM   39  O1  UNL     1      19.169 -14.437  17.076  1.00  0.00    -0.295 OA
ENDBRANCH   1  37
BRANCH   1  40
HETATM   40  O2  UNL     1      17.292 -13.661  19.620  1.00  0.00    -0.382 OA
ATOM     41  H2  UNL     1      17.694 -14.488  19.861  1.00  0.00     0.211 HD
ENDBRANCH   1  40
BRANCH   4  42
HETATM   42  O3  UNL     1      14.951 -10.673  19.612  1.00  0.00    -0.359 OA
ATOM     43  H3  UNL     1      14.183 -10.387  20.092  1.00  0.00     0.217 HD
ENDBRANCH   4  42
TORSDOF 8
ENDMDL
