MODEL 2
REMARK VINA RESULT: -10.948037686      4.591      9.565
REMARK  8 active torsions:
REMARK  status: ('A' for Active; 'I' for Inactive)
REMARK    1  A    between atoms: C2_2  and  C3_4 
REMARK    2  A    between atoms: C3_4  and  O2_5 
REMARK    3  A    between atoms: C6_9  and  O3_10 
REMARK    4  A    between atoms: C9_14  and  O4_15 
REMARK    5  A    between atoms: C11_18  and  O5_19 
REMARK    6  A    between atoms: O5_19  and  C12_20 
REMARK    7  A    between atoms: C14_22  and  N1_23 
REMARK    8  A    between atoms: C15_27  and  O6_28 
ROOT
HETATM    1  C3  UNL     1      11.401  -4.133  23.157  1.00  0.00     0.124 C 
HETATM    2  C4  UNL     1      12.157  -3.652  24.388  1.00  0.00     0.088 C 
HETATM    3  C5  UNL     1      11.640  -4.439  25.532  1.00  0.00    -0.009 A 
HETATM    4  C6  UNL     1      11.118  -3.956  26.685  1.00  0.00     0.088 A 
HETATM    5  C7  UNL     1      10.655  -4.845  27.662  1.00  0.00     0.066 A 
HETATM    6  C8  UNL     1      10.699  -6.214  27.517  1.00  0.00     0.066 A 
HETATM    7  C9  UNL     1      11.235  -6.715  26.334  1.00  0.00     0.090 A 
HETATM    8  C10 UNL     1      11.697  -5.822  25.361  1.00  0.00     0.014 A 
HETATM    9  C11 UNL     1      12.282  -6.260  24.079  1.00  0.00     0.164 C 
HETATM   10  C18 UNL     1      11.490  -5.613  22.920  1.00  0.00     0.083 C 
HETATM   11  C19 UNL     1      10.205  -7.108  28.561  1.00  0.00     0.197 A 
HETATM   12  O8  UNL     1      10.234  -8.359  28.455  1.00  0.00    -0.286 OA
HETATM   13  C20 UNL     1       9.650  -6.515  29.794  1.00  0.00     0.029 A 
HETATM   14  C21 UNL     1       9.173  -7.327  30.801  1.00  0.00     0.016 A 
HETATM   15  C22 UNL     1       8.659  -6.757  31.939  1.00  0.00     0.001 A 
HETATM   16  C23 UNL     1       8.600  -5.384  32.117  1.00  0.00     0.001 A 
HETATM   17  C24 UNL     1       9.077  -4.565  31.108  1.00  0.00     0.016 A 
HETATM   18  C25 UNL     1       9.594  -5.151  29.962  1.00  0.00     0.029 A 
HETATM   19  C26 UNL     1      10.099  -4.298  28.894  1.00  0.00     0.197 A 
HETATM   20  O9  UNL     1      10.065  -3.038  29.012  1.00  0.00    -0.286 OA
ENDROOT
BRANCH   9  21
HETATM   21  O5  UNL     1      12.443  -7.607  23.919  1.00  0.00    -0.351 OA
BRANCH  21  22
HETATM   22  C12 UNL     1      11.762  -8.076  22.769  1.00  0.00     0.263 C 
HETATM   23  C13 UNL     1      12.726  -8.771  21.894  1.00  0.00     0.096 C 
HETATM   24  C14 UNL     1      12.402 -10.244  21.713  1.00  0.00     0.219 C 
HETATM   25  C15 UNL     1      10.952 -10.290  21.285  1.00  0.00     0.177 C 
HETATM   26  C16 UNL     1      10.135  -9.722  22.408  1.00  0.00     0.151 C 
HETATM   27  C17 UNL     1       8.848  -9.125  21.841  1.00  0.00     0.042 C 
HETATM   28  O7  UNL     1      10.761  -8.892  23.274  1.00  0.00    -0.354 OA
BRANCH  24  29
HETATM   29  N1  UNL     1      13.276 -10.889  20.783  1.00  0.00    -0.072 N 
ATOM     30  H13 UNL     1      13.958 -10.232  20.404  1.00  0.00     0.274 HD
ATOM     31  H12 UNL     1      13.912 -11.529  21.260  1.00  0.00     0.274 HD
ATOM     32  H11 UNL     1      12.771 -11.365  20.035  1.00  0.00     0.274 HD
ENDBRANCH  24  29
BRANCH  25  33
HETATM   33  O6  UNL     1      10.824  -9.538  20.115  1.00  0.00    -0.391 OA
ATOM     34  H6  UNL     1      10.746  -8.624  20.361  1.00  0.00     0.210 HD
ENDBRANCH  25  33
ENDBRANCH  21  22
ENDBRANCH   9  21
BRANCH   7  35
HETATM   35  O4  UNL     1      11.315  -8.057  26.104  1.00  0.00    -0.359 OA
ATOM     36  H4  UNL     1      11.778  -8.402  25.349  1.00  0.00     0.217 HD
ENDBRANCH   7  35
BRANCH   1  37
HETATM   37  C2  UNL     1      11.824  -3.372  21.948  1.00  0.00     0.157 C 
HETATM   38  C1  UNL     1      11.148  -2.109  21.564  1.00  0.00     0.094 C 
HETATM   39  O1  UNL     1      12.741  -3.800  21.270  1.00  0.00    -0.295 OA
ENDBRANCH   1  37
BRANCH   1  40
HETATM   40  O2  UNL     1      10.047  -3.839  23.438  1.00  0.00    -0.382 OA
ATOM     41  H2  UNL     1       9.516  -4.070  22.684  1.00  0.00     0.211 HD
ENDBRANCH   1  40
BRANCH   4  42
HETATM   42  O3  UNL     1      11.049  -2.599  26.882  1.00  0.00    -0.359 OA
ATOM     43  H3  UNL     1      11.116  -2.248  27.762  1.00  0.00     0.217 HD
ENDBRANCH   4  42
TORSDOF 8
ENDMDL
