MODEL 3
REMARK VINA RESULT: -10.937336912      2.985      4.617
REMARK  8 active torsions:
REMARK  status: ('A' for Active; 'I' for Inactive)
REMARK    1  A    between atoms: C2_2  and  C3_4 
REMARK    2  A    between atoms: C3_4  and  O2_5 
REMARK    3  A    between atoms: C6_9  and  O3_10 
REMARK    4  A    between atoms: C9_14  and  O4_15 
REMARK    5  A    between atoms: C11_18  and  O5_19 
REMARK    6  A    between atoms: O5_19  and  C12_20 
REMARK    7  A    between atoms: C14_22  and  N1_23 
REMARK    8  A    between atoms: C15_27  and  O6_28 
ROOT
HETATM    1  C3  UNL     1      11.360  -7.688  21.471  1.00  0.00     0.124 C 
HETATM    2  C4  UNL     1      12.065  -9.026  21.650  1.00  0.00     0.088 C 
HETATM    3  C5  UNL     1      13.310  -8.746  22.402  1.00  0.00    -0.009 A 
HETATM    4  C6  UNL     1      14.575  -9.070  22.037  1.00  0.00     0.088 A 
HETATM    5  C7  UNL     1      15.647  -8.712  22.863  1.00  0.00     0.066 A 
HETATM    6  C8  UNL     1      15.490  -8.036  24.052  1.00  0.00     0.066 A 
HETATM    7  C9  UNL     1      14.192  -7.702  24.432  1.00  0.00     0.090 A 
HETATM    8  C10 UNL     1      13.124  -8.062  23.604  1.00  0.00     0.014 A 
HETATM    9  C11 UNL     1      11.717  -7.754  23.924  1.00  0.00     0.164 C 
HETATM   10  C18 UNL     1      11.101  -6.953  22.755  1.00  0.00     0.083 C 
HETATM   11  C19 UNL     1      16.636  -7.681  24.885  1.00  0.00     0.197 A 
HETATM   12  O8  UNL     1      16.521  -7.066  25.974  1.00  0.00    -0.286 OA
HETATM   13  C20 UNL     1      17.986  -8.064  24.427  1.00  0.00     0.029 A 
HETATM   14  C21 UNL     1      19.093  -7.746  25.187  1.00  0.00     0.016 A 
HETATM   15  C22 UNL     1      20.340  -8.110  24.744  1.00  0.00     0.001 A 
HETATM   16  C23 UNL     1      20.534  -8.790  23.553  1.00  0.00     0.001 A 
HETATM   17  C24 UNL     1      19.426  -9.112  22.788  1.00  0.00     0.016 A 
HETATM   18  C25 UNL     1      18.169  -8.739  23.244  1.00  0.00     0.029 A 
HETATM   19  C26 UNL     1      16.997  -9.073  22.445  1.00  0.00     0.197 A 
HETATM   20  O9  UNL     1      17.124  -9.693  21.350  1.00  0.00    -0.286 OA
ENDROOT
BRANCH   9  21
HETATM   21  O5  UNL     1      11.490  -7.171  25.139  1.00  0.00    -0.351 OA
BRANCH  21  22
HETATM   22  C12 UNL     1      10.828  -5.927  24.999  1.00  0.00     0.263 C 
HETATM   23  C13 UNL     1      10.171  -5.590  26.277  1.00  0.00     0.096 C 
HETATM   24  C14 UNL     1      10.726  -4.325  26.909  1.00  0.00     0.219 C 
HETATM   25  C15 UNL     1      10.667  -3.271  25.825  1.00  0.00     0.177 C 
HETATM   26  C16 UNL     1      11.568  -3.722  24.713  1.00  0.00     0.151 C 
HETATM   27  C17 UNL     1      11.071  -3.130  23.394  1.00  0.00     0.042 C 
HETATM   28  O7  UNL     1      11.833  -5.047  24.626  1.00  0.00    -0.354 OA
BRANCH  24  29
HETATM   29  N1  UNL     1      10.016  -3.945  28.092  1.00  0.00    -0.072 N 
ATOM     30  H13 UNL     1       9.249  -4.589  28.282  1.00  0.00     0.274 HD
ATOM     31  H12 UNL     1      10.580  -4.110  28.927  1.00  0.00     0.274 HD
ATOM     32  H11 UNL     1       9.686  -2.980  28.057  1.00  0.00     0.274 HD
ENDBRANCH  24  29
BRANCH  25  33
HETATM   33  O6  UNL     1       9.340  -3.156  25.408  1.00  0.00    -0.391 OA
ATOM     34  H6  UNL     1       9.177  -2.245  25.195  1.00  0.00     0.210 HD
ENDBRANCH  25  33
ENDBRANCH  21  22
ENDBRANCH   9  21
BRANCH   7  35
HETATM   35  O4  UNL     1      13.944  -7.030  25.592  1.00  0.00    -0.359 OA
ATOM     36  H4  UNL     1      13.059  -6.923  25.921  1.00  0.00     0.217 HD
ENDBRANCH   7  35
BRANCH   1  37
HETATM   37  C2  UNL     1      10.105  -7.854  20.687  1.00  0.00     0.157 C 
HETATM   38  C1  UNL     1       9.004  -8.717  21.180  1.00  0.00     0.094 C 
HETATM   39  O1  UNL     1       9.988  -7.269  19.625  1.00  0.00    -0.295 OA
ENDBRANCH   1  37
BRANCH   1  40
HETATM   40  O2  UNL     1      12.272  -6.906  20.724  1.00  0.00    -0.382 OA
ATOM     41  H2  UNL     1      13.095  -7.374  20.652  1.00  0.00     0.211 HD
ENDBRANCH   1  40
BRANCH   4  42
HETATM   42  O3  UNL     1      14.789  -9.744  20.860  1.00  0.00    -0.359 OA
ATOM     43  H3  UNL     1      15.097 -10.642  20.883  1.00  0.00     0.217 HD
ENDBRANCH   4  42
TORSDOF 8
ENDMDL
