MODEL 2
REMARK VINA RESULT: -10.194333994      1.302      1.697
REMARK  2 active torsions:
REMARK  status: ('A' for Active; 'I' for Inactive)
REMARK    1  A    between atoms: O1_2  and  C2_3 
REMARK    2  A    between atoms: C7_8  and  O2_9 
ROOT
HETATM    1  C2  UNL     1      19.915 -10.921  20.126  1.00  0.00     0.102 A 
HETATM    2  C3  UNL     1      20.011 -10.191  21.289  1.00  0.00     0.040 A 
HETATM    3  C4  UNL     1      18.920  -9.599  21.891  1.00  0.00     0.016 A 
HETATM    4  C5  UNL     1      17.677  -9.751  21.289  1.00  0.00    -0.013 A 
HETATM    5  C6  UNL     1      17.551 -10.470  20.122  1.00  0.00     0.007 A 
HETATM    6  C7  UNL     1      18.636 -11.046  19.549  1.00  0.00     0.110 A 
HETATM    7  C9  UNL     1      16.265 -10.473  19.351  1.00  0.00     0.165 C 
HETATM    8  N1  UNL     1      15.163 -10.486  20.299  1.00  0.00    -0.379 N 
HETATM    9  C10 UNL     1      14.124 -11.457  20.139  1.00  0.00     0.150 C 
HETATM   10  C11 UNL     1      15.224  -9.666  21.456  1.00  0.00     0.052 A 
HETATM   11  C12 UNL     1      16.488  -9.310  21.977  1.00  0.00     0.002 A 
HETATM   12  C13 UNL     1      16.519  -8.570  23.122  1.00  0.00     0.015 A 
HETATM   13  C14 UNL     1      15.373  -8.167  23.766  1.00  0.00     0.013 A 
HETATM   14  C15 UNL     1      14.143  -8.508  23.251  1.00  0.00    -0.021 A 
HETATM   15  C16 UNL     1      12.984  -8.077  23.864  1.00  0.00     0.052 A 
HETATM   16  C17 UNL     1      11.760  -8.385  23.323  1.00  0.00     0.105 A 
HETATM   17  C18 UNL     1      11.672  -9.116  22.170  1.00  0.00     0.105 A 
HETATM   18  C19 UNL     1      12.838  -9.573  21.519  1.00  0.00     0.054 A 
HETATM   19  C20 UNL     1      14.047  -9.270  22.069  1.00  0.00     0.004 A 
HETATM   20  O3  UNL     1      10.354  -9.284  21.836  1.00  0.00    -0.323 OA
HETATM   21  C21 UNL     1       9.566  -8.537  22.748  1.00  0.00     0.352 C 
HETATM   22  O4  UNL     1      10.472  -8.068  23.757  1.00  0.00    -0.323 OA
ENDROOT
BRANCH   1  23
HETATM   23  O1  UNL     1      21.021 -11.513  19.535  1.00  0.00    -0.353 OA
HETATM   24  C1  UNL     1      22.110 -11.847  20.373  1.00  0.00     0.210 C 
ENDBRANCH   1  23
BRANCH   6  25
HETATM   25  O2  UNL     1      18.584 -11.786  18.384  1.00  0.00    -0.352 OA
HETATM   26  C8  UNL     1      18.346 -13.175  18.340  1.00  0.00     0.210 C 
ENDBRANCH   6  25
TORSDOF 2
ENDMDL
