MODEL 1
REMARK VINA RESULT: -10.220541724      0.000      0.000
REMARK  2 active torsions:
REMARK  status: ('A' for Active; 'I' for Inactive)
REMARK    1  A    between atoms: O1_2  and  C2_3 
REMARK    2  A    between atoms: C7_8  and  O2_9 
ROOT
HETATM    1  C2  UNL     1      19.555 -12.073  18.446  1.00  0.00     0.102 A 
HETATM    2  C3  UNL     1      20.121 -11.374  19.488  1.00  0.00     0.040 A 
HETATM    3  C4  UNL     1      19.382 -10.588  20.348  1.00  0.00     0.016 A 
HETATM    4  C5  UNL     1      18.010 -10.504  20.143  1.00  0.00    -0.013 A 
HETATM    5  C6  UNL     1      17.417 -11.186  19.105  1.00  0.00     0.007 A 
HETATM    6  C7  UNL     1      18.162 -11.955  18.273  1.00  0.00     0.110 A 
HETATM    7  C9  UNL     1      15.982 -10.946  18.743  1.00  0.00     0.165 C 
HETATM    8  N1  UNL     1      15.227 -10.753  19.970  1.00  0.00    -0.379 N 
HETATM    9  C10 UNL     1      14.031 -11.512  20.172  1.00  0.00     0.150 C 
HETATM   10  C11 UNL     1      15.774  -9.960  21.012  1.00  0.00     0.052 A 
HETATM   11  C12 UNL     1      17.178  -9.848  21.122  1.00  0.00     0.002 A 
HETATM   12  C13 UNL     1      17.679  -9.128  22.166  1.00  0.00     0.015 A 
HETATM   13  C14 UNL     1      16.868  -8.517  23.092  1.00  0.00     0.013 A 
HETATM   14  C15 UNL     1      15.500  -8.620  22.977  1.00  0.00    -0.021 A 
HETATM   15  C16 UNL     1      14.671  -7.980  23.876  1.00  0.00     0.052 A 
HETATM   16  C17 UNL     1      13.308  -8.052  23.733  1.00  0.00     0.105 A 
HETATM   17  C18 UNL     1      12.752  -8.753  22.698  1.00  0.00     0.105 A 
HETATM   18  C19 UNL     1      13.571  -9.420  21.762  1.00  0.00     0.054 A 
HETATM   19  C20 UNL     1      14.922  -9.350  21.918  1.00  0.00     0.004 A 
HETATM   20  O3  UNL     1      11.386  -8.670  22.772  1.00  0.00    -0.323 OA
HETATM   21  C21 UNL     1      11.051  -7.789  23.831  1.00  0.00     0.352 C 
HETATM   22  O4  UNL     1      12.285  -7.499  24.505  1.00  0.00    -0.323 OA
ENDROOT
BRANCH   1  23
HETATM   23  O1  UNL     1      20.311 -12.861  17.592  1.00  0.00    -0.353 OA
HETATM   24  C1  UNL     1      21.182 -12.204  16.693  1.00  0.00     0.210 C 
ENDBRANCH   1  23
BRANCH   6  25
HETATM   25  O2  UNL     1      17.635 -12.671  17.217  1.00  0.00    -0.352 OA
HETATM   26  C8  UNL     1      17.068 -13.956  17.338  1.00  0.00     0.210 C 
ENDBRANCH   6  25
TORSDOF 2
ENDMDL
