MODEL 3
REMARK VINA RESULT: -10.113787312      3.093      4.745
REMARK  2 active torsions:
REMARK  status: ('A' for Active; 'I' for Inactive)
REMARK    1  A    between atoms: O1_2  and  C2_3 
REMARK    2  A    between atoms: C7_8  and  O2_9 
ROOT
HETATM    1  C2  UNL     1      17.183 -14.048  17.191  1.00  0.00     0.102 A 
HETATM    2  C3  UNL     1      16.098 -13.209  17.305  1.00  0.00     0.040 A 
HETATM    3  C4  UNL     1      16.015 -12.222  18.265  1.00  0.00     0.016 A 
HETATM    4  C5  UNL     1      17.078 -12.077  19.149  1.00  0.00    -0.013 A 
HETATM    5  C6  UNL     1      18.173 -12.905  19.063  1.00  0.00     0.007 A 
HETATM    6  C7  UNL     1      18.236 -13.868  18.110  1.00  0.00     0.110 A 
HETATM    7  C9  UNL     1      19.230 -12.902  20.128  1.00  0.00     0.165 C 
HETATM    8  N1  UNL     1      19.425 -11.532  20.575  1.00  0.00    -0.379 N 
HETATM    9  C10 UNL     1      20.755 -11.006  20.627  1.00  0.00     0.150 C 
HETATM   10  C11 UNL     1      18.298 -10.693  20.776  1.00  0.00     0.052 A 
HETATM   11  C12 UNL     1      17.117 -10.946  20.044  1.00  0.00     0.002 A 
HETATM   12  C13 UNL     1      16.069 -10.090  20.212  1.00  0.00     0.015 A 
HETATM   13  C14 UNL     1      16.130  -9.014  21.065  1.00  0.00     0.013 A 
HETATM   14  C15 UNL     1      17.280  -8.776  21.784  1.00  0.00    -0.021 A 
HETATM   15  C16 UNL     1      17.344  -7.722  22.674  1.00  0.00     0.052 A 
HETATM   16  C17 UNL     1      18.478  -7.514  23.419  1.00  0.00     0.105 A 
HETATM   17  C18 UNL     1      19.555  -8.347  23.295  1.00  0.00     0.105 A 
HETATM   18  C19 UNL     1      19.523  -9.433  22.395  1.00  0.00     0.054 A 
HETATM   19  C20 UNL     1      18.397  -9.626  21.653  1.00  0.00     0.004 A 
HETATM   20  O3  UNL     1      20.551  -7.935  24.141  1.00  0.00    -0.323 OA
HETATM   21  C21 UNL     1      20.053  -6.860  24.922  1.00  0.00     0.352 C 
HETATM   22  O4  UNL     1      18.772  -6.531  24.364  1.00  0.00    -0.323 OA
ENDROOT
BRANCH   1  23
HETATM   23  O1  UNL     1      17.253 -15.034  16.218  1.00  0.00    -0.353 OA
HETATM   24  C1  UNL     1      16.255 -15.036  15.216  1.00  0.00     0.210 C 
ENDBRANCH   1  23
BRANCH   6  25
HETATM   25  O2  UNL     1      19.304 -14.728  17.961  1.00  0.00    -0.352 OA
HETATM   26  C8  UNL     1      20.513 -14.384  17.320  1.00  0.00     0.210 C 
ENDBRANCH   6  25
TORSDOF 2
ENDMDL
