MODEL 1
REMARK VINA RESULT: -7.385658588      0.000      0.000
REMARK  7 active torsions:
REMARK  status: ('A' for Active; 'I' for Inactive)
REMARK    1  A    between atoms: C2_2  and  C3_3 
REMARK    2  A    between atoms: C3_3  and  N1_4 
REMARK    3  A    between atoms: N3_12  and  C8_13 
REMARK    4  A    between atoms: C8_13  and  C9_14 
REMARK    5  A    between atoms: C9_14  and  C10_15 
REMARK    6  A    between atoms: C10_15  and  C11_16 
REMARK    7  A    between atoms: C11_16  and  C12_17 
ROOT
HETATM    1  N1  UNL     1      17.510  -9.564  21.204  1.00  0.00    -0.335 N 
HETATM    2  C4  UNL     1      18.396  -9.227  22.163  1.00  0.00     0.185 A 
HETATM    3  N2  UNL     1      19.566  -9.829  21.962  1.00  0.00    -0.336 N 
ATOM      4  H2  UNL     1      20.395  -9.735  22.548  1.00  0.00     0.168 HD
HETATM    5  C5  UNL     1      19.467 -10.580  20.854  1.00  0.00     0.145 A 
HETATM    6  C6  UNL     1      18.162 -10.404  20.383  1.00  0.00     0.149 A 
HETATM    7  C7  UNL     1      17.860 -11.122  19.229  1.00  0.00     0.282 A 
HETATM    8  O1  UNL     1      16.688 -11.000  18.763  1.00  0.00    -0.265 OA
HETATM    9  N3  UNL     1      18.705 -11.926  18.579  1.00  0.00    -0.264 N 
HETATM   10  C14 UNL     1      19.956 -12.051  19.089  1.00  0.00     0.332 A 
HETATM   11  O3  UNL     1      20.756 -12.788  18.505  1.00  0.00    -0.246 OA
HETATM   12  N4  UNL     1      20.318 -11.386  20.205  1.00  0.00    -0.287 N 
HETATM   13  C15 UNL     1      21.666 -11.570  20.687  1.00  0.00     0.163 C 
ENDROOT
BRANCH   9  14
HETATM   14  C8  UNL     1      18.294 -12.625  17.384  1.00  0.00     0.137 C 
BRANCH  14  15
HETATM   15  C9  UNL     1      17.723 -13.990  17.685  1.00  0.00     0.021 C 
BRANCH  15  16
HETATM   16  C10 UNL     1      16.378 -14.048  16.994  1.00  0.00     0.009 C 
BRANCH  16  17
HETATM   17  C11 UNL     1      16.470 -14.746  15.652  1.00  0.00     0.078 C 
BRANCH  17  18
HETATM   18  C12 UNL     1      15.749 -13.910  14.668  1.00  0.00     0.123 C 
HETATM   19  C13 UNL     1      16.202 -12.519  14.332  1.00  0.00     0.091 C 
HETATM   20  O2  UNL     1      14.752 -14.330  14.089  1.00  0.00    -0.298 OA
ENDBRANCH  17  18
ENDBRANCH  16  17
ENDBRANCH  15  16
ENDBRANCH  14  15
ENDBRANCH   9  14
BRANCH   1  21
HETATM   21  C3  UNL     1      16.148  -9.140  21.040  1.00  0.00     0.130 C 
BRANCH  21  22
HETATM   22  C2  UNL     1      15.346  -8.986  22.272  1.00  0.00     0.016 C 
HETATM   23  C1  UNL     1      13.889  -9.327  22.193  1.00  0.00     0.006 C 
ENDBRANCH  21  22
ENDBRANCH   1  21
TORSDOF 7
ENDMDL
