MODEL 3
REMARK VINA RESULT: -7.189999645      3.120      6.019
REMARK  7 active torsions:
REMARK  status: ('A' for Active; 'I' for Inactive)
REMARK    1  A    between atoms: C2_2  and  C3_3 
REMARK    2  A    between atoms: C3_3  and  N1_4 
REMARK    3  A    between atoms: N3_12  and  C8_13 
REMARK    4  A    between atoms: C8_13  and  C9_14 
REMARK    5  A    between atoms: C9_14  and  C10_15 
REMARK    6  A    between atoms: C10_15  and  C11_16 
REMARK    7  A    between atoms: C11_16  and  C12_17 
ROOT
HETATM    1  N1  UNL     1      14.957 -12.980  17.004  1.00  0.00    -0.335 N 
HETATM    2  C4  UNL     1      13.976 -12.352  17.685  1.00  0.00     0.185 A 
HETATM    3  N2  UNL     1      14.485 -11.549  18.616  1.00  0.00    -0.336 N 
ATOM      4  H2  UNL     1      13.951 -10.967  19.261  1.00  0.00     0.168 HD
HETATM    5  C5  UNL     1      15.823 -11.636  18.562  1.00  0.00     0.145 A 
HETATM    6  C6  UNL     1      16.110 -12.545  17.538  1.00  0.00     0.149 A 
HETATM    7  C7  UNL     1      17.467 -12.778  17.333  1.00  0.00     0.282 A 
HETATM    8  O1  UNL     1      17.780 -13.597  16.417  1.00  0.00    -0.265 OA
HETATM    9  N3  UNL     1      18.459 -12.211  18.023  1.00  0.00    -0.264 N 
HETATM   10  C14 UNL     1      18.112 -11.339  19.002  1.00  0.00     0.332 A 
HETATM   11  O3  UNL     1      19.011 -10.801  19.654  1.00  0.00    -0.246 OA
HETATM   12  N4  UNL     1      16.816 -11.065  19.258  1.00  0.00    -0.287 N 
HETATM   13  C15 UNL     1      16.526 -10.127  20.315  1.00  0.00     0.163 C 
ENDROOT
BRANCH   9  14
HETATM   14  C8  UNL     1      19.840 -12.519  17.728  1.00  0.00     0.137 C 
BRANCH  14  15
HETATM   15  C9  UNL     1      20.402 -11.640  16.636  1.00  0.00     0.021 C 
BRANCH  15  16
HETATM   16  C10 UNL     1      21.860 -12.021  16.496  1.00  0.00     0.009 C 
BRANCH  16  17
HETATM   17  C11 UNL     1      22.421 -11.595  15.155  1.00  0.00     0.078 C 
BRANCH  17  18
HETATM   18  C12 UNL     1      23.334 -10.457  15.397  1.00  0.00     0.123 C 
HETATM   19  C13 UNL     1      23.370  -9.267  14.484  1.00  0.00     0.091 C 
HETATM   20  O2  UNL     1      24.094 -10.448  16.361  1.00  0.00    -0.298 OA
ENDBRANCH  17  18
ENDBRANCH  16  17
ENDBRANCH  15  16
ENDBRANCH  14  15
ENDBRANCH   9  14
BRANCH   1  21
HETATM   21  C3  UNL     1      14.850 -13.918  15.923  1.00  0.00     0.130 C 
BRANCH  21  22
HETATM   22  C2  UNL     1      14.704 -13.356  14.564  1.00  0.00     0.016 C 
HETATM   23  C1  UNL     1      15.843 -13.552  13.610  1.00  0.00     0.006 C 
ENDBRANCH  21  22
ENDBRANCH   1  21
TORSDOF 7
ENDMDL
