MODEL 5
REMARK VINA RESULT: -7.133547743      7.210     10.602
REMARK  7 active torsions:
REMARK  status: ('A' for Active; 'I' for Inactive)
REMARK    1  A    between atoms: C2_2  and  C3_3 
REMARK    2  A    between atoms: C3_3  and  N1_4 
REMARK    3  A    between atoms: N3_12  and  C8_13 
REMARK    4  A    between atoms: C8_13  and  C9_14 
REMARK    5  A    between atoms: C9_14  and  C10_15 
REMARK    6  A    between atoms: C10_15  and  C11_16 
REMARK    7  A    between atoms: C11_16  and  C12_17 
ROOT
HETATM    1  N1  UNL     1      11.293  -9.701  21.684  1.00  0.00    -0.335 N 
HETATM    2  C4  UNL     1      12.469 -10.032  21.112  1.00  0.00     0.185 A 
HETATM    3  N2  UNL     1      13.489  -9.518  21.795  1.00  0.00    -0.336 N 
ATOM      4  H2  UNL     1      14.477  -9.626  21.566  1.00  0.00     0.168 HD
HETATM    5  C5  UNL     1      12.995  -8.835  22.839  1.00  0.00     0.145 A 
HETATM    6  C6  UNL     1      11.604  -8.957  22.758  1.00  0.00     0.149 A 
HETATM    7  C7  UNL     1      10.904  -8.297  23.764  1.00  0.00     0.282 A 
HETATM    8  O1  UNL     1       9.640  -8.374  23.734  1.00  0.00    -0.265 OA
HETATM    9  N3  UNL     1      11.459  -7.590  24.752  1.00  0.00    -0.264 N 
HETATM   10  C14 UNL     1      12.813  -7.513  24.772  1.00  0.00     0.332 A 
HETATM   11  O3  UNL     1      13.349  -6.866  25.677  1.00  0.00    -0.246 OA
HETATM   12  N4  UNL     1      13.556  -8.126  23.829  1.00  0.00    -0.287 N 
HETATM   13  C15 UNL     1      14.991  -7.997  23.917  1.00  0.00     0.163 C 
ENDROOT
BRANCH   9  14
HETATM   14  C8  UNL     1      10.642  -6.944  25.753  1.00  0.00     0.137 C 
BRANCH  14  15
HETATM   15  C9  UNL     1      10.513  -7.771  27.009  1.00  0.00     0.021 C 
BRANCH  15  16
HETATM   16  C10 UNL     1       9.094  -8.299  27.025  1.00  0.00     0.009 C 
BRANCH  16  17
HETATM   17  C11 UNL     1       9.054  -9.797  26.802  1.00  0.00     0.078 C 
BRANCH  17  18
HETATM   18  C12 UNL     1       8.778 -10.432  28.109  1.00  0.00     0.123 C 
HETATM   19  C13 UNL     1       7.980  -9.735  29.172  1.00  0.00     0.091 C 
HETATM   20  O2  UNL     1       9.193 -11.558  28.367  1.00  0.00    -0.298 OA
ENDBRANCH  17  18
ENDBRANCH  16  17
ENDBRANCH  15  16
ENDBRANCH  14  15
ENDBRANCH   9  14
BRANCH   1  21
HETATM   21  C3  UNL     1       9.960 -10.048  21.279  1.00  0.00     0.130 C 
BRANCH  21  22
HETATM   22  C2  UNL     1       9.236  -9.059  20.453  1.00  0.00     0.016 C 
HETATM   23  C1  UNL     1       9.924  -7.757  20.174  1.00  0.00     0.006 C 
ENDBRANCH  21  22
ENDBRANCH   1  21
TORSDOF 7
ENDMDL
