MODEL 6
REMARK VINA RESULT: -7.131356211      5.984     10.026
REMARK  7 active torsions:
REMARK  status: ('A' for Active; 'I' for Inactive)
REMARK    1  A    between atoms: C2_2  and  C3_3 
REMARK    2  A    between atoms: C3_3  and  N1_4 
REMARK    3  A    between atoms: N3_12  and  C8_13 
REMARK    4  A    between atoms: C8_13  and  C9_14 
REMARK    5  A    between atoms: C9_14  and  C10_15 
REMARK    6  A    between atoms: C10_15  and  C11_16 
REMARK    7  A    between atoms: C11_16  and  C12_17 
ROOT
HETATM    1  N1  UNL     1      15.435  -8.863  22.595  1.00  0.00    -0.335 N 
HETATM    2  C4  UNL     1      15.407  -9.596  21.462  1.00  0.00     0.185 A 
HETATM    3  N2  UNL     1      14.155  -9.877  21.110  1.00  0.00    -0.336 N 
ATOM      4  H2  UNL     1      13.870 -10.417  20.293  1.00  0.00     0.168 HD
HETATM    5  C5  UNL     1      13.330  -9.326  22.014  1.00  0.00     0.145 A 
HETATM    6  C6  UNL     1      14.152  -8.687  22.949  1.00  0.00     0.149 A 
HETATM    7  C7  UNL     1      13.469  -8.057  23.986  1.00  0.00     0.282 A 
HETATM    8  O1  UNL     1      14.169  -7.465  24.861  1.00  0.00    -0.265 OA
HETATM    9  N3  UNL     1      12.143  -8.028  24.130  1.00  0.00    -0.264 N 
HETATM   10  C14 UNL     1      11.404  -8.667  23.187  1.00  0.00     0.332 A 
HETATM   11  O3  UNL     1      10.175  -8.654  23.298  1.00  0.00    -0.246 OA
HETATM   12  N4  UNL     1      11.997  -9.301  22.155  1.00  0.00    -0.287 N 
HETATM   13  C15 UNL     1      11.145  -9.958  21.194  1.00  0.00     0.163 C 
ENDROOT
BRANCH   9  14
HETATM   14  C8  UNL     1      11.531  -7.340  25.243  1.00  0.00     0.137 C 
BRANCH  14  15
HETATM   15  C9  UNL     1      11.309  -8.250  26.427  1.00  0.00     0.021 C 
BRANCH  15  16
HETATM   16  C10 UNL     1       9.842  -8.130  26.784  1.00  0.00     0.009 C 
BRANCH  16  17
HETATM   17  C11 UNL     1       9.098  -9.424  26.525  1.00  0.00     0.078 C 
BRANCH  17  18
HETATM   18  C12 UNL     1       8.911 -10.097  27.828  1.00  0.00     0.123 C 
HETATM   19  C13 UNL     1       8.166  -9.442  28.954  1.00  0.00     0.091 C 
HETATM   20  O2  UNL     1       9.360 -11.221  28.031  1.00  0.00    -0.298 OA
ENDBRANCH  17  18
ENDBRANCH  16  17
ENDBRANCH  15  16
ENDBRANCH  14  15
ENDBRANCH   9  14
BRANCH   1  21
HETATM   21  C3  UNL     1      16.567  -8.345  23.310  1.00  0.00     0.130 C 
BRANCH  21  22
HETATM   22  C2  UNL     1      17.897  -8.569  22.704  1.00  0.00     0.016 C 
HETATM   23  C1  UNL     1      19.084  -8.545  23.619  1.00  0.00     0.006 C 
ENDBRANCH  21  22
ENDBRANCH   1  21
TORSDOF 7
ENDMDL
