MODEL 5
REMARK VINA RESULT: -6.457876050      2.735      6.114
REMARK  11 active torsions:
REMARK  status: ('A' for Active; 'I' for Inactive)
REMARK    1  A    between atoms: C1_2  and  C2_4 
REMARK    2  A    between atoms: C2_4  and  O3_5 
REMARK    3  A    between atoms: C2_4  and  C3_7 
REMARK    4  A    between atoms: C3_7  and  O4_8 
REMARK    5  A    between atoms: C3_7  and  C4_10 
REMARK    6  A    between atoms: C4_10  and  O5_11 
REMARK    7  A    between atoms: C4_10  and  C5_13 
REMARK    8  A    between atoms: C5_13  and  O6_14 
REMARK    9  A    between atoms: C5_13  and  C6_16 
REMARK   10  A    between atoms: C6_16  and  O7_17 
REMARK   11  A    between atoms: O7_17  and  P1_18 
ROOT
HETATM    1  C4  UNL     1      -0.570  -1.697  54.158  1.00  0.00     0.180 C 
ENDROOT
BRANCH   1   2
HETATM    2  C3  UNL     1      -0.498  -3.059  54.755  1.00  0.00     0.188 C 
BRANCH   2   3
HETATM    3  C2  UNL     1       0.521  -3.186  55.860  1.00  0.00     0.250 C 
BRANCH   3   4
HETATM    4  C1  UNL     1      -0.212  -3.293  57.130  1.00  0.00     0.205 C 
HETATM    5  O1  UNL     1      -0.382  -4.408  57.655  1.00  0.00    -0.646 OA
HETATM    6  O2  UNL     1      -0.708  -2.171  57.742  1.00  0.00    -0.646 OA
ENDBRANCH   3   4
BRANCH   3   7
HETATM    7  O3  UNL     1       1.388  -2.124  55.918  1.00  0.00    -0.382 OA
ATOM      8  H3  UNL     1       2.243  -2.393  55.604  1.00  0.00     0.210 HD
ENDBRANCH   3   7
ENDBRANCH   2   3
BRANCH   2   9
HETATM    9  O4  UNL     1      -1.730  -3.455  55.209  1.00  0.00    -0.390 OA
ATOM     10  H4  UNL     1      -1.726  -4.388  55.384  1.00  0.00     0.210 HD
ENDBRANCH   2   9
ENDBRANCH   1   2
BRANCH   1  11
HETATM   11  O5  UNL     1      -0.990  -0.712  55.025  1.00  0.00    -0.390 OA
ATOM     12  H5  UNL     1      -1.605  -1.003  55.688  1.00  0.00     0.210 HD
ENDBRANCH   1  11
BRANCH   1  13
HETATM   13  C5  UNL     1      -1.353  -1.669  52.860  1.00  0.00     0.173 C 
BRANCH  13  14
HETATM   14  O6  UNL     1      -1.494  -2.943  52.323  1.00  0.00    -0.391 OA
ATOM     15  H6  UNL     1      -2.001  -2.928  51.520  1.00  0.00     0.210 HD
ENDBRANCH  13  14
BRANCH  13  16
HETATM   16  C6  UNL     1      -0.617  -0.831  51.814  1.00  0.00     0.217 C 
BRANCH  16  17
HETATM   17  O7  UNL     1      -1.418   0.228  51.409  1.00  0.00    -0.280 OA
BRANCH  17  18
HETATM   18  P1  UNL     1      -0.942   1.683  52.072  1.00  0.00     0.422 P 
HETATM   19  O8  UNL     1      -1.580   2.857  51.335  1.00  0.00    -0.617 OA
HETATM   20  O9  UNL     1       0.727   1.876  51.959  1.00  0.00    -0.617 OA
HETATM   21  O10 UNL     1      -1.438   1.824  53.699  1.00  0.00    -0.617 OA
ENDBRANCH  17  18
ENDBRANCH  16  17
ENDBRANCH  13  16
ENDBRANCH   1  13
TORSDOF 11
ENDMDL
