MODEL 8
REMARK VINA RESULT: -6.393279858      2.667      6.119
REMARK  11 active torsions:
REMARK  status: ('A' for Active; 'I' for Inactive)
REMARK    1  A    between atoms: C1_2  and  C2_4 
REMARK    2  A    between atoms: C2_4  and  O3_5 
REMARK    3  A    between atoms: C2_4  and  C3_7 
REMARK    4  A    between atoms: C3_7  and  O4_8 
REMARK    5  A    between atoms: C3_7  and  C4_10 
REMARK    6  A    between atoms: C4_10  and  O5_11 
REMARK    7  A    between atoms: C4_10  and  C5_13 
REMARK    8  A    between atoms: C5_13  and  O6_14 
REMARK    9  A    between atoms: C5_13  and  C6_16 
REMARK   10  A    between atoms: C6_16  and  O7_17 
REMARK   11  A    between atoms: O7_17  and  P1_18 
ROOT
HETATM    1  C4  UNL     1      -0.374  -2.172  53.842  1.00  0.00     0.180 C 
ENDROOT
BRANCH   1   2
HETATM    2  C3  UNL     1      -1.121  -2.217  55.128  1.00  0.00     0.188 C 
BRANCH   2   3
HETATM    3  C2  UNL     1      -1.295  -3.610  55.681  1.00  0.00     0.250 C 
BRANCH   3   4
HETATM    4  C1  UNL     1      -0.193  -3.855  56.622  1.00  0.00     0.205 C 
HETATM    5  O1  UNL     1      -0.440  -4.112  57.814  1.00  0.00    -0.646 OA
HETATM    6  O2  UNL     1       1.109  -3.803  56.194  1.00  0.00    -0.646 OA
ENDBRANCH   3   4
BRANCH   3   7
HETATM    7  O3  UNL     1      -1.294  -4.579  54.710  1.00  0.00    -0.382 OA
ATOM      8  H3  UNL     1      -1.843  -5.305  54.984  1.00  0.00     0.210 HD
ENDBRANCH   3   7
ENDBRANCH   2   3
BRANCH   2   9
HETATM    9  O4  UNL     1      -0.524  -1.414  56.065  1.00  0.00    -0.390 OA
ATOM     10  H4  UNL     1      -1.186  -0.986  56.594  1.00  0.00     0.210 HD
ENDBRANCH   2   9
ENDBRANCH   1   2
BRANCH   1  11
HETATM   11  O5  UNL     1       0.936  -1.756  53.953  1.00  0.00    -0.390 OA
ATOM     12  H5  UNL     1       1.525  -2.127  53.307  1.00  0.00     0.210 HD
ENDBRANCH   1  11
BRANCH   1  13
HETATM   13  C5  UNL     1      -1.113  -1.403  52.763  1.00  0.00     0.173 C 
BRANCH  13  14
HETATM   14  O6  UNL     1      -1.451  -2.225  51.694  1.00  0.00    -0.391 OA
ATOM     15  H6  UNL     1      -1.782  -1.721  50.960  1.00  0.00     0.210 HD
ENDBRANCH  13  14
BRANCH  13  16
HETATM   16  C6  UNL     1      -0.226  -0.293  52.200  1.00  0.00     0.217 C 
BRANCH  16  17
HETATM   17  O7  UNL     1      -0.160   0.762  53.101  1.00  0.00    -0.280 OA
BRANCH  17  18
HETATM   18  P1  UNL     1      -0.965   2.119  52.558  1.00  0.00     0.422 P 
HETATM   19  O8  UNL     1      -2.119   2.482  53.489  1.00  0.00    -0.617 OA
HETATM   20  O9  UNL     1      -1.626   1.854  51.032  1.00  0.00    -0.617 OA
HETATM   21  O10 UNL     1       0.059   3.484  52.523  1.00  0.00    -0.617 OA
ENDBRANCH  17  18
ENDBRANCH  16  17
ENDBRANCH  13  16
ENDBRANCH   1  13
TORSDOF 11
ENDMDL
