MODEL 1
REMARK VINA RESULT: -8.065523288      0.000      0.000
REMARK  5 active torsions:
REMARK  status: ('A' for Active; 'I' for Inactive)
REMARK    1  A    between atoms: N5_13  and  C6_14 
REMARK    2  A    between atoms: C7_16  and  C8_17 
REMARK    3  A    between atoms: C8_17  and  O2_18 
REMARK    4  A    between atoms: C9_20  and  O3_21 
REMARK    5  A    between atoms: C10_23  and  O4_24 
ROOT
HETATM    1  N1  UNL     1      50.863   4.776  17.058  1.00  0.00    -0.080 NA
HETATM    2  C1  UNL     1      49.517   4.397  16.853  1.00  0.00     0.148 A 
HETATM    3  N2  UNL     1      48.855   3.594  17.725  1.00  0.00    -0.339 N 
ATOM      4  H2  UNL     1      49.327   3.243  18.559  1.00  0.00     0.167 HD
HETATM    5  C2  UNL     1      47.575   3.262  17.485  1.00  0.00     0.183 A 
HETATM    6  N3  UNL     1      46.961   3.730  16.383  1.00  0.00    -0.336 N 
ATOM      7  H3  UNL     1      45.990   3.470  16.214  1.00  0.00     0.168 HD
HETATM    8  C3  UNL     1      47.593   4.539  15.484  1.00  0.00     0.142 A 
HETATM    9  C4  UNL     1      48.891   4.878  15.723  1.00  0.00     0.119 A 
HETATM   10  N4  UNL     1      49.277   5.672  14.701  1.00  0.00    -0.346 N 
ATOM     11  H4  UNL     1      50.200   6.091  14.589  1.00  0.00     0.167 HD
HETATM   12  C5  UNL     1      48.238   5.820  13.852  1.00  0.00     0.188 A 
HETATM   13  N5  UNL     1      47.204   5.119  14.338  1.00  0.00    -0.297 N 
ENDROOT
BRANCH  13  14
HETATM   14  C6  UNL     1      45.898   4.984  13.776  1.00  0.00     0.262 C 
HETATM   15  O1  UNL     1      45.769   3.746  13.156  1.00  0.00    -0.353 OA
HETATM   16  C7  UNL     1      44.721   3.810  12.279  1.00  0.00     0.179 C 
HETATM   17  C9  UNL     1      44.392   5.262  12.037  1.00  0.00     0.182 C 
HETATM   18  C10 UNL     1      45.631   5.935  12.642  1.00  0.00     0.198 C 
BRANCH  16  19
HETATM   19  C8  UNL     1      45.054   3.186  10.935  1.00  0.00     0.198 C 
BRANCH  19  20
HETATM   20  O2  UNL     1      44.169   2.203  10.560  1.00  0.00    -0.398 OA
ATOM     21  H2  UNL     1      43.866   2.295   9.665  1.00  0.00     0.209 HD
ENDBRANCH  19  20
ENDBRANCH  16  19
BRANCH  17  22
HETATM   22  O3  UNL     1      43.299   5.612  12.838  1.00  0.00    -0.390 OA
ATOM     23  H3  UNL     1      43.581   6.265  13.467  1.00  0.00     0.210 HD
ENDBRANCH  17  22
BRANCH  18  24
HETATM   24  O4  UNL     1      45.340   7.219  13.083  1.00  0.00    -0.388 OA
ATOM     25  H4  UNL     1      45.739   7.889  12.541  1.00  0.00     0.210 HD
ENDBRANCH  18  24
ENDBRANCH  13  14
TORSDOF 5
ENDMDL
