MODEL 3
REMARK VINA RESULT: -7.787469139      3.482      5.908
REMARK  5 active torsions:
REMARK  status: ('A' for Active; 'I' for Inactive)
REMARK    1  A    between atoms: N5_13  and  C6_14 
REMARK    2  A    between atoms: C7_16  and  C8_17 
REMARK    3  A    between atoms: C8_17  and  O2_18 
REMARK    4  A    between atoms: C9_20  and  O3_21 
REMARK    5  A    between atoms: C10_23  and  O4_24 
ROOT
HETATM    1  N1  UNL     1      43.540   2.503  12.650  1.00  0.00    -0.080 NA
HETATM    2  C1  UNL     1      43.727   3.879  12.387  1.00  0.00     0.148 A 
HETATM    3  N2  UNL     1      42.799   4.619  11.729  1.00  0.00    -0.339 N 
ATOM      4  H2  UNL     1      41.933   4.186  11.407  1.00  0.00     0.167 HD
HETATM    5  C2  UNL     1      43.024   5.924  11.503  1.00  0.00     0.183 A 
HETATM    6  N3  UNL     1      44.169   6.486  11.932  1.00  0.00    -0.336 N 
ATOM      7  H3  UNL     1      44.327   7.478  11.754  1.00  0.00     0.168 HD
HETATM    8  C3  UNL     1      45.126   5.776  12.597  1.00  0.00     0.142 A 
HETATM    9  C4  UNL     1      44.902   4.451  12.828  1.00  0.00     0.119 A 
HETATM   10  N4  UNL     1      45.983   3.987  13.490  1.00  0.00    -0.346 N 
ATOM     11  H4  UNL     1      46.119   3.027  13.807  1.00  0.00     0.167 HD
HETATM   12  C5  UNL     1      46.852   5.003  13.665  1.00  0.00     0.188 A 
HETATM   13  N5  UNL     1      46.321   6.102  13.112  1.00  0.00    -0.297 N 
ENDROOT
BRANCH  13  14
HETATM   14  C6  UNL     1      46.885   7.414  13.056  1.00  0.00     0.262 C 
HETATM   15  O1  UNL     1      45.875   8.370  13.047  1.00  0.00    -0.353 OA
HETATM   16  C7  UNL     1      46.393   9.540  12.563  1.00  0.00     0.179 C 
HETATM   17  C9  UNL     1      47.697   9.231  11.870  1.00  0.00     0.182 C 
HETATM   18  C10 UNL     1      47.606   7.703  11.769  1.00  0.00     0.198 C 
BRANCH  16  19
HETATM   19  C8  UNL     1      45.479  10.198  11.545  1.00  0.00     0.198 C 
BRANCH  19  20
HETATM   20  O2  UNL     1      45.191  11.509  11.844  1.00  0.00    -0.398 OA
ATOM     21  H2  UNL     1      44.880  12.004  11.096  1.00  0.00     0.209 HD
ENDBRANCH  19  20
ENDBRANCH  16  19
BRANCH  17  22
HETATM   22  O3  UNL     1      48.749   9.526  12.745  1.00  0.00    -0.390 OA
ATOM     23  H3  UNL     1      48.795   8.843  13.404  1.00  0.00     0.210 HD
ENDBRANCH  17  22
BRANCH  18  24
HETATM   24  O4  UNL     1      48.868   7.127  11.726  1.00  0.00    -0.388 OA
ATOM     25  H4  UNL     1      49.194   6.900  12.589  1.00  0.00     0.210 HD
ENDBRANCH  18  24
ENDBRANCH  13  14
TORSDOF 5
ENDMDL
