MODEL 15
REMARK VINA RESULT: -7.251802080      5.210      7.008
REMARK  5 active torsions:
REMARK  status: ('A' for Active; 'I' for Inactive)
REMARK    1  A    between atoms: N5_13  and  C6_14 
REMARK    2  A    between atoms: C7_16  and  C8_17 
REMARK    3  A    between atoms: C8_17  and  O2_18 
REMARK    4  A    between atoms: C9_20  and  O3_21 
REMARK    5  A    between atoms: C10_23  and  O4_24 
ROOT
HETATM    1  N1  UNL     1      48.218   2.700   5.590  1.00  0.00    -0.080 NA
HETATM    2  C1  UNL     1      47.434   2.106   6.604  1.00  0.00     0.148 A 
HETATM    3  N2  UNL     1      47.336   0.759   6.743  1.00  0.00    -0.339 N 
ATOM      4  H2  UNL     1      47.838   0.140   6.105  1.00  0.00     0.167 HD
HETATM    5  C2  UNL     1      46.577   0.243   7.724  1.00  0.00     0.183 A 
HETATM    6  N3  UNL     1      45.919   1.066   8.561  1.00  0.00    -0.336 N 
ATOM      7  H3  UNL     1      45.347   0.661   9.301  1.00  0.00     0.168 HD
HETATM    8  C3  UNL     1      45.992   2.425   8.453  1.00  0.00     0.142 A 
HETATM    9  C4  UNL     1      46.761   2.953   7.459  1.00  0.00     0.119 A 
HETATM   10  N4  UNL     1      46.665   4.296   7.569  1.00  0.00    -0.346 N 
ATOM     11  H4  UNL     1      47.127   4.976   6.967  1.00  0.00     0.167 HD
HETATM   12  C5  UNL     1      45.855   4.587   8.608  1.00  0.00     0.188 A 
HETATM   13  N5  UNL     1      45.443   3.432   9.149  1.00  0.00    -0.297 N 
ENDROOT
BRANCH  13  14
HETATM   14  C6  UNL     1      44.574   3.251  10.269  1.00  0.00     0.262 C 
HETATM   15  O1  UNL     1      43.479   4.102  10.167  1.00  0.00    -0.353 OA
HETATM   16  C7  UNL     1      42.917   4.231  11.409  1.00  0.00     0.179 C 
HETATM   17  C9  UNL     1      43.914   3.749  12.433  1.00  0.00     0.182 C 
HETATM   18  C10 UNL     1      45.185   3.675  11.576  1.00  0.00     0.198 C 
BRANCH  16  19
HETATM   19  C8  UNL     1      42.580   5.674  11.741  1.00  0.00     0.198 C 
BRANCH  19  20
HETATM   20  O2  UNL     1      43.142   6.575  10.869  1.00  0.00    -0.398 OA
ATOM     21  H2  UNL     1      42.791   7.453  10.960  1.00  0.00     0.209 HD
ENDBRANCH  19  20
ENDBRANCH  16  19
BRANCH  17  22
HETATM   22  O3  UNL     1      43.583   2.438  12.796  1.00  0.00    -0.390 OA
ATOM     23  H3  UNL     1      43.135   2.459  13.633  1.00  0.00     0.210 HD
ENDBRANCH  17  22
BRANCH  18  24
HETATM   24  O4  UNL     1      46.074   2.734  12.077  1.00  0.00    -0.388 OA
ATOM     25  H4  UNL     1      46.309   2.902  12.982  1.00  0.00     0.210 HD
ENDBRANCH  18  24
ENDBRANCH  13  14
TORSDOF 5
ENDMDL
