MODEL 2
REMARK VINA RESULT: -7.909618777      3.483      5.023
REMARK  5 active torsions:
REMARK  status: ('A' for Active; 'I' for Inactive)
REMARK    1  A    between atoms: N5_13  and  C6_14 
REMARK    2  A    between atoms: C7_16  and  C8_17 
REMARK    3  A    between atoms: C8_17  and  O2_18 
REMARK    4  A    between atoms: C9_20  and  O3_21 
REMARK    5  A    between atoms: C10_23  and  O4_24 
ROOT
HETATM    1  N1  UNL     1      48.559  10.939  12.440  1.00  0.00    -0.080 NA
HETATM    2  C1  UNL     1      47.439  10.099  12.252  1.00  0.00     0.148 A 
HETATM    3  N2  UNL     1      46.186  10.595  12.085  1.00  0.00    -0.339 N 
ATOM      4  H2  UNL     1      46.030  11.603  12.092  1.00  0.00     0.167 HD
HETATM    5  C2  UNL     1      45.153   9.754  11.909  1.00  0.00     0.183 A 
HETATM    6  N3  UNL     1      45.370   8.426  11.900  1.00  0.00    -0.336 N 
ATOM      7  H3  UNL     1      44.577   7.799  11.766  1.00  0.00     0.168 HD
HETATM    8  C3  UNL     1      46.614   7.889  12.065  1.00  0.00     0.142 A 
HETATM    9  C4  UNL     1      47.664   8.738  12.243  1.00  0.00     0.119 A 
HETATM   10  N4  UNL     1      48.765   7.967  12.380  1.00  0.00    -0.346 N 
ATOM     11  H4  UNL     1      49.714   8.308  12.530  1.00  0.00     0.167 HD
HETATM   12  C5  UNL     1      48.400   6.672  12.287  1.00  0.00     0.188 A 
HETATM   13  N5  UNL     1      47.074   6.629  12.093  1.00  0.00    -0.297 N 
ENDROOT
BRANCH  13  14
HETATM   14  C6  UNL     1      46.250   5.472  11.937  1.00  0.00     0.262 C 
HETATM   15  O1  UNL     1      45.206   5.742  11.060  1.00  0.00    -0.353 OA
HETATM   16  C7  UNL     1      44.221   4.813  11.262  1.00  0.00     0.179 C 
HETATM   17  C9  UNL     1      44.470   4.139  12.588  1.00  0.00     0.182 C 
HETATM   18  C10 UNL     1      45.518   5.084  13.192  1.00  0.00     0.198 C 
BRANCH  16  19
HETATM   19  C8  UNL     1      42.840   5.441  11.319  1.00  0.00     0.198 C 
BRANCH  19  20
HETATM   20  O2  UNL     1      42.850   6.795  11.083  1.00  0.00    -0.398 OA
ATOM     21  H2  UNL     1      42.696   7.017  10.172  1.00  0.00     0.209 HD
ENDBRANCH  19  20
ENDBRANCH  16  19
BRANCH  17  22
HETATM   22  O3  UNL     1      45.105   2.913  12.353  1.00  0.00    -0.390 OA
ATOM     23  H3  UNL     1      46.043   3.037  12.440  1.00  0.00     0.210 HD
ENDBRANCH  17  22
BRANCH  18  24
HETATM   24  O4  UNL     1      46.331   4.417  14.098  1.00  0.00    -0.388 OA
ATOM     25  H4  UNL     1      45.946   4.368  14.965  1.00  0.00     0.210 HD
ENDBRANCH  18  24
ENDBRANCH  13  14
TORSDOF 5
ENDMDL
