MODEL 7
REMARK VINA RESULT: -9.197453419      3.456      6.151
REMARK  8 active torsions:
REMARK  status: ('A' for Active; 'I' for Inactive)
REMARK    1  A    between atoms: C2_2  and  C3_3 
REMARK    2  A    between atoms: C12_12  and  C13_13 
REMARK    3  A    between atoms: C13_13  and  N1_14 
REMARK       I    between atoms: N1_14  and  C14_16 
REMARK    4  A    between atoms: C14_16  and  C15_18 
REMARK    5  A    between atoms: C16_19  and  O2_20 
REMARK    6  A    between atoms: C19_23  and  O3_24 
REMARK    7  A    between atoms: C24_31  and  O5_32 
REMARK    8  A    between atoms: C25_34  and  C26_35 
ROOT
HETATM    1  C15 UNL     1      15.044  49.490  63.092  1.00  0.00     0.100 A 
HETATM    2  C16 UNL     1      15.770  50.558  62.620  1.00  0.00     0.089 A 
HETATM    3  C18 UNL     1      16.401  51.413  63.514  1.00  0.00     0.075 A 
HETATM    4  C19 UNL     1      16.323  51.234  64.877  1.00  0.00     0.079 A 
HETATM    5  C20 UNL     1      15.574  50.142  65.329  1.00  0.00     0.033 A 
HETATM    6  C21 UNL     1      14.942  49.263  64.477  1.00  0.00     0.104 A 
HETATM    7  O4  UNL     1      14.308  48.244  65.201  1.00  0.00    -0.312 OA
HETATM    8  C22 UNL     1      14.555  48.434  66.547  1.00  0.00     0.077 C 
HETATM    9  C23 UNL     1      14.417  47.694  67.665  1.00  0.00     0.072 C 
HETATM   10  C24 UNL     1      14.816  48.180  68.987  1.00  0.00     0.085 C 
HETATM   11  C25 UNL     1      15.355  49.360  69.100  1.00  0.00     0.090 C 
HETATM   12  C28 UNL     1      15.735  50.125  67.876  1.00  0.00     0.185 C 
HETATM   13  O7  UNL     1      16.621  50.978  68.010  1.00  0.00    -0.290 OA
HETATM   14  C29 UNL     1      15.063  49.829  66.656  1.00  0.00     0.103 C 
HETATM   15  C30 UNL     1      13.711  50.722  66.665  1.00  0.00     0.037 C 
ENDROOT
BRANCH   1  16
HETATM   16  C14 UNL     1      14.332  48.571  62.251  1.00  0.00     0.261 C 
HETATM   17  N1  UNL     1      13.344  48.967  61.241  1.00  0.00    -0.332 N 
ATOM     18  H1  UNL     1      13.099  49.944  61.083  1.00  0.00     0.168 HD
HETATM   19  O1  UNL     1      14.525  47.318  62.344  1.00  0.00    -0.267 OA
BRANCH  17  20
HETATM   20  C13 UNL     1      12.756  47.931  60.504  1.00  0.00     0.104 C 
BRANCH  20  21
HETATM   21  C12 UNL     1      12.987  47.525  59.167  1.00  0.00    -0.003 A 
HETATM   22  C3  UNL     1      11.826  46.985  58.527  1.00  0.00    -0.046 A 
HETATM   23  C4  UNL     1      11.916  46.524  57.262  1.00  0.00     0.009 A 
HETATM   24  C5  UNL     1      13.086  46.555  56.561  1.00  0.00     0.013 A 
HETATM   25  C6  UNL     1      14.238  47.063  57.123  1.00  0.00    -0.025 A 
HETATM   26  C7  UNL     1      15.402  47.053  56.388  1.00  0.00     0.012 A 
HETATM   27  C11 UNL     1      14.147  47.540  58.435  1.00  0.00    -0.014 A 
HETATM   28  C8  UNL     1      16.576  47.521  56.914  1.00  0.00     0.001 A 
HETATM   29  C9  UNL     1      16.522  47.993  58.200  1.00  0.00     0.001 A 
HETATM   30  C10 UNL     1      15.340  48.004  58.947  1.00  0.00     0.013 A 
BRANCH  22  31
HETATM   31  C2  UNL     1      10.506  46.953  59.209  1.00  0.00     0.035 C 
HETATM   32  C1  UNL     1       9.618  45.943  58.540  1.00  0.00     0.010 C 
ENDBRANCH  22  31
ENDBRANCH  20  21
ENDBRANCH  17  20
ENDBRANCH   1  16
BRANCH   2  33
HETATM   33  O2  UNL     1      15.922  50.843  61.282  1.00  0.00    -0.355 OA
HETATM   34  C17 UNL     1      16.744  51.892  60.851  1.00  0.00     0.210 C 
ENDBRANCH   2  33
BRANCH   4  35
HETATM   35  O3  UNL     1      16.968  52.109  65.738  1.00  0.00    -0.360 OA
ATOM     36  H3  UNL     1      17.597  51.784  66.370  1.00  0.00     0.217 HD
ENDBRANCH   4  35
BRANCH  11  37
HETATM   37  C26 UNL     1      15.749  49.891  70.373  1.00  0.00     0.162 C 
HETATM   38  C27 UNL     1      14.955  50.917  71.108  1.00  0.00     0.097 C 
HETATM   39  O6  UNL     1      16.811  49.489  70.917  1.00  0.00    -0.293 OA
ENDBRANCH  11  37
BRANCH  10  40
HETATM   40  O5  UNL     1      14.616  47.373  70.126  1.00  0.00    -0.360 OA
ATOM     41  H5  UNL     1      13.741  47.250  70.474  1.00  0.00     0.217 HD
ENDBRANCH  10  40
TORSDOF 8
ENDMDL
