MODEL 1
REMARK VINA RESULT: -9.766028609      0.000      0.000
REMARK  8 active torsions:
REMARK  status: ('A' for Active; 'I' for Inactive)
REMARK    1  A    between atoms: C2_2  and  C3_3 
REMARK    2  A    between atoms: C12_12  and  C13_13 
REMARK    3  A    between atoms: C13_13  and  N1_14 
REMARK       I    between atoms: N1_14  and  C14_16 
REMARK    4  A    between atoms: C14_16  and  C15_18 
REMARK    5  A    between atoms: C16_19  and  O2_20 
REMARK    6  A    between atoms: C19_23  and  O3_24 
REMARK    7  A    between atoms: C24_31  and  O5_32 
REMARK    8  A    between atoms: C25_34  and  C26_35 
ROOT
HETATM    1  C15 UNL     1      13.283  47.940  61.479  1.00  0.00     0.100 A 
HETATM    2  C16 UNL     1      12.974  47.102  62.525  1.00  0.00     0.089 A 
HETATM    3  C18 UNL     1      13.676  47.202  63.719  1.00  0.00     0.075 A 
HETATM    4  C19 UNL     1      14.689  48.117  63.898  1.00  0.00     0.079 A 
HETATM    5  C20 UNL     1      14.985  48.952  62.815  1.00  0.00     0.033 A 
HETATM    6  C21 UNL     1      14.306  48.895  61.617  1.00  0.00     0.104 A 
HETATM    7  O4  UNL     1      14.781  49.875  60.734  1.00  0.00    -0.312 OA
HETATM    8  C22 UNL     1      15.762  50.610  61.371  1.00  0.00     0.077 C 
HETATM    9  C23 UNL     1      16.396  51.776  61.134  1.00  0.00     0.072 C 
HETATM   10  C24 UNL     1      17.398  52.328  62.049  1.00  0.00     0.085 C 
HETATM   11  C25 UNL     1      17.676  51.695  63.152  1.00  0.00     0.090 C 
HETATM   12  C28 UNL     1      16.847  50.525  63.568  1.00  0.00     0.185 C 
HETATM   13  O7  UNL     1      16.837  50.258  64.777  1.00  0.00    -0.290 OA
HETATM   14  C29 UNL     1      16.137  49.806  62.566  1.00  0.00     0.103 C 
HETATM   15  C30 UNL     1      17.183  48.719  61.974  1.00  0.00     0.037 C 
ENDROOT
BRANCH   1  16
HETATM   16  C14 UNL     1      12.638  47.892  60.198  1.00  0.00     0.261 C 
HETATM   17  N1  UNL     1      11.198  48.083  59.986  1.00  0.00    -0.332 N 
ATOM     18  H1  UNL     1      10.560  48.257  60.763  1.00  0.00     0.168 HD
HETATM   19  O1  UNL     1      13.305  47.671  59.139  1.00  0.00    -0.267 OA
BRANCH  17  20
HETATM   20  C13 UNL     1      10.747  48.013  58.662  1.00  0.00     0.104 C 
BRANCH  20  21
HETATM   21  C12 UNL     1       9.427  48.073  58.151  1.00  0.00    -0.003 A 
HETATM   22  C3  UNL     1       9.117  49.323  57.525  1.00  0.00    -0.046 A 
HETATM   23  C4  UNL     1       7.879  49.530  57.028  1.00  0.00     0.009 A 
HETATM   24  C5  UNL     1       6.901  48.581  57.101  1.00  0.00     0.013 A 
HETATM   25  C6  UNL     1       7.139  47.359  57.691  1.00  0.00    -0.025 A 
HETATM   26  C7  UNL     1       6.117  46.439  57.763  1.00  0.00     0.012 A 
HETATM   27  C11 UNL     1       8.422  47.142  58.209  1.00  0.00    -0.014 A 
HETATM   28  C8  UNL     1       6.299  45.223  58.365  1.00  0.00     0.001 A 
HETATM   29  C9  UNL     1       7.544  44.981  58.886  1.00  0.00     0.001 A 
HETATM   30  C10 UNL     1       8.582  45.914  58.813  1.00  0.00     0.013 A 
BRANCH  22  31
HETATM   31  C2  UNL     1      10.138  50.391  57.372  1.00  0.00     0.035 C 
HETATM   32  C1  UNL     1      10.310  50.718  55.916  1.00  0.00     0.010 C 
ENDBRANCH  22  31
ENDBRANCH  20  21
ENDBRANCH  17  20
ENDBRANCH   1  16
BRANCH   2  33
HETATM   33  O2  UNL     1      11.984  46.147  62.468  1.00  0.00    -0.355 OA
HETATM   34  C17 UNL     1      10.749  46.343  63.101  1.00  0.00     0.210 C 
ENDBRANCH   2  33
BRANCH   4  35
HETATM   35  O3  UNL     1      15.366  48.187  65.106  1.00  0.00    -0.360 OA
ATOM     36  H3  UNL     1      14.993  47.798  65.888  1.00  0.00     0.217 HD
ENDBRANCH   4  35
BRANCH  11  37
HETATM   37  C26 UNL     1      18.660  52.183  64.074  1.00  0.00     0.162 C 
HETATM   38  C27 UNL     1      19.984  51.527  64.274  1.00  0.00     0.097 C 
HETATM   39  O6  UNL     1      18.421  53.212  64.758  1.00  0.00    -0.293 OA
ENDBRANCH  11  37
BRANCH  10  40
HETATM   40  O5  UNL     1      18.054  53.535  61.732  1.00  0.00    -0.360 OA
ATOM     41  H5  UNL     1      18.790  53.533  61.132  1.00  0.00     0.217 HD
ENDBRANCH  10  40
TORSDOF 8
ENDMDL
