MODEL 17
REMARK VINA RESULT: -8.941598569      1.588      2.162
REMARK  8 active torsions:
REMARK  status: ('A' for Active; 'I' for Inactive)
REMARK    1  A    between atoms: C2_2  and  C3_3 
REMARK    2  A    between atoms: C12_12  and  C13_13 
REMARK    3  A    between atoms: C13_13  and  N1_14 
REMARK       I    between atoms: N1_14  and  C14_16 
REMARK    4  A    between atoms: C14_16  and  C15_18 
REMARK    5  A    between atoms: C16_19  and  O2_20 
REMARK    6  A    between atoms: C19_23  and  O3_24 
REMARK    7  A    between atoms: C24_31  and  O5_32 
REMARK    8  A    between atoms: C25_34  and  C26_35 
ROOT
HETATM    1  C15 UNL     1      11.823  47.542  62.368  1.00  0.00     0.100 A 
HETATM    2  C16 UNL     1      11.111  46.710  63.200  1.00  0.00     0.089 A 
HETATM    3  C18 UNL     1      11.551  46.494  64.500  1.00  0.00     0.075 A 
HETATM    4  C19 UNL     1      12.692  47.085  64.994  1.00  0.00     0.079 A 
HETATM    5  C20 UNL     1      13.398  47.923  64.124  1.00  0.00     0.033 A 
HETATM    6  C21 UNL     1      12.992  48.173  62.831  1.00  0.00     0.104 A 
HETATM    7  O4  UNL     1      13.860  49.082  62.209  1.00  0.00    -0.312 OA
HETATM    8  C22 UNL     1      14.832  49.460  63.115  1.00  0.00     0.077 C 
HETATM    9  C23 UNL     1      15.760  50.436  63.178  1.00  0.00     0.072 C 
HETATM   10  C24 UNL     1      16.650  50.604  64.329  1.00  0.00     0.085 C 
HETATM   11  C25 UNL     1      16.532  49.807  65.352  1.00  0.00     0.090 C 
HETATM   12  C28 UNL     1      15.381  48.860  65.428  1.00  0.00     0.185 C 
HETATM   13  O7  UNL     1      15.054  48.478  66.560  1.00  0.00    -0.290 OA
HETATM   14  C29 UNL     1      14.746  48.464  64.218  1.00  0.00     0.103 C 
HETATM   15  C30 UNL     1      15.604  47.208  63.656  1.00  0.00     0.037 C 
ENDROOT
BRANCH   1  16
HETATM   16  C14 UNL     1      11.469  47.803  61.002  1.00  0.00     0.261 C 
HETATM   17  N1  UNL     1      10.942  46.794  60.075  1.00  0.00    -0.332 N 
ATOM     18  H1  UNL     1      10.804  45.824  60.358  1.00  0.00     0.168 HD
HETATM   19  O1  UNL     1      11.600  48.965  60.504  1.00  0.00    -0.267 OA
BRANCH  17  20
HETATM   20  C13 UNL     1      10.641  47.234  58.780  1.00  0.00     0.104 C 
BRANCH  20  21
HETATM   21  C12 UNL     1       9.386  47.533  58.194  1.00  0.00    -0.003 A 
HETATM   22  C3  UNL     1       9.351  48.809  57.545  1.00  0.00    -0.046 A 
HETATM   23  C4  UNL     1       8.203  49.236  56.978  1.00  0.00     0.009 A 
HETATM   24  C5  UNL     1       7.062  48.488  56.998  1.00  0.00     0.013 A 
HETATM   25  C6  UNL     1       7.034  47.252  57.607  1.00  0.00    -0.025 A 
HETATM   26  C7  UNL     1       5.855  46.541  57.625  1.00  0.00     0.012 A 
HETATM   27  C11 UNL     1       8.222  46.807  58.198  1.00  0.00    -0.014 A 
HETATM   28  C8  UNL     1       5.772  45.321  58.242  1.00  0.00     0.001 A 
HETATM   29  C9  UNL     1       6.919  44.859  58.834  1.00  0.00     0.001 A 
HETATM   30  C10 UNL     1       8.117  45.580  58.816  1.00  0.00     0.013 A 
BRANCH  22  31
HETATM   31  C2  UNL     1      10.561  49.665  57.446  1.00  0.00     0.035 C 
HETATM   32  C1  UNL     1      10.345  50.722  56.401  1.00  0.00     0.010 C 
ENDBRANCH  22  31
ENDBRANCH  20  21
ENDBRANCH  17  20
ENDBRANCH   1  16
BRANCH   2  33
HETATM   33  O2  UNL     1       9.958  46.061  62.822  1.00  0.00    -0.355 OA
HETATM   34  C17 UNL     1      10.002  44.838  62.141  1.00  0.00     0.210 C 
ENDBRANCH   2  33
BRANCH   4  35
HETATM   35  O3  UNL     1      13.098  46.845  66.298  1.00  0.00    -0.360 OA
ATOM     36  H3  UNL     1      13.166  47.560  66.919  1.00  0.00     0.217 HD
ENDBRANCH   4  35
BRANCH  11  37
HETATM   37  C26 UNL     1      17.388  49.917  66.497  1.00  0.00     0.162 C 
HETATM   38  C27 UNL     1      17.990  48.736  67.180  1.00  0.00     0.097 C 
HETATM   39  O6  UNL     1      17.662  51.052  66.967  1.00  0.00    -0.293 OA
ENDBRANCH  11  37
BRANCH  10  40
HETATM   40  O5  UNL     1      17.626  51.622  64.324  1.00  0.00    -0.360 OA
ATOM     41  H5  UNL     1      17.530  52.375  64.895  1.00  0.00     0.217 HD
ENDBRANCH  10  40
TORSDOF 8
ENDMDL
