MODEL 6
REMARK VINA RESULT: -9.204845528      2.409      4.811
REMARK  8 active torsions:
REMARK  status: ('A' for Active; 'I' for Inactive)
REMARK    1  A    between atoms: C2_2  and  C3_3 
REMARK    2  A    between atoms: C12_12  and  C13_13 
REMARK    3  A    between atoms: C13_13  and  N1_14 
REMARK       I    between atoms: N1_14  and  C14_16 
REMARK    4  A    between atoms: C14_16  and  C15_18 
REMARK    5  A    between atoms: C16_19  and  O2_20 
REMARK    6  A    between atoms: C19_23  and  O3_24 
REMARK    7  A    between atoms: C24_31  and  O5_32 
REMARK    8  A    between atoms: C25_34  and  C26_35 
ROOT
HETATM    1  C15 UNL     1      15.962  49.304  60.403  1.00  0.00     0.100 A 
HETATM    2  C16 UNL     1      16.422  48.670  59.272  1.00  0.00     0.089 A 
HETATM    3  C18 UNL     1      17.608  49.086  58.682  1.00  0.00     0.075 A 
HETATM    4  C19 UNL     1      18.351  50.128  59.189  1.00  0.00     0.079 A 
HETATM    5  C20 UNL     1      17.857  50.758  60.336  1.00  0.00     0.033 A 
HETATM    6  C21 UNL     1      16.691  50.371  60.960  1.00  0.00     0.104 A 
HETATM    7  O4  UNL     1      16.465  51.144  62.107  1.00  0.00    -0.312 OA
HETATM    8  C22 UNL     1      17.514  52.030  62.261  1.00  0.00     0.077 C 
HETATM    9  C23 UNL     1      17.960  52.830  63.249  1.00  0.00     0.072 C 
HETATM   10  C24 UNL     1      19.165  53.651  63.115  1.00  0.00     0.085 C 
HETATM   11  C25 UNL     1      19.861  53.595  62.015  1.00  0.00     0.090 C 
HETATM   12  C28 UNL     1      19.538  52.565  60.984  1.00  0.00     0.185 C 
HETATM   13  O7  UNL     1      20.456  52.246  60.216  1.00  0.00    -0.290 OA
HETATM   14  C29 UNL     1      18.221  52.026  60.951  1.00  0.00     0.103 C 
HETATM   15  C30 UNL     1      17.345  53.049  60.049  1.00  0.00     0.037 C 
ENDROOT
BRANCH   1  16
HETATM   16  C14 UNL     1      14.734  48.970  61.065  1.00  0.00     0.261 C 
HETATM   17  N1  UNL     1      13.495  48.593  60.375  1.00  0.00    -0.332 N 
ATOM     18  H1  UNL     1      13.437  48.555  59.357  1.00  0.00     0.168 HD
HETATM   19  O1  UNL     1      14.651  48.986  62.333  1.00  0.00    -0.267 OA
BRANCH  17  20
HETATM   20  C13 UNL     1      12.395  48.288  61.187  1.00  0.00     0.104 C 
BRANCH  20  21
HETATM   21  C12 UNL     1      11.456  47.233  61.082  1.00  0.00    -0.003 A 
HETATM   22  C3  UNL     1      11.439  46.370  62.224  1.00  0.00    -0.046 A 
HETATM   23  C4  UNL     1      10.617  45.301  62.240  1.00  0.00     0.009 A 
HETATM   24  C5  UNL     1       9.791  45.007  61.194  1.00  0.00     0.013 A 
HETATM   25  C6  UNL     1       9.761  45.800  60.067  1.00  0.00    -0.025 A 
HETATM   26  C7  UNL     1       8.929  45.454  59.026  1.00  0.00     0.012 A 
HETATM   27  C11 UNL     1      10.615  46.909  60.048  1.00  0.00    -0.014 A 
HETATM   28  C8  UNL     1       8.887  46.195  57.876  1.00  0.00     0.001 A 
HETATM   29  C9  UNL     1       9.714  47.287  57.825  1.00  0.00     0.001 A 
HETATM   30  C10 UNL     1      10.559  47.640  58.881  1.00  0.00     0.013 A 
BRANCH  22  31
HETATM   31  C2  UNL     1      12.281  46.644  63.418  1.00  0.00     0.035 C 
HETATM   32  C1  UNL     1      11.418  47.161  64.534  1.00  0.00     0.010 C 
ENDBRANCH  22  31
ENDBRANCH  20  21
ENDBRANCH  17  20
ENDBRANCH   1  16
BRANCH   2  33
HETATM   33  O2  UNL     1      15.769  47.617  58.672  1.00  0.00    -0.355 OA
HETATM   34  C17 UNL     1      15.830  47.420  57.286  1.00  0.00     0.210 C 
ENDBRANCH   2  33
BRANCH   4  35
HETATM   35  O3  UNL     1      19.532  50.513  58.571  1.00  0.00    -0.360 OA
ATOM     36  H3  UNL     1      20.262  50.832  59.088  1.00  0.00     0.217 HD
ENDBRANCH   4  35
BRANCH  11  37
HETATM   37  C26 UNL     1      21.038  54.390  61.825  1.00  0.00     0.162 C 
HETATM   38  C27 UNL     1      21.088  55.566  60.910  1.00  0.00     0.097 C 
HETATM   39  O6  UNL     1      22.094  54.104  62.449  1.00  0.00    -0.293 OA
ENDBRANCH  11  37
BRANCH  10  40
HETATM   40  O5  UNL     1      19.565  54.496  64.171  1.00  0.00    -0.360 OA
ATOM     41  H5  UNL     1      20.478  54.743  64.263  1.00  0.00     0.217 HD
ENDBRANCH  10  40
TORSDOF 8
ENDMDL
