MODEL 3
REMARK VINA RESULT: -9.564721861      2.236      4.388
REMARK  8 active torsions:
REMARK  status: ('A' for Active; 'I' for Inactive)
REMARK    1  A    between atoms: C2_2  and  C3_3 
REMARK    2  A    between atoms: C12_12  and  C13_13 
REMARK    3  A    between atoms: C13_13  and  N1_14 
REMARK       I    between atoms: N1_14  and  C14_16 
REMARK    4  A    between atoms: C14_16  and  C15_18 
REMARK    5  A    between atoms: C16_19  and  O2_20 
REMARK    6  A    between atoms: C19_23  and  O3_24 
REMARK    7  A    between atoms: C24_31  and  O5_32 
REMARK    8  A    between atoms: C25_34  and  C26_35 
ROOT
HETATM    1  C15 UNL     1      14.550  49.013  63.298  1.00  0.00     0.100 A 
HETATM    2  C16 UNL     1      14.474  48.837  64.661  1.00  0.00     0.089 A 
HETATM    3  C18 UNL     1      15.238  49.636  65.502  1.00  0.00     0.075 A 
HETATM    4  C19 UNL     1      16.085  50.608  65.019  1.00  0.00     0.079 A 
HETATM    5  C20 UNL     1      16.144  50.761  63.630  1.00  0.00     0.033 A 
HETATM    6  C21 UNL     1      15.397  49.998  62.760  1.00  0.00     0.104 A 
HETATM    7  O4  UNL     1      15.622  50.399  61.435  1.00  0.00    -0.312 OA
HETATM    8  C22 UNL     1      16.504  51.462  61.435  1.00  0.00     0.077 C 
HETATM    9  C23 UNL     1      16.904  52.381  60.534  1.00  0.00     0.072 C 
HETATM   10  C24 UNL     1      17.860  53.441  60.859  1.00  0.00     0.085 C 
HETATM   11  C25 UNL     1      18.330  53.532  62.071  1.00  0.00     0.090 C 
HETATM   12  C28 UNL     1      17.754  52.684  63.156  1.00  0.00     0.185 C 
HETATM   13  O7  UNL     1      17.883  53.105  64.313  1.00  0.00    -0.290 OA
HETATM   14  C29 UNL     1      17.106  51.468  62.797  1.00  0.00     0.103 C 
HETATM   15  C30 UNL     1      18.278  50.354  62.695  1.00  0.00     0.037 C 
ENDROOT
BRANCH   1  16
HETATM   16  C14 UNL     1      13.827  48.219  62.347  1.00  0.00     0.261 C 
HETATM   17  N1  UNL     1      13.064  48.765  61.219  1.00  0.00    -0.332 N 
ATOM     18  H1  UNL     1      12.999  49.769  61.050  1.00  0.00     0.168 HD
HETATM   19  O1  UNL     1      13.806  46.951  62.438  1.00  0.00    -0.267 OA
BRANCH  17  20
HETATM   20  C13 UNL     1      12.429  47.836  60.386  1.00  0.00     0.104 C 
BRANCH  20  21
HETATM   21  C12 UNL     1      12.737  47.451  59.058  1.00  0.00    -0.003 A 
HETATM   22  C3  UNL     1      11.613  46.927  58.342  1.00  0.00    -0.046 A 
HETATM   23  C4  UNL     1      11.775  46.486  57.077  1.00  0.00     0.009 A 
HETATM   24  C5  UNL     1      12.984  46.522  56.447  1.00  0.00     0.013 A 
HETATM   25  C6  UNL     1      14.103  47.015  57.083  1.00  0.00    -0.025 A 
HETATM   26  C7  UNL     1      15.308  47.012  56.418  1.00  0.00     0.012 A 
HETATM   27  C11 UNL     1      13.938  47.471  58.396  1.00  0.00    -0.014 A 
HETATM   28  C8  UNL     1      16.452  47.466  57.019  1.00  0.00     0.001 A 
HETATM   29  C9  UNL     1      16.324  47.916  58.307  1.00  0.00     0.001 A 
HETATM   30  C10 UNL     1      15.101  47.921  58.984  1.00  0.00     0.013 A 
BRANCH  22  31
HETATM   31  C2  UNL     1      10.256  46.890  58.945  1.00  0.00     0.035 C 
HETATM   32  C1  UNL     1       9.408  45.885  58.218  1.00  0.00     0.010 C 
ENDBRANCH  22  31
ENDBRANCH  20  21
ENDBRANCH  17  20
ENDBRANCH   1  16
BRANCH   2  33
HETATM   33  O2  UNL     1      13.667  47.900  65.263  1.00  0.00    -0.355 OA
HETATM   34  C17 UNL     1      12.651  48.279  66.150  1.00  0.00     0.210 C 
ENDBRANCH   2  33
BRANCH   4  35
HETATM   35  O3  UNL     1      16.830  51.386  65.893  1.00  0.00    -0.360 OA
ATOM     36  H3  UNL     1      17.492  51.980  65.561  1.00  0.00     0.217 HD
ENDBRANCH   4  35
BRANCH  11  37
HETATM   37  C26 UNL     1      19.280  54.540  62.438  1.00  0.00     0.162 C 
HETATM   38  C27 UNL     1      20.687  54.230  62.824  1.00  0.00     0.097 C 
HETATM   39  O6  UNL     1      18.937  55.751  62.443  1.00  0.00    -0.293 OA
ENDBRANCH  11  37
BRANCH  10  40
HETATM   40  O5  UNL     1      18.267  54.355  59.865  1.00  0.00    -0.360 OA
ATOM     41  H5  UNL     1      18.046  54.197  58.955  1.00  0.00     0.217 HD
ENDBRANCH  10  40
TORSDOF 8
ENDMDL
