MODEL 13
REMARK VINA RESULT: -4.999127154      2.732      5.242
REMARK  2 active torsions:
REMARK  status: ('A' for Active; 'I' for Inactive)
REMARK    1  A    between atoms: C2_2  and  S1_3 
REMARK    2  A    between atoms: S1_3  and  C3_4 
ROOT
HETATM    1  C3  UNL     1      31.205  34.503  49.862  1.00  0.00     0.147 A 
HETATM    2  N1  UNL     1      32.353  34.248  50.500  1.00  0.00    -0.327 N 
ATOM      3  H1  UNL     1      32.910  33.447  50.201  1.00  0.00     0.169 HD
HETATM    4  C4  UNL     1      32.807  35.001  51.521  1.00  0.00     0.081 A 
HETATM    5  C5  UNL     1      34.097  34.605  52.140  1.00  0.00     0.089 C 
HETATM    6  N2  UNL     1      32.083  36.061  51.928  1.00  0.00    -0.320 N 
ATOM      7  H2  UNL     1      32.411  36.644  52.699  1.00  0.00     0.169 HD
HETATM    8  C6  UNL     1      30.927  36.343  51.308  1.00  0.00     0.195 A 
HETATM    9  N3  UNL     1      30.122  37.429  51.682  1.00  0.00    -0.063 NA
HETATM   10  N4  UNL     1      30.497  35.565  50.281  1.00  0.00    -0.311 N 
ATOM     11  H4  UNL     1      29.618  35.792  49.818  1.00  0.00     0.170 HD
ENDROOT
BRANCH   1  12
HETATM   12  S1  UNL     1      30.705  33.423  48.531  1.00  0.00    -0.094 SA
BRANCH  12  13
HETATM   13  C2  UNL     1      31.846  32.021  48.473  1.00  0.00     0.078 C 
HETATM   14  C1  UNL     1      31.157  30.739  48.939  1.00  0.00     0.016 C 
ENDBRANCH  12  13
ENDBRANCH   1  12
TORSDOF 2
ENDMDL
