MODEL 1
REMARK VINA RESULT: -5.378434676      0.000      0.000
REMARK  2 active torsions:
REMARK  status: ('A' for Active; 'I' for Inactive)
REMARK    1  A    between atoms: C2_2  and  S1_3 
REMARK    2  A    between atoms: S1_3  and  C3_4 
ROOT
HETATM    1  C3  UNL     1      33.358  33.766  50.060  1.00  0.00     0.147 A 
HETATM    2  N1  UNL     1      32.126  33.269  49.904  1.00  0.00    -0.327 N 
ATOM      3  H1  UNL     1      31.450  33.393  50.658  1.00  0.00     0.169 HD
HETATM    4  C4  UNL     1      31.736  32.611  48.794  1.00  0.00     0.081 A 
HETATM    5  C5  UNL     1      30.339  32.112  48.753  1.00  0.00     0.089 C 
HETATM    6  N2  UNL     1      32.616  32.439  47.789  1.00  0.00    -0.320 N 
ATOM      7  H2  UNL     1      32.339  31.944  46.941  1.00  0.00     0.169 HD
HETATM    8  C6  UNL     1      33.860  32.926  47.916  1.00  0.00     0.195 A 
HETATM    9  N3  UNL     1      34.827  32.780  46.911  1.00  0.00    -0.063 NA
HETATM   10  N4  UNL     1      34.221  33.585  49.047  1.00  0.00    -0.311 N 
ATOM     11  H4  UNL     1      35.170  33.952  49.129  1.00  0.00     0.170 HD
ENDROOT
BRANCH   1  12
HETATM   12  S1  UNL     1      33.757  34.607  51.583  1.00  0.00    -0.094 SA
BRANCH  12  13
HETATM   13  C2  UNL     1      32.482  35.850  51.901  1.00  0.00     0.078 C 
HETATM   14  C1  UNL     1      33.070  37.259  51.845  1.00  0.00     0.016 C 
ENDBRANCH  12  13
ENDBRANCH   1  12
TORSDOF 2
ENDMDL
