MODEL 10
REMARK VINA RESULT: -5.012614382      1.883      2.030
REMARK  2 active torsions:
REMARK  status: ('A' for Active; 'I' for Inactive)
REMARK    1  A    between atoms: C2_2  and  S1_3 
REMARK    2  A    between atoms: S1_3  and  C3_4 
ROOT
HETATM    1  C3  UNL     1      32.341  35.901  49.351  1.00  0.00     0.147 A 
HETATM    2  N1  UNL     1      31.145  35.371  49.071  1.00  0.00    -0.327 N 
ATOM      3  H1  UNL     1      30.312  35.945  49.206  1.00  0.00     0.169 HD
HETATM    4  C4  UNL     1      30.990  34.111  48.618  1.00  0.00     0.081 A 
HETATM    5  C5  UNL     1      29.606  33.650  48.347  1.00  0.00     0.089 C 
HETATM    6  N2  UNL     1      32.078  33.340  48.434  1.00  0.00    -0.320 N 
ATOM      7  H2  UNL     1      31.981  32.384  48.092  1.00  0.00     0.169 HD
HETATM    8  C6  UNL     1      33.292  33.844  48.706  1.00  0.00     0.195 A 
HETATM    9  N3  UNL     1      34.467  33.096  48.541  1.00  0.00    -0.063 NA
HETATM   10  N4  UNL     1      33.415  35.118  49.161  1.00  0.00    -0.311 N 
ATOM     11  H4  UNL     1      34.344  35.488  49.362  1.00  0.00     0.170 HD
ENDROOT
BRANCH   1  12
HETATM   12  S1  UNL     1      32.414  37.579  49.956  1.00  0.00    -0.094 SA
BRANCH  12  13
HETATM   13  C2  UNL     1      33.120  37.556  51.621  1.00  0.00     0.078 C 
HETATM   14  C1  UNL     1      32.536  36.408  52.444  1.00  0.00     0.016 C 
ENDBRANCH  12  13
ENDBRANCH   1  12
TORSDOF 2
ENDMDL
