MODEL 16
REMARK VINA RESULT: -4.940511938      2.584      4.787
REMARK  2 active torsions:
REMARK  status: ('A' for Active; 'I' for Inactive)
REMARK    1  A    between atoms: C2_2  and  S1_3 
REMARK    2  A    between atoms: S1_3  and  C3_4 
ROOT
HETATM    1  C3  UNL     1      32.894  34.763  49.009  1.00  0.00     0.147 A 
HETATM    2  N1  UNL     1      33.174  35.996  49.449  1.00  0.00    -0.327 N 
ATOM      3  H1  UNL     1      34.111  36.184  49.806  1.00  0.00     0.169 HD
HETATM    4  C4  UNL     1      32.275  36.998  49.441  1.00  0.00     0.081 A 
HETATM    5  C5  UNL     1      32.719  38.316  49.958  1.00  0.00     0.089 C 
HETATM    6  N2  UNL     1      31.034  36.765  48.972  1.00  0.00    -0.320 N 
ATOM      7  H2  UNL     1      30.339  37.512  48.957  1.00  0.00     0.169 HD
HETATM    8  C6  UNL     1      30.722  35.540  48.523  1.00  0.00     0.195 A 
HETATM    9  N3  UNL     1      29.449  35.226  48.025  1.00  0.00    -0.063 NA
HETATM   10  N4  UNL     1      31.652  34.549  48.544  1.00  0.00    -0.311 N 
ATOM     11  H4  UNL     1      31.402  33.623  48.199  1.00  0.00     0.170 HD
ENDROOT
BRANCH   1  12
HETATM   12  S1  UNL     1      34.169  33.515  49.083  1.00  0.00    -0.094 SA
BRANCH  12  13
HETATM   13  C2  UNL     1      33.701  32.154  47.988  1.00  0.00     0.078 C 
HETATM   14  C1  UNL     1      34.425  32.262  46.646  1.00  0.00     0.016 C 
ENDBRANCH  12  13
ENDBRANCH   1  12
TORSDOF 2
ENDMDL
