MODEL 17
REMARK VINA RESULT: -4.940133837      3.092      5.095
REMARK  2 active torsions:
REMARK  status: ('A' for Active; 'I' for Inactive)
REMARK    1  A    between atoms: C2_2  and  S1_3 
REMARK    2  A    between atoms: S1_3  and  C3_4 
ROOT
HETATM    1  C3  UNL     1      33.053  35.407  50.241  1.00  0.00     0.147 A 
HETATM    2  N1  UNL     1      32.587  36.043  49.160  1.00  0.00    -0.327 N 
ATOM      3  H1  UNL     1      32.602  35.556  48.263  1.00  0.00     0.169 HD
HETATM    4  C4  UNL     1      32.100  37.298  49.203  1.00  0.00     0.081 A 
HETATM    5  C5  UNL     1      31.615  37.885  47.929  1.00  0.00     0.089 C 
HETATM    6  N2  UNL     1      32.074  37.954  50.378  1.00  0.00    -0.320 N 
ATOM      7  H2  UNL     1      31.709  38.905  50.431  1.00  0.00     0.169 HD
HETATM    8  C6  UNL     1      32.535  37.342  51.480  1.00  0.00     0.195 A 
HETATM    9  N3  UNL     1      32.541  37.967  52.736  1.00  0.00    -0.063 NA
HETATM   10  N4  UNL     1      33.019  36.075  51.405  1.00  0.00    -0.311 N 
ATOM     11  H4  UNL     1      33.364  35.622  52.251  1.00  0.00     0.170 HD
ENDROOT
BRANCH   1  12
HETATM   12  S1  UNL     1      33.685  33.747  50.053  1.00  0.00    -0.094 SA
BRANCH  12  13
HETATM   13  C2  UNL     1      34.306  33.559  48.365  1.00  0.00     0.078 C 
HETATM   14  C1  UNL     1      33.616  32.392  47.659  1.00  0.00     0.016 C 
ENDBRANCH  12  13
ENDBRANCH   1  12
TORSDOF 2
ENDMDL
