MODEL 12
REMARK VINA RESULT: -8.282506936      2.911      6.037
REMARK  2 active torsions:
REMARK  status: ('A' for Active; 'I' for Inactive)
REMARK    1  A    between atoms: C5_5  and  S1_6 
REMARK    2  A    between atoms: S1_6  and  C6_9 
ROOT
HETATM    1  C6  UNL     1      62.921  12.581  25.282  1.00  0.00     0.137 A 
HETATM    2  C7  UNL     1      63.144  13.860  24.817  1.00  0.00     0.067 A 
HETATM    3  C8  UNL     1      62.103  14.658  24.351  1.00  0.00     0.010 A 
HETATM    4  C9  UNL     1      62.344  16.037  23.848  1.00  0.00     0.068 C 
HETATM    5  N1  UNL     1      60.876  14.113  24.382  1.00  0.00    -0.334 N 
ATOM      6  H1  UNL     1      60.097  14.679  24.047  1.00  0.00     0.168 HD
HETATM    7  C10 UNL     1      60.602  12.871  24.826  1.00  0.00     0.193 A 
HETATM    8  N2  UNL     1      59.278  12.353  24.832  1.00  0.00    -0.063 NA
HETATM    9  N3  UNL     1      61.654  12.141  25.267  1.00  0.00    -0.321 N 
ATOM     10  H3  UNL     1      61.471  11.197  25.608  1.00  0.00     0.169 HD
ENDROOT
BRANCH   1  11
HETATM   11  S1  UNL     1      64.239  11.582  25.868  1.00  0.00     0.222 S 
HETATM   12  O1  UNL     1      63.669  10.405  26.590  1.00  0.00    -0.216 OA
HETATM   13  O2  UNL     1      65.063  12.441  26.796  1.00  0.00    -0.216 OA
BRANCH  11  14
HETATM   14  C5  UNL     1      65.253  11.032  24.574  1.00  0.00     0.065 A 
HETATM   15  C4  UNL     1      64.860  10.046  23.684  1.00  0.00     0.024 A 
HETATM   16  C3  UNL     1      65.739   9.665  22.673  1.00  0.00     0.008 A 
HETATM   17  C2  UNL     1      66.984  10.227  22.521  1.00  0.00    -0.062 A 
HETATM   18  C1  UNL     1      67.891   9.787  21.423  1.00  0.00     0.048 C 
HETATM   19  C12 UNL     1      67.374  11.209  23.407  1.00  0.00     0.008 A 
HETATM   20  C11 UNL     1      66.502  11.600  24.424  1.00  0.00     0.024 A 
ENDBRANCH  11  14
ENDBRANCH   1  11
TORSDOF 2
ENDMDL
