MODEL 19
REMARK VINA RESULT: -8.031771191      1.771      2.430
REMARK  2 active torsions:
REMARK  status: ('A' for Active; 'I' for Inactive)
REMARK    1  A    between atoms: C5_5  and  S1_6 
REMARK    2  A    between atoms: S1_6  and  C6_9 
ROOT
HETATM    1  C6  UNL     1      64.778   9.992  23.915  1.00  0.00     0.137 A 
HETATM    2  C7  UNL     1      64.570   8.769  23.314  1.00  0.00     0.067 A 
HETATM    3  C8  UNL     1      65.461   8.257  22.375  1.00  0.00     0.010 A 
HETATM    4  C9  UNL     1      65.235   6.938  21.725  1.00  0.00     0.068 C 
HETATM    5  N1  UNL     1      66.530   9.020  22.092  1.00  0.00    -0.334 N 
ATOM      6  H1  UNL     1      67.197   8.665  21.407  1.00  0.00     0.168 HD
HETATM    7  C10 UNL     1      66.782  10.219  22.649  1.00  0.00     0.193 A 
HETATM    8  N2  UNL     1      67.935  10.977  22.304  1.00  0.00    -0.063 NA
HETATM    9  N3  UNL     1      65.881  10.667  23.555  1.00  0.00    -0.321 N 
ATOM     10  H3  UNL     1      66.051  11.574  23.991  1.00  0.00     0.169 HD
ENDROOT
BRANCH   1  11
HETATM   11  S1  UNL     1      63.651  10.631  25.098  1.00  0.00     0.222 S 
HETATM   12  O1  UNL     1      64.264  10.528  26.456  1.00  0.00    -0.216 OA
HETATM   13  O2  UNL     1      62.397   9.796  25.006  1.00  0.00    -0.216 OA
BRANCH  11  14
HETATM   14  C5  UNL     1      63.242  12.283  24.770  1.00  0.00     0.065 A 
HETATM   15  C4  UNL     1      64.110  13.332  25.027  1.00  0.00     0.024 A 
HETATM   16  C3  UNL     1      63.700  14.630  24.733  1.00  0.00     0.008 A 
HETATM   17  C2  UNL     1      62.467  14.916  24.196  1.00  0.00    -0.062 A 
HETATM   18  C1  UNL     1      62.071  16.321  23.897  1.00  0.00     0.048 C 
HETATM   19  C12 UNL     1      61.604  13.871  23.940  1.00  0.00     0.008 A 
HETATM   20  C11 UNL     1      62.004  12.565  24.231  1.00  0.00     0.024 A 
ENDBRANCH  11  14
ENDBRANCH   1  11
TORSDOF 2
ENDMDL
