MODEL 15
REMARK VINA RESULT: -8.137989194      0.998      1.494
REMARK  2 active torsions:
REMARK  status: ('A' for Active; 'I' for Inactive)
REMARK    1  A    between atoms: C5_5  and  S1_6 
REMARK    2  A    between atoms: S1_6  and  C6_9 
ROOT
HETATM    1  C6  UNL     1      65.155  10.353  24.771  1.00  0.00     0.137 A 
HETATM    2  C7  UNL     1      65.337   9.502  23.701  1.00  0.00     0.067 A 
HETATM    3  C8  UNL     1      66.608   9.174  23.238  1.00  0.00     0.010 A 
HETATM    4  C9  UNL     1      66.804   8.258  22.084  1.00  0.00     0.068 C 
HETATM    5  N1  UNL     1      67.641   9.731  23.893  1.00  0.00    -0.334 N 
ATOM      6  H1  UNL     1      68.582   9.504  23.573  1.00  0.00     0.168 HD
HETATM    7  C10 UNL     1      67.520  10.566  24.942  1.00  0.00     0.193 A 
HETATM    8  N2  UNL     1      68.656  11.122  25.591  1.00  0.00    -0.063 NA
HETATM    9  N3  UNL     1      66.259  10.850  25.348  1.00  0.00    -0.321 N 
ATOM     10  H3  UNL     1      66.143  11.480  26.141  1.00  0.00     0.169 HD
ENDROOT
BRANCH   1  11
HETATM   11  S1  UNL     1      63.549  10.762  25.348  1.00  0.00     0.222 S 
HETATM   12  O1  UNL     1      63.504  10.573  26.829  1.00  0.00    -0.216 OA
HETATM   13  O2  UNL     1      62.583   9.832  24.654  1.00  0.00    -0.216 OA
BRANCH  11  14
HETATM   14  C5  UNL     1      63.122  12.396  24.958  1.00  0.00     0.065 A 
HETATM   15  C4  UNL     1      64.035  13.437  25.004  1.00  0.00     0.024 A 
HETATM   16  C3  UNL     1      63.606  14.720  24.674  1.00  0.00     0.008 A 
HETATM   17  C2  UNL     1      62.312  14.999  24.305  1.00  0.00    -0.062 A 
HETATM   18  C1  UNL     1      61.899  16.389  23.960  1.00  0.00     0.048 C 
HETATM   19  C12 UNL     1      61.404  13.962  24.258  1.00  0.00     0.008 A 
HETATM   20  C11 UNL     1      61.822  12.671  24.586  1.00  0.00     0.024 A 
ENDBRANCH  11  14
ENDBRANCH   1  11
TORSDOF 2
ENDMDL
