MODEL 20
REMARK VINA RESULT: -7.903736537      3.952      5.287
REMARK  2 active torsions:
REMARK  status: ('A' for Active; 'I' for Inactive)
REMARK    1  A    between atoms: C5_5  and  S1_6 
REMARK    2  A    between atoms: S1_6  and  C6_9 
ROOT
HETATM    1  C6  UNL     1      61.943   9.705  25.454  1.00  0.00     0.137 A 
HETATM    2  C7  UNL     1      61.781   8.509  24.788  1.00  0.00     0.067 A 
HETATM    3  C8  UNL     1      60.656   7.713  24.982  1.00  0.00     0.010 A 
HETATM    4  C9  UNL     1      60.481   6.422  24.263  1.00  0.00     0.068 C 
HETATM    5  N1  UNL     1      59.741   8.177  25.850  1.00  0.00    -0.334 N 
ATOM      6  H1  UNL     1      58.907   7.612  26.007  1.00  0.00     0.168 HD
HETATM    7  C10 UNL     1      59.849   9.337  26.526  1.00  0.00     0.193 A 
HETATM    8  N2  UNL     1      58.843   9.770  27.432  1.00  0.00    -0.063 NA
HETATM    9  N3  UNL     1      60.965  10.069  26.298  1.00  0.00    -0.321 N 
ATOM     10  H3  UNL     1      61.068  10.952  26.799  1.00  0.00     0.169 HD
ENDROOT
BRANCH   1  11
HETATM   11  S1  UNL     1      63.365  10.702  25.205  1.00  0.00     0.222 S 
HETATM   12  O1  UNL     1      64.181  10.113  24.102  1.00  0.00    -0.216 OA
HETATM   13  O2  UNL     1      64.132  10.707  26.505  1.00  0.00    -0.216 OA
BRANCH  11  14
HETATM   14  C5  UNL     1      62.942  12.335  24.805  1.00  0.00     0.065 A 
HETATM   15  C4  UNL     1      61.705  12.681  24.287  1.00  0.00     0.024 A 
HETATM   16  C3  UNL     1      61.450  14.018  23.994  1.00  0.00     0.008 A 
HETATM   17  C2  UNL     1      62.376  15.013  24.197  1.00  0.00    -0.062 A 
HETATM   18  C1  UNL     1      62.058  16.432  23.869  1.00  0.00     0.048 C 
HETATM   19  C12 UNL     1      63.608  14.668  24.714  1.00  0.00     0.008 A 
HETATM   20  C11 UNL     1      63.875  13.331  25.012  1.00  0.00     0.024 A 
ENDBRANCH  11  14
ENDBRANCH   1  11
TORSDOF 2
ENDMDL
