MODEL 3
REMARK VINA RESULT: -8.720612974      0.117      1.123
REMARK  2 active torsions:
REMARK  status: ('A' for Active; 'I' for Inactive)
REMARK    1  A    between atoms: C5_5  and  S1_6 
REMARK    2  A    between atoms: S1_6  and  C6_9 
ROOT
HETATM    1  C6  UNL     1      65.906  10.984  24.693  1.00  0.00     0.137 A 
HETATM    2  C7  UNL     1      66.323  10.624  23.429  1.00  0.00     0.067 A 
HETATM    3  C8  UNL     1      67.670  10.626  23.078  1.00  0.00     0.010 A 
HETATM    4  C9  UNL     1      68.121  10.238  21.715  1.00  0.00     0.068 C 
HETATM    5  N1  UNL     1      68.534  10.995  24.039  1.00  0.00    -0.334 N 
ATOM      6  H1  UNL     1      69.527  11.002  23.805  1.00  0.00     0.168 HD
HETATM    7  C10 UNL     1      68.181  11.355  25.287  1.00  0.00     0.193 A 
HETATM    8  N2  UNL     1      69.148  11.736  26.258  1.00  0.00    -0.063 NA
HETATM    9  N3  UNL     1      66.857  11.335  25.571  1.00  0.00    -0.321 N 
ATOM     10  H3  UNL     1      66.566  11.604  26.511  1.00  0.00     0.169 HD
ENDROOT
BRANCH   1  11
HETATM   11  S1  UNL     1      64.206  10.980  25.127  1.00  0.00     0.222 S 
HETATM   12  O1  UNL     1      64.078  10.657  26.579  1.00  0.00    -0.216 OA
HETATM   13  O2  UNL     1      63.537   9.926  24.277  1.00  0.00    -0.216 OA
BRANCH  11  14
HETATM   14  C5  UNL     1      63.456  12.509  24.805  1.00  0.00     0.065 A 
HETATM   15  C4  UNL     1      64.130  13.713  24.932  1.00  0.00     0.024 A 
HETATM   16  C3  UNL     1      63.450  14.895  24.653  1.00  0.00     0.008 A 
HETATM   17  C2  UNL     1      62.135  14.920  24.256  1.00  0.00    -0.062 A 
HETATM   18  C1  UNL     1      61.448  16.211  23.968  1.00  0.00     0.048 C 
HETATM   19  C12 UNL     1      61.465  13.722  24.128  1.00  0.00     0.008 A 
HETATM   20  C11 UNL     1      62.135  12.529  24.405  1.00  0.00     0.024 A 
ENDBRANCH  11  14
ENDBRANCH   1  11
TORSDOF 2
ENDMDL
