MODEL 13
REMARK VINA RESULT: -8.258522074      2.897      6.124
REMARK  2 active torsions:
REMARK  status: ('A' for Active; 'I' for Inactive)
REMARK    1  A    between atoms: C5_5  and  S1_6 
REMARK    2  A    between atoms: S1_6  and  C6_9 
ROOT
HETATM    1  C6  UNL     1      62.951  12.581  25.309  1.00  0.00     0.137 A 
HETATM    2  C7  UNL     1      63.174  13.856  24.835  1.00  0.00     0.067 A 
HETATM    3  C8  UNL     1      62.133  14.650  24.362  1.00  0.00     0.010 A 
HETATM    4  C9  UNL     1      62.374  16.026  23.850  1.00  0.00     0.068 C 
HETATM    5  N1  UNL     1      60.906  14.105  24.397  1.00  0.00    -0.334 N 
ATOM      6  H1  UNL     1      60.127  14.669  24.057  1.00  0.00     0.168 HD
HETATM    7  C10 UNL     1      60.632  12.866  24.849  1.00  0.00     0.193 A 
HETATM    8  N2  UNL     1      59.309  12.348  24.858  1.00  0.00    -0.063 NA
HETATM    9  N3  UNL     1      61.684  12.139  25.296  1.00  0.00    -0.321 N 
ATOM     10  H3  UNL     1      61.501  11.198  25.643  1.00  0.00     0.169 HD
ENDROOT
BRANCH   1  11
HETATM   11  S1  UNL     1      64.269  11.586  25.902  1.00  0.00     0.222 S 
HETATM   12  O1  UNL     1      63.699  10.384  26.583  1.00  0.00    -0.216 OA
HETATM   13  O2  UNL     1      65.058  12.433  26.870  1.00  0.00    -0.216 OA
BRANCH  11  14
HETATM   14  C5  UNL     1      65.321  11.081  24.621  1.00  0.00     0.065 A 
HETATM   15  C4  UNL     1      66.583  11.622  24.434  1.00  0.00     0.024 A 
HETATM   16  C3  UNL     1      67.362  11.158  23.377  1.00  0.00     0.008 A 
HETATM   17  C2  UNL     1      66.932  10.183  22.509  1.00  0.00    -0.062 A 
HETATM   18  C1  UNL     1      67.802   9.717  21.392  1.00  0.00     0.048 C 
HETATM   19  C12 UNL     1      65.676   9.644  22.697  1.00  0.00     0.008 A 
HETATM   20  C11 UNL     1      64.885  10.101  23.752  1.00  0.00     0.024 A 
ENDBRANCH  11  14
ENDBRANCH   1  11
TORSDOF 2
ENDMDL
