MODEL 1
REMARK VINA RESULT: -8.816051641      0.000      0.000
REMARK  2 active torsions:
REMARK  status: ('A' for Active; 'I' for Inactive)
REMARK    1  A    between atoms: C5_5  and  S1_6 
REMARK    2  A    between atoms: S1_6  and  C6_9 
ROOT
HETATM    1  C6  UNL     1      65.854  10.933  24.708  1.00  0.00     0.137 A 
HETATM    2  C7  UNL     1      66.264  10.561  23.445  1.00  0.00     0.067 A 
HETATM    3  C8  UNL     1      67.609  10.556  23.088  1.00  0.00     0.010 A 
HETATM    4  C9  UNL     1      68.051  10.156  21.724  1.00  0.00     0.068 C 
HETATM    5  N1  UNL     1      68.480  10.930  24.040  1.00  0.00    -0.334 N 
ATOM      6  H1  UNL     1      69.471  10.932  23.802  1.00  0.00     0.168 HD
HETATM    7  C10 UNL     1      68.134  11.301  25.288  1.00  0.00     0.193 A 
HETATM    8  N2  UNL     1      69.107  11.686  26.250  1.00  0.00    -0.063 NA
HETATM    9  N3  UNL     1      66.812  11.287  25.579  1.00  0.00    -0.321 N 
ATOM     10  H3  UNL     1      66.526  11.564  26.518  1.00  0.00     0.169 HD
ENDROOT
BRANCH   1  11
HETATM   11  S1  UNL     1      64.157  10.937  25.151  1.00  0.00     0.222 S 
HETATM   12  O1  UNL     1      64.037  10.644  26.611  1.00  0.00    -0.216 OA
HETATM   13  O2  UNL     1      63.484   9.867  24.326  1.00  0.00    -0.216 OA
BRANCH  11  14
HETATM   14  C5  UNL     1      63.405  12.460  24.802  1.00  0.00     0.065 A 
HETATM   15  C4  UNL     1      62.087  12.565  24.389  1.00  0.00     0.024 A 
HETATM   16  C3  UNL     1      61.564  13.829  24.130  1.00  0.00     0.008 A 
HETATM   17  C2  UNL     1      62.302  14.981  24.267  1.00  0.00    -0.062 A 
HETATM   18  C1  UNL     1      61.699  16.313  23.979  1.00  0.00     0.048 C 
HETATM   19  C12 UNL     1      63.614  14.875  24.679  1.00  0.00     0.008 A 
HETATM   20  C11 UNL     1      64.150  13.613  24.942  1.00  0.00     0.024 A 
ENDBRANCH  11  14
ENDBRANCH   1  11
TORSDOF 2
ENDMDL
