MODEL 7
REMARK VINA RESULT: -8.226585781      3.465      6.544
REMARK  1 active torsions:
REMARK  status: ('A' for Active; 'I' for Inactive)
REMARK    1  A    between atoms: C4_4  and  C5_5 
ROOT
HETATM    1  C5  UNL     1       0.061   9.283   0.452  1.00  0.00     0.002 A 
HETATM    2  C6  UNL     1       0.945   8.208   0.288  1.00  0.00     0.015 A 
HETATM    3  C7  UNL     1       2.296   8.345   0.251  1.00  0.00     0.011 A 
HETATM    4  C8  UNL     1       2.827   9.613   0.384  1.00  0.00    -0.023 A 
HETATM    5  C9  UNL     1       1.987  10.686   0.547  1.00  0.00    -0.008 A 
HETATM    6  C10 UNL     1       2.547  11.937   0.670  1.00  0.00    -0.023 A 
HETATM    7  C11 UNL     1       1.735  13.014   0.826  1.00  0.00     0.010 A 
HETATM    8  C12 UNL     1       0.373  12.886   0.863  1.00  0.00     0.002 A 
HETATM    9  C13 UNL     1      -0.220  11.629   0.740  1.00  0.00     0.013 A 
HETATM   10  C14 UNL     1       0.590  10.534   0.583  1.00  0.00    -0.012 A 
HETATM   11  C15 UNL     1       4.018  12.086   0.615  1.00  0.00     0.207 C 
HETATM   12  O1  UNL     1       4.574  11.056  -0.142  1.00  0.00    -0.382 OA
HETATM   13  C16 UNL     1       4.284   9.826   0.370  1.00  0.00     0.207 C 
ENDROOT
BRANCH   1  14
HETATM   14  C4  UNL     1      -1.370   9.042   0.457  1.00  0.00     0.047 A 
HETATM   15  C3  UNL     1      -2.124   9.579   1.493  1.00  0.00     0.055 A 
HETATM   16  C2  UNL     1      -3.510   9.386   1.601  1.00  0.00     0.010 A 
HETATM   17  C1  UNL     1      -4.295   9.984   2.739  1.00  0.00     0.068 C 
HETATM   18  N3  UNL     1      -4.102   8.651   0.655  1.00  0.00    -0.334 N 
HETATM   19  C17 UNL     1      -3.400   8.119  -0.355  1.00  0.00     0.193 A 
ATOM     20  H3  UNL     1      -5.108   8.491   0.703  1.00  0.00     0.168 HD
HETATM   21  N1  UNL     1      -2.092   8.344  -0.394  1.00  0.00    -0.330 N 
HETATM   22  N2  UNL     1      -4.061   7.323  -1.374  1.00  0.00    -0.063 NA
ATOM     23  H1  UNL     1      -1.587   7.927  -1.177  1.00  0.00     0.168 HD
ENDBRANCH   1  14
TORSDOF 1
ENDMDL
