MODEL 6
REMARK VINA RESULT: -8.228310147      0.825      1.830
REMARK  1 active torsions:
REMARK  status: ('A' for Active; 'I' for Inactive)
REMARK    1  A    between atoms: C4_4  and  C5_5 
ROOT
HETATM    1  C5  UNL     1       1.065  10.577   0.759  1.00  0.00     0.002 A 
HETATM    2  C6  UNL     1       0.258  11.720   0.839  1.00  0.00     0.015 A 
HETATM    3  C7  UNL     1      -1.092  11.680   0.971  1.00  0.00     0.011 A 
HETATM    4  C8  UNL     1      -1.705  10.443   1.030  1.00  0.00    -0.023 A 
HETATM    5  C9  UNL     1      -0.942   9.305   0.954  1.00  0.00    -0.008 A 
HETATM    6  C10 UNL     1      -1.583   8.088   1.009  1.00  0.00    -0.023 A 
HETATM    7  C11 UNL     1      -0.849   6.948   0.931  1.00  0.00     0.010 A 
HETATM    8  C12 UNL     1       0.512   6.980   0.797  1.00  0.00     0.002 A 
HETATM    9  C13 UNL     1       1.186   8.200   0.738  1.00  0.00     0.013 A 
HETATM   10  C14 UNL     1       0.455   9.357   0.818  1.00  0.00    -0.012 A 
HETATM   11  C15 UNL     1      -3.056   8.045   1.138  1.00  0.00     0.207 C 
HETATM   12  O1  UNL     1      -3.618   9.195   0.586  1.00  0.00    -0.382 OA
HETATM   13  C16 UNL     1      -3.165  10.331   1.189  1.00  0.00     0.207 C 
ENDROOT
BRANCH   1  14
HETATM   14  C4  UNL     1       2.500  10.720   0.597  1.00  0.00     0.047 A 
HETATM   15  C3  UNL     1       3.058  10.401  -0.635  1.00  0.00     0.055 A 
HETATM   16  C2  UNL     1       4.435  10.484  -0.888  1.00  0.00     0.010 A 
HETATM   17  C1  UNL     1       5.005  10.130  -2.237  1.00  0.00     0.068 C 
HETATM   18  N3  UNL     1       5.220  10.888   0.116  1.00  0.00    -0.334 N 
HETATM   19  C17 UNL     1       4.710  11.202   1.316  1.00  0.00     0.193 A 
ATOM     20  H3  UNL     1       6.226  10.960  -0.034  1.00  0.00     0.168 HD
HETATM   21  N1  UNL     1       3.397  11.101   1.482  1.00  0.00    -0.330 N 
HETATM   22  N2  UNL     1       5.578  11.639   2.394  1.00  0.00    -0.063 NA
ATOM     23  H1  UNL     1       3.040  11.347   2.406  1.00  0.00     0.168 HD
ENDBRANCH   1  14
TORSDOF 1
ENDMDL
