MODEL 3
REMARK VINA RESULT: -8.317726668      3.357      4.821
REMARK  1 active torsions:
REMARK  status: ('A' for Active; 'I' for Inactive)
REMARK    1  A    between atoms: C4_4  and  C5_5 
ROOT
HETATM    1  C5  UNL     1       3.210   9.129  -0.969  1.00  0.00     0.002 A 
HETATM    2  C6  UNL     1       3.575   9.303  -2.311  1.00  0.00     0.015 A 
HETATM    3  C7  UNL     1       3.513   8.316  -3.241  1.00  0.00     0.011 A 
HETATM    4  C8  UNL     1       3.063   7.072  -2.842  1.00  0.00    -0.023 A 
HETATM    5  C9  UNL     1       2.699   6.871  -1.534  1.00  0.00    -0.008 A 
HETATM    6  C10 UNL     1       2.262   5.618  -1.167  1.00  0.00    -0.023 A 
HETATM    7  C11 UNL     1       1.901   5.394   0.122  1.00  0.00     0.010 A 
HETATM    8  C12 UNL     1       1.962   6.382   1.066  1.00  0.00     0.002 A 
HETATM    9  C13 UNL     1       2.402   7.660   0.721  1.00  0.00     0.013 A 
HETATM   10  C14 UNL     1       2.767   7.899  -0.579  1.00  0.00    -0.012 A 
HETATM   11  C15 UNL     1       2.208   4.540  -2.178  1.00  0.00     0.207 C 
HETATM   12  O1  UNL     1       3.154   4.771  -3.175  1.00  0.00    -0.382 OA
HETATM   13  C16 UNL     1       2.956   5.963  -3.806  1.00  0.00     0.207 C 
ENDROOT
BRANCH   1  14
HETATM   14  C4  UNL     1       3.332  10.239  -0.041  1.00  0.00     0.047 A 
HETATM   15  C3  UNL     1       2.354  11.226  -0.064  1.00  0.00     0.055 A 
HETATM   16  C2  UNL     1       2.391  12.349   0.775  1.00  0.00     0.010 A 
HETATM   17  C1  UNL     1       1.313  13.400   0.723  1.00  0.00     0.068 C 
HETATM   18  N3  UNL     1       3.422  12.449   1.621  1.00  0.00    -0.334 N 
HETATM   19  C17 UNL     1       4.380  11.513   1.665  1.00  0.00     0.193 A 
ATOM     20  H3  UNL     1       3.479  13.253   2.246  1.00  0.00     0.168 HD
HETATM   21  N1  UNL     1       4.279  10.476   0.842  1.00  0.00    -0.330 N 
HETATM   22  N2  UNL     1       5.492  11.639   2.590  1.00  0.00    -0.063 NA
ATOM     23  H1  UNL     1       5.024   9.781   0.900  1.00  0.00     0.168 HD
ENDBRANCH   1  14
TORSDOF 1
ENDMDL
