MODEL 5
REMARK VINA RESULT: -8.248267761      3.544      6.813
REMARK  1 active torsions:
REMARK  status: ('A' for Active; 'I' for Inactive)
REMARK    1  A    between atoms: C4_4  and  C5_5 
ROOT
HETATM    1  C5  UNL     1      -0.097   9.254   0.697  1.00  0.00     0.002 A 
HETATM    2  C6  UNL     1       0.710   8.127   0.494  1.00  0.00     0.015 A 
HETATM    3  C7  UNL     1       2.055   8.187   0.317  1.00  0.00     0.011 A 
HETATM    4  C8  UNL     1       2.660   9.429   0.339  1.00  0.00    -0.023 A 
HETATM    5  C9  UNL     1       1.896  10.552   0.536  1.00  0.00    -0.008 A 
HETATM    6  C10 UNL     1       2.529  11.775   0.546  1.00  0.00    -0.023 A 
HETATM    7  C11 UNL     1       1.792  12.900   0.734  1.00  0.00     0.010 A 
HETATM    8  C12 UNL     1       0.437  12.848   0.912  1.00  0.00     0.002 A 
HETATM    9  C13 UNL     1      -0.228  11.622   0.906  1.00  0.00     0.013 A 
HETATM   10  C14 UNL     1       0.505  10.479   0.719  1.00  0.00    -0.012 A 
HETATM   11  C15 UNL     1       3.992  11.840   0.338  1.00  0.00     0.207 C 
HETATM   12  O1  UNL     1       4.416  10.752  -0.423  1.00  0.00    -0.382 OA
HETATM   13  C16 UNL     1       4.118   9.561   0.170  1.00  0.00     0.207 C 
ENDROOT
BRANCH   1  14
HETATM   14  C4  UNL     1      -1.530   9.092   0.855  1.00  0.00     0.047 A 
HETATM   15  C3  UNL     1      -2.223   8.379  -0.116  1.00  0.00     0.055 A 
HETATM   16  C2  UNL     1      -3.612   8.185  -0.067  1.00  0.00     0.010 A 
HETATM   17  C1  UNL     1      -4.330   7.405  -1.137  1.00  0.00     0.068 C 
HETATM   18  N3  UNL     1      -4.270   8.719   0.967  1.00  0.00    -0.334 N 
HETATM   19  C17 UNL     1      -3.629   9.413   1.917  1.00  0.00     0.193 A 
ATOM     20  H3  UNL     1      -5.280   8.597   1.033  1.00  0.00     0.168 HD
HETATM   21  N1  UNL     1      -2.313   9.556   1.807  1.00  0.00    -0.330 N 
HETATM   22  N2  UNL     1      -4.361   9.987   3.032  1.00  0.00    -0.063 NA
ATOM     23  H1  UNL     1      -1.855  10.088   2.547  1.00  0.00     0.168 HD
ENDBRANCH   1  14
TORSDOF 1
ENDMDL
