MODEL 6
REMARK VINA RESULT: -6.372623998      2.173      3.460
REMARK  1 active torsions:
REMARK  status: ('A' for Active; 'I' for Inactive)
REMARK    1  A    between atoms: S1_2  and  C2_3 
ROOT
HETATM    1  C2  UNL     1      11.343   4.292  15.069  1.00  0.00     0.147 A 
HETATM    2  N1  UNL     1      10.348   4.867  14.369  1.00  0.00    -0.311 N 
ATOM      3  H1  UNL     1      10.294   5.885  14.323  1.00  0.00     0.170 HD
HETATM    4  C3  UNL     1       9.413   4.121  13.722  1.00  0.00     0.195 A 
HETATM    5  N2  UNL     1       8.376   4.766  12.992  1.00  0.00    -0.063 NA
HETATM    6  N3  UNL     1       9.518   2.785  13.808  1.00  0.00    -0.316 N 
ATOM      7  H3  UNL     1       8.824   2.213  13.328  1.00  0.00     0.170 HD
HETATM    8  C4  UNL     1      10.506   2.156  14.503  1.00  0.00     0.121 A 
HETATM    9  C5  UNL     1      10.592   0.714  14.576  1.00  0.00     0.030 A 
HETATM   10  C6  UNL     1      11.610   0.136  15.293  1.00  0.00     0.017 A 
HETATM   11  C7  UNL     1      11.724  -1.241  15.385  1.00  0.00     0.001 A 
HETATM   12  C8  UNL     1      10.812  -2.045  14.755  1.00  0.00     0.002 A 
HETATM   13  C9  UNL     1       9.787  -1.487  14.034  1.00  0.00     0.025 A 
HETATM   14  C10 UNL     1       9.681  -0.097  13.947  1.00  0.00     0.048 A 
HETATM   15 CL1  UNL     1       8.347   0.534  13.010  1.00  0.00    -0.083 Cl
HETATM   16  N4  UNL     1      11.386   2.970  15.111  1.00  0.00    -0.322 N 
ATOM     17  H4  UNL     1      12.142   2.539  15.643  1.00  0.00     0.169 HD
ENDROOT
BRANCH   1  18
HETATM   18  S1  UNL     1      12.568   5.277  15.915  1.00  0.00    -0.098 SA
HETATM   19  C1  UNL     1      13.700   4.283  16.877  1.00  0.00     0.099 C 
ENDBRANCH   1  18
TORSDOF 1
ENDMDL
