MODEL 13
REMARK VINA RESULT: -6.239305045      3.231      4.542
REMARK  1 active torsions:
REMARK  status: ('A' for Active; 'I' for Inactive)
REMARK    1  A    between atoms: S1_2  and  C2_3 
ROOT
HETATM    1  C2  UNL     1       9.249   3.179  13.092  1.00  0.00     0.147 A 
HETATM    2  N1  UNL     1       9.671   3.999  12.113  1.00  0.00    -0.311 N 
ATOM      3  H1  UNL     1       9.189   3.992  11.214  1.00  0.00     0.170 HD
HETATM    4  C3  UNL     1      10.726   4.838  12.295  1.00  0.00     0.195 A 
HETATM    5  N2  UNL     1      11.142   5.691  11.235  1.00  0.00    -0.063 NA
HETATM    6  N3  UNL     1      11.334   4.817  13.492  1.00  0.00    -0.316 N 
ATOM      7  H3  UNL     1      12.128   5.440  13.643  1.00  0.00     0.170 HD
HETATM    8  C4  UNL     1      10.946   4.005  14.514  1.00  0.00     0.121 A 
HETATM    9  C5  UNL     1      11.622   4.006  15.793  1.00  0.00     0.030 A 
HETATM   10  C6  UNL     1      11.186   3.165  16.786  1.00  0.00     0.017 A 
HETATM   11  C7  UNL     1      11.809   3.140  18.023  1.00  0.00     0.001 A 
HETATM   12  C8  UNL     1      12.878   3.961  18.266  1.00  0.00     0.002 A 
HETATM   13  C9  UNL     1      13.330   4.808  17.286  1.00  0.00     0.025 A 
HETATM   14  C10 UNL     1      12.694   4.827  16.043  1.00  0.00     0.048 A 
HETATM   15 CL1  UNL     1      13.330   5.935  14.849  1.00  0.00    -0.083 Cl
HETATM   16  N4  UNL     1       9.895   3.210  14.247  1.00  0.00    -0.322 N 
ATOM     17  H4  UNL     1       9.573   2.586  14.986  1.00  0.00     0.169 HD
ENDROOT
BRANCH   1  18
HETATM   18  S1  UNL     1       7.863   2.081  12.847  1.00  0.00    -0.098 SA
HETATM   19  C1  UNL     1       8.256   0.711  11.769  1.00  0.00     0.099 C 
ENDBRANCH   1  18
TORSDOF 1
ENDMDL
