MODEL 11
REMARK VINA RESULT: -6.253010878      2.829      3.793
REMARK  1 active torsions:
REMARK  status: ('A' for Active; 'I' for Inactive)
REMARK    1  A    between atoms: S1_2  and  C2_3 
ROOT
HETATM    1  C2  UNL     1      12.415   4.229  12.925  1.00  0.00     0.147 A 
HETATM    2  N1  UNL     1      11.317   4.934  12.602  1.00  0.00    -0.311 N 
ATOM      3  H1  UNL     1      11.416   5.905  12.305  1.00  0.00     0.170 HD
HETATM    4  C3  UNL     1      10.075   4.382  12.665  1.00  0.00     0.195 A 
HETATM    5  N2  UNL     1       8.937   5.161  12.315  1.00  0.00    -0.063 NA
HETATM    6  N3  UNL     1       9.986   3.103  13.062  1.00  0.00    -0.316 N 
ATOM      7  H3  UNL     1       9.061   2.675  13.115  1.00  0.00     0.170 HD
HETATM    8  C4  UNL     1      11.067   2.347  13.400  1.00  0.00     0.121 A 
HETATM    9  C5  UNL     1      10.938   0.970  13.824  1.00  0.00     0.030 A 
HETATM   10  C6  UNL     1      12.065   0.258  14.152  1.00  0.00     0.017 A 
HETATM   11  C7  UNL     1      11.978  -1.062  14.562  1.00  0.00     0.001 A 
HETATM   12  C8  UNL     1      10.756  -1.673  14.645  1.00  0.00     0.002 A 
HETATM   13  C9  UNL     1       9.617  -0.978  14.322  1.00  0.00     0.025 A 
HETATM   14  C10 UNL     1       9.715   0.352  13.909  1.00  0.00     0.048 A 
HETATM   15 CL1  UNL     1       8.219   1.167  13.516  1.00  0.00    -0.083 Cl
HETATM   16  N4  UNL     1      12.254   2.972  13.308  1.00  0.00    -0.322 N 
ATOM     17  H4  UNL     1      13.089   2.441  13.553  1.00  0.00     0.169 HD
ENDROOT
BRANCH   1  18
HETATM   18  S1  UNL     1      14.043   4.959  12.840  1.00  0.00    -0.098 SA
HETATM   19  C1  UNL     1      15.342   3.733  12.804  1.00  0.00     0.099 C 
ENDBRANCH   1  18
TORSDOF 1
ENDMDL
