MODEL 7
REMARK VINA RESULT: -6.365454882      3.049      5.312
REMARK  1 active torsions:
REMARK  status: ('A' for Active; 'I' for Inactive)
REMARK    1  A    between atoms: S1_2  and  C2_3 
ROOT
HETATM    1  C2  UNL     1      11.030  -0.544  14.366  1.00  0.00     0.147 A 
HETATM    2  N1  UNL     1      12.294  -0.086  14.334  1.00  0.00    -0.311 N 
ATOM      3  H1  UNL     1      13.062  -0.724  14.542  1.00  0.00     0.170 HD
HETATM    4  C3  UNL     1      12.571   1.211  14.030  1.00  0.00     0.195 A 
HETATM    5  N2  UNL     1      13.921   1.659  14.007  1.00  0.00    -0.063 NA
HETATM    6  N3  UNL     1      11.533   2.020  13.764  1.00  0.00    -0.316 N 
ATOM      7  H3  UNL     1      11.725   2.996  13.535  1.00  0.00     0.170 HD
HETATM    8  C4  UNL     1      10.236   1.604  13.783  1.00  0.00     0.121 A 
HETATM    9  C5  UNL     1       9.139   2.501  13.490  1.00  0.00     0.030 A 
HETATM   10  C6  UNL     1       7.852   2.024  13.526  1.00  0.00     0.017 A 
HETATM   11  C7  UNL     1       6.778   2.854  13.251  1.00  0.00     0.001 A 
HETATM   12  C8  UNL     1       6.994   4.169  12.940  1.00  0.00     0.002 A 
HETATM   13  C9  UNL     1       8.273   4.665  12.900  1.00  0.00     0.025 A 
HETATM   14  C10 UNL     1       9.349   3.820  13.178  1.00  0.00     0.048 A 
HETATM   15 CL1  UNL     1      10.945   4.529  13.105  1.00  0.00    -0.083 Cl
HETATM   16  N4  UNL     1      10.055   0.308  14.092  1.00  0.00    -0.322 N 
ATOM     17  H4  UNL     1       9.098  -0.043  14.118  1.00  0.00     0.169 HD
ENDROOT
BRANCH   1  18
HETATM   18  S1  UNL     1      10.673  -2.248  14.763  1.00  0.00    -0.098 SA
HETATM   19  C1  UNL     1      11.268  -2.712  16.383  1.00  0.00     0.099 C 
ENDBRANCH   1  18
TORSDOF 1
ENDMDL
