MODEL 4
REMARK VINA RESULT: -6.388128113      3.320      4.932
REMARK  1 active torsions:
REMARK  status: ('A' for Active; 'I' for Inactive)
REMARK    1  A    between atoms: S1_2  and  C2_3 
ROOT
HETATM    1  C2  UNL     1      11.603  -1.069  16.571  1.00  0.00     0.147 A 
HETATM    2  N1  UNL     1      12.073  -0.056  17.320  1.00  0.00    -0.311 N 
ATOM      3  H1  UNL     1      12.650  -0.264  18.135  1.00  0.00     0.170 HD
HETATM    4  C3  UNL     1      11.796   1.240  17.014  1.00  0.00     0.195 A 
HETATM    5  N2  UNL     1      12.312   2.284  17.832  1.00  0.00    -0.063 NA
HETATM    6  N3  UNL     1      11.032   1.472  15.935  1.00  0.00    -0.316 N 
ATOM      7  H3  UNL     1      10.815   2.440  15.694  1.00  0.00     0.170 HD
HETATM    8  C4  UNL     1      10.532   0.482  15.145  1.00  0.00     0.121 A 
HETATM    9  C5  UNL     1       9.712   0.765  13.987  1.00  0.00     0.030 A 
HETATM   10  C6  UNL     1       9.235  -0.275  13.229  1.00  0.00     0.017 A 
HETATM   11  C7  UNL     1       8.448  -0.041  12.115  1.00  0.00     0.001 A 
HETATM   12  C8  UNL     1       8.134   1.243  11.757  1.00  0.00     0.002 A 
HETATM   13  C9  UNL     1       8.600   2.297  12.503  1.00  0.00     0.025 A 
HETATM   14  C10 UNL     1       9.394   2.050  13.624  1.00  0.00     0.048 A 
HETATM   15 CL1  UNL     1       9.948   3.446  14.519  1.00  0.00    -0.083 Cl
HETATM   16  N4  UNL     1      10.856  -0.768  15.520  1.00  0.00    -0.322 N 
ATOM     17  H4  UNL     1      10.501  -1.539  14.955  1.00  0.00     0.169 HD
ENDROOT
BRANCH   1  18
HETATM   18  S1  UNL     1      11.971  -2.769  16.976  1.00  0.00    -0.098 SA
HETATM   19  C1  UNL     1      10.503  -3.716  17.353  1.00  0.00     0.099 C 
ENDBRANCH   1  18
TORSDOF 1
ENDMDL
