MODEL 3
REMARK VINA RESULT: -7.616099774      0.916      1.382
REMARK  5 active torsions:
REMARK  status: ('A' for Active; 'I' for Inactive)
REMARK    1  A    between atoms: N1_1  and  S1_4 
REMARK    2  A    between atoms: S1_4  and  C1_7 
REMARK    3  A    between atoms: C5_13  and  C6_14 
REMARK       I    between atoms: C6_14  and  N3_16 
REMARK    4  A    between atoms: N3_16  and  N4_18 
REMARK    5  A    between atoms: C7_21  and  C8_22 
ROOT
HETATM    1  C1  UNL     1      -5.224   3.448  15.365  1.00  0.00     0.080 A 
HETATM    2  C2  UNL     1      -5.289   4.805  15.460  1.00  0.00     0.027 A 
HETATM    3  C3  UNL     1      -4.911   5.652  14.447  1.00  0.00     0.032 A 
HETATM    4  C4  UNL     1      -4.444   5.057  13.273  1.00  0.00     0.044 A 
HETATM    5  N2  UNL     1      -4.020   5.563  12.137  1.00  0.00    -0.350 N 
ATOM      6  H2  UNL     1      -3.960   6.559  11.928  1.00  0.00     0.166 HD
HETATM    7  C5  UNL     1      -3.672   4.559  11.276  1.00  0.00     0.115 A 
HETATM    8  C7  UNL     1      -3.884   3.364  11.900  1.00  0.00     0.019 A 
HETATM    9  C14 UNL     1      -4.374   3.697  13.165  1.00  0.00     0.006 A 
HETATM   10  C15 UNL     1      -4.759   2.887  14.196  1.00  0.00     0.040 A 
ENDROOT
BRANCH   7  11
HETATM   11  C6  UNL     1      -3.151   4.796   9.922  1.00  0.00     0.287 C 
HETATM   12  O3  UNL     1      -1.904   4.696   9.707  1.00  0.00    -0.264 OA
HETATM   13  N3  UNL     1      -3.946   5.140   8.803  1.00  0.00    -0.271 N 
ATOM     14  H3  UNL     1      -4.955   5.242   8.911  1.00  0.00     0.189 HD
BRANCH  13  15
HETATM   15  N4  UNL     1      -3.343   5.345   7.525  1.00  0.00    -0.342 N 
ATOM     16  H42 UNL     1      -2.331   5.453   7.470  1.00  0.00     0.176 HD
ATOM     17  H41 UNL     1      -3.918   5.382   6.683  1.00  0.00     0.176 HD
ENDBRANCH  13  15
ENDBRANCH   7  11
BRANCH   8  18
HETATM   18  C8  UNL     1      -3.643   2.008  11.427  1.00  0.00    -0.023 A 
HETATM   19  C9  UNL     1      -2.335   1.587  11.251  1.00  0.00     0.012 A 
HETATM   20  C10 UNL     1      -2.052   0.292  10.826  1.00  0.00     0.001 A 
HETATM   21  C11 UNL     1      -3.066  -0.598  10.573  1.00  0.00     0.000 A 
HETATM   22  C12 UNL     1      -4.365  -0.183  10.748  1.00  0.00     0.001 A 
HETATM   23  C13 UNL     1      -4.659   1.122  11.176  1.00  0.00     0.012 A 
ENDBRANCH   8  18
BRANCH   1  24
HETATM   24  S1  UNL     1      -5.737   2.451  16.706  1.00  0.00     0.256 S 
HETATM   25  O1  UNL     1      -4.597   1.687  17.269  1.00  0.00    -0.201 OA
HETATM   26  O2  UNL     1      -6.789   1.472  16.276  1.00  0.00    -0.201 OA
BRANCH  24  27
HETATM   27  N1  UNL     1      -6.468   3.485  17.918  1.00  0.00    -0.324 N 
ATOM     28  H12 UNL     1      -6.064   3.646  18.840  1.00  0.00     0.169 HD
ATOM     29  H11 UNL     1      -7.337   3.895  17.577  1.00  0.00     0.169 HD
ENDBRANCH  24  27
ENDBRANCH   1  24
TORSDOF 5
ENDMDL
