MODEL 6
REMARK VINA RESULT: -7.140302080      2.917      6.014
REMARK  5 active torsions:
REMARK  status: ('A' for Active; 'I' for Inactive)
REMARK    1  A    between atoms: N1_1  and  S1_4 
REMARK    2  A    between atoms: S1_4  and  C1_7 
REMARK    3  A    between atoms: C5_13  and  C6_14 
REMARK       I    between atoms: C6_14  and  N3_16 
REMARK    4  A    between atoms: N3_16  and  N4_18 
REMARK    5  A    between atoms: C7_21  and  C8_22 
ROOT
HETATM    1  C1  UNL     1      -4.540   6.211  10.012  1.00  0.00     0.080 A 
HETATM    2  C2  UNL     1      -4.977   7.127  10.921  1.00  0.00     0.027 A 
HETATM    3  C3  UNL     1      -5.124   6.853  12.258  1.00  0.00     0.032 A 
HETATM    4  C4  UNL     1      -4.798   5.560  12.674  1.00  0.00     0.044 A 
HETATM    5  N2  UNL     1      -4.816   4.984  13.854  1.00  0.00    -0.350 N 
ATOM      6  H2  UNL     1      -5.103   5.436  14.722  1.00  0.00     0.166 HD
HETATM    7  C5  UNL     1      -4.393   3.687  13.750  1.00  0.00     0.115 A 
HETATM    8  C7  UNL     1      -4.097   3.435  12.442  1.00  0.00     0.019 A 
HETATM    9  C14 UNL     1      -4.357   4.633  11.773  1.00  0.00     0.006 A 
HETATM   10  C15 UNL     1      -4.225   4.944  10.449  1.00  0.00     0.040 A 
ENDROOT
BRANCH   7  11
HETATM   11  C6  UNL     1      -4.306   2.768  14.894  1.00  0.00     0.287 C 
HETATM   12  O3  UNL     1      -3.966   3.219  16.031  1.00  0.00    -0.264 OA
HETATM   13  N3  UNL     1      -4.576   1.381  14.835  1.00  0.00    -0.271 N 
ATOM     14  H3  UNL     1      -4.850   0.956  13.949  1.00  0.00     0.189 HD
BRANCH  13  15
HETATM   15  N4  UNL     1      -4.469   0.573  16.008  1.00  0.00    -0.342 N 
ATOM     16  H42 UNL     1      -4.809   0.946  16.894  1.00  0.00     0.176 HD
ATOM     17  H41 UNL     1      -4.059  -0.359  15.957  1.00  0.00     0.176 HD
ENDBRANCH  13  15
ENDBRANCH   7  11
BRANCH   8  18
HETATM   18  C8  UNL     1      -3.639   2.206  11.808  1.00  0.00    -0.023 A 
HETATM   19  C9  UNL     1      -4.581   1.269  11.418  1.00  0.00     0.012 A 
HETATM   20  C10 UNL     1      -4.197   0.090  10.784  1.00  0.00     0.001 A 
HETATM   21  C11 UNL     1      -2.872  -0.168  10.532  1.00  0.00     0.000 A 
HETATM   22  C12 UNL     1      -1.936   0.761  10.919  1.00  0.00     0.001 A 
HETATM   23  C13 UNL     1      -2.316   1.952  11.559  1.00  0.00     0.012 A 
ENDBRANCH   8  18
BRANCH   1  24
HETATM   24  S1  UNL     1      -4.376   6.656   8.330  1.00  0.00     0.256 S 
HETATM   25  O1  UNL     1      -3.615   7.921   8.185  1.00  0.00    -0.201 OA
HETATM   26  O2  UNL     1      -5.720   6.842   7.690  1.00  0.00    -0.201 OA
BRANCH  24  27
HETATM   27  N1  UNL     1      -3.586   5.340   7.484  1.00  0.00    -0.324 N 
ATOM     28  H12 UNL     1      -4.021   4.433   7.320  1.00  0.00     0.169 HD
ATOM     29  H11 UNL     1      -2.648   5.606   7.184  1.00  0.00     0.169 HD
ENDBRANCH  24  27
ENDBRANCH   1  24
TORSDOF 5
ENDMDL
