MODEL 4
REMARK VINA RESULT: -7.410096491      3.490      5.777
REMARK  5 active torsions:
REMARK  status: ('A' for Active; 'I' for Inactive)
REMARK    1  A    between atoms: N1_1  and  S1_4 
REMARK    2  A    between atoms: S1_4  and  C1_7 
REMARK    3  A    between atoms: C5_13  and  C6_14 
REMARK       I    between atoms: C6_14  and  N3_16 
REMARK    4  A    between atoms: N3_16  and  N4_18 
REMARK    5  A    between atoms: C7_21  and  C8_22 
ROOT
HETATM    1  C1  UNL     1      -2.759   1.385  11.106  1.00  0.00     0.080 A 
HETATM    2  C2  UNL     1      -1.551   1.516  10.490  1.00  0.00     0.027 A 
HETATM    3  C3  UNL     1      -0.759   2.631  10.610  1.00  0.00     0.032 A 
HETATM    4  C4  UNL     1      -1.246   3.664  11.414  1.00  0.00     0.044 A 
HETATM    5  N2  UNL     1      -0.749   4.835  11.740  1.00  0.00    -0.350 N 
ATOM      6  H2  UNL     1       0.147   5.200  11.420  1.00  0.00     0.166 HD
HETATM    7  C5  UNL     1      -1.611   5.495  12.573  1.00  0.00     0.115 A 
HETATM    8  C7  UNL     1      -2.703   4.703  12.778  1.00  0.00     0.019 A 
HETATM    9  C14 UNL     1      -2.456   3.545  12.038  1.00  0.00     0.006 A 
HETATM   10  C15 UNL     1      -3.216   2.419  11.893  1.00  0.00     0.040 A 
ENDROOT
BRANCH   7  11
HETATM   11  C6  UNL     1      -1.349   6.838  13.111  1.00  0.00     0.287 C 
HETATM   12  O3  UNL     1      -0.927   7.750  12.334  1.00  0.00    -0.264 OA
HETATM   13  N3  UNL     1      -1.530   7.212  14.463  1.00  0.00    -0.271 N 
ATOM     14  H3  UNL     1      -1.861   6.525  15.139  1.00  0.00     0.189 HD
BRANCH  13  15
HETATM   15  N4  UNL     1      -1.251   8.548  14.886  1.00  0.00    -0.342 N 
ATOM     16  H42 UNL     1      -1.152   9.277  14.180  1.00  0.00     0.176 HD
ATOM     17  H41 UNL     1      -1.154   8.766  15.878  1.00  0.00     0.176 HD
ENDBRANCH  13  15
ENDBRANCH   7  11
BRANCH   8  18
HETATM   18  C8  UNL     1      -3.908   4.958  13.555  1.00  0.00    -0.023 A 
HETATM   19  C9  UNL     1      -4.969   5.605  12.944  1.00  0.00     0.012 A 
HETATM   20  C10 UNL     1      -6.152   5.848  13.636  1.00  0.00     0.001 A 
HETATM   21  C11 UNL     1      -6.294   5.449  14.942  1.00  0.00     0.000 A 
HETATM   22  C12 UNL     1      -5.242   4.804  15.550  1.00  0.00     0.001 A 
HETATM   23  C13 UNL     1      -4.044   4.557  14.859  1.00  0.00     0.012 A 
ENDBRANCH   8  18
BRANCH   1  24
HETATM   24  S1  UNL     1      -3.693  -0.078  10.901  1.00  0.00     0.256 S 
HETATM   25  O1  UNL     1      -4.540  -0.004   9.686  1.00  0.00    -0.201 OA
HETATM   26  O2  UNL     1      -4.587  -0.314  12.082  1.00  0.00    -0.201 OA
BRANCH  24  27
HETATM   27  N1  UNL     1      -2.586  -1.435  10.820  1.00  0.00    -0.324 N 
ATOM     28  H12 UNL     1      -2.392  -2.052  11.608  1.00  0.00     0.169 HD
ATOM     29  H11 UNL     1      -2.173  -1.518   9.891  1.00  0.00     0.169 HD
ENDBRANCH  24  27
ENDBRANCH   1  24
TORSDOF 5
ENDMDL
