MODEL 2
REMARK VINA RESULT: -8.855821395      0.459      1.083
REMARK  5 active torsions:
REMARK  status: ('A' for Active; 'I' for Inactive)
REMARK    1  A    between atoms: N1_1  and  S1_4 
REMARK    2  A    between atoms: S1_4  and  C1_7 
REMARK    3  A    between atoms: C5_13  and  C6_14 
REMARK       I    between atoms: C6_14  and  N3_16 
REMARK    4  A    between atoms: N3_16  and  N4_18 
REMARK    5  A    between atoms: C7_21  and  C8_22 
ROOT
HETATM    1  C1  UNL     1      -5.487   2.750  15.837  1.00  0.00     0.080 A 
HETATM    2  C2  UNL     1      -5.953   3.990  16.150  1.00  0.00     0.027 A 
HETATM    3  C3  UNL     1      -5.867   5.066  15.301  1.00  0.00     0.032 A 
HETATM    4  C4  UNL     1      -5.266   4.840  14.060  1.00  0.00     0.044 A 
HETATM    5  N2  UNL     1      -5.036   5.629  13.036  1.00  0.00    -0.350 N 
ATOM      6  H2  UNL     1      -5.281   6.618  12.993  1.00  0.00     0.166 HD
HETATM    7  C5  UNL     1      -4.420   4.931  12.033  1.00  0.00     0.115 A 
HETATM    8  C7  UNL     1      -4.252   3.642  12.447  1.00  0.00     0.019 A 
HETATM    9  C14 UNL     1      -4.795   3.600  13.734  1.00  0.00     0.006 A 
HETATM   10  C15 UNL     1      -4.899   2.554  14.607  1.00  0.00     0.040 A 
ENDROOT
BRANCH   7  11
HETATM   11  C6  UNL     1      -4.022   5.533  10.753  1.00  0.00     0.287 C 
HETATM   12  O3  UNL     1      -3.142   6.449  10.741  1.00  0.00    -0.264 OA
HETATM   13  N3  UNL     1      -4.552   5.169   9.493  1.00  0.00    -0.271 N 
ATOM     14  H3  UNL     1      -5.266   4.444   9.434  1.00  0.00     0.189 HD
BRANCH  13  15
HETATM   15  N4  UNL     1      -4.093   5.812   8.303  1.00  0.00    -0.342 N 
ATOM     16  H42 UNL     1      -3.780   6.781   8.357  1.00  0.00     0.176 HD
ATOM     17  H41 UNL     1      -4.079   5.308   7.416  1.00  0.00     0.176 HD
ENDBRANCH  13  15
ENDBRANCH   7  11
BRANCH   8  18
HETATM   18  C8  UNL     1      -3.626   2.516  11.767  1.00  0.00    -0.023 A 
HETATM   19  C9  UNL     1      -2.244   2.478  11.679  1.00  0.00     0.012 A 
HETATM   20  C10 UNL     1      -1.597   1.412  11.062  1.00  0.00     0.001 A 
HETATM   21  C11 UNL     1      -2.316   0.372  10.527  1.00  0.00     0.000 A 
HETATM   22  C12 UNL     1      -3.687   0.408  10.615  1.00  0.00     0.001 A 
HETATM   23  C13 UNL     1      -4.348   1.480  11.235  1.00  0.00     0.012 A 
ENDBRANCH   8  18
BRANCH   1  24
HETATM   24  S1  UNL     1      -5.651   1.438  16.980  1.00  0.00     0.256 S 
HETATM   25  O1  UNL     1      -4.441   0.581  16.987  1.00  0.00    -0.201 OA
HETATM   26  O2  UNL     1      -6.833   0.578  16.645  1.00  0.00    -0.201 OA
BRANCH  24  27
HETATM   27  N1  UNL     1      -5.952   2.121  18.567  1.00  0.00    -0.324 N 
ATOM     28  H12 UNL     1      -5.440   1.847  19.405  1.00  0.00     0.169 HD
ATOM     29  H11 UNL     1      -6.697   2.816  18.534  1.00  0.00     0.169 HD
ENDBRANCH  24  27
ENDBRANCH   1  24
TORSDOF 5
ENDMDL
