MODEL 5
REMARK VINA RESULT: -7.342809114      3.615      5.829
REMARK  5 active torsions:
REMARK  status: ('A' for Active; 'I' for Inactive)
REMARK    1  A    between atoms: N1_1  and  S1_4 
REMARK    2  A    between atoms: S1_4  and  C1_7 
REMARK    3  A    between atoms: C5_13  and  C6_14 
REMARK       I    between atoms: C6_14  and  N3_16 
REMARK    4  A    between atoms: N3_16  and  N4_18 
REMARK    5  A    between atoms: C7_21  and  C8_22 
ROOT
HETATM    1  C1  UNL     1      -2.775   1.741  11.468  1.00  0.00     0.080 A 
HETATM    2  C2  UNL     1      -1.417   1.702  11.388  1.00  0.00     0.027 A 
HETATM    3  C3  UNL     1      -0.609   2.758  11.731  1.00  0.00     0.032 A 
HETATM    4  C4  UNL     1      -1.247   3.915  12.185  1.00  0.00     0.044 A 
HETATM    5  N2  UNL     1      -0.784   5.075  12.592  1.00  0.00    -0.350 N 
ATOM      6  H2  UNL     1       0.203   5.327  12.637  1.00  0.00     0.166 HD
HETATM    7  C5  UNL     1      -1.819   5.895  12.949  1.00  0.00     0.115 A 
HETATM    8  C7  UNL     1      -2.989   5.221  12.755  1.00  0.00     0.019 A 
HETATM    9  C14 UNL     1      -2.609   3.967  12.272  1.00  0.00     0.006 A 
HETATM   10  C15 UNL     1      -3.379   2.894  11.919  1.00  0.00     0.040 A 
ENDROOT
BRANCH   7  11
HETATM   11  C6  UNL     1      -1.632   7.268  13.441  1.00  0.00     0.287 C 
HETATM   12  O3  UNL     1      -1.354   8.193  12.617  1.00  0.00    -0.264 OA
HETATM   13  N3  UNL     1      -1.737   7.658  14.797  1.00  0.00    -0.271 N 
ATOM     14  H3  UNL     1      -1.953   6.961  15.509  1.00  0.00     0.189 HD
BRANCH  13  15
HETATM   15  N4  UNL     1      -1.543   9.022  15.173  1.00  0.00    -0.342 N 
ATOM     16  H42 UNL     1      -2.314   9.679  15.054  1.00  0.00     0.176 HD
ATOM     17  H41 UNL     1      -0.648   9.331  15.553  1.00  0.00     0.176 HD
ENDBRANCH  13  15
ENDBRANCH   7  11
BRANCH   8  18
HETATM   18  C8  UNL     1      -4.363   5.660  12.954  1.00  0.00    -0.023 A 
HETATM   19  C9  UNL     1      -4.911   6.558  12.054  1.00  0.00     0.012 A 
HETATM   20  C10 UNL     1      -6.229   6.988  12.185  1.00  0.00     0.001 A 
HETATM   21  C11 UNL     1      -7.015   6.528  13.211  1.00  0.00     0.000 A 
HETATM   22  C12 UNL     1      -6.473   5.635  14.105  1.00  0.00     0.001 A 
HETATM   23  C13 UNL     1      -5.145   5.197  13.980  1.00  0.00     0.012 A 
ENDBRANCH   8  18
BRANCH   1  24
HETATM   24  S1  UNL     1      -3.720   0.342  11.017  1.00  0.00     0.256 S 
HETATM   25  O1  UNL     1      -4.527   0.612   9.803  1.00  0.00    -0.201 OA
HETATM   26  O2  UNL     1      -4.654  -0.055  12.122  1.00  0.00    -0.201 OA
BRANCH  24  27
HETATM   27  N1  UNL     1      -2.628  -1.006  10.765  1.00  0.00    -0.324 N 
ATOM     28  H12 UNL     1      -1.872  -1.000  10.080  1.00  0.00     0.169 HD
ATOM     29  H11 UNL     1      -2.851  -1.782  11.388  1.00  0.00     0.169 HD
ENDBRANCH  24  27
ENDBRANCH   1  24
TORSDOF 5
ENDMDL
