MODEL 1
REMARK VINA RESULT: -9.129717751      0.000      0.000
REMARK  5 active torsions:
REMARK  status: ('A' for Active; 'I' for Inactive)
REMARK    1  A    between atoms: N1_1  and  S1_4 
REMARK    2  A    between atoms: S1_4  and  C1_7 
REMARK    3  A    between atoms: C5_13  and  C6_14 
REMARK       I    between atoms: C6_14  and  N3_16 
REMARK    4  A    between atoms: N3_16  and  N4_18 
REMARK    5  A    between atoms: C7_21  and  C8_22 
ROOT
HETATM    1  C1  UNL     1      -5.565   2.674  15.868  1.00  0.00     0.080 A 
HETATM    2  C2  UNL     1      -5.930   3.961  16.123  1.00  0.00     0.027 A 
HETATM    3  C3  UNL     1      -5.754   4.987  15.227  1.00  0.00     0.032 A 
HETATM    4  C4  UNL     1      -5.170   4.658  14.002  1.00  0.00     0.044 A 
HETATM    5  N2  UNL     1      -4.874   5.379  12.945  1.00  0.00    -0.350 N 
ATOM      6  H2  UNL     1      -5.038   6.382  12.857  1.00  0.00     0.166 HD
HETATM    7  C5  UNL     1      -4.314   4.589  11.979  1.00  0.00     0.115 A 
HETATM    8  C7  UNL     1      -4.252   3.310  12.451  1.00  0.00     0.019 A 
HETATM    9  C14 UNL     1      -4.800   3.370  13.734  1.00  0.00     0.006 A 
HETATM   10  C15 UNL     1      -4.991   2.377  14.652  1.00  0.00     0.040 A 
ENDROOT
BRANCH   7  11
HETATM   11  C6  UNL     1      -3.864   5.099  10.675  1.00  0.00     0.287 C 
HETATM   12  O3  UNL     1      -2.633   5.348  10.494  1.00  0.00    -0.264 OA
HETATM   13  N3  UNL     1      -4.713   5.346   9.571  1.00  0.00    -0.271 N 
ATOM     14  H3  UNL     1      -5.715   5.171   9.653  1.00  0.00     0.189 HD
BRANCH  13  15
HETATM   15  N4  UNL     1      -4.176   5.837   8.342  1.00  0.00    -0.342 N 
ATOM     16  H42 UNL     1      -4.544   5.471   7.464  1.00  0.00     0.176 HD
ATOM     17  H41 UNL     1      -3.438   6.541   8.346  1.00  0.00     0.176 HD
ENDBRANCH  13  15
ENDBRANCH   7  11
BRANCH   8  18
HETATM   18  C8  UNL     1      -3.717   2.109  11.825  1.00  0.00    -0.023 A 
HETATM   19  C9  UNL     1      -4.597   1.108  11.447  1.00  0.00     0.012 A 
HETATM   20  C10 UNL     1      -4.139  -0.047  10.821  1.00  0.00     0.001 A 
HETATM   21  C11 UNL     1      -2.801  -0.220  10.565  1.00  0.00     0.000 A 
HETATM   22  C12 UNL     1      -1.927   0.772  10.939  1.00  0.00     0.001 A 
HETATM   23  C13 UNL     1      -2.381   1.941  11.571  1.00  0.00     0.012 A 
ENDBRANCH   8  18
BRANCH   1  24
HETATM   24  S1  UNL     1      -5.839   1.433  17.068  1.00  0.00     0.256 S 
HETATM   25  O1  UNL     1      -4.687   0.502  17.145  1.00  0.00    -0.201 OA
HETATM   26  O2  UNL     1      -7.066   0.634  16.744  1.00  0.00    -0.201 OA
BRANCH  24  27
HETATM   27  N1  UNL     1      -6.129   2.210  18.613  1.00  0.00    -0.324 N 
ATOM     28  H12 UNL     1      -5.401   2.374  19.307  1.00  0.00     0.169 HD
ATOM     29  H11 UNL     1      -7.110   2.468  18.716  1.00  0.00     0.169 HD
ENDBRANCH  24  27
ENDBRANCH   1  24
TORSDOF 5
ENDMDL
