MODEL 5
REMARK VINA RESULT: -8.523183351      1.326      5.216
REMARK  3 active torsions:
REMARK  status: ('A' for Active; 'I' for Inactive)
REMARK    1  A    between atoms: C1_2  and  C2_4 
REMARK    2  A    between atoms: C7_9  and  N1_10 
REMARK    3  A    between atoms: N1_10  and  C8_12 
ROOT
HETATM    1  C2  UNL     1      39.727  -0.001  91.992  1.00  0.00     0.067 A 
HETATM    2  C3  UNL     1      39.510  -1.377  92.169  1.00  0.00     0.021 A 
HETATM    3  C4  UNL     1      40.546  -2.245  92.403  1.00  0.00     0.001 A 
HETATM    4  C5  UNL     1      41.841  -1.786  92.472  1.00  0.00     0.002 A 
HETATM    5  C6  UNL     1      42.046  -0.437  92.298  1.00  0.00     0.030 A 
HETATM    6  C7  UNL     1      41.015   0.480  92.057  1.00  0.00     0.045 A 
ENDROOT
BRANCH   6   7
HETATM    7  N1  UNL     1      41.326   1.869  91.909  1.00  0.00    -0.384 N 
ATOM      8  H1  UNL     1      41.196   2.343  91.015  1.00  0.00     0.160 HD
BRANCH   7   9
HETATM    9  C8  UNL     1      41.836   2.590  93.080  1.00  0.00     0.081 C 
HETATM   10  C9  UNL     1      43.282   2.967  92.950  1.00  0.00     0.025 C 
HETATM   11  C10 UNL     1      43.336   4.481  92.700  1.00  0.00     0.002 C 
HETATM   12  C11 UNL     1      42.900   5.172  93.966  1.00  0.00     0.000 C 
HETATM   13  C12 UNL     1      41.580   4.637  94.438  1.00  0.00     0.002 C 
HETATM   14  C13 UNL     1      40.967   3.807  93.352  1.00  0.00     0.025 C 
ENDBRANCH   7   9
ENDBRANCH   6   7
BRANCH   1  15
HETATM   15  C1  UNL     1      38.596   0.872  91.739  1.00  0.00     0.211 C 
HETATM   16  O1  UNL     1      37.887   0.638  90.691  1.00  0.00    -0.644 OA
HETATM   17  O2  UNL     1      38.163   1.939  92.474  1.00  0.00    -0.644 OA
ENDBRANCH   1  15
TORSDOF 3
ENDMDL
