MODEL 6
REMARK VINA RESULT: -8.433160303      2.458      5.671
REMARK  3 active torsions:
REMARK  status: ('A' for Active; 'I' for Inactive)
REMARK    1  A    between atoms: C1_2  and  C2_4 
REMARK    2  A    between atoms: C7_9  and  N1_10 
REMARK    3  A    between atoms: N1_10  and  C8_12 
ROOT
HETATM    1  C2  UNL     1      40.937  -0.556  92.252  1.00  0.00     0.067 A 
HETATM    2  C3  UNL     1      40.081  -1.339  91.461  1.00  0.00     0.021 A 
HETATM    3  C4  UNL     1      38.884  -0.857  90.998  1.00  0.00     0.001 A 
HETATM    4  C5  UNL     1      38.483   0.424  91.299  1.00  0.00     0.002 A 
HETATM    5  C6  UNL     1      39.326   1.187  92.073  1.00  0.00     0.030 A 
HETATM    6  C7  UNL     1      40.556   0.730  92.565  1.00  0.00     0.045 A 
ENDROOT
BRANCH   6   7
HETATM    7  N1  UNL     1      41.374   1.605  93.346  1.00  0.00    -0.384 N 
ATOM      8  H1  UNL     1      41.664   1.349  94.290  1.00  0.00     0.160 HD
BRANCH   7   9
HETATM    9  C8  UNL     1      41.784   2.881  92.750  1.00  0.00     0.081 C 
HETATM   10  C9  UNL     1      41.322   4.070  93.539  1.00  0.00     0.025 C 
HETATM   11  C10 UNL     1      42.553   4.653  94.247  1.00  0.00     0.002 C 
HETATM   12  C11 UNL     1      43.449   5.251  93.192  1.00  0.00     0.000 C 
HETATM   13  C12 UNL     1      43.732   4.256  92.106  1.00  0.00     0.002 C 
HETATM   14  C13 UNL     1      43.291   2.897  92.555  1.00  0.00     0.025 C 
ENDBRANCH   7   9
ENDBRANCH   6   7
BRANCH   1  15
HETATM   15  C1  UNL     1      42.189  -1.119  92.721  1.00  0.00     0.211 C 
HETATM   16  O1  UNL     1      42.173  -2.336  93.139  1.00  0.00    -0.644 OA
HETATM   17  O2  UNL     1      43.417  -0.526  92.787  1.00  0.00    -0.644 OA
ENDBRANCH   1  15
TORSDOF 3
ENDMDL
