MODEL 1
REMARK VINA RESULT: -9.231658248      0.000      0.000
REMARK  3 active torsions:
REMARK  status: ('A' for Active; 'I' for Inactive)
REMARK    1  A    between atoms: C1_2  and  C2_4 
REMARK    2  A    between atoms: C7_9  and  N1_10 
REMARK    3  A    between atoms: N1_10  and  C8_12 
ROOT
HETATM    1  C2  UNL     1      40.920   3.916  93.540  1.00  0.00     0.067 A 
HETATM    2  C3  UNL     1      41.732   4.894  94.136  1.00  0.00     0.021 A 
HETATM    3  C4  UNL     1      43.005   5.144  93.692  1.00  0.00     0.001 A 
HETATM    4  C5  UNL     1      43.528   4.435  92.635  1.00  0.00     0.002 A 
HETATM    5  C6  UNL     1      42.727   3.479  92.054  1.00  0.00     0.030 A 
HETATM    6  C7  UNL     1      41.423   3.195  92.480  1.00  0.00     0.045 A 
ENDROOT
BRANCH   6   7
HETATM    7  N1  UNL     1      40.660   2.195  91.799  1.00  0.00    -0.384 N 
ATOM      8  H1  UNL     1      40.268   2.373  90.874  1.00  0.00     0.160 HD
BRANCH   7   9
HETATM    9  C8  UNL     1      40.458   0.906  92.470  1.00  0.00     0.081 C 
HETATM   10  C9  UNL     1      39.093   0.331  92.233  1.00  0.00     0.025 C 
HETATM   11  C10 UNL     1      39.257  -0.844  91.258  1.00  0.00     0.002 C 
HETATM   12  C11 UNL     1      39.987  -1.945  91.983  1.00  0.00     0.000 C 
HETATM   13  C12 UNL     1      41.253  -1.429  92.600  1.00  0.00     0.002 C 
HETATM   14  C13 UNL     1      41.550  -0.067  92.053  1.00  0.00     0.025 C 
ENDBRANCH   7   9
ENDBRANCH   6   7
BRANCH   1  15
HETATM   15  C1  UNL     1      39.583   3.687  94.056  1.00  0.00     0.211 C 
HETATM   16  O1  UNL     1      38.603   3.773  93.226  1.00  0.00    -0.644 OA
HETATM   17  O2  UNL     1      39.204   3.385  95.333  1.00  0.00    -0.644 OA
ENDBRANCH   1  15
TORSDOF 3
ENDMDL
