MODEL 4
REMARK VINA RESULT: -8.569560394      0.919      1.210
REMARK  3 active torsions:
REMARK  status: ('A' for Active; 'I' for Inactive)
REMARK    1  A    between atoms: C1_2  and  C2_4 
REMARK    2  A    between atoms: C7_9  and  N1_10 
REMARK    3  A    between atoms: N1_10  and  C8_12 
ROOT
HETATM    1  C2  UNL     1      40.977   3.601  93.476  1.00  0.00     0.067 A 
HETATM    2  C3  UNL     1      41.588   4.692  94.114  1.00  0.00     0.021 A 
HETATM    3  C4  UNL     1      42.838   5.128  93.757  1.00  0.00     0.001 A 
HETATM    4  C5  UNL     1      43.537   4.500  92.751  1.00  0.00     0.002 A 
HETATM    5  C6  UNL     1      42.932   3.433  92.130  1.00  0.00     0.030 A 
HETATM    6  C7  UNL     1      41.657   2.958  92.466  1.00  0.00     0.045 A 
ENDROOT
BRANCH   6   7
HETATM    7  N1  UNL     1      41.103   1.852  91.748  1.00  0.00    -0.384 N 
ATOM      8  H1  UNL     1      40.447   2.000  90.980  1.00  0.00     0.160 HD
BRANCH   7   9
HETATM    9  C8  UNL     1      41.506   0.500  92.147  1.00  0.00     0.081 C 
HETATM   10  C9  UNL     1      40.339  -0.407  92.402  1.00  0.00     0.025 C 
HETATM   11  C10 UNL     1      40.259  -1.389  91.224  1.00  0.00     0.002 C 
HETATM   12  C11 UNL     1      41.450  -2.308  91.311  1.00  0.00     0.000 C 
HETATM   13  C12 UNL     1      42.723  -1.522  91.420  1.00  0.00     0.002 C 
HETATM   14  C13 UNL     1      42.445  -0.085  91.104  1.00  0.00     0.025 C 
ENDBRANCH   7   9
ENDBRANCH   6   7
BRANCH   1  15
HETATM   15  C1  UNL     1      39.655   3.177  93.899  1.00  0.00     0.211 C 
HETATM   16  O1  UNL     1      39.284   3.488  95.091  1.00  0.00    -0.644 OA
HETATM   17  O2  UNL     1      38.721   2.472  93.193  1.00  0.00    -0.644 OA
ENDBRANCH   1  15
TORSDOF 3
ENDMDL
