MODEL 11
REMARK VINA RESULT: -8.123085420      0.828      1.657
REMARK  3 active torsions:
REMARK  status: ('A' for Active; 'I' for Inactive)
REMARK    1  A    between atoms: C1_2  and  C2_4 
REMARK    2  A    between atoms: C7_9  and  N1_10 
REMARK    3  A    between atoms: N1_10  and  C8_12 
ROOT
HETATM    1  C2  UNL     1      41.108   3.949  93.941  1.00  0.00     0.067 A 
HETATM    2  C3  UNL     1      41.696   5.218  93.816  1.00  0.00     0.021 A 
HETATM    3  C4  UNL     1      42.933   5.387  93.249  1.00  0.00     0.001 A 
HETATM    4  C5  UNL     1      43.641   4.305  92.780  1.00  0.00     0.002 A 
HETATM    5  C6  UNL     1      43.059   3.064  92.905  1.00  0.00     0.030 A 
HETATM    6  C7  UNL     1      41.798   2.852  93.478  1.00  0.00     0.045 A 
ENDROOT
BRANCH   6   7
HETATM    7  N1  UNL     1      41.268   1.525  93.545  1.00  0.00    -0.384 N 
ATOM      8  H1  UNL     1      41.174   1.042  94.438  1.00  0.00     0.160 HD
BRANCH   7   9
HETATM    9  C8  UNL     1      40.862   0.881  92.291  1.00  0.00     0.081 C 
HETATM   10  C9  UNL     1      41.452  -0.487  92.118  1.00  0.00     0.025 C 
HETATM   11  C10 UNL     1      40.322  -1.502  92.347  1.00  0.00     0.002 C 
HETATM   12  C11 UNL     1      39.358  -1.382  91.195  1.00  0.00     0.000 C 
HETATM   13  C12 UNL     1      38.926   0.042  91.007  1.00  0.00     0.002 C 
HETATM   14  C13 UNL     1      39.344   0.847  92.199  1.00  0.00     0.025 C 
ENDBRANCH   7   9
ENDBRANCH   6   7
BRANCH   1  15
HETATM   15  C1  UNL     1      39.800   3.827  94.556  1.00  0.00     0.211 C 
HETATM   16  O1  UNL     1      39.734   3.246  95.703  1.00  0.00    -0.644 OA
HETATM   17  O2  UNL     1      38.592   4.250  94.079  1.00  0.00    -0.644 OA
ENDBRANCH   1  15
TORSDOF 3
ENDMDL
