MODEL 3
REMARK VINA RESULT: -8.652470943      2.776      5.921
REMARK  3 active torsions:
REMARK  status: ('A' for Active; 'I' for Inactive)
REMARK    1  A    between atoms: C1_2  and  C2_4 
REMARK    2  A    between atoms: C7_9  and  N1_10 
REMARK    3  A    between atoms: N1_10  and  C8_12 
ROOT
HETATM    1  C2  UNL     1      42.401  -0.811  92.025  1.00  0.00     0.067 A 
HETATM    2  C3  UNL     1      42.020  -2.160  92.110  1.00  0.00     0.021 A 
HETATM    3  C4  UNL     1      40.705  -2.532  92.227  1.00  0.00     0.001 A 
HETATM    4  C5  UNL     1      39.711  -1.582  92.264  1.00  0.00     0.002 A 
HETATM    5  C6  UNL     1      40.091  -0.262  92.179  1.00  0.00     0.030 A 
HETATM    6  C7  UNL     1      41.423   0.156  92.059  1.00  0.00     0.045 A 
ENDROOT
BRANCH   6   7
HETATM    7  N1  UNL     1      41.717   1.552  91.957  1.00  0.00    -0.384 N 
ATOM      8  H1  UNL     1      41.958   1.974  91.060  1.00  0.00     0.160 HD
BRANCH   7   9
HETATM    9  C8  UNL     1      41.663   2.359  93.181  1.00  0.00     0.081 C 
HETATM   10  C9  UNL     1      42.910   3.159  93.410  1.00  0.00     0.025 C 
HETATM   11  C10 UNL     1      42.574   4.625  93.103  1.00  0.00     0.002 C 
HETATM   12  C11 UNL     1      41.635   5.115  94.175  1.00  0.00     0.000 C 
HETATM   13  C12 UNL     1      40.460   4.193  94.317  1.00  0.00     0.002 C 
HETATM   14  C13 UNL     1      40.430   3.249  93.155  1.00  0.00     0.025 C 
ENDBRANCH   7   9
ENDBRANCH   6   7
BRANCH   1  15
HETATM   15  C1  UNL     1      43.808  -0.474  91.910  1.00  0.00     0.211 C 
HETATM   16  O1  UNL     1      44.358   0.126  92.907  1.00  0.00    -0.644 OA
HETATM   17  O2  UNL     1      44.656  -0.706  90.866  1.00  0.00    -0.644 OA
ENDBRANCH   1  15
TORSDOF 3
ENDMDL
