MODEL 1
REMARK VINA RESULT: -7.900117532      0.000      0.000
REMARK  10 active torsions:
REMARK  status: ('A' for Active; 'I' for Inactive)
REMARK       I    between atoms: C2_2  and  N1_4 
REMARK    1  A    between atoms: N1_4  and  C3_6 
REMARK    2  A    between atoms: C4_7  and  O2_8 
REMARK    3  A    between atoms: C6_11  and  O3_12 
REMARK    4  A    between atoms: C6_11  and  C7_14 
REMARK    5  A    between atoms: C8_18  and  C9_19 
REMARK    6  A    between atoms: C9_19  and  O7_20 
REMARK    7  A    between atoms: C9_19  and  C10_22 
REMARK    8  A    between atoms: C10_22  and  O8_23 
REMARK    9  A    between atoms: C10_22  and  C11_25 
REMARK   10  A    between atoms: C11_25  and  O9_26 
ROOT
HETATM    1  C3  UNL     1      10.452  -6.887 -13.311  1.00  0.00     0.145 C 
HETATM    2  C4  UNL     1      11.032  -8.047 -12.491  1.00  0.00     0.149 C 
HETATM    3  C5  UNL     1       9.933  -8.426 -11.502  1.00  0.00     0.114 C 
HETATM    4  C6  UNL     1       8.735  -8.856 -12.323  1.00  0.00     0.256 C 
HETATM    5  O6  UNL     1       8.289  -7.732 -13.041  1.00  0.00    -0.336 OA
HETATM    6  C8  UNL     1       9.240  -7.439 -13.992  1.00  0.00     0.182 C 
ENDROOT
BRANCH   6   7
HETATM    7  C9  UNL     1       8.679  -6.555 -15.061  1.00  0.00     0.180 C 
BRANCH   7   8
HETATM    8  O7  UNL     1       8.151  -5.384 -14.541  1.00  0.00    -0.390 OA
ATOM      9  H7  UNL     1       8.115  -4.691 -15.190  1.00  0.00     0.210 HD
ENDBRANCH   7   8
BRANCH   7  10
HETATM   10  C10 UNL     1       7.561  -7.341 -15.745  1.00  0.00     0.173 C 
BRANCH  10  11
HETATM   11  O8  UNL     1       8.027  -8.655 -15.918  1.00  0.00    -0.391 OA
ATOM     12  H8  UNL     1       8.243  -8.756 -16.837  1.00  0.00     0.210 HD
ENDBRANCH  10  11
BRANCH  10  13
HETATM   13  C11 UNL     1       7.279  -6.766 -17.114  1.00  0.00     0.198 C 
BRANCH  13  14
HETATM   14  O9  UNL     1       8.186  -5.724 -17.315  1.00  0.00    -0.398 OA
ATOM     15  H9  UNL     1       8.712  -5.954 -18.072  1.00  0.00     0.209 HD
ENDBRANCH  13  14
ENDBRANCH  10  13
ENDBRANCH   7  10
ENDBRANCH   6   7
BRANCH   1  16
HETATM   16  N1  UNL     1      11.428  -6.334 -14.211  1.00  0.00    -0.352 N 
HETATM   17  C2  UNL     1      12.282  -5.271 -13.810  1.00  0.00     0.214 C 
HETATM   18  C1  UNL     1      13.298  -4.684 -14.722  1.00  0.00     0.117 C 
HETATM   19  O1  UNL     1      12.203  -4.787 -12.652  1.00  0.00    -0.274 OA
ATOM     20  H1  UNL     1      11.509  -6.711 -15.155  1.00  0.00     0.163 HD
ENDBRANCH   1  16
BRANCH   2  21
HETATM   21  O2  UNL     1      12.205  -7.713 -11.871  1.00  0.00    -0.393 OA
ATOM     22  H2  UNL     1      12.492  -8.378 -11.255  1.00  0.00     0.210 HD
ENDBRANCH   2  21
BRANCH   4  23
HETATM   23  O3  UNL     1       9.146  -9.869 -13.190  1.00  0.00    -0.357 OA
ATOM     24  H3  UNL     1       8.534  -9.903 -13.915  1.00  0.00     0.213 HD
ENDBRANCH   4  23
BRANCH   4  25
HETATM   25  C7  UNL     1       7.703  -9.341 -11.389  1.00  0.00     0.238 C 
HETATM   26  O4  UNL     1       7.171  -8.517 -10.602  1.00  0.00    -0.644 OA
HETATM   27  O5  UNL     1       7.280 -10.653 -11.324  1.00  0.00    -0.644 OA
ENDBRANCH   4  25
TORSDOF 10
ENDMDL
