MODEL 7
REMARK VINA RESULT: -7.322764595      2.203      4.763
REMARK  10 active torsions:
REMARK  status: ('A' for Active; 'I' for Inactive)
REMARK       I    between atoms: C2_2  and  N1_4 
REMARK    1  A    between atoms: N1_4  and  C3_6 
REMARK    2  A    between atoms: C4_7  and  O2_8 
REMARK    3  A    between atoms: C6_11  and  O3_12 
REMARK    4  A    between atoms: C6_11  and  C7_14 
REMARK    5  A    between atoms: C8_18  and  C9_19 
REMARK    6  A    between atoms: C9_19  and  O7_20 
REMARK    7  A    between atoms: C9_19  and  C10_22 
REMARK    8  A    between atoms: C10_22  and  O8_23 
REMARK    9  A    between atoms: C10_22  and  C11_25 
REMARK   10  A    between atoms: C11_25  and  O9_26 
ROOT
HETATM    1  C3  UNL     1      10.569  -8.591 -12.417  1.00  0.00     0.145 C 
HETATM    2  C4  UNL     1       9.143  -9.023 -12.783  1.00  0.00     0.149 C 
HETATM    3  C5  UNL     1       8.229  -8.005 -12.105  1.00  0.00     0.114 C 
HETATM    4  C6  UNL     1       8.577  -6.650 -12.686  1.00  0.00     0.256 C 
HETATM    5  O6  UNL     1       9.898  -6.353 -12.305  1.00  0.00    -0.336 OA
HETATM    6  C8  UNL     1      10.733  -7.215 -12.981  1.00  0.00     0.182 C 
ENDROOT
BRANCH   6   7
HETATM    7  C9  UNL     1      12.142  -6.713 -12.979  1.00  0.00     0.180 C 
BRANCH   7   8
HETATM    8  O7  UNL     1      12.767  -6.926 -11.761  1.00  0.00    -0.390 OA
ATOM      9  H7  UNL     1      12.255  -6.588 -11.035  1.00  0.00     0.210 HD
ENDBRANCH   7   8
BRANCH   7  10
HETATM   10  C10 UNL     1      12.078  -5.209 -13.246  1.00  0.00     0.173 C 
BRANCH  10  11
HETATM   11  O8  UNL     1      11.741  -5.046 -14.600  1.00  0.00    -0.391 OA
ATOM     12  H8  UNL     1      10.914  -4.581 -14.627  1.00  0.00     0.210 HD
ENDBRANCH  10  11
BRANCH  10  13
HETATM   13  C11 UNL     1      13.434  -4.580 -13.027  1.00  0.00     0.198 C 
BRANCH  13  14
HETATM   14  O9  UNL     1      13.386  -3.924 -11.796  1.00  0.00    -0.398 OA
ATOM     15  H9  UNL     1      14.255  -3.982 -11.416  1.00  0.00     0.209 HD
ENDBRANCH  13  14
ENDBRANCH  10  13
ENDBRANCH   7  10
ENDBRANCH   6   7
BRANCH   1  16
HETATM   16  N1  UNL     1      11.547  -9.535 -12.884  1.00  0.00    -0.352 N 
HETATM   17  C2  UNL     1      12.037 -10.569 -12.041  1.00  0.00     0.214 C 
HETATM   18  C1  UNL     1      13.046 -11.556 -12.503  1.00  0.00     0.117 C 
HETATM   19  O1  UNL     1      11.624 -10.680 -10.858  1.00  0.00    -0.274 OA
ATOM     20  H1  UNL     1      11.895  -9.463 -13.840  1.00  0.00     0.163 HD
ENDBRANCH   1  16
BRANCH   2  21
HETATM   21  O2  UNL     1       8.872 -10.309 -12.401  1.00  0.00    -0.393 OA
ATOM     22  H2  UNL     1       8.076 -10.644 -12.795  1.00  0.00     0.210 HD
ENDBRANCH   2  21
BRANCH   4  23
HETATM   23  O3  UNL     1       8.467  -6.733 -14.074  1.00  0.00    -0.357 OA
ATOM     24  H3  UNL     1       8.045  -5.941 -14.384  1.00  0.00     0.213 HD
ENDBRANCH   4  23
BRANCH   4  25
HETATM   25  C7  UNL     1       7.626  -5.669 -12.134  1.00  0.00     0.238 C 
HETATM   26  O4  UNL     1       6.654  -5.310 -12.847  1.00  0.00    -0.644 OA
HETATM   27  O5  UNL     1       7.736  -5.113 -10.876  1.00  0.00    -0.644 OA
ENDBRANCH   4  25
TORSDOF 10
ENDMDL
