MODEL 3
REMARK VINA RESULT: -7.745665754      1.899      5.473
REMARK  10 active torsions:
REMARK  status: ('A' for Active; 'I' for Inactive)
REMARK       I    between atoms: C2_2  and  N1_4 
REMARK    1  A    between atoms: N1_4  and  C3_6 
REMARK    2  A    between atoms: C4_7  and  O2_8 
REMARK    3  A    between atoms: C6_11  and  O3_12 
REMARK    4  A    between atoms: C6_11  and  C7_14 
REMARK    5  A    between atoms: C8_18  and  C9_19 
REMARK    6  A    between atoms: C9_19  and  O7_20 
REMARK    7  A    between atoms: C9_19  and  C10_22 
REMARK    8  A    between atoms: C10_22  and  O8_23 
REMARK    9  A    between atoms: C10_22  and  C11_25 
REMARK   10  A    between atoms: C11_25  and  O9_26 
ROOT
HETATM    1  C3  UNL     1      10.666  -6.212 -13.912  1.00  0.00     0.145 C 
HETATM    2  C4  UNL     1      11.896  -5.814 -14.738  1.00  0.00     0.149 C 
HETATM    3  C5  UNL     1      12.695  -4.874 -13.839  1.00  0.00     0.114 C 
HETATM    4  C6  UNL     1      13.073  -5.666 -12.605  1.00  0.00     0.256 C 
HETATM    5  O6  UNL     1      11.884  -5.989 -11.928  1.00  0.00    -0.336 OA
HETATM    6  C8  UNL     1      11.200  -6.904 -12.697  1.00  0.00     0.182 C 
ENDROOT
BRANCH   6   7
HETATM    7  C9  UNL     1      10.163  -7.619 -11.890  1.00  0.00     0.180 C 
BRANCH   7   8
HETATM    8  O7  UNL     1       9.808  -6.909 -10.755  1.00  0.00    -0.390 OA
ATOM      9  H7  UNL     1       9.606  -7.482 -10.025  1.00  0.00     0.210 HD
ENDBRANCH   7   8
BRANCH   7  10
HETATM   10  C10 UNL     1      10.772  -8.955 -11.468  1.00  0.00     0.173 C 
BRANCH  10  11
HETATM   11  O8  UNL     1      12.110  -8.706 -11.118  1.00  0.00    -0.391 OA
ATOM     12  H8  UNL     1      12.222  -8.997 -10.221  1.00  0.00     0.210 HD
ENDBRANCH  10  11
BRANCH  10  13
HETATM   13  C11 UNL     1      10.770  -9.922 -12.629  1.00  0.00     0.198 C 
BRANCH  13  14
HETATM   14  O9  UNL     1       9.469  -9.950 -13.136  1.00  0.00    -0.398 OA
ATOM     15  H9  UNL     1       9.454 -10.603 -13.826  1.00  0.00     0.209 HD
ENDBRANCH  13  14
ENDBRANCH  10  13
ENDBRANCH   7  10
ENDBRANCH   6   7
BRANCH   1  16
HETATM   16  N1  UNL     1       9.745  -7.006 -14.680  1.00  0.00    -0.352 N 
HETATM   17  C2  UNL     1       8.366  -6.671 -14.754  1.00  0.00     0.214 C 
HETATM   18  C1  UNL     1       7.396  -7.475 -15.541  1.00  0.00     0.117 C 
HETATM   19  O1  UNL     1       7.916  -5.666 -14.145  1.00  0.00    -0.274 OA
ATOM     20  H1  UNL     1      10.088  -7.825 -15.181  1.00  0.00     0.163 HD
ENDBRANCH   1  16
BRANCH   2  21
HETATM   21  O2  UNL     1      11.559  -5.238 -15.933  1.00  0.00    -0.393 OA
ATOM     22  H2  UNL     1      12.061  -4.452 -16.111  1.00  0.00     0.210 HD
ENDBRANCH   2  21
BRANCH   4  23
HETATM   23  O3  UNL     1      13.740  -6.820 -13.019  1.00  0.00    -0.357 OA
ATOM     24  H3  UNL     1      13.207  -7.569 -12.781  1.00  0.00     0.213 HD
ENDBRANCH   4  23
BRANCH   4  25
HETATM   25  C7  UNL     1      13.948  -4.815 -11.777  1.00  0.00     0.238 C 
HETATM   26  O4  UNL     1      13.788  -3.568 -11.822  1.00  0.00    -0.644 OA
HETATM   27  O5  UNL     1      14.938  -5.304 -10.950  1.00  0.00    -0.644 OA
ENDBRANCH   4  25
TORSDOF 10
ENDMDL
