MODEL 6
REMARK VINA RESULT: -7.410756274      1.628      5.068
REMARK  10 active torsions:
REMARK  status: ('A' for Active; 'I' for Inactive)
REMARK       I    between atoms: C2_2  and  N1_4 
REMARK    1  A    between atoms: N1_4  and  C3_6 
REMARK    2  A    between atoms: C4_7  and  O2_8 
REMARK    3  A    between atoms: C6_11  and  O3_12 
REMARK    4  A    between atoms: C6_11  and  C7_14 
REMARK    5  A    between atoms: C8_18  and  C9_19 
REMARK    6  A    between atoms: C9_19  and  O7_20 
REMARK    7  A    between atoms: C9_19  and  C10_22 
REMARK    8  A    between atoms: C10_22  and  O8_23 
REMARK    9  A    between atoms: C10_22  and  C11_25 
REMARK   10  A    between atoms: C11_25  and  O9_26 
ROOT
HETATM    1  C3  UNL     1      10.525  -6.121 -14.583  1.00  0.00     0.145 C 
HETATM    2  C4  UNL     1      11.861  -5.573 -15.103  1.00  0.00     0.149 C 
HETATM    3  C5  UNL     1      12.623  -5.128 -13.857  1.00  0.00     0.114 C 
HETATM    4  C6  UNL     1      12.812  -6.359 -12.997  1.00  0.00     0.256 C 
HETATM    5  O6  UNL     1      11.538  -6.787 -12.583  1.00  0.00    -0.336 OA
HETATM    6  C8  UNL     1      10.878  -7.270 -13.691  1.00  0.00     0.182 C 
ENDROOT
BRANCH   6   7
HETATM    7  C9  UNL     1       9.714  -8.122 -13.297  1.00  0.00     0.180 C 
BRANCH   7   8
HETATM    8  O7  UNL     1       8.731  -7.391 -12.651  1.00  0.00    -0.390 OA
ATOM      9  H7  UNL     1       8.128  -6.987 -13.264  1.00  0.00     0.210 HD
ENDBRANCH   7   8
BRANCH   7  10
HETATM   10  C10 UNL     1      10.249  -9.187 -12.340  1.00  0.00     0.173 C 
BRANCH  10  11
HETATM   11  O8  UNL     1      10.476 -10.347 -13.099  1.00  0.00    -0.391 OA
ATOM     12  H8  UNL     1      11.173 -10.828 -12.671  1.00  0.00     0.210 HD
ENDBRANCH  10  11
BRANCH  10  13
HETATM   13  C11 UNL     1       9.212  -9.517 -11.291  1.00  0.00     0.198 C 
BRANCH  13  14
HETATM   14  O9  UNL     1       8.187 -10.214 -11.933  1.00  0.00    -0.398 OA
ATOM     15  H9  UNL     1       7.452 -10.245 -11.332  1.00  0.00     0.209 HD
ENDBRANCH  13  14
ENDBRANCH  10  13
ENDBRANCH   7  10
ENDBRANCH   6   7
BRANCH   1  16
HETATM   16  N1  UNL     1       9.638  -6.468 -15.661  1.00  0.00    -0.352 N 
HETATM   17  C2  UNL     1       8.266  -6.101 -15.634  1.00  0.00     0.214 C 
HETATM   18  C1  UNL     1       7.331  -6.447 -16.736  1.00  0.00     0.117 C 
HETATM   19  O1  UNL     1       7.792  -5.461 -14.660  1.00  0.00    -0.274 OA
ATOM     20  H1  UNL     1      10.002  -6.987 -16.459  1.00  0.00     0.163 HD
ENDBRANCH   1  16
BRANCH   2  21
HETATM   21  O2  UNL     1      11.693  -4.559 -16.007  1.00  0.00    -0.393 OA
ATOM     22  H2  UNL     1      11.114  -3.879 -15.686  1.00  0.00     0.210 HD
ENDBRANCH   2  21
BRANCH   4  23
HETATM   23  O3  UNL     1      13.438  -7.336 -13.773  1.00  0.00    -0.357 OA
ATOM     24  H3  UNL     1      13.394  -8.160 -13.301  1.00  0.00     0.213 HD
ENDBRANCH   4  23
BRANCH   4  25
HETATM   25  C7  UNL     1      13.650  -5.977 -11.846  1.00  0.00     0.238 C 
HETATM   26  O4  UNL     1      13.947  -4.765 -11.696  1.00  0.00    -0.644 OA
HETATM   27  O5  UNL     1      14.134  -6.874 -10.916  1.00  0.00    -0.644 OA
ENDBRANCH   4  25
TORSDOF 10
ENDMDL
