MODEL 1
REMARK VINA RESULT: -7.416041305      0.000      0.000
REMARK  9 active torsions:
REMARK  status: ('A' for Active; 'I' for Inactive)
REMARK    1  A    between atoms: N5_13  and  C6_14 
REMARK    2  A    between atoms: C7_16  and  C8_17 
REMARK    3  A    between atoms: C8_17  and  O2_18 
REMARK    4  A    between atoms: O2_18  and  P1_19 
REMARK    5  A    between atoms: P1_19  and  O5_22 
REMARK    6  A    between atoms: O5_22  and  P2_23 
REMARK    7  A    between atoms: C12_32  and  N6_33 
REMARK    8  A    between atoms: C14_37  and  N7_38 
REMARK    9  A    between atoms: C16_42  and  N8_43 
ROOT
HETATM    1  C6  UNL     1      21.539   6.615  28.291  1.00  0.00     0.262 C 
HETATM    2  O1  UNL     1      21.243   5.513  29.141  1.00  0.00    -0.353 OA
HETATM    3  C7  UNL     1      19.993   5.147  28.679  1.00  0.00     0.180 C 
HETATM    4  C9  UNL     1      20.171   5.112  27.176  1.00  0.00     0.190 C 
HETATM    5  O9  UNL     1      19.179   5.927  26.640  1.00  0.00    -0.337 OA
HETATM    6  C10 UNL     1      19.820   6.529  25.544  1.00  0.00     0.247 A 
HETATM    7  O10 UNL     1      21.163   6.675  25.882  1.00  0.00    -0.335 OA
HETATM    8  C11 UNL     1      21.467   5.910  26.959  1.00  0.00     0.206 C 
HETATM    9  C12 UNL     1      19.229   7.899  25.455  1.00  0.00     0.147 A 
HETATM   10  C13 UNL     1      18.572   8.381  24.430  1.00  0.00     0.073 A 
HETATM   11  C14 UNL     1      18.368   7.567  23.245  1.00  0.00     0.103 A 
HETATM   12  C15 UNL     1      18.854   6.350  23.219  1.00  0.00     0.046 A 
HETATM   13  C16 UNL     1      19.603   5.738  24.312  1.00  0.00     0.250 A 
ENDROOT
BRANCH   9  14
HETATM   14  N6  UNL     1      19.372   8.795  26.569  1.00  0.00    -0.114 N 
HETATM   15  O11 UNL     1      18.498   8.778  27.462  1.00  0.00    -0.532 OA
HETATM   16  O12 UNL     1      20.444   9.643  26.640  1.00  0.00    -0.532 OA
ENDBRANCH   9  14
BRANCH  13  17
HETATM   17  N8  UNL     1      20.878   5.291  23.774  1.00  0.00    -0.141 N 
HETATM   18  O15 UNL     1      21.162   4.071  23.890  1.00  0.00    -0.536 OA
HETATM   19  O16 UNL     1      21.788   6.098  23.148  1.00  0.00    -0.536 OA
ENDBRANCH  13  17
BRANCH   3  20
HETATM   20  C8  UNL     1      19.571   3.786  29.195  1.00  0.00     0.216 C 
BRANCH  20  21
HETATM   21  O2  UNL     1      20.466   2.805  28.803  1.00  0.00    -0.287 OA
BRANCH  21  22
HETATM   22  P1  UNL     1      21.290   2.121  30.085  1.00  0.00     0.418 P 
HETATM   23  O3  UNL     1      21.146   0.612  30.073  1.00  0.00    -0.624 OA
HETATM   24  O4  UNL     1      20.695   2.658  31.580  1.00  0.00    -0.624 OA
BRANCH  22  25
HETATM   25  O5  UNL     1      22.932   2.474  29.909  1.00  0.00    -0.173 OA
BRANCH  25  26
HETATM   26  P2  UNL     1      23.721   1.378  28.923  1.00  0.00     0.431 P 
HETATM   27  O6  UNL     1      22.901   1.019  27.713  1.00  0.00    -0.616 OA
HETATM   28  O7  UNL     1      24.080  -0.065  29.745  1.00  0.00    -0.616 OA
HETATM   29  O8  UNL     1      25.201   2.024  28.368  1.00  0.00    -0.616 OA
ENDBRANCH  25  26
ENDBRANCH  22  25
ENDBRANCH  21  22
ENDBRANCH  20  21
ENDBRANCH   3  20
BRANCH   1  30
HETATM   30  N5  UNL     1      22.839   7.133  28.583  1.00  0.00    -0.297 N 
HETATM   31  C3  UNL     1      23.881   6.576  29.212  1.00  0.00     0.142 A 
HETATM   32  N3  UNL     1      24.010   5.358  29.757  1.00  0.00    -0.336 N 
HETATM   33  C4  UNL     1      24.907   7.477  29.243  1.00  0.00     0.119 A 
HETATM   34  C2  UNL     1      25.189   5.049  30.338  1.00  0.00     0.183 A 
ATOM     35  H3  UNL     1      23.242   4.687  29.734  1.00  0.00     0.168 HD
HETATM   36  N2  UNL     1      26.212   5.920  30.379  1.00  0.00    -0.339 N 
HETATM   37  C1  UNL     1      26.124   7.149  29.847  1.00  0.00     0.148 A 
ATOM     38  H2  UNL     1      27.083   5.638  30.829  1.00  0.00     0.167 HD
HETATM   39  N1  UNL     1      27.185   8.096  29.873  1.00  0.00    -0.080 NA
HETATM   40  N4  UNL     1      24.495   8.580  28.636  1.00  0.00    -0.346 N 
HETATM   41  C5  UNL     1      23.234   8.375  28.231  1.00  0.00     0.188 A 
ATOM     42  H4  UNL     1      25.040   9.432  28.501  1.00  0.00     0.167 HD
ENDBRANCH   1  30
BRANCH  11  43
HETATM   43  N7  UNL     1      17.639   8.093  22.110  1.00  0.00    -0.116 N 
HETATM   44  O13 UNL     1      17.555   9.312  22.001  1.00  0.00    -0.532 OA
HETATM   45  O14 UNL     1      17.076   7.242  21.211  1.00  0.00    -0.532 OA
ENDBRANCH  11  43
TORSDOF 9
ENDMDL
