MODEL 4
REMARK VINA RESULT: -6.945544178      3.136      6.663
REMARK  9 active torsions:
REMARK  status: ('A' for Active; 'I' for Inactive)
REMARK    1  A    between atoms: N5_13  and  C6_14 
REMARK    2  A    between atoms: C7_16  and  C8_17 
REMARK    3  A    between atoms: C8_17  and  O2_18 
REMARK    4  A    between atoms: O2_18  and  P1_19 
REMARK    5  A    between atoms: P1_19  and  O5_22 
REMARK    6  A    between atoms: O5_22  and  P2_23 
REMARK    7  A    between atoms: C12_32  and  N6_33 
REMARK    8  A    between atoms: C14_37  and  N7_38 
REMARK    9  A    between atoms: C16_42  and  N8_43 
ROOT
HETATM    1  C6  UNL     1      23.910   8.434  27.796  1.00  0.00     0.262 C 
HETATM    2  O1  UNL     1      23.357   9.003  26.615  1.00  0.00    -0.353 OA
HETATM    3  C7  UNL     1      23.027   7.867  25.900  1.00  0.00     0.180 C 
HETATM    4  C9  UNL     1      22.306   7.009  26.918  1.00  0.00     0.190 C 
HETATM    5  O9  UNL     1      22.947   5.774  26.920  1.00  0.00    -0.337 OA
HETATM    6  C10 UNL     1      22.896   5.392  28.272  1.00  0.00     0.247 A 
HETATM    7  O10 UNL     1      22.962   6.556  29.031  1.00  0.00    -0.335 OA
HETATM    8  C11 UNL     1      22.712   7.641  28.259  1.00  0.00     0.206 C 
HETATM    9  C12 UNL     1      24.160   4.631  28.506  1.00  0.00     0.147 A 
HETATM   10  C13 UNL     1      24.239   3.381  28.890  1.00  0.00     0.073 A 
HETATM   11  C14 UNL     1      23.030   2.613  29.129  1.00  0.00     0.103 A 
HETATM   12  C15 UNL     1      21.866   3.192  28.957  1.00  0.00     0.046 A 
HETATM   13  C16 UNL     1      21.688   4.578  28.539  1.00  0.00     0.250 A 
ENDROOT
BRANCH   9  14
HETATM   14  N6  UNL     1      25.420   5.291  28.305  1.00  0.00    -0.114 N 
HETATM   15  O11 UNL     1      26.021   5.109  27.224  1.00  0.00    -0.532 OA
HETATM   16  O12 UNL     1      25.941   6.098  29.280  1.00  0.00    -0.532 OA
ENDBRANCH   9  14
BRANCH  13  17
HETATM   17  N8  UNL     1      20.855   5.233  29.534  1.00  0.00    -0.141 N 
HETATM   18  O15 UNL     1      19.843   5.859  29.125  1.00  0.00    -0.536 OA
HETATM   19  O16 UNL     1      21.088   5.215  30.882  1.00  0.00    -0.536 OA
ENDBRANCH  13  17
BRANCH   3  20
HETATM   20  C8  UNL     1      22.118   8.177  24.728  1.00  0.00     0.216 C 
BRANCH  20  21
HETATM   21  O2  UNL     1      20.953   7.431  24.789  1.00  0.00    -0.287 OA
BRANCH  21  22
HETATM   22  P1  UNL     1      20.741   6.437  23.463  1.00  0.00     0.418 P 
HETATM   23  O3  UNL     1      21.677   6.835  22.340  1.00  0.00    -0.624 OA
HETATM   24  O4  UNL     1      19.165   6.533  22.846  1.00  0.00    -0.624 OA
BRANCH  22  25
HETATM   25  O5  UNL     1      21.135   4.859  23.915  1.00  0.00    -0.173 OA
BRANCH  25  26
HETATM   26  P2  UNL     1      19.924   4.126  24.806  1.00  0.00     0.431 P 
HETATM   27  O6  UNL     1      18.802   3.636  23.931  1.00  0.00    -0.616 OA
HETATM   28  O7  UNL     1      19.255   5.186  25.953  1.00  0.00    -0.616 OA
HETATM   29  O8  UNL     1      20.535   2.779  25.660  1.00  0.00    -0.616 OA
ENDBRANCH  25  26
ENDBRANCH  22  25
ENDBRANCH  21  22
ENDBRANCH  20  21
ENDBRANCH   3  20
BRANCH   1  30
HETATM   30  N5  UNL     1      24.291   9.463  28.712  1.00  0.00    -0.297 N 
HETATM   31  C3  UNL     1      25.470   9.731  29.286  1.00  0.00     0.142 A 
HETATM   32  N3  UNL     1      26.650   9.106  29.166  1.00  0.00    -0.336 N 
HETATM   33  C4  UNL     1      25.328  10.824  30.090  1.00  0.00     0.119 A 
HETATM   34  C2  UNL     1      27.696   9.593  29.867  1.00  0.00     0.183 A 
ATOM     35  H3  UNL     1      26.754   8.288  28.565  1.00  0.00     0.168 HD
HETATM   36  N2  UNL     1      27.578  10.669  30.665  1.00  0.00    -0.339 N 
HETATM   37  C1  UNL     1      26.415  11.323  30.814  1.00  0.00     0.148 A 
ATOM     38  H2  UNL     1      28.398  10.999  31.174  1.00  0.00     0.167 HD
HETATM   39  N1  UNL     1      26.254  12.463  31.649  1.00  0.00    -0.080 NA
HETATM   40  N4  UNL     1      24.067  11.224  30.011  1.00  0.00    -0.346 N 
HETATM   41  C5  UNL     1      23.430  10.397  29.171  1.00  0.00     0.188 A 
ATOM     42  H4  UNL     1      23.656  12.019  30.501  1.00  0.00     0.167 HD
ENDBRANCH   1  30
BRANCH  11  43
HETATM   43  N7  UNL     1      23.110   1.231  29.549  1.00  0.00    -0.116 N 
HETATM   44  O13 UNL     1      22.075   0.681  29.908  1.00  0.00    -0.532 OA
HETATM   45  O14 UNL     1      24.309   0.586  29.537  1.00  0.00    -0.532 OA
ENDBRANCH  11  43
TORSDOF 9
ENDMDL
