MODEL 6
REMARK VINA RESULT: -6.856173286      3.764      8.390
REMARK  9 active torsions:
REMARK  status: ('A' for Active; 'I' for Inactive)
REMARK    1  A    between atoms: N5_13  and  C6_14 
REMARK    2  A    between atoms: C7_16  and  C8_17 
REMARK    3  A    between atoms: C8_17  and  O2_18 
REMARK    4  A    between atoms: O2_18  and  P1_19 
REMARK    5  A    between atoms: P1_19  and  O5_22 
REMARK    6  A    between atoms: O5_22  and  P2_23 
REMARK    7  A    between atoms: C12_32  and  N6_33 
REMARK    8  A    between atoms: C14_37  and  N7_38 
REMARK    9  A    between atoms: C16_42  and  N8_43 
ROOT
HETATM    1  C6  UNL     1      21.147   4.786  29.729  1.00  0.00     0.262 C 
HETATM    2  O1  UNL     1      20.884   5.572  28.572  1.00  0.00    -0.353 OA
HETATM    3  C7  UNL     1      22.054   6.301  28.471  1.00  0.00     0.180 C 
HETATM    4  C9  UNL     1      23.135   5.253  28.631  1.00  0.00     0.190 C 
HETATM    5  O9  UNL     1      23.965   5.693  29.657  1.00  0.00    -0.337 OA
HETATM    6  C10 UNL     1      24.324   4.501  30.309  1.00  0.00     0.247 A 
HETATM    7  O10 UNL     1      23.243   3.631  30.199  1.00  0.00    -0.335 OA
HETATM    8  C11 UNL     1      22.381   4.064  29.247  1.00  0.00     0.206 C 
HETATM    9  C12 UNL     1      24.453   4.873  31.750  1.00  0.00     0.147 A 
HETATM   10  C13 UNL     1      25.541   4.762  32.472  1.00  0.00     0.073 A 
HETATM   11  C14 UNL     1      26.759   4.236  31.882  1.00  0.00     0.103 A 
HETATM   12  C15 UNL     1      26.748   3.874  30.622  1.00  0.00     0.046 A 
HETATM   13  C16 UNL     1      25.582   3.957  29.750  1.00  0.00     0.250 A 
ENDROOT
BRANCH   9  14
HETATM   14  N6  UNL     1      23.310   5.402  32.441  1.00  0.00    -0.114 N 
HETATM   15  O11 UNL     1      23.166   6.642  32.491  1.00  0.00    -0.532 OA
HETATM   16  O12 UNL     1      22.406   4.557  33.027  1.00  0.00    -0.532 OA
ENDBRANCH   9  14
BRANCH  13  17
HETATM   17  N8  UNL     1      25.351   2.632  29.198  1.00  0.00    -0.141 N 
HETATM   18  O15 UNL     1      25.581   2.464  27.972  1.00  0.00    -0.536 OA
HETATM   19  O16 UNL     1      24.907   1.554  29.914  1.00  0.00    -0.536 OA
ENDBRANCH  13  17
BRANCH   3  20
HETATM   20  C8  UNL     1      22.179   6.993  27.130  1.00  0.00     0.216 C 
BRANCH  20  21
HETATM   21  O2  UNL     1      22.133   6.080  26.090  1.00  0.00    -0.287 OA
BRANCH  21  22
HETATM   22  P1  UNL     1      20.955   6.433  24.960  1.00  0.00     0.418 P 
HETATM   23  O3  UNL     1      21.228   7.769  24.300  1.00  0.00    -0.624 OA
HETATM   24  O4  UNL     1      19.415   6.539  25.662  1.00  0.00    -0.624 OA
BRANCH  22  25
HETATM   25  O5  UNL     1      21.006   5.253  23.754  1.00  0.00    -0.173 OA
BRANCH  25  26
HETATM   26  P2  UNL     1      20.249   3.834  24.212  1.00  0.00     0.431 P 
HETATM   27  O6  UNL     1      20.444   3.542  25.676  1.00  0.00    -0.616 OA
HETATM   28  O7  UNL     1      20.834   2.497  23.341  1.00  0.00    -0.616 OA
HETATM   29  O8  UNL     1      18.569   3.927  23.926  1.00  0.00    -0.616 OA
ENDBRANCH  25  26
ENDBRANCH  22  25
ENDBRANCH  21  22
ENDBRANCH  20  21
ENDBRANCH   3  20
BRANCH   1  30
HETATM   30  N5  UNL     1      20.050   3.909  29.994  1.00  0.00    -0.297 N 
HETATM   31  C3  UNL     1      19.331   3.719  31.107  1.00  0.00     0.142 A 
HETATM   32  N3  UNL     1      19.433   4.303  32.310  1.00  0.00    -0.336 N 
HETATM   33  C4  UNL     1      18.384   2.767  30.861  1.00  0.00     0.119 A 
HETATM   34  C2  UNL     1      18.567   3.919  33.272  1.00  0.00     0.183 A 
ATOM     35  H3  UNL     1      20.142   5.013  32.493  1.00  0.00     0.168 HD
HETATM   36  N2  UNL     1      17.626   2.983  33.051  1.00  0.00    -0.339 N 
HETATM   37  C1  UNL     1      17.491   2.375  31.862  1.00  0.00     0.148 A 
ATOM     38  H2  UNL     1      16.995   2.729  33.810  1.00  0.00     0.167 HD
HETATM   39  N1  UNL     1      16.510   1.382  31.593  1.00  0.00    -0.080 NA
HETATM   40  N4  UNL     1      18.522   2.375  29.603  1.00  0.00    -0.346 N 
HETATM   41  C5  UNL     1      19.537   3.070  29.069  1.00  0.00     0.188 A 
ATOM     42  H4  UNL     1      17.957   1.672  29.126  1.00  0.00     0.167 HD
ENDBRANCH   1  30
BRANCH  11  43
HETATM   43  N7  UNL     1      27.965   4.116  32.673  1.00  0.00    -0.116 N 
HETATM   44  O13 UNL     1      28.292   5.073  33.364  1.00  0.00    -0.532 OA
HETATM   45  O14 UNL     1      28.691   2.966  32.633  1.00  0.00    -0.532 OA
ENDBRANCH  11  43
TORSDOF 9
ENDMDL
