MODEL 1
REMARK VINA RESULT: -11.519544745      0.000      0.000
REMARK  7 active torsions:
REMARK  status: ('A' for Active; 'I' for Inactive)
REMARK    1  A    between atoms: C2_2  and  O1_3 
REMARK    2  A    between atoms: C2_2  and  C3_5 
REMARK    3  A    between atoms: C2_2  and  C10_15 
REMARK    4  A    between atoms: C3_5  and  O2_6 
REMARK    5  A    between atoms: O2_6  and  C4_7 
REMARK       I    between atoms: C10_15  and  N1_17 
REMARK    6  A    between atoms: N1_17  and  C11_19 
REMARK    7  A    between atoms: C16_25  and  C17_26 
ROOT
HETATM    1  C11 UNL     1      27.562   3.924   3.416  1.00  0.00     0.035 A 
HETATM    2  C12 UNL     1      27.932   5.284   3.439  1.00  0.00     0.031 A 
HETATM    3  C13 UNL     1      27.005   6.283   3.592  1.00  0.00     0.026 A 
HETATM    4  C14 UNL     1      25.658   6.031   3.734  1.00  0.00     0.059 A 
HETATM    5  C15 UNL     1      24.712   7.097   3.892  1.00  0.00     0.100 C 
HETATM    6  N2  UNL     1      23.940   7.951   4.002  1.00  0.00    -0.191 NA
HETATM    7  C16 UNL     1      25.284   4.709   3.713  1.00  0.00     0.070 A 
HETATM    8  C18 UNL     1      26.227   3.676   3.557  1.00  0.00     0.047 A 
ENDROOT
BRANCH   7   9
HETATM    9  C17 UNL     1      23.846   4.384   3.862  1.00  0.00     0.419 C 
HETATM   10  F2  UNL     1      23.644   3.028   3.576  1.00  0.00    -0.166 F 
HETATM   11  F3  UNL     1      23.108   5.177   3.009  1.00  0.00    -0.166 F 
HETATM   12  F4  UNL     1      23.494   4.572   5.180  1.00  0.00    -0.166 F 
ENDBRANCH   7   9
BRANCH   1  13
HETATM   13  N1  UNL     1      28.585   2.954   3.267  1.00  0.00    -0.325 N 
HETATM   14  C10 UNL     1      28.552   1.652   3.812  1.00  0.00     0.258 C 
HETATM   15  O3  UNL     1      27.582   1.245   4.486  1.00  0.00    -0.270 OA
ATOM     16  H1  UNL     1      29.408   3.217   2.724  1.00  0.00     0.169 HD
BRANCH  14  17
HETATM   17  C2  UNL     1      29.679   0.695   3.609  1.00  0.00     0.156 C 
HETATM   18  C1  UNL     1      29.424  -0.215   2.428  1.00  0.00     0.059 C 
BRANCH  17  19
HETATM   19  O1  UNL     1      30.830   1.419   3.336  1.00  0.00    -0.378 OA
ATOM     20  H1  UNL     1      31.078   1.871   4.133  1.00  0.00     0.211 HD
ENDBRANCH  17  19
BRANCH  17  21
HETATM   21  C3  UNL     1      29.838  -0.119   4.894  1.00  0.00     0.223 C 
BRANCH  21  22
HETATM   22  O2  UNL     1      30.286   0.753   5.894  1.00  0.00    -0.348 OA
BRANCH  22  23
HETATM   23  C4  UNL     1      29.950   0.680   7.218  1.00  0.00     0.071 A 
HETATM   24  C5  UNL     1      29.390   1.801   7.806  1.00  0.00     0.038 A 
HETATM   25  C6  UNL     1      29.020   1.822   9.137  1.00  0.00     0.030 A 
HETATM   26  C7  UNL     1      29.199   0.710   9.935  1.00  0.00     0.072 A 
HETATM   27 CL1  UNL     1      28.740   0.701  11.628  1.00  0.00    -0.081 Cl
HETATM   28  C8  UNL     1      29.758  -0.406   9.342  1.00  0.00     0.140 A 
HETATM   29  F1  UNL     1      29.951  -1.523  10.094  1.00  0.00    -0.204 F 
HETATM   30  C9  UNL     1      30.130  -0.433   8.014  1.00  0.00     0.080 A 
ENDBRANCH  22  23
ENDBRANCH  21  22
ENDBRANCH  17  21
ENDBRANCH  14  17
ENDBRANCH   1  13
TORSDOF 7
ENDMDL
