MODEL 10
REMARK VINA RESULT: -8.996756985      3.196      7.527
REMARK  7 active torsions:
REMARK  status: ('A' for Active; 'I' for Inactive)
REMARK    1  A    between atoms: C2_2  and  O1_3 
REMARK    2  A    between atoms: C2_2  and  C3_5 
REMARK    3  A    between atoms: C2_2  and  C10_15 
REMARK    4  A    between atoms: C3_5  and  O2_6 
REMARK    5  A    between atoms: O2_6  and  C4_7 
REMARK       I    between atoms: C10_15  and  N1_17 
REMARK    6  A    between atoms: N1_17  and  C11_19 
REMARK    7  A    between atoms: C16_25  and  C17_26 
ROOT
HETATM    1  C11 UNL     1      29.675   0.790   7.276  1.00  0.00     0.035 A 
HETATM    2  C12 UNL     1      28.905   1.876   7.743  1.00  0.00     0.031 A 
HETATM    3  C13 UNL     1      28.516   1.975   9.054  1.00  0.00     0.026 A 
HETATM    4  C14 UNL     1      28.846   1.030  10.000  1.00  0.00     0.059 A 
HETATM    5  C15 UNL     1      28.423   1.160  11.364  1.00  0.00     0.100 C 
HETATM    6  N2  UNL     1      28.071   1.248  12.462  1.00  0.00    -0.191 NA
HETATM    7  C16 UNL     1      29.596  -0.033   9.558  1.00  0.00     0.070 A 
HETATM    8  C18 UNL     1      30.002  -0.144   8.215  1.00  0.00     0.047 A 
ENDROOT
BRANCH   7   9
HETATM    9  C17 UNL     1      29.978  -1.079  10.537  1.00  0.00     0.419 C 
HETATM   10  F2  UNL     1      28.867  -1.408  11.323  1.00  0.00    -0.166 F 
HETATM   11  F3  UNL     1      31.011  -0.612  11.323  1.00  0.00    -0.166 F 
HETATM   12  F4  UNL     1      30.328  -2.214   9.842  1.00  0.00    -0.166 F 
ENDBRANCH   7   9
BRANCH   1  13
HETATM   13  N1  UNL     1      30.047   0.772   5.908  1.00  0.00    -0.325 N 
HETATM   14  C10 UNL     1      29.331   0.115   4.883  1.00  0.00     0.258 C 
HETATM   15  O3  UNL     1      28.279  -0.517   5.117  1.00  0.00    -0.270 OA
ATOM     16  H1  UNL     1      30.896   1.273   5.644  1.00  0.00     0.169 HD
BRANCH  14  17
HETATM   17  C2  UNL     1      29.798   0.145   3.466  1.00  0.00     0.156 C 
HETATM   18  C1  UNL     1      30.599   1.395   3.175  1.00  0.00     0.059 C 
BRANCH  17  19
HETATM   19  O1  UNL     1      30.631  -0.943   3.252  1.00  0.00    -0.378 OA
ATOM     20  H1  UNL     1      31.148  -1.066   4.039  1.00  0.00     0.211 HD
ENDBRANCH  17  19
BRANCH  17  21
HETATM   21  C3  UNL     1      28.564   0.072   2.566  1.00  0.00     0.223 C 
BRANCH  21  22
HETATM   22  O2  UNL     1      28.162   1.385   2.292  1.00  0.00    -0.348 OA
BRANCH  22  23
HETATM   23  C4  UNL     1      27.034   1.988   2.778  1.00  0.00     0.071 A 
HETATM   24  C5  UNL     1      25.819   1.362   2.557  1.00  0.00     0.038 A 
HETATM   25  C6  UNL     1      24.629   1.895   3.010  1.00  0.00     0.030 A 
HETATM   26  C7  UNL     1      24.610   3.086   3.707  1.00  0.00     0.072 A 
HETATM   27 CL1  UNL     1      23.116   3.792   4.297  1.00  0.00    -0.081 Cl
HETATM   28  C8  UNL     1      25.826   3.705   3.926  1.00  0.00     0.140 A 
HETATM   29  F1  UNL     1      25.852   4.881   4.609  1.00  0.00    -0.204 F 
HETATM   30  C9  UNL     1      27.019   3.178   3.475  1.00  0.00     0.080 A 
ENDBRANCH  22  23
ENDBRANCH  21  22
ENDBRANCH  17  21
ENDBRANCH  14  17
ENDBRANCH   1  13
TORSDOF 7
ENDMDL
