MODEL 2
REMARK VINA RESULT: -11.514819076      0.860      1.227
REMARK  7 active torsions:
REMARK  status: ('A' for Active; 'I' for Inactive)
REMARK    1  A    between atoms: C2_2  and  O1_3 
REMARK    2  A    between atoms: C2_2  and  C3_5 
REMARK    3  A    between atoms: C2_2  and  C10_15 
REMARK    4  A    between atoms: C3_5  and  O2_6 
REMARK    5  A    between atoms: O2_6  and  C4_7 
REMARK       I    between atoms: C10_15  and  N1_17 
REMARK    6  A    between atoms: N1_17  and  C11_19 
REMARK    7  A    between atoms: C16_25  and  C17_26 
ROOT
HETATM    1  C11 UNL     1      27.572   3.925   3.435  1.00  0.00     0.035 A 
HETATM    2  C12 UNL     1      27.940   5.286   3.470  1.00  0.00     0.031 A 
HETATM    3  C13 UNL     1      27.010   6.283   3.609  1.00  0.00     0.026 A 
HETATM    4  C14 UNL     1      25.661   6.030   3.726  1.00  0.00     0.059 A 
HETATM    5  C15 UNL     1      24.710   7.094   3.870  1.00  0.00     0.100 C 
HETATM    6  N2  UNL     1      23.937   7.947   3.969  1.00  0.00    -0.191 NA
HETATM    7  C16 UNL     1      25.289   4.707   3.694  1.00  0.00     0.070 A 
HETATM    8  C18 UNL     1      26.235   3.675   3.551  1.00  0.00     0.047 A 
ENDROOT
BRANCH   7   9
HETATM    9  C17 UNL     1      23.848   4.380   3.815  1.00  0.00     0.419 C 
HETATM   10  F2  UNL     1      23.647   3.035   3.481  1.00  0.00    -0.166 F 
HETATM   11  F3  UNL     1      23.121   5.203   2.981  1.00  0.00    -0.166 F 
HETATM   12  F4  UNL     1      23.482   4.524   5.134  1.00  0.00    -0.166 F 
ENDBRANCH   7   9
BRANCH   1  13
HETATM   13  N1  UNL     1      28.599   2.957   3.302  1.00  0.00    -0.325 N 
HETATM   14  C10 UNL     1      28.548   1.646   3.823  1.00  0.00     0.258 C 
HETATM   15  O3  UNL     1      27.557   1.228   4.460  1.00  0.00    -0.270 OA
ATOM     16  H1  UNL     1      29.438   3.228   2.789  1.00  0.00     0.169 HD
BRANCH  14  17
HETATM   17  C2  UNL     1      29.681   0.691   3.638  1.00  0.00     0.156 C 
HETATM   18  C1  UNL     1      29.392  -0.300   2.533  1.00  0.00     0.059 C 
BRANCH  17  19
HETATM   19  O1  UNL     1      30.809   1.409   3.271  1.00  0.00    -0.378 OA
ATOM     20  H1  UNL     1      31.427   1.357   3.990  1.00  0.00     0.211 HD
ENDBRANCH  17  19
BRANCH  17  21
HETATM   21  C3  UNL     1      29.903  -0.032   4.968  1.00  0.00     0.223 C 
BRANCH  21  22
HETATM   22  O2  UNL     1      30.222   0.936   5.928  1.00  0.00    -0.348 OA
BRANCH  22  23
HETATM   23  C4  UNL     1      29.924   0.860   7.261  1.00  0.00     0.071 A 
HETATM   24  C5  UNL     1      30.441  -0.204   7.980  1.00  0.00     0.038 A 
HETATM   25  C6  UNL     1      30.195  -0.364   9.329  1.00  0.00     0.030 A 
HETATM   26  C7  UNL     1      29.413   0.544  10.015  1.00  0.00     0.072 A 
HETATM   27 CL1  UNL     1      29.080   0.372  11.729  1.00  0.00    -0.081 Cl
HETATM   28  C8  UNL     1      28.901   1.605   9.292  1.00  0.00     0.140 A 
HETATM   29  F1  UNL     1      28.126   2.523   9.930  1.00  0.00    -0.204 F 
HETATM   30  C9  UNL     1      29.143   1.769   7.943  1.00  0.00     0.080 A 
ENDBRANCH  22  23
ENDBRANCH  21  22
ENDBRANCH  17  21
ENDBRANCH  14  17
ENDBRANCH   1  13
TORSDOF 7
ENDMDL
