MODEL 7
REMARK VINA RESULT: -9.176735875      3.049      7.607
REMARK  7 active torsions:
REMARK  status: ('A' for Active; 'I' for Inactive)
REMARK    1  A    between atoms: C2_2  and  O1_3 
REMARK    2  A    between atoms: C2_2  and  C3_5 
REMARK    3  A    between atoms: C2_2  and  C10_15 
REMARK    4  A    between atoms: C3_5  and  O2_6 
REMARK    5  A    between atoms: O2_6  and  C4_7 
REMARK       I    between atoms: C10_15  and  N1_17 
REMARK    6  A    between atoms: N1_17  and  C11_19 
REMARK    7  A    between atoms: C16_25  and  C17_26 
ROOT
HETATM    1  C11 UNL     1      29.516   0.856   7.012  1.00  0.00     0.035 A 
HETATM    2  C12 UNL     1      28.955   1.967   7.676  1.00  0.00     0.031 A 
HETATM    3  C13 UNL     1      28.725   1.961   9.028  1.00  0.00     0.026 A 
HETATM    4  C14 UNL     1      29.023   0.880   9.827  1.00  0.00     0.059 A 
HETATM    5  C15 UNL     1      28.770   0.902  11.239  1.00  0.00     0.100 C 
HETATM    6  N2  UNL     1      28.553   0.906  12.374  1.00  0.00    -0.191 NA
HETATM    7  C16 UNL     1      29.569  -0.210   9.192  1.00  0.00     0.070 A 
HETATM    8  C18 UNL     1      29.811  -0.214   7.806  1.00  0.00     0.047 A 
ENDROOT
BRANCH   7   9
HETATM    9  C17 UNL     1      29.909  -1.401  10.008  1.00  0.00     0.419 C 
HETATM   10  F2  UNL     1      28.740  -1.925  10.573  1.00  0.00    -0.166 F 
HETATM   11  F3  UNL     1      30.807  -1.040  10.990  1.00  0.00    -0.166 F 
HETATM   12  F4  UNL     1      30.417  -2.367   9.169  1.00  0.00    -0.166 F 
ENDBRANCH   7   9
BRANCH   1  13
HETATM   13  N1  UNL     1      29.733   0.951   5.614  1.00  0.00    -0.325 N 
HETATM   14  C10 UNL     1      28.944   0.319   4.628  1.00  0.00     0.258 C 
HETATM   15  O3  UNL     1      27.961  -0.391   4.927  1.00  0.00    -0.270 OA
ATOM     16  H1  UNL     1      30.518   1.519   5.297  1.00  0.00     0.169 HD
BRANCH  14  17
HETATM   17  C2  UNL     1      29.248   0.470   3.175  1.00  0.00     0.156 C 
HETATM   18  C1  UNL     1      30.698   0.839   2.950  1.00  0.00     0.059 C 
BRANCH  17  19
HETATM   19  O1  UNL     1      29.025  -0.746   2.547  1.00  0.00    -0.378 OA
ATOM     20  H1  UNL     1      28.093  -0.814   2.379  1.00  0.00     0.211 HD
ENDBRANCH  17  19
BRANCH  17  21
HETATM   21  C3  UNL     1      28.322   1.551   2.615  1.00  0.00     0.223 C 
BRANCH  21  22
HETATM   22  O2  UNL     1      28.367   2.642   3.490  1.00  0.00    -0.348 OA
BRANCH  22  23
HETATM   23  C4  UNL     1      27.430   3.636   3.568  1.00  0.00     0.071 A 
HETATM   24  C5  UNL     1      27.717   4.845   2.955  1.00  0.00     0.038 A 
HETATM   25  C6  UNL     1      26.833   5.905   2.981  1.00  0.00     0.030 A 
HETATM   26  C7  UNL     1      25.618   5.795   3.627  1.00  0.00     0.072 A 
HETATM   27 CL1  UNL     1      24.472   7.122   3.679  1.00  0.00    -0.081 Cl
HETATM   28  C8  UNL     1      25.338   4.586   4.235  1.00  0.00     0.140 A 
HETATM   29  F1  UNL     1      24.151   4.435   4.883  1.00  0.00    -0.204 F 
HETATM   30  C9  UNL     1      26.217   3.523   4.214  1.00  0.00     0.080 A 
ENDBRANCH  22  23
ENDBRANCH  21  22
ENDBRANCH  17  21
ENDBRANCH  14  17
ENDBRANCH   1  13
TORSDOF 7
ENDMDL
