MODEL 9
REMARK VINA RESULT: -9.038679401      1.081      1.586
REMARK  7 active torsions:
REMARK  status: ('A' for Active; 'I' for Inactive)
REMARK    1  A    between atoms: C2_2  and  O1_3 
REMARK    2  A    between atoms: C2_2  and  C3_5 
REMARK    3  A    between atoms: C2_2  and  C10_15 
REMARK    4  A    between atoms: C3_5  and  O2_6 
REMARK    5  A    between atoms: O2_6  and  C4_7 
REMARK       I    between atoms: C10_15  and  N1_17 
REMARK    6  A    between atoms: N1_17  and  C11_19 
REMARK    7  A    between atoms: C16_25  and  C17_26 
ROOT
HETATM    1  C11 UNL     1      27.284   3.575   3.241  1.00  0.00     0.035 A 
HETATM    2  C12 UNL     1      27.771   4.897   3.192  1.00  0.00     0.031 A 
HETATM    3  C13 UNL     1      26.937   5.979   3.319  1.00  0.00     0.026 A 
HETATM    4  C14 UNL     1      25.578   5.852   3.502  1.00  0.00     0.059 A 
HETATM    5  C15 UNL     1      24.731   7.002   3.632  1.00  0.00     0.100 C 
HETATM    6  N2  UNL     1      24.040   7.925   3.719  1.00  0.00    -0.191 NA
HETATM    7  C16 UNL     1      25.091   4.568   3.551  1.00  0.00     0.070 A 
HETATM    8  C18 UNL     1      25.937   3.451   3.423  1.00  0.00     0.047 A 
ENDROOT
BRANCH   7   9
HETATM    9  C17 UNL     1      23.634   4.376   3.747  1.00  0.00     0.419 C 
HETATM   10  F2  UNL     1      22.935   5.125   2.793  1.00  0.00    -0.166 F 
HETATM   11  F3  UNL     1      23.290   4.768   5.023  1.00  0.00    -0.166 F 
HETATM   12  F4  UNL     1      23.338   3.052   3.513  1.00  0.00    -0.166 F 
ENDBRANCH   7   9
BRANCH   1  13
HETATM   13  N1  UNL     1      28.216   2.514   3.114  1.00  0.00    -0.325 N 
HETATM   14  C10 UNL     1      28.306   1.408   3.987  1.00  0.00     0.258 C 
HETATM   15  O3  UNL     1      27.542   1.278   4.966  1.00  0.00    -0.270 OA
ATOM     16  H1  UNL     1      28.871   2.553   2.333  1.00  0.00     0.169 HD
BRANCH  14  17
HETATM   17  C2  UNL     1      29.324   0.335   3.780  1.00  0.00     0.156 C 
HETATM   18  C1  UNL     1      28.772  -1.026   4.138  1.00  0.00     0.059 C 
BRANCH  17  19
HETATM   19  O1  UNL     1      29.669   0.306   2.437  1.00  0.00    -0.378 OA
ATOM     20  H1  UNL     1      30.399   0.900   2.317  1.00  0.00     0.211 HD
ENDBRANCH  17  19
BRANCH  17  21
HETATM   21  C3  UNL     1      30.538   0.672   4.647  1.00  0.00     0.223 C 
BRANCH  21  22
HETATM   22  O2  UNL     1      30.554  -0.226   5.722  1.00  0.00    -0.348 OA
BRANCH  22  23
HETATM   23  C4  UNL     1      30.102   0.041   6.985  1.00  0.00     0.071 A 
HETATM   24  C5  UNL     1      29.959  -1.024   7.859  1.00  0.00     0.038 A 
HETATM   25  C6  UNL     1      29.509  -0.852   9.153  1.00  0.00     0.030 A 
HETATM   26  C7  UNL     1      29.183   0.404   9.625  1.00  0.00     0.072 A 
HETATM   27 CL1  UNL     1      28.609   0.658  11.263  1.00  0.00    -0.081 Cl
HETATM   28  C8  UNL     1      29.329   1.462   8.748  1.00  0.00     0.140 A 
HETATM   29  F1  UNL     1      29.018   2.716   9.173  1.00  0.00    -0.204 F 
HETATM   30  C9  UNL     1      29.777   1.297   7.453  1.00  0.00     0.080 A 
ENDBRANCH  22  23
ENDBRANCH  21  22
ENDBRANCH  17  21
ENDBRANCH  14  17
ENDBRANCH   1  13
TORSDOF 7
ENDMDL
