MODEL 5
REMARK VINA RESULT: -9.693747489      1.339      1.658
REMARK  7 active torsions:
REMARK  status: ('A' for Active; 'I' for Inactive)
REMARK    1  A    between atoms: C2_2  and  O1_3 
REMARK    2  A    between atoms: C2_2  and  C3_5 
REMARK    3  A    between atoms: C2_2  and  C10_15 
REMARK    4  A    between atoms: C3_5  and  O2_6 
REMARK    5  A    between atoms: O2_6  and  C4_7 
REMARK       I    between atoms: C10_15  and  N1_17 
REMARK    6  A    between atoms: N1_17  and  C11_19 
REMARK    7  A    between atoms: C16_25  and  C17_26 
ROOT
HETATM    1  C11 UNL     1      27.043   3.175   3.610  1.00  0.00     0.035 A 
HETATM    2  C12 UNL     1      27.694   4.287   3.038  1.00  0.00     0.031 A 
HETATM    3  C13 UNL     1      27.041   5.475   2.824  1.00  0.00     0.026 A 
HETATM    4  C14 UNL     1      25.717   5.664   3.151  1.00  0.00     0.059 A 
HETATM    5  C15 UNL     1      25.061   6.918   2.915  1.00  0.00     0.100 C 
HETATM    6  N2  UNL     1      24.521   7.919   2.712  1.00  0.00    -0.191 NA
HETATM    7  C16 UNL     1      25.072   4.587   3.710  1.00  0.00     0.070 A 
HETATM    8  C18 UNL     1      25.731   3.364   3.934  1.00  0.00     0.047 A 
ENDROOT
BRANCH   7   9
HETATM    9  C17 UNL     1      23.644   4.738   4.080  1.00  0.00     0.419 C 
HETATM   10  F2  UNL     1      23.348   3.884   5.149  1.00  0.00    -0.166 F 
HETATM   11  F3  UNL     1      22.856   4.444   2.988  1.00  0.00    -0.166 F 
HETATM   12  F4  UNL     1      23.449   6.025   4.530  1.00  0.00    -0.166 F 
ENDBRANCH   7   9
BRANCH   1  13
HETATM   13  N1  UNL     1      27.795   1.989   3.809  1.00  0.00    -0.325 N 
HETATM   14  C10 UNL     1      29.119   1.943   4.298  1.00  0.00     0.258 C 
HETATM   15  O3  UNL     1      29.743   2.980   4.607  1.00  0.00    -0.270 OA
ATOM     16  H1  UNL     1      27.345   1.102   3.580  1.00  0.00     0.169 HD
BRANCH  14  17
HETATM   17  C2  UNL     1      29.838   0.646   4.472  1.00  0.00     0.156 C 
HETATM   18  C1  UNL     1      29.556  -0.299   3.326  1.00  0.00     0.059 C 
BRANCH  17  19
HETATM   19  O1  UNL     1      31.202   0.895   4.481  1.00  0.00    -0.378 OA
ATOM     20  H1  UNL     1      31.510   0.766   5.370  1.00  0.00     0.211 HD
ENDBRANCH  17  19
BRANCH  17  21
HETATM   21  C3  UNL     1      29.386   0.036   5.799  1.00  0.00     0.223 C 
BRANCH  21  22
HETATM   22  O2  UNL     1      30.069   0.700   6.826  1.00  0.00    -0.348 OA
BRANCH  22  23
HETATM   23  C4  UNL     1      29.803   0.582   8.162  1.00  0.00     0.071 A 
HETATM   24  C5  UNL     1      30.391  -0.466   8.849  1.00  0.00     0.038 A 
HETATM   25  C6  UNL     1      30.181  -0.665  10.199  1.00  0.00     0.030 A 
HETATM   26  C7  UNL     1      29.366   0.186  10.918  1.00  0.00     0.072 A 
HETATM   27 CL1  UNL     1      29.077  -0.037  12.634  1.00  0.00    -0.081 Cl
HETATM   28  C8  UNL     1      28.783   1.231  10.227  1.00  0.00     0.140 A 
HETATM   29  F1  UNL     1      27.973   2.094  10.899  1.00  0.00    -0.204 F 
HETATM   30  C9  UNL     1      28.989   1.435   8.878  1.00  0.00     0.080 A 
ENDBRANCH  22  23
ENDBRANCH  21  22
ENDBRANCH  17  21
ENDBRANCH  14  17
ENDBRANCH   1  13
TORSDOF 7
ENDMDL
