MODEL 8
REMARK VINA RESULT: -9.090789530      3.381      7.635
REMARK  7 active torsions:
REMARK  status: ('A' for Active; 'I' for Inactive)
REMARK    1  A    between atoms: C2_2  and  O1_3 
REMARK    2  A    between atoms: C2_2  and  C3_5 
REMARK    3  A    between atoms: C2_2  and  C10_15 
REMARK    4  A    between atoms: C3_5  and  O2_6 
REMARK    5  A    between atoms: O2_6  and  C4_7 
REMARK       I    between atoms: C10_15  and  N1_17 
REMARK    6  A    between atoms: N1_17  and  C11_19 
REMARK    7  A    between atoms: C16_25  and  C17_26 
ROOT
HETATM    1  C11 UNL     1      29.516   0.783   6.951  1.00  0.00     0.035 A 
HETATM    2  C12 UNL     1      28.957   1.916   7.578  1.00  0.00     0.031 A 
HETATM    3  C13 UNL     1      28.724   1.953   8.929  1.00  0.00     0.026 A 
HETATM    4  C14 UNL     1      29.017   0.896   9.762  1.00  0.00     0.059 A 
HETATM    5  C15 UNL     1      28.762   0.963  11.172  1.00  0.00     0.100 C 
HETATM    6  N2  UNL     1      28.543   1.003  12.306  1.00  0.00    -0.191 NA
HETATM    7  C16 UNL     1      29.562  -0.214   9.163  1.00  0.00     0.070 A 
HETATM    8  C18 UNL     1      29.806  -0.262   7.778  1.00  0.00     0.047 A 
ENDROOT
BRANCH   7   9
HETATM    9  C17 UNL     1      29.896  -1.380  10.016  1.00  0.00     0.419 C 
HETATM   10  F2  UNL     1      28.727  -1.872  10.609  1.00  0.00    -0.166 F 
HETATM   11  F3  UNL     1      30.807  -0.996  10.977  1.00  0.00    -0.166 F 
HETATM   12  F4  UNL     1      30.387  -2.380   9.207  1.00  0.00    -0.166 F 
ENDBRANCH   7   9
BRANCH   1  13
HETATM   13  N1  UNL     1      29.736   0.834   5.551  1.00  0.00    -0.325 N 
HETATM   14  C10 UNL     1      28.960   0.156   4.585  1.00  0.00     0.258 C 
HETATM   15  O3  UNL     1      27.988  -0.560   4.905  1.00  0.00    -0.270 OA
ATOM     16  H1  UNL     1      30.513   1.404   5.217  1.00  0.00     0.169 HD
BRANCH  14  17
HETATM   17  C2  UNL     1      29.267   0.262   3.128  1.00  0.00     0.156 C 
HETATM   18  C1  UNL     1      30.702   0.681   2.895  1.00  0.00     0.059 C 
BRANCH  17  19
HETATM   19  O1  UNL     1      29.098  -0.986   2.548  1.00  0.00    -0.378 OA
ATOM     20  H1  UNL     1      28.167  -1.175   2.545  1.00  0.00     0.211 HD
ENDBRANCH  17  19
BRANCH  17  21
HETATM   21  C3  UNL     1      28.301   1.281   2.522  1.00  0.00     0.223 C 
BRANCH  21  22
HETATM   22  O2  UNL     1      28.559   2.520   3.122  1.00  0.00    -0.348 OA
BRANCH  22  23
HETATM   23  C4  UNL     1      27.646   3.522   3.299  1.00  0.00     0.071 A 
HETATM   24  C5  UNL     1      26.306   3.176   3.342  1.00  0.00     0.038 A 
HETATM   25  C6  UNL     1      25.312   4.119   3.517  1.00  0.00     0.030 A 
HETATM   26  C7  UNL     1      25.627   5.456   3.656  1.00  0.00     0.072 A 
HETATM   27 CL1  UNL     1      24.390   6.681   3.879  1.00  0.00    -0.081 Cl
HETATM   28  C8  UNL     1      26.966   5.795   3.613  1.00  0.00     0.140 A 
HETATM   29  F1  UNL     1      27.318   7.102   3.747  1.00  0.00    -0.204 F 
HETATM   30  C9  UNL     1      27.963   4.857   3.438  1.00  0.00     0.080 A 
ENDBRANCH  22  23
ENDBRANCH  21  22
ENDBRANCH  17  21
ENDBRANCH  14  17
ENDBRANCH   1  13
TORSDOF 7
ENDMDL
