MODEL 13
REMARK VINA RESULT: -8.503732073      1.347      1.477
REMARK  7 active torsions:
REMARK  status: ('A' for Active; 'I' for Inactive)
REMARK    1  A    between atoms: C2_2  and  O1_3 
REMARK    2  A    between atoms: C2_2  and  C3_5 
REMARK    3  A    between atoms: C2_2  and  C10_15 
REMARK    4  A    between atoms: C3_5  and  O2_6 
REMARK    5  A    between atoms: O2_6  and  C4_7 
REMARK       I    between atoms: C10_15  and  N1_17 
REMARK    6  A    between atoms: N1_17  and  C11_19 
REMARK    7  A    between atoms: C16_25  and  C17_26 
ROOT
HETATM    1  C11 UNL     1      27.528   3.493   4.086  1.00  0.00     0.035 A 
HETATM    2  C12 UNL     1      28.055   4.699   3.578  1.00  0.00     0.031 A 
HETATM    3  C13 UNL     1      27.255   5.780   3.307  1.00  0.00     0.026 A 
HETATM    4  C14 UNL     1      25.893   5.765   3.509  1.00  0.00     0.059 A 
HETATM    5  C15 UNL     1      25.082   6.911   3.216  1.00  0.00     0.100 C 
HETATM    6  N2  UNL     1      24.419   7.824   2.965  1.00  0.00    -0.191 NA
HETATM    7  C16 UNL     1      25.367   4.596   4.003  1.00  0.00     0.070 A 
HETATM    8  C18 UNL     1      26.178   3.481   4.286  1.00  0.00     0.047 A 
ENDROOT
BRANCH   7   9
HETATM    9  C17 UNL     1      23.905   4.528   4.239  1.00  0.00     0.419 C 
HETATM   10  F2  UNL     1      23.267   4.073   3.079  1.00  0.00    -0.166 F 
HETATM   11  F3  UNL     1      23.441   5.777   4.593  1.00  0.00    -0.166 F 
HETATM   12  F4  UNL     1      23.669   3.590   5.220  1.00  0.00    -0.166 F 
ENDBRANCH   7   9
BRANCH   1  13
HETATM   13  N1  UNL     1      28.427   2.429   4.351  1.00  0.00    -0.325 N 
HETATM   14  C10 UNL     1      28.710   1.369   3.463  1.00  0.00     0.258 C 
HETATM   15  O3  UNL     1      28.173   1.291   2.338  1.00  0.00    -0.270 OA
ATOM     16  H1  UNL     1      28.905   2.431   5.252  1.00  0.00     0.169 HD
BRANCH  14  17
HETATM   17  C2  UNL     1      29.670   0.285   3.828  1.00  0.00     0.156 C 
HETATM   18  C1  UNL     1      28.997  -1.070   3.831  1.00  0.00     0.059 C 
BRANCH  17  19
HETATM   19  O1  UNL     1      30.677   0.248   2.876  1.00  0.00    -0.378 OA
ATOM     20  H1  UNL     1      31.391   0.785   3.195  1.00  0.00     0.211 HD
ENDBRANCH  17  19
BRANCH  17  21
HETATM   21  C3  UNL     1      30.237   0.611   5.210  1.00  0.00     0.223 C 
BRANCH  21  22
HETATM   22  O2  UNL     1      29.490  -0.105   6.154  1.00  0.00    -0.348 OA
BRANCH  22  23
HETATM   23  C4  UNL     1      29.755  -0.166   7.494  1.00  0.00     0.071 A 
HETATM   24  C5  UNL     1      28.892  -0.899   8.292  1.00  0.00     0.038 A 
HETATM   25  C6  UNL     1      29.079  -1.017   9.655  1.00  0.00     0.030 A 
HETATM   26  C7  UNL     1      30.147  -0.401  10.276  1.00  0.00     0.072 A 
HETATM   27 CL1  UNL     1      30.414  -0.531  12.005  1.00  0.00    -0.081 Cl
HETATM   28  C8  UNL     1      31.005   0.327   9.474  1.00  0.00     0.140 A 
HETATM   29  F1  UNL     1      32.070   0.950  10.047  1.00  0.00    -0.204 F 
HETATM   30  C9  UNL     1      30.823   0.450   8.112  1.00  0.00     0.080 A 
ENDBRANCH  22  23
ENDBRANCH  21  22
ENDBRANCH  17  21
ENDBRANCH  14  17
ENDBRANCH   1  13
TORSDOF 7
ENDMDL
