MODEL 7
REMARK VINA RESULT: -8.030501082      1.251      1.919
REMARK  6 active torsions:
REMARK  status: ('A' for Active; 'I' for Inactive)
REMARK    1  A    between atoms: C2_2  and  O1_3 
REMARK    2  A    between atoms: C2_2  and  C3_5 
REMARK    3  A    between atoms: C2_2  and  C11_15 
REMARK    4  A    between atoms: C3_5  and  O2_6 
REMARK    5  A    between atoms: O2_6  and  C4_7 
REMARK       I    between atoms: C11_15  and  N2_17 
REMARK    6  A    between atoms: N2_17  and  C12_19 
ROOT
HETATM    1  C4  UNL     1      30.207   1.202   5.566  1.00  0.00     0.069 A 
HETATM    2  C5  UNL     1      29.706   2.261   6.358  1.00  0.00     0.038 A 
HETATM    3  C6  UNL     1      29.576   2.158   7.718  1.00  0.00     0.025 A 
HETATM    4  C7  UNL     1      29.932   1.002   8.376  1.00  0.00     0.044 A 
HETATM    5  C8  UNL     1      29.783   0.925   9.810  1.00  0.00     0.099 C 
HETATM    6  N1  UNL     1      29.657   0.850  10.944  1.00  0.00    -0.191 NA
HETATM    7  C9  UNL     1      30.421  -0.043   7.645  1.00  0.00     0.025 A 
HETATM    8  C10 UNL     1      30.548   0.080   6.258  1.00  0.00     0.038 A 
ENDROOT
BRANCH   1   9
HETATM    9  O2  UNL     1      30.292   1.411   4.273  1.00  0.00    -0.348 OA
BRANCH   9  10
HETATM   10  C3  UNL     1      30.063   0.743   3.123  1.00  0.00     0.223 C 
BRANCH  10  11
HETATM   11  C2  UNL     1      28.636   0.348   2.816  1.00  0.00     0.156 C 
HETATM   12  C1  UNL     1      28.218  -0.847   3.665  1.00  0.00     0.059 C 
BRANCH  11  13
HETATM   13  O1  UNL     1      28.388   0.073   1.502  1.00  0.00    -0.378 OA
ATOM     14  H1  UNL     1      28.382   0.885   1.009  1.00  0.00     0.211 HD
ENDBRANCH  11  13
BRANCH  11  15
HETATM   15  C11 UNL     1      27.810   1.532   3.249  1.00  0.00     0.258 C 
HETATM   16  O3  UNL     1      27.005   1.300   4.178  1.00  0.00    -0.270 OA
HETATM   17  N2  UNL     1      27.932   2.783   2.665  1.00  0.00    -0.324 N 
ATOM     18  H2  UNL     1      28.616   2.892   1.916  1.00  0.00     0.169 HD
BRANCH  17  19
HETATM   19  C12 UNL     1      27.175   3.919   3.033  1.00  0.00     0.036 A 
HETATM   20  C13 UNL     1      27.657   5.187   3.210  1.00  0.00     0.031 A 
HETATM   21  C14 UNL     1      26.826   6.270   3.564  1.00  0.00     0.026 A 
HETATM   22  C15 UNL     1      25.492   6.044   3.734  1.00  0.00     0.061 A 
HETATM   23  C16 UNL     1      24.651   7.149   4.093  1.00  0.00     0.100 C 
HETATM   24  C17 UNL     1      24.946   4.790   3.570  1.00  0.00     0.029 A 
HETATM   25  N3  UNL     1      23.954   8.036   4.385  1.00  0.00    -0.191 NA
HETATM   26  I1  UNL     1      22.863   4.464   3.842  1.00  0.00    -0.043 I 
HETATM   27  C18 UNL     1      25.785   3.767   3.229  1.00  0.00     0.049 A 
ENDBRANCH  17  19
ENDBRANCH  11  15
ENDBRANCH  10  11
ENDBRANCH   9  10
ENDBRANCH   1   9
TORSDOF 6
ENDMDL
