MODEL 1
REMARK VINA RESULT: -10.953640746      0.000      0.000
REMARK  6 active torsions:
REMARK  status: ('A' for Active; 'I' for Inactive)
REMARK    1  A    between atoms: C2_2  and  O1_3 
REMARK    2  A    between atoms: C2_2  and  C3_5 
REMARK    3  A    between atoms: C2_2  and  C11_15 
REMARK    4  A    between atoms: C3_5  and  O2_6 
REMARK    5  A    between atoms: O2_6  and  C4_7 
REMARK       I    between atoms: C11_15  and  N2_17 
REMARK    6  A    between atoms: N2_17  and  C12_19 
ROOT
HETATM    1  C4  UNL     1      29.760   0.758   7.562  1.00  0.00     0.069 A 
HETATM    2  C5  UNL     1      30.129  -0.392   8.299  1.00  0.00     0.038 A 
HETATM    3  C6  UNL     1      29.882  -0.508   9.642  1.00  0.00     0.025 A 
HETATM    4  C7  UNL     1      29.257   0.504  10.335  1.00  0.00     0.044 A 
HETATM    5  C8  UNL     1      29.012   0.351  11.750  1.00  0.00     0.099 C 
HETATM    6  N1  UNL     1      28.824   0.243  12.873  1.00  0.00    -0.191 NA
HETATM    7  C9  UNL     1      28.885   1.630   9.657  1.00  0.00     0.025 A 
HETATM    8  C10 UNL     1      29.144   1.731   8.287  1.00  0.00     0.038 A 
ENDROOT
BRANCH   1   9
HETATM    9  O2  UNL     1      30.042   0.761   6.279  1.00  0.00    -0.348 OA
BRANCH   9  10
HETATM   10  C3  UNL     1      29.589   0.191   5.143  1.00  0.00     0.223 C 
BRANCH  10  11
HETATM   11  C2  UNL     1      29.633   1.020   3.879  1.00  0.00     0.156 C 
HETATM   12  C1  UNL     1      29.198   0.187   2.679  1.00  0.00     0.059 C 
BRANCH  11  13
HETATM   13  O1  UNL     1      30.842   1.594   3.612  1.00  0.00    -0.378 OA
ATOM     14  H1  UNL     1      31.032   2.245   4.277  1.00  0.00     0.211 HD
ENDBRANCH  11  13
BRANCH  11  15
HETATM   15  C11 UNL     1      28.599   2.095   4.091  1.00  0.00     0.258 C 
HETATM   16  O3  UNL     1      27.780   1.864   5.008  1.00  0.00    -0.270 OA
HETATM   17  N2  UNL     1      28.556   3.253   3.329  1.00  0.00    -0.324 N 
ATOM     18  H2  UNL     1      29.264   3.369   2.604  1.00  0.00     0.169 HD
BRANCH  17  19
HETATM   19  C12 UNL     1      27.603   4.284   3.487  1.00  0.00     0.036 A 
HETATM   20  C13 UNL     1      27.860   5.628   3.492  1.00  0.00     0.031 A 
HETATM   21  C14 UNL     1      26.843   6.593   3.639  1.00  0.00     0.026 A 
HETATM   22  C15 UNL     1      25.555   6.171   3.781  1.00  0.00     0.061 A 
HETATM   23  C16 UNL     1      24.523   7.156   3.930  1.00  0.00     0.100 C 
HETATM   24  C17 UNL     1      25.231   4.831   3.784  1.00  0.00     0.029 A 
HETATM   25  N3  UNL     1      23.673   7.944   4.053  1.00  0.00    -0.191 NA
HETATM   26  I1  UNL     1      23.213   4.199   4.007  1.00  0.00    -0.043 I 
HETATM   27  C18 UNL     1      26.245   3.927   3.640  1.00  0.00     0.049 A 
ENDBRANCH  17  19
ENDBRANCH  11  15
ENDBRANCH  10  11
ENDBRANCH   9  10
ENDBRANCH   1   9
TORSDOF 6
ENDMDL
