MODEL 3
REMARK VINA RESULT: -8.938397280      1.177      1.498
REMARK  6 active torsions:
REMARK  status: ('A' for Active; 'I' for Inactive)
REMARK    1  A    between atoms: C2_2  and  O1_3 
REMARK    2  A    between atoms: C2_2  and  C3_5 
REMARK    3  A    between atoms: C2_2  and  C11_15 
REMARK    4  A    between atoms: C3_5  and  O2_6 
REMARK    5  A    between atoms: O2_6  and  C4_7 
REMARK       I    between atoms: C11_15  and  N2_17 
REMARK    6  A    between atoms: N2_17  and  C12_19 
ROOT
HETATM    1  C4  UNL     1      29.945   1.480   5.866  1.00  0.00     0.069 A 
HETATM    2  C5  UNL     1      30.408   0.317   6.522  1.00  0.00     0.038 A 
HETATM    3  C6  UNL     1      30.179   0.090   7.854  1.00  0.00     0.025 A 
HETATM    4  C7  UNL     1      29.479   0.999   8.615  1.00  0.00     0.044 A 
HETATM    5  C8  UNL     1      29.254   0.730  10.015  1.00  0.00     0.099 C 
HETATM    6  N1  UNL     1      29.082   0.532  11.129  1.00  0.00    -0.191 NA
HETATM    7  C9  UNL     1      29.015   2.135   8.015  1.00  0.00     0.025 A 
HETATM    8  C10 UNL     1      29.258   2.350   6.655  1.00  0.00     0.038 A 
ENDROOT
BRANCH   1   9
HETATM    9  O2  UNL     1      30.219   1.593   4.586  1.00  0.00    -0.348 OA
BRANCH   9  10
HETATM   10  C3  UNL     1      30.068   0.876   3.452  1.00  0.00     0.223 C 
BRANCH  10  11
HETATM   11  C2  UNL     1      28.683   0.366   3.127  1.00  0.00     0.156 C 
HETATM   12  C1  UNL     1      28.287  -0.753   4.084  1.00  0.00     0.059 C 
BRANCH  11  13
HETATM   13  O1  UNL     1      28.518  -0.065   1.842  1.00  0.00    -0.378 OA
ATOM     14  H1  UNL     1      29.205  -0.686   1.631  1.00  0.00     0.211 HD
ENDBRANCH  11  13
BRANCH  11  15
HETATM   15  C11 UNL     1      27.772   1.538   3.388  1.00  0.00     0.258 C 
HETATM   16  O3  UNL     1      26.684   1.247   3.933  1.00  0.00    -0.270 OA
HETATM   17  N2  UNL     1      28.112   2.839   3.053  1.00  0.00    -0.324 N 
ATOM     18  H2  UNL     1      29.021   2.994   2.616  1.00  0.00     0.169 HD
BRANCH  17  19
HETATM   19  C12 UNL     1      27.289   3.967   3.272  1.00  0.00     0.036 A 
HETATM   20  C13 UNL     1      27.699   5.272   3.302  1.00  0.00     0.031 A 
HETATM   21  C14 UNL     1      26.805   6.342   3.512  1.00  0.00     0.026 A 
HETATM   22  C15 UNL     1      25.482   6.065   3.690  1.00  0.00     0.061 A 
HETATM   23  C16 UNL     1      24.576   7.156   3.903  1.00  0.00     0.100 C 
HETATM   24  C17 UNL     1      25.007   4.771   3.670  1.00  0.00     0.029 A 
HETATM   25  N3  UNL     1      23.827   8.031   4.077  1.00  0.00    -0.191 NA
HETATM   26  I1  UNL     1      22.939   4.366   3.951  1.00  0.00    -0.043 I 
HETATM   27  C18 UNL     1      25.905   3.762   3.465  1.00  0.00     0.049 A 
ENDBRANCH  17  19
ENDBRANCH  11  15
ENDBRANCH  10  11
ENDBRANCH   9  10
ENDBRANCH   1   9
TORSDOF 6
ENDMDL
