MODEL 2
REMARK VINA RESULT: -9.905141970      1.488      1.988
REMARK  6 active torsions:
REMARK  status: ('A' for Active; 'I' for Inactive)
REMARK    1  A    between atoms: C2_2  and  O1_3 
REMARK    2  A    between atoms: C2_2  and  C3_5 
REMARK    3  A    between atoms: C2_2  and  C11_15 
REMARK    4  A    between atoms: C3_5  and  O2_6 
REMARK    5  A    between atoms: O2_6  and  C4_7 
REMARK       I    between atoms: C11_15  and  N2_17 
REMARK    6  A    between atoms: N2_17  and  C12_19 
ROOT
HETATM    1  C4  UNL     1      29.714   0.922   7.702  1.00  0.00     0.069 A 
HETATM    2  C5  UNL     1      30.200  -0.179   8.446  1.00  0.00     0.038 A 
HETATM    3  C6  UNL     1      29.926  -0.337   9.779  1.00  0.00     0.025 A 
HETATM    4  C7  UNL     1      29.157   0.583  10.456  1.00  0.00     0.044 A 
HETATM    5  C8  UNL     1      28.887   0.389  11.861  1.00  0.00     0.099 C 
HETATM    6  N1  UNL     1      28.678   0.249  12.977  1.00  0.00    -0.191 NA
HETATM    7  C9  UNL     1      28.669   1.660   9.771  1.00  0.00     0.025 A 
HETATM    8  C10 UNL     1      28.958   1.804   8.411  1.00  0.00     0.038 A 
ENDROOT
BRANCH   1   9
HETATM    9  O2  UNL     1      30.035   0.971   6.430  1.00  0.00    -0.348 OA
BRANCH   9  10
HETATM   10  C3  UNL     1      30.336   0.117   5.429  1.00  0.00     0.223 C 
BRANCH  10  11
HETATM   11  C2  UNL     1      30.030   0.559   4.016  1.00  0.00     0.156 C 
HETATM   12  C1  UNL     1      30.170  -0.610   3.048  1.00  0.00     0.059 C 
BRANCH  11  13
HETATM   13  O1  UNL     1      30.784   1.605   3.567  1.00  0.00    -0.378 OA
ATOM     14  H1  UNL     1      31.072   1.423   2.681  1.00  0.00     0.211 HD
ENDBRANCH  11  13
BRANCH  11  15
HETATM   15  C11 UNL     1      28.578   0.959   4.047  1.00  0.00     0.258 C 
HETATM   16  O3  UNL     1      27.778   0.023   4.268  1.00  0.00    -0.270 OA
HETATM   17  N2  UNL     1      28.157   2.265   3.846  1.00  0.00    -0.324 N 
ATOM     18  H2  UNL     1      28.872   2.972   3.677  1.00  0.00     0.169 HD
BRANCH  17  19
HETATM   19  C12 UNL     1      26.807   2.686   3.859  1.00  0.00     0.036 A 
HETATM   20  C13 UNL     1      25.710   1.876   3.969  1.00  0.00     0.031 A 
HETATM   21  C14 UNL     1      24.394   2.382   3.990  1.00  0.00     0.026 A 
HETATM   22  C15 UNL     1      24.210   3.729   3.898  1.00  0.00     0.061 A 
HETATM   23  C16 UNL     1      22.870   4.240   3.920  1.00  0.00     0.100 C 
HETATM   24  C17 UNL     1      25.274   4.598   3.785  1.00  0.00     0.029 A 
HETATM   25  N3  UNL     1      21.787   4.671   3.936  1.00  0.00    -0.191 NA
HETATM   26  I1  UNL     1      24.958   6.695   3.643  1.00  0.00    -0.043 I 
HETATM   27  C18 UNL     1      26.533   4.068   3.768  1.00  0.00     0.049 A 
ENDBRANCH  17  19
ENDBRANCH  11  15
ENDBRANCH  10  11
ENDBRANCH   9  10
ENDBRANCH   1   9
TORSDOF 6
ENDMDL
