MODEL 4
REMARK VINA RESULT: -8.404313335      2.591      7.447
REMARK  6 active torsions:
REMARK  status: ('A' for Active; 'I' for Inactive)
REMARK    1  A    between atoms: C2_2  and  O1_3 
REMARK    2  A    between atoms: C2_2  and  C3_5 
REMARK    3  A    between atoms: C2_2  and  C11_15 
REMARK    4  A    between atoms: C3_5  and  O2_6 
REMARK    5  A    between atoms: O2_6  and  C4_7 
REMARK       I    between atoms: C11_15  and  N2_17 
REMARK    6  A    between atoms: N2_17  and  C12_19 
ROOT
HETATM    1  C4  UNL     1      27.258   3.399   3.290  1.00  0.00     0.069 A 
HETATM    2  C5  UNL     1      27.644   4.697   2.885  1.00  0.00     0.038 A 
HETATM    3  C6  UNL     1      26.838   5.790   3.073  1.00  0.00     0.025 A 
HETATM    4  C7  UNL     1      25.604   5.663   3.670  1.00  0.00     0.044 A 
HETATM    5  C8  UNL     1      24.779   6.834   3.853  1.00  0.00     0.099 C 
HETATM    6  N1  UNL     1      24.114   7.754   3.992  1.00  0.00    -0.191 NA
HETATM    7  C9  UNL     1      25.197   4.424   4.076  1.00  0.00     0.025 A 
HETATM    8  C10 UNL     1      26.032   3.321   3.877  1.00  0.00     0.038 A 
ENDROOT
BRANCH   1   9
HETATM    9  O2  UNL     1      28.110   2.425   3.064  1.00  0.00    -0.348 OA
BRANCH   9  10
HETATM   10  C3  UNL     1      28.125   1.210   2.476  1.00  0.00     0.223 C 
BRANCH  10  11
HETATM   11  C2  UNL     1      29.102   0.187   3.008  1.00  0.00     0.156 C 
HETATM   12  C1  UNL     1      30.536   0.618   2.720  1.00  0.00     0.059 C 
BRANCH  11  13
HETATM   13  O1  UNL     1      28.914  -1.082   2.541  1.00  0.00    -0.378 OA
ATOM     14  H1  UNL     1      28.181  -1.086   1.937  1.00  0.00     0.211 HD
ENDBRANCH  11  13
BRANCH  11  15
HETATM   15  C11 UNL     1      28.906   0.211   4.501  1.00  0.00     0.258 C 
HETATM   16  O3  UNL     1      27.871  -0.363   4.905  1.00  0.00    -0.270 OA
HETATM   17  N2  UNL     1      29.803   0.822   5.364  1.00  0.00    -0.324 N 
ATOM     18  H2  UNL     1      30.627   1.264   4.956  1.00  0.00     0.169 HD
BRANCH  17  19
HETATM   19  C12 UNL     1      29.658   0.875   6.769  1.00  0.00     0.036 A 
HETATM   20  C13 UNL     1      29.387   1.992   7.511  1.00  0.00     0.031 A 
HETATM   21  C14 UNL     1      29.241   1.953   8.913  1.00  0.00     0.026 A 
HETATM   22  C15 UNL     1      29.374   0.757   9.552  1.00  0.00     0.061 A 
HETATM   23  C16 UNL     1      29.225   0.722  10.978  1.00  0.00     0.100 C 
HETATM   24  C17 UNL     1      29.647  -0.404   8.862  1.00  0.00     0.029 A 
HETATM   25  N3  UNL     1      29.106   0.676  12.137  1.00  0.00    -0.191 NA
HETATM   26  I1  UNL     1      29.850  -2.257   9.883  1.00  0.00    -0.043 I 
HETATM   27  C18 UNL     1      29.782  -0.324   7.504  1.00  0.00     0.049 A 
ENDBRANCH  17  19
ENDBRANCH  11  15
ENDBRANCH  10  11
ENDBRANCH   9  10
ENDBRANCH   1   9
TORSDOF 6
ENDMDL
