MODEL 5
REMARK VINA RESULT: -8.393274765      1.643      2.152
REMARK  6 active torsions:
REMARK  status: ('A' for Active; 'I' for Inactive)
REMARK    1  A    between atoms: C2_2  and  O1_3 
REMARK    2  A    between atoms: C2_2  and  C3_5 
REMARK    3  A    between atoms: C2_2  and  C11_15 
REMARK    4  A    between atoms: C3_5  and  O2_6 
REMARK    5  A    between atoms: O2_6  and  C4_7 
REMARK       I    between atoms: C11_15  and  N2_17 
REMARK    6  A    between atoms: N2_17  and  C12_19 
ROOT
HETATM    1  C4  UNL     1      29.796   0.717   7.120  1.00  0.00     0.069 A 
HETATM    2  C5  UNL     1      30.114  -0.430   7.885  1.00  0.00     0.038 A 
HETATM    3  C6  UNL     1      29.873  -0.498   9.232  1.00  0.00     0.025 A 
HETATM    4  C7  UNL     1      29.305   0.562   9.903  1.00  0.00     0.044 A 
HETATM    5  C8  UNL     1      29.065   0.458  11.323  1.00  0.00     0.099 C 
HETATM    6  N1  UNL     1      28.882   0.390  12.450  1.00  0.00    -0.191 NA
HETATM    7  C9  UNL     1      28.983   1.686   9.198  1.00  0.00     0.025 A 
HETATM    8  C10 UNL     1      29.235   1.738   7.823  1.00  0.00     0.038 A 
ENDROOT
BRANCH   1   9
HETATM    9  O2  UNL     1      30.066   0.672   5.836  1.00  0.00    -0.348 OA
BRANCH   9  10
HETATM   10  C3  UNL     1      30.579  -0.197   4.940  1.00  0.00     0.223 C 
BRANCH  10  11
HETATM   11  C2  UNL     1      29.951  -0.239   3.566  1.00  0.00     0.156 C 
HETATM   12  C1  UNL     1      29.178  -1.538   3.371  1.00  0.00     0.059 C 
BRANCH  11  13
HETATM   13  O1  UNL     1      30.827  -0.079   2.530  1.00  0.00    -0.378 OA
ATOM     14  H1  UNL     1      31.465   0.586   2.762  1.00  0.00     0.211 HD
ENDBRANCH  11  13
BRANCH  11  15
HETATM   15  C11 UNL     1      28.956   0.892   3.566  1.00  0.00     0.258 C 
HETATM   16  O3  UNL     1      29.447   2.026   3.368  1.00  0.00    -0.270 OA
HETATM   17  N2  UNL     1      27.598   0.695   3.770  1.00  0.00    -0.324 N 
ATOM     18  H2  UNL     1      27.276  -0.261   3.919  1.00  0.00     0.169 HD
BRANCH  17  19
HETATM   19  C12 UNL     1      26.630   1.724   3.785  1.00  0.00     0.036 A 
HETATM   20  C13 UNL     1      25.276   1.557   3.888  1.00  0.00     0.031 A 
HETATM   21  C14 UNL     1      24.378   2.645   3.912  1.00  0.00     0.026 A 
HETATM   22  C15 UNL     1      24.880   3.910   3.830  1.00  0.00     0.061 A 
HETATM   23  C16 UNL     1      23.964   5.013   3.856  1.00  0.00     0.100 C 
HETATM   24  C17 UNL     1      26.234   4.144   3.725  1.00  0.00     0.029 A 
HETATM   25  N3  UNL     1      23.233   5.920   3.875  1.00  0.00    -0.191 NA
HETATM   26  I1  UNL     1      26.990   6.126   3.599  1.00  0.00    -0.043 I 
HETATM   27  C18 UNL     1      27.070   3.063   3.704  1.00  0.00     0.049 A 
ENDBRANCH  17  19
ENDBRANCH  11  15
ENDBRANCH  10  11
ENDBRANCH   9  10
ENDBRANCH   1   9
TORSDOF 6
ENDMDL
