MODEL 9
REMARK VINA RESULT: -7.381169669      2.900      7.292
REMARK  6 active torsions:
REMARK  status: ('A' for Active; 'I' for Inactive)
REMARK    1  A    between atoms: C2_2  and  O1_3 
REMARK    2  A    between atoms: C2_2  and  C3_5 
REMARK    3  A    between atoms: C2_2  and  C11_15 
REMARK    4  A    between atoms: C3_5  and  O2_6 
REMARK    5  A    between atoms: O2_6  and  C4_7 
REMARK       I    between atoms: C11_15  and  N2_17 
REMARK    6  A    between atoms: N2_17  and  C12_19 
ROOT
HETATM    1  C4  UNL     1      26.845   1.691   2.683  1.00  0.00     0.069 A 
HETATM    2  C5  UNL     1      27.037   3.085   2.826  1.00  0.00     0.038 A 
HETATM    3  C6  UNL     1      26.035   3.920   3.245  1.00  0.00     0.025 A 
HETATM    4  C7  UNL     1      24.785   3.428   3.547  1.00  0.00     0.044 A 
HETATM    5  C8  UNL     1      23.751   4.334   3.986  1.00  0.00     0.099 C 
HETATM    6  N1  UNL     1      22.922   5.046   4.323  1.00  0.00    -0.191 NA
HETATM    7  C9  UNL     1      24.562   2.086   3.422  1.00  0.00     0.025 A 
HETATM    8  C10 UNL     1      25.596   1.248   2.993  1.00  0.00     0.038 A 
ENDROOT
BRANCH   1   9
HETATM    9  O2  UNL     1      27.876   0.985   2.277  1.00  0.00    -0.348 OA
BRANCH   9  10
HETATM   10  C3  UNL     1      28.576  -0.100   2.670  1.00  0.00     0.223 C 
BRANCH  10  11
HETATM   11  C2  UNL     1      29.839   0.133   3.467  1.00  0.00     0.156 C 
HETATM   12  C1  UNL     1      30.448   1.487   3.120  1.00  0.00     0.059 C 
BRANCH  11  13
HETATM   13  O1  UNL     1      30.792  -0.835   3.328  1.00  0.00    -0.378 OA
ATOM     14  H1  UNL     1      31.556  -0.596   3.839  1.00  0.00     0.211 HD
ENDBRANCH  11  13
BRANCH  11  15
HETATM   15  C11 UNL     1      29.381   0.190   4.902  1.00  0.00     0.258 C 
HETATM   16  O3  UNL     1      28.329  -0.442   5.144  1.00  0.00    -0.270 OA
HETATM   17  N2  UNL     1      30.072   0.888   5.881  1.00  0.00    -0.324 N 
ATOM     18  H2  UNL     1      30.925   1.373   5.603  1.00  0.00     0.169 HD
BRANCH  17  19
HETATM   19  C12 UNL     1      29.678   0.975   7.236  1.00  0.00     0.036 A 
HETATM   20  C13 UNL     1      29.026   2.026   7.821  1.00  0.00     0.031 A 
HETATM   21  C14 UNL     1      28.654   2.023   9.181  1.00  0.00     0.026 A 
HETATM   22  C15 UNL     1      28.955   0.931   9.940  1.00  0.00     0.061 A 
HETATM   23  C16 UNL     1      28.575   0.932  11.323  1.00  0.00     0.100 C 
HETATM   24  C17 UNL     1      29.610  -0.159   9.409  1.00  0.00     0.029 A 
HETATM   25  N3  UNL     1      28.273   0.918  12.448  1.00  0.00    -0.191 NA
HETATM   26  I1  UNL     1      30.067  -1.849  10.615  1.00  0.00    -0.043 I 
HETATM   27  C18 UNL     1      29.954  -0.117   8.087  1.00  0.00     0.049 A 
ENDBRANCH  17  19
ENDBRANCH  11  15
ENDBRANCH  10  11
ENDBRANCH   9  10
ENDBRANCH   1   9
TORSDOF 6
ENDMDL
