MODEL 6
REMARK VINA RESULT: -8.143219589      2.539      7.479
REMARK  6 active torsions:
REMARK  status: ('A' for Active; 'I' for Inactive)
REMARK    1  A    between atoms: C2_2  and  O1_3 
REMARK    2  A    between atoms: C2_2  and  C3_5 
REMARK    3  A    between atoms: C2_2  and  C11_15 
REMARK    4  A    between atoms: C3_5  and  O2_6 
REMARK    5  A    between atoms: O2_6  and  C4_7 
REMARK       I    between atoms: C11_15  and  N2_17 
REMARK    6  A    between atoms: N2_17  and  C12_19 
ROOT
HETATM    1  C4  UNL     1      27.633   3.791   3.739  1.00  0.00     0.069 A 
HETATM    2  C5  UNL     1      26.274   3.584   4.069  1.00  0.00     0.038 A 
HETATM    3  C6  UNL     1      25.363   4.607   4.087  1.00  0.00     0.025 A 
HETATM    4  C7  UNL     1      25.741   5.895   3.780  1.00  0.00     0.044 A 
HETATM    5  C8  UNL     1      24.757   6.952   3.808  1.00  0.00     0.099 C 
HETATM    6  N1  UNL     1      23.987   7.797   3.839  1.00  0.00    -0.191 NA
HETATM    7  C9  UNL     1      27.046   6.135   3.456  1.00  0.00     0.025 A 
HETATM    8  C10 UNL     1      27.962   5.078   3.442  1.00  0.00     0.038 A 
ENDROOT
BRANCH   1   9
HETATM    9  O2  UNL     1      28.418   2.738   3.750  1.00  0.00    -0.348 OA
BRANCH   9  10
HETATM   10  C3  UNL     1      29.015   1.913   2.865  1.00  0.00     0.223 C 
BRANCH  10  11
HETATM   11  C2  UNL     1      29.012   0.434   3.175  1.00  0.00     0.156 C 
HETATM   12  C1  UNL     1      30.356  -0.190   2.818  1.00  0.00     0.059 C 
BRANCH  11  13
HETATM   13  O1  UNL     1      28.015  -0.276   2.570  1.00  0.00    -0.378 OA
ATOM     14  H1  UNL     1      27.181  -0.034   2.957  1.00  0.00     0.211 HD
ENDBRANCH  11  13
BRANCH  11  15
HETATM   15  C11 UNL     1      28.852   0.357   4.671  1.00  0.00     0.258 C 
HETATM   16  O3  UNL     1      27.864  -0.304   5.061  1.00  0.00    -0.270 OA
HETATM   17  N2  UNL     1      29.731   0.970   5.551  1.00  0.00    -0.324 N 
ATOM     18  H2  UNL     1      30.515   1.487   5.152  1.00  0.00     0.169 HD
BRANCH  17  19
HETATM   19  C12 UNL     1      29.617   0.931   6.959  1.00  0.00     0.036 A 
HETATM   20  C13 UNL     1      29.371   1.998   7.779  1.00  0.00     0.031 A 
HETATM   21  C14 UNL     1      29.257   1.867   9.178  1.00  0.00     0.026 A 
HETATM   22  C15 UNL     1      29.396   0.630   9.734  1.00  0.00     0.061 A 
HETATM   23  C16 UNL     1      29.278   0.501  11.157  1.00  0.00     0.100 C 
HETATM   24  C17 UNL     1      29.644  -0.484   8.961  1.00  0.00     0.029 A 
HETATM   25  N3  UNL     1      29.185   0.380  12.312  1.00  0.00    -0.191 NA
HETATM   26  I1  UNL     1      29.856  -2.402   9.853  1.00  0.00    -0.043 I 
HETATM   27  C18 UNL     1      29.749  -0.315   7.610  1.00  0.00     0.049 A 
ENDBRANCH  17  19
ENDBRANCH  11  15
ENDBRANCH  10  11
ENDBRANCH   9  10
ENDBRANCH   1   9
TORSDOF 6
ENDMDL
