MODEL 10
REMARK VINA RESULT: -8.610447347      4.018      7.760
REMARK  8 active torsions:
REMARK  status: ('A' for Active; 'I' for Inactive)
REMARK    1  A    between atoms: C2_2  and  O1_3 
REMARK    2  A    between atoms: C2_2  and  C3_5 
REMARK    3  A    between atoms: C2_2  and  C10_16 
REMARK    4  A    between atoms: C3_5  and  O2_6 
REMARK    5  A    between atoms: O2_6  and  C4_7 
REMARK    6  A    between atoms: C7_10  and  N1_11 
REMARK       I    between atoms: C10_16  and  N2_18 
REMARK    7  A    between atoms: N2_18  and  C11_20 
REMARK    8  A    between atoms: C16_26  and  C17_27 
ROOT
HETATM    1  C11 UNL     1      29.446   1.337   7.613  1.00  0.00     0.035 A 
HETATM    2  C12 UNL     1      28.577   2.285   8.185  1.00  0.00     0.031 A 
HETATM    3  C13 UNL     1      28.205   2.228   9.491  1.00  0.00     0.026 A 
HETATM    4  C14 UNL     1      28.689   1.206  10.301  1.00  0.00     0.059 A 
HETATM    5  C15 UNL     1      28.296   1.143  11.688  1.00  0.00     0.100 C 
HETATM    6  N3  UNL     1      27.998   1.093  12.809  1.00  0.00    -0.191 NA
HETATM    7  C16 UNL     1      29.538   0.252   9.801  1.00  0.00     0.070 A 
HETATM    8  C18 UNL     1      29.888   0.360   8.450  1.00  0.00     0.047 A 
ENDROOT
BRANCH   7   9
HETATM    9  C17 UNL     1      30.059  -0.841  10.654  1.00  0.00     0.419 C 
HETATM   10  F1  UNL     1      30.380  -1.894   9.786  1.00  0.00    -0.166 F 
HETATM   11  F2  UNL     1      29.063  -1.320  11.482  1.00  0.00    -0.166 F 
HETATM   12  F3  UNL     1      31.167  -0.450  11.379  1.00  0.00    -0.166 F 
ENDBRANCH   7   9
BRANCH   1  13
HETATM   13  N2  UNL     1      29.768   1.476   6.232  1.00  0.00    -0.325 N 
HETATM   14  C10 UNL     1      29.246   0.662   5.243  1.00  0.00     0.258 C 
HETATM   15  O5  UNL     1      28.449  -0.275   5.439  1.00  0.00    -0.270 OA
ATOM     16  H2  UNL     1      30.417   2.214   5.958  1.00  0.00     0.169 HD
BRANCH  14  17
HETATM   17  C2  UNL     1      29.617   0.852   3.788  1.00  0.00     0.156 C 
HETATM   18  C1  UNL     1      30.683   1.964   3.801  1.00  0.00     0.059 C 
BRANCH  17  19
HETATM   19  O1  UNL     1      30.127  -0.265   3.234  1.00  0.00    -0.378 OA
ATOM     20  H1  UNL     1      29.504  -0.634   2.619  1.00  0.00     0.211 HD
ENDBRANCH  17  19
BRANCH  17  21
HETATM   21  C3  UNL     1      28.405   1.476   3.150  1.00  0.00     0.223 C 
BRANCH  21  22
HETATM   22  O2  UNL     1      27.647   2.315   3.867  1.00  0.00    -0.348 OA
BRANCH  22  23
HETATM   23  C4  UNL     1      27.076   3.516   3.753  1.00  0.00     0.069 A 
HETATM   24  C5  UNL     1      27.727   4.673   3.399  1.00  0.00     0.039 A 
HETATM   25  C6  UNL     1      26.968   5.846   3.334  1.00  0.00     0.039 A 
HETATM   26  C7  UNL     1      25.636   5.906   3.596  1.00  0.00     0.103 A 
HETATM   27  C8  UNL     1      24.994   4.746   3.947  1.00  0.00     0.039 A 
HETATM   28  C9  UNL     1      25.693   3.575   4.026  1.00  0.00     0.039 A 
BRANCH  26  29
HETATM   29  N1  UNL     1      24.879   7.111   3.524  1.00  0.00    -0.116 N 
HETATM   30  O3  UNL     1      24.825   7.705   2.438  1.00  0.00    -0.532 OA
HETATM   31  O4  UNL     1      24.227   7.610   4.615  1.00  0.00    -0.532 OA
ENDBRANCH  26  29
ENDBRANCH  22  23
ENDBRANCH  21  22
ENDBRANCH  17  21
ENDBRANCH  14  17
ENDBRANCH   1  13
TORSDOF 8
ENDMDL
