MODEL 2
REMARK VINA RESULT: -10.990818388      0.606      1.067
REMARK  8 active torsions:
REMARK  status: ('A' for Active; 'I' for Inactive)
REMARK    1  A    between atoms: C2_2  and  O1_3 
REMARK    2  A    between atoms: C2_2  and  C3_5 
REMARK    3  A    between atoms: C2_2  and  C10_16 
REMARK    4  A    between atoms: C3_5  and  O2_6 
REMARK    5  A    between atoms: O2_6  and  C4_7 
REMARK    6  A    between atoms: C7_10  and  N1_11 
REMARK       I    between atoms: C10_16  and  N2_18 
REMARK    7  A    between atoms: N2_18  and  C11_20 
REMARK    8  A    between atoms: C16_26  and  C17_27 
ROOT
HETATM    1  C11 UNL     1      27.528   4.071   3.665  1.00  0.00     0.035 A 
HETATM    2  C12 UNL     1      27.855   5.439   3.696  1.00  0.00     0.031 A 
HETATM    3  C13 UNL     1      26.907   6.407   3.817  1.00  0.00     0.026 A 
HETATM    4  C14 UNL     1      25.567   6.049   3.914  1.00  0.00     0.059 A 
HETATM    5  C15 UNL     1      24.558   7.073   4.043  1.00  0.00     0.100 C 
HETATM    6  N3  UNL     1      23.741   7.889   4.163  1.00  0.00    -0.191 NA
HETATM    7  C16 UNL     1      25.185   4.732   3.889  1.00  0.00     0.070 A 
HETATM    8  C18 UNL     1      26.203   3.778   3.763  1.00  0.00     0.047 A 
ENDROOT
BRANCH   7   9
HETATM    9  C17 UNL     1      23.761   4.339   3.991  1.00  0.00     0.419 C 
HETATM   10  F1  UNL     1      23.698   2.994   3.600  1.00  0.00    -0.166 F 
HETATM   11  F2  UNL     1      23.003   5.039   3.072  1.00  0.00    -0.166 F 
HETATM   12  F3  UNL     1      23.269   4.500   5.270  1.00  0.00    -0.166 F 
ENDBRANCH   7   9
BRANCH   1  13
HETATM   13  N2  UNL     1      28.592   3.134   3.523  1.00  0.00    -0.325 N 
HETATM   14  C10 UNL     1      28.625   1.916   4.177  1.00  0.00     0.258 C 
HETATM   15  O5  UNL     1      27.745   1.502   4.957  1.00  0.00    -0.270 OA
ATOM     16  H2  UNL     1      29.368   3.374   2.908  1.00  0.00     0.169 HD
BRANCH  14  17
HETATM   17  C2  UNL     1      29.777   0.953   3.992  1.00  0.00     0.156 C 
HETATM   18  C1  UNL     1      29.273  -0.059   2.943  1.00  0.00     0.059 C 
BRANCH  17  19
HETATM   19  O1  UNL     1      30.892   1.559   3.543  1.00  0.00    -0.378 OA
ATOM     20  H1  UNL     1      30.878   1.601   2.595  1.00  0.00     0.211 HD
ENDBRANCH  17  19
BRANCH  17  21
HETATM   21  C3  UNL     1      29.855   0.177   5.279  1.00  0.00     0.223 C 
BRANCH  21  22
HETATM   22  O2  UNL     1      30.080   0.833   6.425  1.00  0.00    -0.348 OA
BRANCH  22  23
HETATM   23  C4  UNL     1      29.811   0.722   7.728  1.00  0.00     0.069 A 
HETATM   24  C5  UNL     1      30.229  -0.307   8.539  1.00  0.00     0.039 A 
HETATM   25  C6  UNL     1      29.849  -0.264   9.884  1.00  0.00     0.039 A 
HETATM   26  C7  UNL     1      29.099   0.729  10.430  1.00  0.00     0.103 A 
HETATM   27  C8  UNL     1      28.689   1.752   9.615  1.00  0.00     0.039 A 
HETATM   28  C9  UNL     1      29.033   1.754   8.293  1.00  0.00     0.039 A 
BRANCH  26  29
HETATM   29  N1  UNL     1      28.721   0.757  11.805  1.00  0.00    -0.116 N 
HETATM   30  O3  UNL     1      29.520   0.311  12.640  1.00  0.00    -0.532 OA
HETATM   31  O4  UNL     1      27.516   1.257  12.203  1.00  0.00    -0.532 OA
ENDBRANCH  26  29
ENDBRANCH  22  23
ENDBRANCH  21  22
ENDBRANCH  17  21
ENDBRANCH  14  17
ENDBRANCH   1  13
TORSDOF 8
ENDMDL
