MODEL 8
REMARK VINA RESULT: -8.813877082      4.150      7.497
REMARK  8 active torsions:
REMARK  status: ('A' for Active; 'I' for Inactive)
REMARK    1  A    between atoms: C2_2  and  O1_3 
REMARK    2  A    between atoms: C2_2  and  C3_5 
REMARK    3  A    between atoms: C2_2  and  C10_16 
REMARK    4  A    between atoms: C3_5  and  O2_6 
REMARK    5  A    between atoms: O2_6  and  C4_7 
REMARK    6  A    between atoms: C7_10  and  N1_11 
REMARK       I    between atoms: C10_16  and  N2_18 
REMARK    7  A    between atoms: N2_18  and  C11_20 
REMARK    8  A    between atoms: C16_26  and  C17_27 
ROOT
HETATM    1  C11 UNL     1      29.677   0.897   7.373  1.00  0.00     0.035 A 
HETATM    2  C12 UNL     1      28.862   1.963   7.795  1.00  0.00     0.031 A 
HETATM    3  C13 UNL     1      28.443   2.087   9.083  1.00  0.00     0.026 A 
HETATM    4  C14 UNL     1      28.823   1.137  10.025  1.00  0.00     0.059 A 
HETATM    5  C15 UNL     1      28.380   1.266  11.393  1.00  0.00     0.100 C 
HETATM    6  N3  UNL     1      28.042   1.370  12.498  1.00  0.00    -0.191 NA
HETATM    7  C16 UNL     1      29.616   0.075   9.675  1.00  0.00     0.070 A 
HETATM    8  C18 UNL     1      30.018  -0.003   8.336  1.00  0.00     0.047 A 
ENDROOT
BRANCH   7   9
HETATM    9  C17 UNL     1      30.027  -0.943  10.669  1.00  0.00     0.419 C 
HETATM   10  F1  UNL     1      30.382  -2.084   9.937  1.00  0.00    -0.166 F 
HETATM   11  F2  UNL     1      28.949  -1.312  11.451  1.00  0.00    -0.166 F 
HETATM   12  F3  UNL     1      31.083  -0.512  11.446  1.00  0.00    -0.166 F 
ENDBRANCH   7   9
BRANCH   1  13
HETATM   13  N2  UNL     1      30.055   0.849   6.000  1.00  0.00    -0.325 N 
HETATM   14  C10 UNL     1      29.302   0.218   5.026  1.00  0.00     0.258 C 
HETATM   15  O5  UNL     1      28.226  -0.375   5.230  1.00  0.00    -0.270 OA
ATOM     16  H2  UNL     1      30.924   1.303   5.722  1.00  0.00     0.169 HD
BRANCH  14  17
HETATM   17  C2  UNL     1      29.744   0.198   3.579  1.00  0.00     0.156 C 
HETATM   18  C1  UNL     1      30.282   1.617   3.317  1.00  0.00     0.059 C 
BRANCH  17  19
HETATM   19  O1  UNL     1      30.713  -0.709   3.347  1.00  0.00    -0.378 OA
ATOM     20  H1  UNL     1      30.330  -1.574   3.256  1.00  0.00     0.211 HD
ENDBRANCH  17  19
BRANCH  17  21
HETATM   21  C3  UNL     1      28.473   0.105   2.779  1.00  0.00     0.223 C 
BRANCH  21  22
HETATM   22  O2  UNL     1      27.834   1.230   2.434  1.00  0.00    -0.348 OA
BRANCH  22  23
HETATM   23  C4  UNL     1      26.825   1.995   2.857  1.00  0.00     0.069 A 
HETATM   24  C5  UNL     1      25.552   1.551   3.125  1.00  0.00     0.039 A 
HETATM   25  C6  UNL     1      24.617   2.497   3.557  1.00  0.00     0.039 A 
HETATM   26  C7  UNL     1      24.893   3.817   3.726  1.00  0.00     0.103 A 
HETATM   27  C8  UNL     1      26.166   4.251   3.458  1.00  0.00     0.039 A 
HETATM   28  C9  UNL     1      27.115   3.365   3.033  1.00  0.00     0.039 A 
BRANCH  26  29
HETATM   29  N1  UNL     1      23.926   4.768   4.167  1.00  0.00    -0.116 N 
HETATM   30  O3  UNL     1      24.215   5.970   4.100  1.00  0.00    -0.532 OA
HETATM   31  O4  UNL     1      22.712   4.377   4.653  1.00  0.00    -0.532 OA
ENDBRANCH  26  29
ENDBRANCH  22  23
ENDBRANCH  21  22
ENDBRANCH  17  21
ENDBRANCH  14  17
ENDBRANCH   1  13
TORSDOF 8
ENDMDL
