MODEL 3
REMARK VINA RESULT: -10.132953984      0.888      1.594
REMARK  8 active torsions:
REMARK  status: ('A' for Active; 'I' for Inactive)
REMARK    1  A    between atoms: C2_2  and  O1_3 
REMARK    2  A    between atoms: C2_2  and  C3_5 
REMARK    3  A    between atoms: C2_2  and  C10_16 
REMARK    4  A    between atoms: C3_5  and  O2_6 
REMARK    5  A    between atoms: O2_6  and  C4_7 
REMARK    6  A    between atoms: C7_10  and  N1_11 
REMARK       I    between atoms: C10_16  and  N2_18 
REMARK    7  A    between atoms: N2_18  and  C11_20 
REMARK    8  A    between atoms: C16_26  and  C17_27 
ROOT
HETATM    1  C11 UNL     1      27.517   3.712   4.409  1.00  0.00     0.035 A 
HETATM    2  C12 UNL     1      27.978   4.991   4.046  1.00  0.00     0.031 A 
HETATM    3  C13 UNL     1      27.129   5.993   3.696  1.00  0.00     0.026 A 
HETATM    4  C14 UNL     1      25.757   5.763   3.690  1.00  0.00     0.059 A 
HETATM    5  C15 UNL     1      24.852   6.825   3.320  1.00  0.00     0.100 C 
HETATM    6  N3  UNL     1      24.117   7.677   3.038  1.00  0.00    -0.191 NA
HETATM    7  C16 UNL     1      25.247   4.537   4.034  1.00  0.00     0.070 A 
HETATM    8  C18 UNL     1      26.167   3.542   4.386  1.00  0.00     0.047 A 
ENDROOT
BRANCH   7   9
HETATM    9  C17 UNL     1      23.788   4.280   4.031  1.00  0.00     0.419 C 
HETATM   10  F1  UNL     1      23.285   4.868   5.199  1.00  0.00    -0.166 F 
HETATM   11  F2  UNL     1      23.540   2.926   4.149  1.00  0.00    -0.166 F 
HETATM   12  F3  UNL     1      23.172   4.806   2.914  1.00  0.00    -0.166 F 
ENDBRANCH   7   9
BRANCH   1  13
HETATM   13  N2  UNL     1      28.486   2.725   4.749  1.00  0.00    -0.325 N 
HETATM   14  C10 UNL     1      28.853   1.695   3.903  1.00  0.00     0.258 C 
HETATM   15  O5  UNL     1      28.385   1.508   2.764  1.00  0.00    -0.270 OA
ATOM     16  H2  UNL     1      28.934   2.782   5.664  1.00  0.00     0.169 HD
BRANCH  14  17
HETATM   17  C2  UNL     1      29.891   0.672   4.309  1.00  0.00     0.156 C 
HETATM   18  C1  UNL     1      29.729  -0.473   3.291  1.00  0.00     0.059 C 
BRANCH  17  19
HETATM   19  O1  UNL     1      31.146   1.159   4.254  1.00  0.00    -0.378 OA
ATOM     20  H1  UNL     1      31.166   1.941   3.715  1.00  0.00     0.211 HD
ENDBRANCH  17  19
BRANCH  17  21
HETATM   21  C3  UNL     1      29.401   0.109   5.616  1.00  0.00     0.223 C 
BRANCH  21  22
HETATM   22  O2  UNL     1      29.851   0.633   6.764  1.00  0.00    -0.348 OA
BRANCH  22  23
HETATM   23  C4  UNL     1      29.600   0.574   8.073  1.00  0.00     0.069 A 
HETATM   24  C5  UNL     1      30.005  -0.435   8.914  1.00  0.00     0.039 A 
HETATM   25  C6  UNL     1      29.646  -0.335  10.262  1.00  0.00     0.039 A 
HETATM   26  C7  UNL     1      28.929   0.695  10.783  1.00  0.00     0.103 A 
HETATM   27  C8  UNL     1      28.531   1.699   9.937  1.00  0.00     0.039 A 
HETATM   28  C9  UNL     1      28.856   1.645   8.612  1.00  0.00     0.039 A 
BRANCH  26  29
HETATM   29  N1  UNL     1      28.573   0.781  12.161  1.00  0.00    -0.116 N 
HETATM   30  O3  UNL     1      27.460   1.242  12.450  1.00  0.00    -0.532 OA
HETATM   31  O4  UNL     1      29.425   0.370  13.145  1.00  0.00    -0.532 OA
ENDBRANCH  26  29
ENDBRANCH  22  23
ENDBRANCH  21  22
ENDBRANCH  17  21
ENDBRANCH  14  17
ENDBRANCH   1  13
TORSDOF 8
ENDMDL
