MODEL 4
REMARK VINA RESULT: -9.936874472      1.416      2.046
REMARK  8 active torsions:
REMARK  status: ('A' for Active; 'I' for Inactive)
REMARK    1  A    between atoms: C2_2  and  O1_3 
REMARK    2  A    between atoms: C2_2  and  C3_5 
REMARK    3  A    between atoms: C2_2  and  C10_16 
REMARK    4  A    between atoms: C3_5  and  O2_6 
REMARK    5  A    between atoms: O2_6  and  C4_7 
REMARK    6  A    between atoms: C7_10  and  N1_11 
REMARK       I    between atoms: C10_16  and  N2_18 
REMARK    7  A    between atoms: N2_18  and  C11_20 
REMARK    8  A    between atoms: C16_26  and  C17_27 
ROOT
HETATM    1  C11 UNL     1      26.935   3.046   3.762  1.00  0.00     0.035 A 
HETATM    2  C12 UNL     1      25.840   2.168   3.867  1.00  0.00     0.031 A 
HETATM    3  C13 UNL     1      24.559   2.617   3.948  1.00  0.00     0.026 A 
HETATM    4  C14 UNL     1      24.306   3.985   3.928  1.00  0.00     0.059 A 
HETATM    5  C15 UNL     1      22.948   4.465   4.013  1.00  0.00     0.100 C 
HETATM    6  N3  UNL     1      21.858   4.860   4.065  1.00  0.00    -0.191 NA
HETATM    7  C16 UNL     1      25.332   4.890   3.828  1.00  0.00     0.070 A 
HETATM    8  C18 UNL     1      26.630   4.371   3.748  1.00  0.00     0.047 A 
ENDROOT
BRANCH   7   9
HETATM    9  C17 UNL     1      25.075   6.348   3.807  1.00  0.00     0.419 C 
HETATM   10  F1  UNL     1      26.333   6.967   3.836  1.00  0.00    -0.166 F 
HETATM   11  F2  UNL     1      24.432   6.739   4.966  1.00  0.00    -0.166 F 
HETATM   12  F3  UNL     1      24.366   6.733   2.688  1.00  0.00    -0.166 F 
ENDBRANCH   7   9
BRANCH   1  13
HETATM   13  N2  UNL     1      28.240   2.478   3.694  1.00  0.00    -0.325 N 
HETATM   14  C10 UNL     1      28.553   1.228   4.196  1.00  0.00     0.258 C 
HETATM   15  O5  UNL     1      27.746   0.465   4.761  1.00  0.00    -0.270 OA
ATOM     16  H2  UNL     1      28.981   3.021   3.252  1.00  0.00     0.169 HD
BRANCH  14  17
HETATM   17  C2  UNL     1      29.955   0.667   4.097  1.00  0.00     0.156 C 
HETATM   18  C1  UNL     1      29.797  -0.634   3.286  1.00  0.00     0.059 C 
BRANCH  17  19
HETATM   19  O1  UNL     1      30.803   1.501   3.464  1.00  0.00    -0.378 OA
ATOM     20  H1  UNL     1      30.640   2.396   3.738  1.00  0.00     0.211 HD
ENDBRANCH  17  19
BRANCH  17  21
HETATM   21  C3  UNL     1      30.301   0.221   5.492  1.00  0.00     0.223 C 
BRANCH  21  22
HETATM   22  O2  UNL     1      30.144   1.076   6.511  1.00  0.00    -0.348 OA
BRANCH  22  23
HETATM   23  C4  UNL     1      29.716   1.081   7.775  1.00  0.00     0.069 A 
HETATM   24  C5  UNL     1      28.897   2.035   8.331  1.00  0.00     0.039 A 
HETATM   25  C6  UNL     1      28.552   1.884   9.677  1.00  0.00     0.039 A 
HETATM   26  C7  UNL     1      28.974   0.856  10.460  1.00  0.00     0.103 A 
HETATM   27  C8  UNL     1      29.789  -0.092   9.896  1.00  0.00     0.039 A 
HETATM   28  C9  UNL     1      30.156   0.013   8.585  1.00  0.00     0.039 A 
BRANCH  26  29
HETATM   29  N1  UNL     1      28.612   0.718  11.831  1.00  0.00    -0.116 N 
HETATM   30  O3  UNL     1      29.408   0.153  12.593  1.00  0.00    -0.532 OA
HETATM   31  O4  UNL     1      27.422   1.189  12.305  1.00  0.00    -0.532 OA
ENDBRANCH  26  29
ENDBRANCH  22  23
ENDBRANCH  21  22
ENDBRANCH  17  21
ENDBRANCH  14  17
ENDBRANCH   1  13
TORSDOF 8
ENDMDL
