MODEL 1
REMARK VINA RESULT: -11.095400527      0.000      0.000
REMARK  8 active torsions:
REMARK  status: ('A' for Active; 'I' for Inactive)
REMARK    1  A    between atoms: C2_2  and  O1_3 
REMARK    2  A    between atoms: C2_2  and  C3_5 
REMARK    3  A    between atoms: C2_2  and  C10_16 
REMARK    4  A    between atoms: C3_5  and  O2_6 
REMARK    5  A    between atoms: O2_6  and  C4_7 
REMARK    6  A    between atoms: C7_10  and  N1_11 
REMARK       I    between atoms: C10_16  and  N2_18 
REMARK    7  A    between atoms: N2_18  and  C11_20 
REMARK    8  A    between atoms: C16_26  and  C17_27 
ROOT
HETATM    1  C11 UNL     1      27.725   3.690   3.618  1.00  0.00     0.035 A 
HETATM    2  C12 UNL     1      28.097   5.047   3.579  1.00  0.00     0.031 A 
HETATM    3  C13 UNL     1      27.185   6.049   3.693  1.00  0.00     0.026 A 
HETATM    4  C14 UNL     1      25.839   5.740   3.854  1.00  0.00     0.059 A 
HETATM    5  C15 UNL     1      24.869   6.802   3.977  1.00  0.00     0.100 C 
HETATM    6  N3  UNL     1      24.084   7.649   4.092  1.00  0.00    -0.191 NA
HETATM    7  C16 UNL     1      25.415   4.437   3.900  1.00  0.00     0.070 A 
HETATM    8  C18 UNL     1      26.397   3.446   3.777  1.00  0.00     0.047 A 
ENDROOT
BRANCH   7   9
HETATM    9  C17 UNL     1      23.984   4.096   4.070  1.00  0.00     0.419 C 
HETATM   10  F1  UNL     1      23.861   2.743   3.723  1.00  0.00    -0.166 F 
HETATM   11  F2  UNL     1      23.213   4.794   3.161  1.00  0.00    -0.166 F 
HETATM   12  F3  UNL     1      23.550   4.311   5.362  1.00  0.00    -0.166 F 
ENDBRANCH   7   9
BRANCH   1  13
HETATM   13  N2  UNL     1      28.753   2.713   3.478  1.00  0.00    -0.325 N 
HETATM   14  C10 UNL     1      28.591   1.383   3.823  1.00  0.00     0.258 C 
HETATM   15  O5  UNL     1      27.547   0.891   4.291  1.00  0.00    -0.270 OA
ATOM     16  H2  UNL     1      29.654   3.009   3.105  1.00  0.00     0.169 HD
BRANCH  14  17
HETATM   17  C2  UNL     1      29.713   0.383   3.652  1.00  0.00     0.156 C 
HETATM   18  C1  UNL     1      29.003  -0.979   3.520  1.00  0.00     0.059 C 
BRANCH  17  19
HETATM   19  O1  UNL     1      30.456   0.619   2.554  1.00  0.00    -0.378 OA
ATOM     20  H1  UNL     1      31.318   0.925   2.807  1.00  0.00     0.211 HD
ENDBRANCH  17  19
BRANCH  17  21
HETATM   21  C3  UNL     1      30.407   0.336   4.986  1.00  0.00     0.223 C 
BRANCH  21  22
HETATM   22  O2  UNL     1      30.026   1.182   5.952  1.00  0.00    -0.348 OA
BRANCH  22  23
HETATM   23  C4  UNL     1      29.704   1.165   7.247  1.00  0.00     0.069 A 
HETATM   24  C5  UNL     1      28.954   2.120   7.891  1.00  0.00     0.039 A 
HETATM   25  C6  UNL     1      28.719   1.943   9.258  1.00  0.00     0.039 A 
HETATM   26  C7  UNL     1      29.184   0.889   9.979  1.00  0.00     0.103 A 
HETATM   27  C8  UNL     1      29.930  -0.059   9.329  1.00  0.00     0.039 A 
HETATM   28  C9  UNL     1      30.188   0.070   7.994  1.00  0.00     0.039 A 
BRANCH  26  29
HETATM   29  N1  UNL     1      28.934   0.726  11.373  1.00  0.00    -0.116 N 
HETATM   30  O3  UNL     1      29.768   0.107  12.049  1.00  0.00    -0.532 OA
HETATM   31  O4  UNL     1      27.810   1.230  11.960  1.00  0.00    -0.532 OA
ENDBRANCH  26  29
ENDBRANCH  22  23
ENDBRANCH  21  22
ENDBRANCH  17  21
ENDBRANCH  14  17
ENDBRANCH   1  13
TORSDOF 8
ENDMDL
