MODEL 11
REMARK VINA RESULT: -8.587874439      4.024      7.752
REMARK  8 active torsions:
REMARK  status: ('A' for Active; 'I' for Inactive)
REMARK    1  A    between atoms: C2_2  and  O1_3 
REMARK    2  A    between atoms: C2_2  and  C3_5 
REMARK    3  A    between atoms: C2_2  and  C10_16 
REMARK    4  A    between atoms: C3_5  and  O2_6 
REMARK    5  A    between atoms: O2_6  and  C4_7 
REMARK    6  A    between atoms: C7_10  and  N1_11 
REMARK       I    between atoms: C10_16  and  N2_18 
REMARK    7  A    between atoms: N2_18  and  C11_20 
REMARK    8  A    between atoms: C16_26  and  C17_27 
ROOT
HETATM    1  C11 UNL     1      29.380   1.288   7.518  1.00  0.00     0.035 A 
HETATM    2  C12 UNL     1      28.577   2.282   8.106  1.00  0.00     0.031 A 
HETATM    3  C13 UNL     1      28.233   2.250   9.421  1.00  0.00     0.026 A 
HETATM    4  C14 UNL     1      28.681   1.206  10.224  1.00  0.00     0.059 A 
HETATM    5  C15 UNL     1      28.318   1.168  11.620  1.00  0.00     0.100 C 
HETATM    6  N3  UNL     1      28.045   1.139  12.748  1.00  0.00    -0.191 NA
HETATM    7  C16 UNL     1      29.466   0.207   9.708  1.00  0.00     0.070 A 
HETATM    8  C18 UNL     1      29.789   0.291   8.349  1.00  0.00     0.047 A 
ENDROOT
BRANCH   7   9
HETATM    9  C17 UNL     1      29.949  -0.910  10.554  1.00  0.00     0.419 C 
HETATM   10  F1  UNL     1      31.024  -0.402  11.295  1.00  0.00    -0.166 F 
HETATM   11  F2  UNL     1      30.472  -1.917   9.765  1.00  0.00    -0.166 F 
HETATM   12  F3  UNL     1      28.961  -1.391  11.389  1.00  0.00    -0.166 F 
ENDBRANCH   7   9
BRANCH   1  13
HETATM   13  N2  UNL     1      29.676   1.405   6.129  1.00  0.00    -0.325 N 
HETATM   14  C10 UNL     1      29.096   0.609   5.158  1.00  0.00     0.258 C 
HETATM   15  O5  UNL     1      28.263  -0.290   5.378  1.00  0.00    -0.270 OA
ATOM     16  H2  UNL     1      30.350   2.112   5.836  1.00  0.00     0.169 HD
BRANCH  14  17
HETATM   17  C2  UNL     1      29.441   0.775   3.694  1.00  0.00     0.156 C 
HETATM   18  C1  UNL     1      30.779   1.539   3.694  1.00  0.00     0.059 C 
BRANCH  17  19
HETATM   19  O1  UNL     1      29.588  -0.405   3.060  1.00  0.00    -0.378 OA
ATOM     20  H1  UNL     1      28.737  -0.747   2.813  1.00  0.00     0.211 HD
ENDBRANCH  17  19
BRANCH  17  21
HETATM   21  C3  UNL     1      28.430   1.752   3.158  1.00  0.00     0.223 C 
BRANCH  21  22
HETATM   22  O2  UNL     1      28.002   2.748   3.943  1.00  0.00    -0.348 OA
BRANCH  22  23
HETATM   23  C4  UNL     1      27.143   3.769   3.911  1.00  0.00     0.069 A 
HETATM   24  C5  UNL     1      25.887   3.767   4.470  1.00  0.00     0.039 A 
HETATM   25  C6  UNL     1      25.118   4.927   4.334  1.00  0.00     0.039 A 
HETATM   26  C7  UNL     1      25.540   6.047   3.690  1.00  0.00     0.103 A 
HETATM   27  C8  UNL     1      26.794   6.041   3.137  1.00  0.00     0.039 A 
HETATM   28  C9  UNL     1      27.582   4.931   3.241  1.00  0.00     0.039 A 
BRANCH  26  29
HETATM   29  N1  UNL     1      24.741   7.221   3.562  1.00  0.00    -0.116 N 
HETATM   30  O3  UNL     1      24.654   7.751   2.445  1.00  0.00    -0.532 OA
HETATM   31  O4  UNL     1      24.087   7.759   4.631  1.00  0.00    -0.532 OA
ENDBRANCH  26  29
ENDBRANCH  22  23
ENDBRANCH  21  22
ENDBRANCH  17  21
ENDBRANCH  14  17
ENDBRANCH   1  13
TORSDOF 8
ENDMDL
