MODEL 7
REMARK VINA RESULT: -9.018098686      0.798      1.389
REMARK  8 active torsions:
REMARK  status: ('A' for Active; 'I' for Inactive)
REMARK    1  A    between atoms: C2_2  and  O1_3 
REMARK    2  A    between atoms: C2_2  and  C3_5 
REMARK    3  A    between atoms: C2_2  and  C10_16 
REMARK    4  A    between atoms: C3_5  and  O2_6 
REMARK    5  A    between atoms: O2_6  and  C4_7 
REMARK    6  A    between atoms: C7_10  and  N1_11 
REMARK       I    between atoms: C10_16  and  N2_18 
REMARK    7  A    between atoms: N2_18  and  C11_20 
REMARK    8  A    between atoms: C16_26  and  C17_27 
ROOT
HETATM    1  C11 UNL     1      27.585   2.864   3.425  1.00  0.00     0.035 A 
HETATM    2  C12 UNL     1      27.865   4.232   3.599  1.00  0.00     0.031 A 
HETATM    3  C13 UNL     1      26.883   5.154   3.781  1.00  0.00     0.026 A 
HETATM    4  C14 UNL     1      25.553   4.748   3.799  1.00  0.00     0.059 A 
HETATM    5  C15 UNL     1      24.507   5.724   3.992  1.00  0.00     0.100 C 
HETATM    6  N3  UNL     1      23.660   6.500   4.164  1.00  0.00    -0.191 NA
HETATM    7  C16 UNL     1      25.216   3.429   3.635  1.00  0.00     0.070 A 
HETATM    8  C18 UNL     1      26.268   2.523   3.451  1.00  0.00     0.047 A 
ENDROOT
BRANCH   7   9
HETATM    9  C17 UNL     1      23.803   2.985   3.651  1.00  0.00     0.419 C 
HETATM   10  F1  UNL     1      23.418   2.955   4.998  1.00  0.00    -0.166 F 
HETATM   11  F2  UNL     1      23.704   1.684   3.197  1.00  0.00    -0.166 F 
HETATM   12  F3  UNL     1      22.986   3.830   2.927  1.00  0.00    -0.166 F 
ENDBRANCH   7   9
BRANCH   1  13
HETATM   13  N2  UNL     1      28.683   1.978   3.230  1.00  0.00    -0.325 N 
HETATM   14  C10 UNL     1      28.736   0.703   3.763  1.00  0.00     0.258 C 
HETATM   15  O5  UNL     1      27.847   0.188   4.468  1.00  0.00    -0.270 OA
ATOM     16  H2  UNL     1      29.470   2.300   2.668  1.00  0.00     0.169 HD
BRANCH  14  17
HETATM   17  C2  UNL     1      29.924  -0.203   3.524  1.00  0.00     0.156 C 
HETATM   18  C1  UNL     1      29.326  -1.622   3.463  1.00  0.00     0.059 C 
BRANCH  17  19
HETATM   19  O1  UNL     1      30.563   0.075   2.371  1.00  0.00    -0.378 OA
ATOM     20  H1  UNL     1      29.938   0.361   1.717  1.00  0.00     0.211 HD
ENDBRANCH  17  19
BRANCH  17  21
HETATM   21  C3  UNL     1      30.714  -0.164   4.805  1.00  0.00     0.223 C 
BRANCH  21  22
HETATM   22  O2  UNL     1      30.334   0.667   5.783  1.00  0.00    -0.348 OA
BRANCH  22  23
HETATM   23  C4  UNL     1      30.043   0.637   7.085  1.00  0.00     0.069 A 
HETATM   24  C5  UNL     1      30.459  -0.332   7.968  1.00  0.00     0.039 A 
HETATM   25  C6  UNL     1      30.054  -0.207   9.301  1.00  0.00     0.039 A 
HETATM   26  C7  UNL     1      29.281   0.809   9.769  1.00  0.00     0.103 A 
HETATM   27  C8  UNL     1      28.872   1.771   8.881  1.00  0.00     0.039 A 
HETATM   28  C9  UNL     1      29.241   1.692   7.569  1.00  0.00     0.039 A 
BRANCH  26  29
HETATM   29  N1  UNL     1      28.877   0.919  11.131  1.00  0.00    -0.116 N 
HETATM   30  O3  UNL     1      29.509   0.279  11.983  1.00  0.00    -0.532 OA
HETATM   31  O4  UNL     1      27.825   1.705  11.502  1.00  0.00    -0.532 OA
ENDBRANCH  26  29
ENDBRANCH  22  23
ENDBRANCH  21  22
ENDBRANCH  17  21
ENDBRANCH  14  17
ENDBRANCH   1  13
TORSDOF 8
ENDMDL
