MODEL 8
REMARK VINA RESULT: -9.036941176      3.095      6.996
REMARK  8 active torsions:
REMARK  status: ('A' for Active; 'I' for Inactive)
REMARK    1  A    between atoms: C2_2  and  O1_3 
REMARK    2  A    between atoms: C2_2  and  C3_5 
REMARK    3  A    between atoms: C2_2  and  C10_18 
REMARK    4  A    between atoms: C3_5  and  O2_6 
REMARK    5  A    between atoms: O2_6  and  C4_7 
REMARK       I    between atoms: C10_18  and  N1_20 
REMARK    6  A    between atoms: N1_20  and  C11_22 
REMARK    7  A    between atoms: C14_25  and  N2_26 
REMARK    8  A    between atoms: C15_29  and  C16_30 
ROOT
HETATM    1  C1  UNL     1      25.190   4.873   4.428  1.00  0.00     0.059 C 
HETATM    2  C2  UNL     1      26.701   4.481   4.501  1.00  0.00     0.156 C 
ENDROOT
BRANCH   2   3
HETATM    3  O1  UNL     1      27.370   5.648   4.375  1.00  0.00    -0.378 OA
ATOM      4  H1  UNL     1      28.287   5.402   4.344  1.00  0.00     0.211 HD
ENDBRANCH   2   3
BRANCH   2   5
HETATM    5  C3  UNL     1      26.967   3.484   3.404  1.00  0.00     0.223 C 
BRANCH   5   6
HETATM    6  O2  UNL     1      28.271   3.089   3.236  1.00  0.00    -0.342 OA
BRANCH   6   7
HETATM    7  C4  UNL     1      28.872   1.880   3.458  1.00  0.00     0.152 A 
HETATM    8  C5  UNL     1      28.453   0.722   2.797  1.00  0.00     0.194 A 
HETATM    9  F1  UNL     1      27.419   0.884   1.927  1.00  0.00    -0.200 F 
HETATM   10  C6  UNL     1      29.026  -0.504   2.993  1.00  0.00     0.199 A 
HETATM   11  F2  UNL     1      28.527  -1.550   2.289  1.00  0.00    -0.199 F 
HETATM   12  C7  UNL     1      30.065  -0.645   3.874  1.00  0.00     0.199 A 
HETATM   13  F3  UNL     1      30.631  -1.862   4.065  1.00  0.00    -0.199 F 
HETATM   14  C8  UNL     1      30.503   0.480   4.543  1.00  0.00     0.199 A 
HETATM   15  F4  UNL     1      31.526   0.346   5.411  1.00  0.00    -0.199 F 
HETATM   16  C9  UNL     1      29.918   1.710   4.338  1.00  0.00     0.194 A 
HETATM   17  F5  UNL     1      30.406   2.737   5.052  1.00  0.00    -0.200 F 
ENDBRANCH   6   7
ENDBRANCH   5   6
ENDBRANCH   2   5
BRANCH   2  18
HETATM   18  C10 UNL     1      26.800   3.778   5.808  1.00  0.00     0.258 C 
HETATM   19  O3  UNL     1      25.682   3.330   6.240  1.00  0.00    -0.270 OA
HETATM   20  N1  UNL     1      27.967   3.596   6.533  1.00  0.00    -0.325 N 
ATOM     21  H1  UNL     1      28.824   3.982   6.137  1.00  0.00     0.169 HD
BRANCH  20  22
HETATM   22  C11 UNL     1      28.078   2.920   7.779  1.00  0.00     0.035 A 
HETATM   23  C12 UNL     1      27.371   3.206   8.908  1.00  0.00     0.032 A 
HETATM   24  C13 UNL     1      27.547   2.503  10.108  1.00  0.00     0.039 A 
HETATM   25  C14 UNL     1      28.466   1.464  10.205  1.00  0.00     0.118 A 
HETATM   26  C15 UNL     1      29.181   1.171   9.069  1.00  0.00     0.083 A 
HETATM   27  C17 UNL     1      29.001   1.867   7.894  1.00  0.00     0.048 A 
BRANCH  25  28
HETATM   28  N2  UNL     1      28.653   0.769  11.421  1.00  0.00    -0.115 N 
HETATM   29  O4  UNL     1      29.660   0.178  11.810  1.00  0.00    -0.532 OA
HETATM   30  O5  UNL     1      27.559   0.747  12.288  1.00  0.00    -0.532 OA
ENDBRANCH  25  28
BRANCH  26  31
HETATM   31  C16 UNL     1      30.167   0.042   9.144  1.00  0.00     0.419 C 
HETATM   32  F6  UNL     1      30.719  -0.079   7.855  1.00  0.00    -0.166 F 
HETATM   33  F7  UNL     1      29.551  -1.178   9.356  1.00  0.00    -0.166 F 
HETATM   34  F8  UNL     1      31.210   0.295   9.994  1.00  0.00    -0.166 F 
ENDBRANCH  26  31
ENDBRANCH  20  22
ENDBRANCH   2  18
TORSDOF 8
ENDMDL
