MODEL 9
REMARK VINA RESULT: -8.895096600      2.824      7.375
REMARK  8 active torsions:
REMARK  status: ('A' for Active; 'I' for Inactive)
REMARK    1  A    between atoms: C2_2  and  O1_3 
REMARK    2  A    between atoms: C2_2  and  C3_5 
REMARK    3  A    between atoms: C2_2  and  C10_18 
REMARK    4  A    between atoms: C3_5  and  O2_6 
REMARK    5  A    between atoms: O2_6  and  C4_7 
REMARK       I    between atoms: C10_18  and  N1_20 
REMARK    6  A    between atoms: N1_20  and  C11_22 
REMARK    7  A    between atoms: C14_25  and  N2_26 
REMARK    8  A    between atoms: C15_29  and  C16_30 
ROOT
HETATM    1  C1  UNL     1      30.486   1.404   3.818  1.00  0.00     0.059 C 
HETATM    2  C2  UNL     1      29.011   0.889   3.823  1.00  0.00     0.156 C 
ENDROOT
BRANCH   2   3
HETATM    3  O1  UNL     1      29.043  -0.265   3.122  1.00  0.00    -0.378 OA
ATOM      4  H1  UNL     1      28.975  -0.001   2.212  1.00  0.00     0.211 HD
ENDBRANCH   2   3
BRANCH   2   5
HETATM    5  C3  UNL     1      28.150   1.966   3.219  1.00  0.00     0.223 C 
BRANCH   5   6
HETATM    6  O2  UNL     1      27.960   3.097   3.974  1.00  0.00    -0.342 OA
BRANCH   6   7
HETATM    7  C4  UNL     1      26.884   3.936   4.070  1.00  0.00     0.152 A 
HETATM    8  C5  UNL     1      25.761   3.601   4.833  1.00  0.00     0.194 A 
HETATM    9  F1  UNL     1      25.819   2.397   5.466  1.00  0.00    -0.200 F 
HETATM   10  C6  UNL     1      24.665   4.410   4.953  1.00  0.00     0.199 A 
HETATM   11  F2  UNL     1      23.641   3.969   5.723  1.00  0.00    -0.199 F 
HETATM   12  C7  UNL     1      24.628   5.617   4.307  1.00  0.00     0.199 A 
HETATM   13  F3  UNL     1      23.540   6.417   4.428  1.00  0.00    -0.199 F 
HETATM   14  C8  UNL     1      25.720   5.978   3.545  1.00  0.00     0.199 A 
HETATM   15  F4  UNL     1      25.688   7.166   2.909  1.00  0.00    -0.199 F 
HETATM   16  C9  UNL     1      26.819   5.154   3.432  1.00  0.00     0.194 A 
HETATM   17  F5  UNL     1      27.822   5.590   2.653  1.00  0.00    -0.200 F 
ENDBRANCH   6   7
ENDBRANCH   5   6
ENDBRANCH   2   5
BRANCH   2  18
HETATM   18  C10 UNL     1      28.695   0.794   5.273  1.00  0.00     0.258 C 
HETATM   19  O3  UNL     1      27.803  -0.079   5.552  1.00  0.00    -0.270 OA
HETATM   20  N1  UNL     1      29.281   1.556   6.271  1.00  0.00    -0.325 N 
ATOM     21  H1  UNL     1      29.981   2.239   5.983  1.00  0.00     0.169 HD
BRANCH  20  22
HETATM   22  C11 UNL     1      28.994   1.472   7.662  1.00  0.00     0.035 A 
HETATM   23  C12 UNL     1      28.217   2.338   8.370  1.00  0.00     0.032 A 
HETATM   24  C13 UNL     1      27.992   2.198   9.747  1.00  0.00     0.039 A 
HETATM   25  C14 UNL     1      28.560   1.152  10.466  1.00  0.00     0.118 A 
HETATM   26  C15 UNL     1      29.344   0.275   9.756  1.00  0.00     0.083 A 
HETATM   27  C17 UNL     1      29.559   0.421   8.403  1.00  0.00     0.048 A 
BRANCH  25  28
HETATM   28  N2  UNL     1      28.344   1.025  11.857  1.00  0.00    -0.115 N 
HETATM   29  O4  UNL     1      29.186   0.897  12.746  1.00  0.00    -0.532 OA
HETATM   30  O5  UNL     1      27.013   1.041  12.275  1.00  0.00    -0.532 OA
ENDBRANCH  25  28
BRANCH  26  31
HETATM   31  C16 UNL     1      29.954  -0.871  10.507  1.00  0.00     0.419 C 
HETATM   32  F6  UNL     1      30.424  -1.770   9.532  1.00  0.00    -0.166 F 
HETATM   33  F7  UNL     1      29.009  -1.604  11.203  1.00  0.00    -0.166 F 
HETATM   34  F8  UNL     1      31.039  -0.506  11.258  1.00  0.00    -0.166 F 
ENDBRANCH  26  31
ENDBRANCH  20  22
ENDBRANCH   2  18
TORSDOF 8
ENDMDL
