MODEL 1
REMARK VINA RESULT: -10.644251557      0.000      0.000
REMARK  8 active torsions:
REMARK  status: ('A' for Active; 'I' for Inactive)
REMARK    1  A    between atoms: C2_2  and  O1_3 
REMARK    2  A    between atoms: C2_2  and  C3_5 
REMARK    3  A    between atoms: C2_2  and  C10_18 
REMARK    4  A    between atoms: C3_5  and  O2_6 
REMARK    5  A    between atoms: O2_6  and  C4_7 
REMARK       I    between atoms: C10_18  and  N1_20 
REMARK    6  A    between atoms: N1_20  and  C11_22 
REMARK    7  A    between atoms: C14_25  and  N2_26 
REMARK    8  A    between atoms: C15_29  and  C16_30 
ROOT
HETATM    1  C1  UNL     1      28.751  -0.868   3.687  1.00  0.00     0.059 C 
HETATM    2  C2  UNL     1      29.602   0.421   3.920  1.00  0.00     0.156 C 
ENDROOT
BRANCH   2   3
HETATM    3  O1  UNL     1      30.468   0.459   2.884  1.00  0.00    -0.378 OA
ATOM      4  H1  UNL     1      31.329   0.453   3.283  1.00  0.00     0.211 HD
ENDBRANCH   2   3
BRANCH   2   5
HETATM    5  C3  UNL     1      30.251   0.300   5.274  1.00  0.00     0.223 C 
BRANCH   5   6
HETATM    6  O2  UNL     1      30.101   1.367   6.125  1.00  0.00    -0.342 OA
BRANCH   6   7
HETATM    7  C4  UNL     1      29.570   1.437   7.384  1.00  0.00     0.152 A 
HETATM    8  C5  UNL     1      28.611   2.396   7.722  1.00  0.00     0.194 A 
HETATM    9  F1  UNL     1      28.250   3.243   6.719  1.00  0.00    -0.200 F 
HETATM   10  C6  UNL     1      28.058   2.500   8.968  1.00  0.00     0.199 A 
HETATM   11  F2  UNL     1      27.138   3.476   9.167  1.00  0.00    -0.199 F 
HETATM   12  C7  UNL     1      28.438   1.638   9.963  1.00  0.00     0.199 A 
HETATM   13  F3  UNL     1      27.887   1.744  11.197  1.00  0.00    -0.199 F 
HETATM   14  C8  UNL     1      29.383   0.679   9.662  1.00  0.00     0.199 A 
HETATM   15  F4  UNL     1      29.758  -0.172  10.637  1.00  0.00    -0.199 F 
HETATM   16  C9  UNL     1      29.933   0.584   8.402  1.00  0.00     0.194 A 
HETATM   17  F5  UNL     1      30.857  -0.373   8.218  1.00  0.00    -0.200 F 
ENDBRANCH   6   7
ENDBRANCH   5   6
ENDBRANCH   2   5
BRANCH   2  18
HETATM   18  C10 UNL     1      28.574   1.493   3.987  1.00  0.00     0.258 C 
HETATM   19  O3  UNL     1      27.464   1.112   4.497  1.00  0.00    -0.270 OA
HETATM   20  N1  UNL     1      28.747   2.797   3.553  1.00  0.00    -0.325 N 
ATOM     21  H1  UNL     1      29.653   3.036   3.151  1.00  0.00     0.169 HD
BRANCH  20  22
HETATM   22  C11 UNL     1      27.775   3.834   3.617  1.00  0.00     0.035 A 
HETATM   23  C12 UNL     1      28.016   5.164   3.455  1.00  0.00     0.032 A 
HETATM   24  C13 UNL     1      27.005   6.131   3.549  1.00  0.00     0.039 A 
HETATM   25  C14 UNL     1      25.688   5.772   3.816  1.00  0.00     0.118 A 
HETATM   26  C15 UNL     1      25.440   4.431   3.979  1.00  0.00     0.083 A 
HETATM   27  C17 UNL     1      26.440   3.488   3.885  1.00  0.00     0.048 A 
BRANCH  25  28
HETATM   28  N2  UNL     1      24.676   6.752   3.926  1.00  0.00    -0.115 N 
HETATM   29  O4  UNL     1      24.050   7.086   4.933  1.00  0.00    -0.532 OA
HETATM   30  O5  UNL     1      24.340   7.422   2.749  1.00  0.00    -0.532 OA
ENDBRANCH  25  28
BRANCH  26  31
HETATM   31  C16 UNL     1      24.024   4.018   4.251  1.00  0.00     0.419 C 
HETATM   32  F6  UNL     1      23.964   2.636   3.990  1.00  0.00    -0.166 F 
HETATM   33  F7  UNL     1      23.135   4.564   3.343  1.00  0.00    -0.166 F 
HETATM   34  F8  UNL     1      23.657   4.185   5.559  1.00  0.00    -0.166 F 
ENDBRANCH  26  31
ENDBRANCH  20  22
ENDBRANCH   2  18
TORSDOF 8
ENDMDL
