MODEL 4
REMARK VINA RESULT: -9.641824673      1.064      1.123
REMARK  8 active torsions:
REMARK  status: ('A' for Active; 'I' for Inactive)
REMARK    1  A    between atoms: C2_2  and  O1_3 
REMARK    2  A    between atoms: C2_2  and  C3_5 
REMARK    3  A    between atoms: C2_2  and  C10_18 
REMARK    4  A    between atoms: C3_5  and  O2_6 
REMARK    5  A    between atoms: O2_6  and  C4_7 
REMARK       I    between atoms: C10_18  and  N1_20 
REMARK    6  A    between atoms: N1_20  and  C11_22 
REMARK    7  A    between atoms: C14_25  and  N2_26 
REMARK    8  A    between atoms: C15_29  and  C16_30 
ROOT
HETATM    1  C1  UNL     1      29.688   0.136   3.583  1.00  0.00     0.059 C 
HETATM    2  C2  UNL     1      30.171   0.970   4.812  1.00  0.00     0.156 C 
ENDROOT
BRANCH   2   3
HETATM    3  O1  UNL     1      31.503   1.108   4.637  1.00  0.00    -0.378 OA
ATOM      4  H1  UNL     1      31.650   2.046   4.599  1.00  0.00     0.211 HD
ENDBRANCH   2   3
BRANCH   2   5
HETATM    5  C3  UNL     1      29.777   0.219   6.056  1.00  0.00     0.223 C 
BRANCH   5   6
HETATM    6  O2  UNL     1      30.206   0.742   7.252  1.00  0.00    -0.342 OA
BRANCH   6   7
HETATM    7  C4  UNL     1      29.547   0.912   8.438  1.00  0.00     0.152 A 
HETATM    8  C5  UNL     1      28.653   1.969   8.633  1.00  0.00     0.194 A 
HETATM    9  F1  UNL     1      28.488   2.802   7.569  1.00  0.00    -0.200 F 
HETATM   10  C6  UNL     1      27.976   2.176   9.803  1.00  0.00     0.199 A 
HETATM   11  F2  UNL     1      27.138   3.239   9.864  1.00  0.00    -0.199 F 
HETATM   12  C7  UNL     1      28.158   1.325  10.861  1.00  0.00     0.199 A 
HETATM   13  F3  UNL     1      27.485   1.533  12.020  1.00  0.00    -0.199 F 
HETATM   14  C8  UNL     1      29.034   0.271  10.702  1.00  0.00     0.199 A 
HETATM   15  F4  UNL     1      29.215  -0.569  11.741  1.00  0.00    -0.199 F 
HETATM   16  C9  UNL     1      29.710   0.073   9.518  1.00  0.00     0.194 A 
HETATM   17  F5  UNL     1      30.553  -0.971   9.471  1.00  0.00    -0.200 F 
ENDBRANCH   6   7
ENDBRANCH   5   6
ENDBRANCH   2   5
BRANCH   2  18
HETATM   18  C10 UNL     1      29.343   2.202   4.726  1.00  0.00     0.258 C 
HETATM   19  O3  UNL     1      29.884   3.227   5.268  1.00  0.00    -0.270 OA
HETATM   20  N1  UNL     1      28.096   2.288   4.128  1.00  0.00    -0.325 N 
ATOM     21  H1  UNL     1      27.718   1.434   3.718  1.00  0.00     0.169 HD
BRANCH  20  22
HETATM   22  C11 UNL     1      27.296   3.460   4.032  1.00  0.00     0.035 A 
HETATM   23  C12 UNL     1      27.755   4.725   3.822  1.00  0.00     0.032 A 
HETATM   24  C13 UNL     1      26.904   5.837   3.756  1.00  0.00     0.039 A 
HETATM   25  C14 UNL     1      25.528   5.699   3.903  1.00  0.00     0.118 A 
HETATM   26  C15 UNL     1      25.059   4.425   4.113  1.00  0.00     0.083 A 
HETATM   27  C17 UNL     1      25.903   3.338   4.178  1.00  0.00     0.048 A 
BRANCH  25  28
HETATM   28  N2  UNL     1      24.675   6.824   3.852  1.00  0.00    -0.115 N 
HETATM   29  O4  UNL     1      24.036   7.333   4.773  1.00  0.00    -0.532 OA
HETATM   30  O5  UNL     1      24.536   7.433   2.604  1.00  0.00    -0.532 OA
ENDBRANCH  25  28
BRANCH  26  31
HETATM   31  C16 UNL     1      23.576   4.248   4.258  1.00  0.00     0.419 C 
HETATM   32  F6  UNL     1      23.327   2.876   4.076  1.00  0.00    -0.166 F 
HETATM   33  F7  UNL     1      22.874   4.851   3.230  1.00  0.00    -0.166 F 
HETATM   34  F8  UNL     1      23.117   4.567   5.508  1.00  0.00    -0.166 F 
ENDBRANCH  26  31
ENDBRANCH  20  22
ENDBRANCH   2  18
TORSDOF 8
ENDMDL
