MODEL 7
REMARK VINA RESULT: -9.133868528      1.300      2.458
REMARK  8 active torsions:
REMARK  status: ('A' for Active; 'I' for Inactive)
REMARK    1  A    between atoms: C2_2  and  O1_3 
REMARK    2  A    between atoms: C2_2  and  C3_5 
REMARK    3  A    between atoms: C2_2  and  C10_18 
REMARK    4  A    between atoms: C3_5  and  O2_6 
REMARK    5  A    between atoms: O2_6  and  C4_7 
REMARK       I    between atoms: C10_18  and  N1_20 
REMARK    6  A    between atoms: N1_20  and  C11_22 
REMARK    7  A    between atoms: C14_25  and  N2_26 
REMARK    8  A    between atoms: C15_29  and  C16_30 
ROOT
HETATM    1  C1  UNL     1      29.381   0.100   4.069  1.00  0.00     0.059 C 
HETATM    2  C2  UNL     1      29.925   1.022   5.207  1.00  0.00     0.156 C 
ENDROOT
BRANCH   2   3
HETATM    3  O1  UNL     1      31.256   1.095   4.990  1.00  0.00    -0.378 OA
ATOM      4  H1  UNL     1      31.603   1.549   5.748  1.00  0.00     0.211 HD
ENDBRANCH   2   3
BRANCH   2   5
HETATM    5  C3  UNL     1      29.537   0.400   6.523  1.00  0.00     0.223 C 
BRANCH   5   6
HETATM    6  O2  UNL     1      29.455   1.245   7.602  1.00  0.00    -0.342 OA
BRANCH   6   7
HETATM    7  C4  UNL     1      29.387   0.977   8.941  1.00  0.00     0.152 A 
HETATM    8  C5  UNL     1      30.334   0.166   9.574  1.00  0.00     0.194 A 
HETATM    9  F1  UNL     1      31.314  -0.328   8.770  1.00  0.00    -0.200 F 
HETATM   10  C6  UNL     1      30.301  -0.128  10.909  1.00  0.00     0.199 A 
HETATM   11  F2  UNL     1      31.278  -0.928  11.401  1.00  0.00    -0.199 F 
HETATM   12  C7  UNL     1      29.304   0.380  11.700  1.00  0.00     0.199 A 
HETATM   13  F3  UNL     1      29.274   0.087  13.023  1.00  0.00    -0.199 F 
HETATM   14  C8  UNL     1      28.353   1.185  11.106  1.00  0.00     0.199 A 
HETATM   15  F4  UNL     1      27.371   1.687  11.881  1.00  0.00    -0.199 F 
HETATM   16  C9  UNL     1      28.397   1.474   9.759  1.00  0.00     0.194 A 
HETATM   17  F5  UNL     1      27.415   2.252   9.277  1.00  0.00    -0.200 F 
ENDBRANCH   6   7
ENDBRANCH   5   6
ENDBRANCH   2   5
BRANCH   2  18
HETATM   18  C10 UNL     1      29.137   2.271   5.029  1.00  0.00     0.258 C 
HETATM   19  O3  UNL     1      29.616   3.277   5.659  1.00  0.00    -0.270 OA
HETATM   20  N1  UNL     1      27.987   2.391   4.266  1.00  0.00    -0.325 N 
ATOM     21  H1  UNL     1      27.654   1.551   3.794  1.00  0.00     0.169 HD
BRANCH  20  22
HETATM   22  C11 UNL     1      27.228   3.580   4.082  1.00  0.00     0.035 A 
HETATM   23  C12 UNL     1      27.729   4.804   3.759  1.00  0.00     0.032 A 
HETATM   24  C13 UNL     1      26.917   5.937   3.609  1.00  0.00     0.039 A 
HETATM   25  C14 UNL     1      25.539   5.864   3.787  1.00  0.00     0.118 A 
HETATM   26  C15 UNL     1      25.029   4.630   4.113  1.00  0.00     0.083 A 
HETATM   27  C17 UNL     1      25.835   3.523   4.258  1.00  0.00     0.048 A 
BRANCH  25  28
HETATM   28  N2  UNL     1      24.727   7.012   3.652  1.00  0.00    -0.115 N 
HETATM   29  O4  UNL     1      24.225   7.469   2.625  1.00  0.00    -0.532 OA
HETATM   30  O5  UNL     1      24.463   7.718   4.827  1.00  0.00    -0.532 OA
ENDBRANCH  25  28
BRANCH  26  31
HETATM   31  C16 UNL     1      23.544   4.522   4.293  1.00  0.00     0.419 C 
HETATM   32  F6  UNL     1      23.303   3.222   4.774  1.00  0.00    -0.166 F 
HETATM   33  F7  UNL     1      22.865   4.560   3.088  1.00  0.00    -0.166 F 
HETATM   34  F8  UNL     1      23.053   5.386   5.236  1.00  0.00    -0.166 F 
ENDBRANCH  26  31
ENDBRANCH  20  22
ENDBRANCH   2  18
TORSDOF 8
ENDMDL
