MODEL 6
REMARK VINA RESULT: -9.364485897      3.148      7.092
REMARK  8 active torsions:
REMARK  status: ('A' for Active; 'I' for Inactive)
REMARK    1  A    between atoms: C2_2  and  O1_3 
REMARK    2  A    between atoms: C2_2  and  C3_5 
REMARK    3  A    between atoms: C2_2  and  C10_18 
REMARK    4  A    between atoms: C3_5  and  O2_6 
REMARK    5  A    between atoms: O2_6  and  C4_7 
REMARK       I    between atoms: C10_18  and  N1_20 
REMARK    6  A    between atoms: N1_20  and  C11_22 
REMARK    7  A    between atoms: C14_25  and  N2_26 
REMARK    8  A    between atoms: C15_29  and  C16_30 
ROOT
HETATM    1  C1  UNL     1      25.674   4.591   4.034  1.00  0.00     0.059 C 
HETATM    2  C2  UNL     1      27.193   4.417   4.354  1.00  0.00     0.156 C 
ENDROOT
BRANCH   2   3
HETATM    3  O1  UNL     1      27.710   5.663   4.281  1.00  0.00    -0.378 OA
ATOM      4  H1  UNL     1      28.240   5.755   5.064  1.00  0.00     0.211 HD
ENDBRANCH   2   3
BRANCH   2   5
HETATM    5  C3  UNL     1      27.761   3.443   3.355  1.00  0.00     0.223 C 
BRANCH   5   6
HETATM    6  O2  UNL     1      28.951   2.844   3.690  1.00  0.00    -0.342 OA
BRANCH   6   7
HETATM    7  C4  UNL     1      29.311   1.524   3.704  1.00  0.00     0.152 A 
HETATM    8  C5  UNL     1      30.331   1.053   4.537  1.00  0.00     0.194 A 
HETATM    9  F1  UNL     1      30.928   1.993   5.321  1.00  0.00    -0.200 F 
HETATM   10  C6  UNL     1      30.722  -0.256   4.580  1.00  0.00     0.199 A 
HETATM   11  F2  UNL     1      31.725  -0.583   5.431  1.00  0.00    -0.199 F 
HETATM   12  C7  UNL     1      30.107  -1.183   3.782  1.00  0.00     0.199 A 
HETATM   13  F3  UNL     1      30.498  -2.481   3.828  1.00  0.00    -0.199 F 
HETATM   14  C8  UNL     1      29.096  -0.752   2.948  1.00  0.00     0.199 A 
HETATM   15  F4  UNL     1      28.488  -1.662   2.161  1.00  0.00    -0.199 F 
HETATM   16  C9  UNL     1      28.711   0.571   2.913  1.00  0.00     0.194 A 
HETATM   17  F5  UNL     1      27.729   0.891   2.055  1.00  0.00    -0.200 F 
ENDBRANCH   6   7
ENDBRANCH   5   6
ENDBRANCH   2   5
BRANCH   2  18
HETATM   18  C10 UNL     1      27.180   3.764   5.690  1.00  0.00     0.258 C 
HETATM   19  O3  UNL     1      26.005   3.513   6.130  1.00  0.00    -0.270 OA
HETATM   20  N1  UNL     1      28.303   3.435   6.432  1.00  0.00    -0.325 N 
ATOM     21  H1  UNL     1      29.210   3.666   6.027  1.00  0.00     0.169 HD
BRANCH  20  22
HETATM   22  C11 UNL     1      28.305   2.804   7.707  1.00  0.00     0.035 A 
HETATM   23  C12 UNL     1      27.489   3.114   8.752  1.00  0.00     0.032 A 
HETATM   24  C13 UNL     1      27.561   2.456   9.988  1.00  0.00     0.039 A 
HETATM   25  C14 UNL     1      28.484   1.440  10.209  1.00  0.00     0.118 A 
HETATM   26  C15 UNL     1      29.309   1.123   9.157  1.00  0.00     0.083 A 
HETATM   27  C17 UNL     1      29.231   1.775   7.946  1.00  0.00     0.048 A 
BRANCH  25  28
HETATM   28  N2  UNL     1      28.565   0.791  11.461  1.00  0.00    -0.115 N 
HETATM   29  O4  UNL     1      29.502   0.135  11.917  1.00  0.00    -0.532 OA
HETATM   30  O5  UNL     1      27.443   0.903  12.284  1.00  0.00    -0.532 OA
ENDBRANCH  25  28
BRANCH  26  31
HETATM   31  C16 UNL     1      30.302   0.018   9.366  1.00  0.00     0.419 C 
HETATM   32  F6  UNL     1      31.006  -0.109   8.154  1.00  0.00    -0.166 F 
HETATM   33  F7  UNL     1      29.691  -1.213   9.523  1.00  0.00    -0.166 F 
HETATM   34  F8  UNL     1      31.232   0.305  10.330  1.00  0.00    -0.166 F 
ENDBRANCH  26  31
ENDBRANCH  20  22
ENDBRANCH   2  18
TORSDOF 8
ENDMDL
