MODEL 2
REMARK VINA RESULT: -10.634173031      0.073      1.863
REMARK  8 active torsions:
REMARK  status: ('A' for Active; 'I' for Inactive)
REMARK    1  A    between atoms: C2_2  and  O1_3 
REMARK    2  A    between atoms: C2_2  and  C3_5 
REMARK    3  A    between atoms: C2_2  and  C10_18 
REMARK    4  A    between atoms: C3_5  and  O2_6 
REMARK    5  A    between atoms: O2_6  and  C4_7 
REMARK       I    between atoms: C10_18  and  N1_20 
REMARK    6  A    between atoms: N1_20  and  C11_22 
REMARK    7  A    between atoms: C14_25  and  N2_26 
REMARK    8  A    between atoms: C15_29  and  C16_30 
ROOT
HETATM    1  C1  UNL     1      28.739  -0.860   3.591  1.00  0.00     0.059 C 
HETATM    2  C2  UNL     1      29.592   0.421   3.856  1.00  0.00     0.156 C 
ENDROOT
BRANCH   2   3
HETATM    3  O1  UNL     1      30.464   0.478   2.826  1.00  0.00    -0.378 OA
ATOM      4  H1  UNL     1      31.321   0.524   3.232  1.00  0.00     0.211 HD
ENDBRANCH   2   3
BRANCH   2   5
HETATM    5  C3  UNL     1      30.231   0.272   5.211  1.00  0.00     0.223 C 
BRANCH   5   6
HETATM    6  O2  UNL     1      30.145   1.353   6.054  1.00  0.00    -0.342 OA
BRANCH   6   7
HETATM    7  C4  UNL     1      29.587   1.472   7.297  1.00  0.00     0.152 A 
HETATM    8  C5  UNL     1      29.956   0.627   8.348  1.00  0.00     0.194 A 
HETATM    9  F1  UNL     1      30.899  -0.308   8.047  1.00  0.00    -0.200 F 
HETATM   10  C6  UNL     1      29.422   0.711   9.604  1.00  0.00     0.199 A 
HETATM   11  F2  UNL     1      29.865  -0.168  10.536  1.00  0.00    -0.199 F 
HETATM   12  C7  UNL     1      28.473   1.659   9.885  1.00  0.00     0.199 A 
HETATM   13  F3  UNL     1      27.946   1.740  11.131  1.00  0.00    -0.199 F 
HETATM   14  C8  UNL     1      28.087   2.509   8.869  1.00  0.00     0.199 A 
HETATM   15  F4  UNL     1      27.155   3.444   9.142  1.00  0.00    -0.199 F 
HETATM   16  C9  UNL     1      28.632   2.414   7.607  1.00  0.00     0.194 A 
HETATM   17  F5  UNL     1      28.175   3.277   6.686  1.00  0.00    -0.200 F 
ENDBRANCH   6   7
ENDBRANCH   5   6
ENDBRANCH   2   5
BRANCH   2  18
HETATM   18  C10 UNL     1      28.565   1.495   3.937  1.00  0.00     0.258 C 
HETATM   19  O3  UNL     1      27.460   1.113   4.457  1.00  0.00    -0.270 OA
HETATM   20  N1  UNL     1      28.736   2.800   3.506  1.00  0.00    -0.325 N 
ATOM     21  H1  UNL     1      29.638   3.039   3.096  1.00  0.00     0.169 HD
BRANCH  20  22
HETATM   22  C11 UNL     1      27.766   3.838   3.585  1.00  0.00     0.035 A 
HETATM   23  C12 UNL     1      28.009   5.170   3.438  1.00  0.00     0.032 A 
HETATM   24  C13 UNL     1      27.001   6.138   3.545  1.00  0.00     0.039 A 
HETATM   25  C14 UNL     1      25.684   5.778   3.810  1.00  0.00     0.118 A 
HETATM   26  C15 UNL     1      25.434   4.436   3.958  1.00  0.00     0.083 A 
HETATM   27  C17 UNL     1      26.431   3.492   3.851  1.00  0.00     0.048 A 
BRANCH  25  28
HETATM   28  N2  UNL     1      24.674   6.759   3.933  1.00  0.00    -0.115 N 
HETATM   29  O4  UNL     1      24.056   7.087   4.946  1.00  0.00    -0.532 OA
HETATM   30  O5  UNL     1      24.330   7.437   2.763  1.00  0.00    -0.532 OA
ENDBRANCH  25  28
BRANCH  26  31
HETATM   31  C16 UNL     1      24.017   4.022   4.228  1.00  0.00     0.419 C 
HETATM   32  F6  UNL     1      23.952   2.646   3.943  1.00  0.00    -0.166 F 
HETATM   33  F7  UNL     1      23.126   4.587   3.333  1.00  0.00    -0.166 F 
HETATM   34  F8  UNL     1      23.655   4.168   5.541  1.00  0.00    -0.166 F 
ENDBRANCH  26  31
ENDBRANCH  20  22
ENDBRANCH   2  18
TORSDOF 8
ENDMDL
