MODEL 9
REMARK VINA RESULT: -8.022500501      3.874      8.429
REMARK  9 active torsions:
REMARK  status: ('A' for Active; 'I' for Inactive)
REMARK       I    between atoms: C2_2  and  N1_4 
REMARK    1  A    between atoms: N1_4  and  C3_6 
REMARK    2  A    between atoms: C6_9  and  O2_10 
REMARK    3  A    between atoms: O2_10  and  C7_11 
REMARK    4  A    between atoms: C7_11  and  C8_12 
REMARK    5  A    between atoms: C8_12  and  O3_14 
REMARK    6  A    between atoms: C8_12  and  C10_16 
REMARK       I    between atoms: C10_16  and  N2_18 
REMARK    7  A    between atoms: N2_18  and  C11_20 
REMARK    8  A    between atoms: C14_23  and  N3_24 
REMARK    9  A    between atoms: C15_27  and  C16_28 
ROOT
HETATM    1  C8  UNL     1      29.634   0.326   3.877  1.00  0.00     0.156 C 
HETATM    2  C9  UNL     1      30.139   1.694   3.689  1.00  0.00     0.059 C 
ENDROOT
BRANCH   1   3
HETATM    3  C7  UNL     1      28.423  -0.101   3.122  1.00  0.00     0.223 C 
BRANCH   3   4
HETATM    4  O2  UNL     1      27.567   0.834   2.648  1.00  0.00    -0.348 OA
BRANCH   4   5
HETATM    5  C6  UNL     1      26.732   1.802   3.035  1.00  0.00     0.069 A 
HETATM    6  C5  UNL     1      25.483   1.650   3.561  1.00  0.00     0.039 A 
HETATM    7  C4  UNL     1      24.734   2.748   3.921  1.00  0.00     0.032 A 
HETATM    8  C3  UNL     1      25.197   4.027   3.768  1.00  0.00     0.034 A 
HETATM    9  C19 UNL     1      26.475   4.193   3.230  1.00  0.00     0.032 A 
HETATM   10  C18 UNL     1      27.221   3.120   2.874  1.00  0.00     0.039 A 
BRANCH   8  11
HETATM   11  N1  UNL     1      24.481   5.176   4.090  1.00  0.00    -0.328 N 
HETATM   12  C2  UNL     1      24.884   6.482   3.783  1.00  0.00     0.218 C 
HETATM   13  C1  UNL     1      24.037   7.674   4.168  1.00  0.00     0.117 C 
HETATM   14  O1  UNL     1      25.948   6.767   3.184  1.00  0.00    -0.274 OA
ATOM     15  H1  UNL     1      23.597   5.059   4.586  1.00  0.00     0.169 HD
ENDBRANCH   8  11
ENDBRANCH   4   5
ENDBRANCH   3   4
ENDBRANCH   1   3
BRANCH   1  16
HETATM   16  O3  UNL     1      30.621  -0.655   3.671  1.00  0.00    -0.378 OA
ATOM     17  H3  UNL     1      31.267  -0.552   4.360  1.00  0.00     0.211 HD
ENDBRANCH   1  16
BRANCH   1  18
HETATM   18  C10 UNL     1      29.214   0.255   5.355  1.00  0.00     0.258 C 
HETATM   19  O4  UNL     1      28.191  -0.382   5.644  1.00  0.00    -0.270 OA
HETATM   20  N2  UNL     1      29.984   0.901   6.330  1.00  0.00    -0.325 N 
ATOM     21  H2  UNL     1      30.817   1.407   6.028  1.00  0.00     0.169 HD
BRANCH  20  22
HETATM   22  C11 UNL     1      29.674   0.893   7.696  1.00  0.00     0.035 A 
HETATM   23  C12 UNL     1      28.907   1.969   8.165  1.00  0.00     0.032 A 
HETATM   24  C13 UNL     1      28.526   2.075   9.474  1.00  0.00     0.039 A 
HETATM   25  C14 UNL     1      28.889   1.108  10.403  1.00  0.00     0.118 A 
HETATM   26  C15 UNL     1      29.634   0.065   9.940  1.00  0.00     0.083 A 
HETATM   27  C17 UNL     1      30.030  -0.057   8.603  1.00  0.00     0.048 A 
BRANCH  25  28
HETATM   28  N3  UNL     1      28.488   1.195  11.761  1.00  0.00    -0.115 N 
HETATM   29  O5  UNL     1      29.216   1.379  12.729  1.00  0.00    -0.532 OA
HETATM   30  O6  UNL     1      27.106   1.050  11.959  1.00  0.00    -0.532 OA
ENDBRANCH  25  28
BRANCH  26  31
HETATM   31  C16 UNL     1      30.060  -0.987  10.900  1.00  0.00     0.419 C 
HETATM   32  F1  UNL     1      29.040  -1.383  11.740  1.00  0.00    -0.166 F 
HETATM   33  F2  UNL     1      30.392  -2.134  10.160  1.00  0.00    -0.166 F 
HETATM   34  F3  UNL     1      31.216  -0.634  11.550  1.00  0.00    -0.166 F 
ENDBRANCH  26  31
ENDBRANCH  20  22
ENDBRANCH   1  18
TORSDOF 9
ENDMDL
