MODEL 3
REMARK VINA RESULT: -10.680493838      1.171      1.245
REMARK  9 active torsions:
REMARK  status: ('A' for Active; 'I' for Inactive)
REMARK       I    between atoms: C2_2  and  N1_4 
REMARK    1  A    between atoms: N1_4  and  C3_6 
REMARK    2  A    between atoms: C6_9  and  O2_10 
REMARK    3  A    between atoms: O2_10  and  C7_11 
REMARK    4  A    between atoms: C7_11  and  C8_12 
REMARK    5  A    between atoms: C8_12  and  O3_14 
REMARK    6  A    between atoms: C8_12  and  C10_16 
REMARK       I    between atoms: C10_16  and  N2_18 
REMARK    7  A    between atoms: N2_18  and  C11_20 
REMARK    8  A    between atoms: C14_23  and  N3_24 
REMARK    9  A    between atoms: C15_27  and  C16_28 
ROOT
HETATM    1  C8  UNL     1      29.700   0.976   4.378  1.00  0.00     0.156 C 
HETATM    2  C9  UNL     1      29.459   0.320   3.085  1.00  0.00     0.059 C 
ENDROOT
BRANCH   1   3
HETATM    3  C7  UNL     1      29.616   0.163   5.623  1.00  0.00     0.223 C 
BRANCH   3   4
HETATM    4  O2  UNL     1      30.227   0.600   6.748  1.00  0.00    -0.348 OA
BRANCH   4   5
HETATM    5  C6  UNL     1      30.302   0.389   8.066  1.00  0.00     0.069 A 
HETATM    6  C5  UNL     1      31.244   0.877   8.925  1.00  0.00     0.039 A 
HETATM    7  C4  UNL     1      31.190   0.577  10.268  1.00  0.00     0.032 A 
HETATM    8  C3  UNL     1      30.208  -0.214  10.799  1.00  0.00     0.034 A 
HETATM    9  C19 UNL     1      29.240  -0.718   9.927  1.00  0.00     0.032 A 
HETATM   10  C18 UNL     1      29.282  -0.429   8.605  1.00  0.00     0.039 A 
BRANCH   8  11
HETATM   11  N1  UNL     1      30.112  -0.572  12.140  1.00  0.00    -0.328 N 
HETATM   12  C2  UNL     1      29.067  -0.200  12.995  1.00  0.00     0.218 C 
HETATM   13  C1  UNL     1      29.043  -0.642  14.441  1.00  0.00     0.117 C 
HETATM   14  O1  UNL     1      28.093   0.510  12.648  1.00  0.00    -0.274 OA
ATOM     15  H1  UNL     1      30.858  -1.149  12.530  1.00  0.00     0.169 HD
ENDBRANCH   8  11
ENDBRANCH   4   5
ENDBRANCH   3   4
ENDBRANCH   1   3
BRANCH   1  16
HETATM   16  O3  UNL     1      30.922   1.673   4.418  1.00  0.00    -0.378 OA
ATOM     17  H3  UNL     1      31.008   2.138   3.594  1.00  0.00     0.211 HD
ENDBRANCH   1  16
BRANCH   1  18
HETATM   18  C10 UNL     1      28.574   2.015   4.516  1.00  0.00     0.258 C 
HETATM   19  O4  UNL     1      27.852   1.966   5.522  1.00  0.00    -0.270 OA
HETATM   20  N2  UNL     1      28.389   2.979   3.518  1.00  0.00    -0.325 N 
ATOM     21  H2  UNL     1      29.019   2.969   2.716  1.00  0.00     0.169 HD
BRANCH  20  22
HETATM   22  C11 UNL     1      27.388   3.957   3.559  1.00  0.00     0.035 A 
HETATM   23  C12 UNL     1      27.817   5.289   3.456  1.00  0.00     0.032 A 
HETATM   24  C13 UNL     1      26.940   6.339   3.470  1.00  0.00     0.039 A 
HETATM   25  C14 UNL     1      25.573   6.125   3.589  1.00  0.00     0.118 A 
HETATM   26  C15 UNL     1      25.163   4.830   3.689  1.00  0.00     0.083 A 
HETATM   27  C17 UNL     1      26.048   3.745   3.675  1.00  0.00     0.048 A 
BRANCH  25  28
HETATM   28  N3  UNL     1      24.650   7.202   3.589  1.00  0.00    -0.115 N 
HETATM   29  O5  UNL     1      24.069   7.668   4.562  1.00  0.00    -0.532 OA
HETATM   30  O6  UNL     1      24.417   7.754   2.320  1.00  0.00    -0.532 OA
ENDBRANCH  25  28
BRANCH  26  31
HETATM   31  C16 UNL     1      23.711   4.551   3.834  1.00  0.00     0.419 C 
HETATM   32  F1  UNL     1      22.942   5.263   2.936  1.00  0.00    -0.166 F 
HETATM   33  F2  UNL     1      23.498   3.200   3.509  1.00  0.00    -0.166 F 
HETATM   34  F3  UNL     1      23.304   4.673   5.139  1.00  0.00    -0.166 F 
ENDBRANCH  26  31
ENDBRANCH  20  22
ENDBRANCH   1  18
TORSDOF 9
ENDMDL
