MODEL 1
REMARK VINA RESULT: -11.381700633      0.000      0.000
REMARK  9 active torsions:
REMARK  status: ('A' for Active; 'I' for Inactive)
REMARK       I    between atoms: C2_2  and  N1_4 
REMARK    1  A    between atoms: N1_4  and  C3_6 
REMARK    2  A    between atoms: C6_9  and  O2_10 
REMARK    3  A    between atoms: O2_10  and  C7_11 
REMARK    4  A    between atoms: C7_11  and  C8_12 
REMARK    5  A    between atoms: C8_12  and  O3_14 
REMARK    6  A    between atoms: C8_12  and  C10_16 
REMARK       I    between atoms: C10_16  and  N2_18 
REMARK    7  A    between atoms: N2_18  and  C11_20 
REMARK    8  A    between atoms: C14_23  and  N3_24 
REMARK    9  A    between atoms: C15_27  and  C16_28 
ROOT
HETATM    1  C8  UNL     1      29.612   0.808   4.012  1.00  0.00     0.156 C 
HETATM    2  C9  UNL     1      29.024  -0.523   3.803  1.00  0.00     0.059 C 
ENDROOT
BRANCH   1   3
HETATM    3  C7  UNL     1      30.367   1.070   5.268  1.00  0.00     0.223 C 
BRANCH   3   4
HETATM    4  O2  UNL     1      29.721   1.586   6.341  1.00  0.00    -0.348 OA
BRANCH   4   5
HETATM    5  C6  UNL     1      29.485   1.377   7.639  1.00  0.00     0.069 A 
HETATM    6  C5  UNL     1      28.733   2.151   8.473  1.00  0.00     0.039 A 
HETATM    7  C4  UNL     1      28.574   1.806   9.797  1.00  0.00     0.032 A 
HETATM    8  C3  UNL     1      29.155   0.690  10.333  1.00  0.00     0.034 A 
HETATM    9  C19 UNL     1      29.928  -0.109   9.487  1.00  0.00     0.032 A 
HETATM   10  C18 UNL     1      30.090   0.220   8.183  1.00  0.00     0.039 A 
BRANCH   8  11
HETATM   11  N1  UNL     1      29.052   0.300  11.666  1.00  0.00    -0.328 N 
HETATM   12  C2  UNL     1      30.138   0.003  12.499  1.00  0.00     0.218 C 
HETATM   13  C1  UNL     1      29.929  -0.406  13.940  1.00  0.00     0.117 C 
HETATM   14  O1  UNL     1      31.337   0.049  12.135  1.00  0.00    -0.274 OA
ATOM     15  H1  UNL     1      28.116   0.226  12.065  1.00  0.00     0.169 HD
ENDBRANCH   8  11
ENDBRANCH   4   5
ENDBRANCH   3   4
ENDBRANCH   1   3
BRANCH   1  16
HETATM   16  O3  UNL     1      30.427   1.219   2.942  1.00  0.00    -0.378 OA
ATOM     17  H3  UNL     1      30.738   2.093   3.144  1.00  0.00     0.211 HD
ENDBRANCH   1  16
BRANCH   1  18
HETATM   18  C10 UNL     1      28.412   1.770   4.073  1.00  0.00     0.258 C 
HETATM   19  O4  UNL     1      27.332   1.333   4.496  1.00  0.00    -0.270 OA
HETATM   20  N2  UNL     1      28.562   3.098   3.657  1.00  0.00    -0.325 N 
ATOM     21  H2  UNL     1      29.478   3.397   3.323  1.00  0.00     0.169 HD
BRANCH  20  22
HETATM   22  C11 UNL     1      27.525   4.039   3.674  1.00  0.00     0.035 A 
HETATM   23  C12 UNL     1      27.904   5.383   3.540  1.00  0.00     0.032 A 
HETATM   24  C13 UNL     1      26.988   6.399   3.528  1.00  0.00     0.039 A 
HETATM   25  C14 UNL     1      25.630   6.137   3.651  1.00  0.00     0.118 A 
HETATM   26  C15 UNL     1      25.269   4.830   3.781  1.00  0.00     0.083 A 
HETATM   27  C17 UNL     1      26.194   3.780   3.793  1.00  0.00     0.048 A 
BRANCH  25  28
HETATM   28  N3  UNL     1      24.668   7.179   3.625  1.00  0.00    -0.115 N 
HETATM   29  O5  UNL     1      24.106   7.681   4.591  1.00  0.00    -0.532 OA
HETATM   30  O6  UNL     1      24.367   7.646   2.336  1.00  0.00    -0.532 OA
ENDBRANCH  25  28
BRANCH  26  31
HETATM   31  C16 UNL     1      23.828   4.500   3.932  1.00  0.00     0.419 C 
HETATM   32  F1  UNL     1      23.032   5.181   3.032  1.00  0.00    -0.166 F 
HETATM   33  F2  UNL     1      23.662   3.142   3.613  1.00  0.00    -0.166 F 
HETATM   34  F3  UNL     1      23.421   4.614   5.237  1.00  0.00    -0.166 F 
ENDBRANCH  26  31
ENDBRANCH  20  22
ENDBRANCH   1  18
TORSDOF 9
ENDMDL
