MODEL 2
REMARK VINA RESULT: -10.753823830      0.959      1.282
REMARK  9 active torsions:
REMARK  status: ('A' for Active; 'I' for Inactive)
REMARK       I    between atoms: C2_2  and  N1_4 
REMARK    1  A    between atoms: N1_4  and  C3_6 
REMARK    2  A    between atoms: C6_9  and  O2_10 
REMARK    3  A    between atoms: O2_10  and  C7_11 
REMARK    4  A    between atoms: C7_11  and  C8_12 
REMARK    5  A    between atoms: C8_12  and  O3_14 
REMARK    6  A    between atoms: C8_12  and  C10_16 
REMARK       I    between atoms: C10_16  and  N2_18 
REMARK    7  A    between atoms: N2_18  and  C11_20 
REMARK    8  A    between atoms: C14_23  and  N3_24 
REMARK    9  A    between atoms: C15_27  and  C16_28 
ROOT
HETATM    1  C8  UNL     1      29.634   0.838   3.542  1.00  0.00     0.156 C 
HETATM    2  C9  UNL     1      29.012  -0.487   3.671  1.00  0.00     0.059 C 
ENDROOT
BRANCH   1   3
HETATM    3  C7  UNL     1      30.413   1.380   4.689  1.00  0.00     0.223 C 
BRANCH   3   4
HETATM    4  O2  UNL     1      29.821   1.498   5.901  1.00  0.00    -0.348 OA
BRANCH   4   5
HETATM    5  C6  UNL     1      29.923   1.108   7.175  1.00  0.00     0.069 A 
HETATM    6  C5  UNL     1      30.737   0.135   7.675  1.00  0.00     0.039 A 
HETATM    7  C4  UNL     1      30.737  -0.157   9.021  1.00  0.00     0.032 A 
HETATM    8  C3  UNL     1      29.932   0.503   9.909  1.00  0.00     0.034 A 
HETATM    9  C19 UNL     1      29.094   1.502   9.406  1.00  0.00     0.032 A 
HETATM   10  C18 UNL     1      29.087   1.798   8.085  1.00  0.00     0.039 A 
BRANCH   8  11
HETATM   11  N1  UNL     1      29.869   0.240  11.275  1.00  0.00    -0.328 N 
HETATM   12  C2  UNL     1      28.761   0.504  12.090  1.00  0.00     0.218 C 
HETATM   13  C1  UNL     1      28.780   0.177  13.567  1.00  0.00     0.117 C 
HETATM   14  O1  UNL     1      27.692   1.017  11.681  1.00  0.00    -0.274 OA
ATOM     15  H1  UNL     1      30.690  -0.176  11.714  1.00  0.00     0.169 HD
ENDBRANCH   8  11
ENDBRANCH   4   5
ENDBRANCH   3   4
ENDBRANCH   1   3
BRANCH   1  16
HETATM   16  O3  UNL     1      30.444   0.952   2.397  1.00  0.00    -0.378 OA
ATOM     17  H3  UNL     1      31.184   0.369   2.516  1.00  0.00     0.211 HD
ENDBRANCH   1  16
BRANCH   1  18
HETATM   18  C10 UNL     1      28.459   1.816   3.374  1.00  0.00     0.258 C 
HETATM   19  O4  UNL     1      27.511   1.476   2.651  1.00  0.00    -0.270 OA
HETATM   20  N2  UNL     1      28.482   3.052   4.030  1.00  0.00    -0.325 N 
ATOM     21  H2  UNL     1      29.289   3.273   4.614  1.00  0.00     0.169 HD
BRANCH  20  22
HETATM   22  C11 UNL     1      27.459   4.004   3.930  1.00  0.00     0.035 A 
HETATM   23  C12 UNL     1      27.866   5.336   3.757  1.00  0.00     0.032 A 
HETATM   24  C13 UNL     1      26.967   6.360   3.634  1.00  0.00     0.039 A 
HETATM   25  C14 UNL     1      25.600   6.119   3.676  1.00  0.00     0.118 A 
HETATM   26  C15 UNL     1      25.213   4.824   3.844  1.00  0.00     0.083 A 
HETATM   27  C17 UNL     1      26.120   3.765   3.970  1.00  0.00     0.048 A 
BRANCH  25  28
HETATM   28  N3  UNL     1      24.656   7.168   3.533  1.00  0.00    -0.115 N 
HETATM   29  O5  UNL     1      24.063   7.747   4.436  1.00  0.00    -0.532 OA
HETATM   30  O6  UNL     1      24.416   7.544   2.202  1.00  0.00    -0.532 OA
ENDBRANCH  25  28
BRANCH  26  31
HETATM   31  C16 UNL     1      23.760   4.517   3.911  1.00  0.00     0.419 C 
HETATM   32  F1  UNL     1      23.033   5.179   2.942  1.00  0.00    -0.166 F 
HETATM   33  F2  UNL     1      23.595   3.152   3.625  1.00  0.00    -0.166 F 
HETATM   34  F3  UNL     1      23.272   4.677   5.184  1.00  0.00    -0.166 F 
ENDBRANCH  26  31
ENDBRANCH  20  22
ENDBRANCH   1  18
TORSDOF 9
ENDMDL
