MODEL 12
REMARK VINA RESULT: -6.949707728      3.777      8.434
REMARK  9 active torsions:
REMARK  status: ('A' for Active; 'I' for Inactive)
REMARK       I    between atoms: C2_2  and  N1_4 
REMARK    1  A    between atoms: N1_4  and  C3_6 
REMARK    2  A    between atoms: C6_9  and  O2_10 
REMARK    3  A    between atoms: O2_10  and  C7_11 
REMARK    4  A    between atoms: C7_11  and  C8_12 
REMARK    5  A    between atoms: C8_12  and  O3_14 
REMARK    6  A    between atoms: C8_12  and  C10_16 
REMARK       I    between atoms: C10_16  and  N2_18 
REMARK    7  A    between atoms: N2_18  and  C11_20 
REMARK    8  A    between atoms: C14_23  and  N3_24 
REMARK    9  A    between atoms: C15_27  and  C16_28 
ROOT
HETATM    1  C8  UNL     1      29.598  -0.156   3.546  1.00  0.00     0.156 C 
HETATM    2  C9  UNL     1      30.812  -0.983   3.538  1.00  0.00     0.059 C 
ENDROOT
BRANCH   1   3
HETATM    3  C7  UNL     1      29.696   1.268   3.119  1.00  0.00     0.223 C 
BRANCH   3   4
HETATM    4  O2  UNL     1      28.572   1.941   2.778  1.00  0.00    -0.348 OA
BRANCH   4   5
HETATM    5  C6  UNL     1      27.808   2.979   3.131  1.00  0.00     0.069 A 
HETATM    6  C5  UNL     1      28.212   4.265   3.340  1.00  0.00     0.039 A 
HETATM    7  C4  UNL     1      27.304   5.236   3.698  1.00  0.00     0.032 A 
HETATM    8  C3  UNL     1      25.973   4.964   3.862  1.00  0.00     0.034 A 
HETATM    9  C19 UNL     1      25.550   3.649   3.651  1.00  0.00     0.032 A 
HETATM   10  C18 UNL     1      26.434   2.686   3.297  1.00  0.00     0.039 A 
BRANCH   8  11
HETATM   11  N1  UNL     1      25.011   5.894   4.244  1.00  0.00    -0.328 N 
HETATM   12  C2  UNL     1      24.729   7.082   3.558  1.00  0.00     0.218 C 
HETATM   13  C1  UNL     1      23.658   8.032   4.044  1.00  0.00     0.117 C 
HETATM   14  O1  UNL     1      25.321   7.449   2.515  1.00  0.00    -0.274 OA
ATOM     15  H1  UNL     1      24.471   5.696   5.086  1.00  0.00     0.169 HD
ENDBRANCH   8  11
ENDBRANCH   4   5
ENDBRANCH   3   4
ENDBRANCH   1   3
BRANCH   1  16
HETATM   16  O3  UNL     1      28.537  -0.735   2.826  1.00  0.00    -0.378 OA
ATOM     17  H3  UNL     1      28.377  -1.593   3.201  1.00  0.00     0.211 HD
ENDBRANCH   1  16
BRANCH   1  18
HETATM   18  C10 UNL     1      29.170  -0.089   5.022  1.00  0.00     0.258 C 
HETATM   19  O4  UNL     1      28.047  -0.517   5.327  1.00  0.00    -0.270 OA
HETATM   20  N2  UNL     1      30.042   0.446   5.977  1.00  0.00    -0.325 N 
ATOM     21  H2  UNL     1      30.954   0.779   5.664  1.00  0.00     0.169 HD
BRANCH  20  22
HETATM   22  C11 UNL     1      29.733   0.550   7.340  1.00  0.00     0.035 A 
HETATM   23  C12 UNL     1      29.092   1.730   7.743  1.00  0.00     0.032 A 
HETATM   24  C13 UNL     1      28.725   1.952   9.042  1.00  0.00     0.039 A 
HETATM   25  C14 UNL     1      28.977   1.005  10.025  1.00  0.00     0.118 A 
HETATM   26  C15 UNL     1      29.600  -0.139   9.627  1.00  0.00     0.083 A 
HETATM   27  C17 UNL     1      29.981  -0.380   8.302  1.00  0.00     0.048 A 
BRANCH  25  28
HETATM   28  N3  UNL     1      28.589   1.213  11.374  1.00  0.00    -0.115 N 
HETATM   29  O5  UNL     1      27.446   1.348  11.794  1.00  0.00    -0.532 OA
HETATM   30  O6  UNL     1      29.663   1.260  12.277  1.00  0.00    -0.532 OA
ENDBRANCH  25  28
BRANCH  26  31
HETATM   31  C16 UNL     1      29.906  -1.176  10.647  1.00  0.00     0.419 C 
HETATM   32  F1  UNL     1      28.814  -1.486  11.432  1.00  0.00    -0.166 F 
HETATM   33  F2  UNL     1      30.221  -2.366   9.969  1.00  0.00    -0.166 F 
HETATM   34  F3  UNL     1      31.036  -0.861  11.359  1.00  0.00    -0.166 F 
ENDBRANCH  26  31
ENDBRANCH  20  22
ENDBRANCH   1  18
TORSDOF 9
ENDMDL
