MODEL 4
REMARK VINA RESULT: -10.297073488      0.492      1.041
REMARK  9 active torsions:
REMARK  status: ('A' for Active; 'I' for Inactive)
REMARK       I    between atoms: C2_2  and  N1_4 
REMARK    1  A    between atoms: N1_4  and  C3_6 
REMARK    2  A    between atoms: C6_9  and  O2_10 
REMARK    3  A    between atoms: O2_10  and  C7_11 
REMARK    4  A    between atoms: C7_11  and  C8_12 
REMARK    5  A    between atoms: C8_12  and  O3_14 
REMARK    6  A    between atoms: C8_12  and  C10_16 
REMARK       I    between atoms: C10_16  and  N2_18 
REMARK    7  A    between atoms: N2_18  and  C11_20 
REMARK    8  A    between atoms: C14_23  and  N3_24 
REMARK    9  A    between atoms: C15_27  and  C16_28 
ROOT
HETATM    1  C8  UNL     1      29.768   1.003   4.312  1.00  0.00     0.156 C 
HETATM    2  C9  UNL     1      29.188  -0.338   4.153  1.00  0.00     0.059 C 
ENDROOT
BRANCH   1   3
HETATM    3  C7  UNL     1      30.542   1.309   5.547  1.00  0.00     0.223 C 
BRANCH   3   4
HETATM    4  O2  UNL     1      30.380   0.534   6.645  1.00  0.00    -0.348 OA
BRANCH   4   5
HETATM    5  C6  UNL     1      29.971   0.565   7.916  1.00  0.00     0.069 A 
HETATM    6  C5  UNL     1      29.288   1.570   8.536  1.00  0.00     0.039 A 
HETATM    7  C4  UNL     1      28.926   1.459   9.860  1.00  0.00     0.032 A 
HETATM    8  C3  UNL     1      29.231   0.355  10.609  1.00  0.00     0.034 A 
HETATM    9  C19 UNL     1      29.930  -0.679   9.983  1.00  0.00     0.032 A 
HETATM   10  C18 UNL     1      30.290  -0.582   8.681  1.00  0.00     0.039 A 
BRANCH   8  11
HETATM   11  N1  UNL     1      28.914   0.193  11.954  1.00  0.00    -0.328 N 
HETATM   12  C2  UNL     1      29.842  -0.075  12.968  1.00  0.00     0.218 C 
HETATM   13  C1  UNL     1      29.406  -0.229  14.408  1.00  0.00     0.117 C 
HETATM   14  O1  UNL     1      31.074  -0.207  12.777  1.00  0.00    -0.274 OA
ATOM     15  H1  UNL     1      27.933   0.276  12.222  1.00  0.00     0.169 HD
ENDBRANCH   8  11
ENDBRANCH   4   5
ENDBRANCH   3   4
ENDBRANCH   1   3
BRANCH   1  16
HETATM   16  O3  UNL     1      30.561   1.389   3.216  1.00  0.00    -0.378 OA
ATOM     17  H3  UNL     1      31.456   1.456   3.526  1.00  0.00     0.211 HD
ENDBRANCH   1  16
BRANCH   1  18
HETATM   18  C10 UNL     1      28.561   1.956   4.365  1.00  0.00     0.258 C 
HETATM   19  O4  UNL     1      27.595   1.640   5.074  1.00  0.00    -0.270 OA
HETATM   20  N2  UNL     1      28.577   3.143   3.623  1.00  0.00    -0.325 N 
ATOM     21  H2  UNL     1      29.403   3.348   3.061  1.00  0.00     0.169 HD
BRANCH  20  22
HETATM   22  C11 UNL     1      27.522   4.064   3.608  1.00  0.00     0.035 A 
HETATM   23  C12 UNL     1      27.878   5.413   3.458  1.00  0.00     0.032 A 
HETATM   24  C13 UNL     1      26.944   6.411   3.415  1.00  0.00     0.039 A 
HETATM   25  C14 UNL     1      25.590   6.125   3.520  1.00  0.00     0.118 A 
HETATM   26  C15 UNL     1      25.251   4.814   3.665  1.00  0.00     0.083 A 
HETATM   27  C17 UNL     1      26.195   3.782   3.710  1.00  0.00     0.048 A 
BRANCH  25  28
HETATM   28  N3  UNL     1      24.608   7.149   3.462  1.00  0.00    -0.115 N 
HETATM   29  O5  UNL     1      24.072   7.592   2.453  1.00  0.00    -0.532 OA
HETATM   30  O6  UNL     1      24.250   7.668   4.716  1.00  0.00    -0.532 OA
ENDBRANCH  25  28
BRANCH  26  31
HETATM   31  C16 UNL     1      23.814   4.460   3.799  1.00  0.00     0.419 C 
HETATM   32  F1  UNL     1      23.582   3.111   3.622  1.00  0.00    -0.166 F 
HETATM   33  F2  UNL     1      23.425   4.728   5.122  1.00  0.00    -0.166 F 
HETATM   34  F3  UNL     1      23.023   5.270   3.023  1.00  0.00    -0.166 F 
ENDBRANCH  26  31
ENDBRANCH  20  22
ENDBRANCH   1  18
TORSDOF 9
ENDMDL
