MODEL 11
REMARK VINA RESULT: -7.502273303      3.994      8.276
REMARK  9 active torsions:
REMARK  status: ('A' for Active; 'I' for Inactive)
REMARK       I    between atoms: C2_2  and  N1_4 
REMARK    1  A    between atoms: N1_4  and  C3_6 
REMARK    2  A    between atoms: C6_9  and  O2_10 
REMARK    3  A    between atoms: O2_10  and  C7_11 
REMARK    4  A    between atoms: C7_11  and  C8_12 
REMARK    5  A    between atoms: C8_12  and  O3_14 
REMARK    6  A    between atoms: C8_12  and  C10_16 
REMARK       I    between atoms: C10_16  and  N2_18 
REMARK    7  A    between atoms: N2_18  and  C11_20 
REMARK    8  A    between atoms: C14_23  and  N3_24 
REMARK    9  A    between atoms: C15_27  and  C16_28 
ROOT
HETATM    1  C8  UNL     1      29.661   0.288   3.807  1.00  0.00     0.156 C 
HETATM    2  C9  UNL     1      30.697  -0.746   3.675  1.00  0.00     0.059 C 
ENDROOT
BRANCH   1   3
HETATM    3  C7  UNL     1      30.036   1.712   3.589  1.00  0.00     0.223 C 
BRANCH   3   4
HETATM    4  O2  UNL     1      29.281   2.693   4.138  1.00  0.00    -0.348 OA
BRANCH   4   5
HETATM    5  C6  UNL     1      28.115   3.333   4.009  1.00  0.00     0.069 A 
HETATM    6  C5  UNL     1      27.902   4.543   3.419  1.00  0.00     0.039 A 
HETATM    7  C4  UNL     1      26.634   5.080   3.356  1.00  0.00     0.032 A 
HETATM    8  C3  UNL     1      25.545   4.437   3.878  1.00  0.00     0.034 A 
HETATM    9  C19 UNL     1      25.754   3.196   4.485  1.00  0.00     0.032 A 
HETATM   10  C18 UNL     1      26.995   2.658   4.551  1.00  0.00     0.039 A 
BRANCH   8  11
HETATM   11  N1  UNL     1      24.246   4.935   3.867  1.00  0.00    -0.328 N 
HETATM   12  C2  UNL     1      23.087   4.149   3.829  1.00  0.00     0.218 C 
HETATM   13  C1  UNL     1      21.713   4.779   3.828  1.00  0.00     0.117 C 
HETATM   14  O1  UNL     1      23.089   2.895   3.795  1.00  0.00    -0.274 OA
ATOM     15  H1  UNL     1      24.128   5.948   3.888  1.00  0.00     0.169 HD
ENDBRANCH   8  11
ENDBRANCH   4   5
ENDBRANCH   3   4
ENDBRANCH   1   3
BRANCH   1  16
HETATM   16  O3  UNL     1      28.528   0.029   3.014  1.00  0.00    -0.378 OA
ATOM     17  H3  UNL     1      28.835  -0.344   2.196  1.00  0.00     0.211 HD
ENDBRANCH   1  16
BRANCH   1  18
HETATM   18  C10 UNL     1      29.218   0.224   5.279  1.00  0.00     0.258 C 
HETATM   19  O4  UNL     1      28.180  -0.396   5.552  1.00  0.00    -0.270 OA
HETATM   20  N2  UNL     1      29.983   0.857   6.265  1.00  0.00    -0.325 N 
ATOM     21  H2  UNL     1      30.829   1.348   5.976  1.00  0.00     0.169 HD
BRANCH  20  22
HETATM   22  C11 UNL     1      29.653   0.853   7.626  1.00  0.00     0.035 A 
HETATM   23  C12 UNL     1      28.888   1.937   8.082  1.00  0.00     0.032 A 
HETATM   24  C13 UNL     1      28.488   2.049   9.385  1.00  0.00     0.039 A 
HETATM   25  C14 UNL     1      28.828   1.080  10.320  1.00  0.00     0.118 A 
HETATM   26  C15 UNL     1      29.571   0.030   9.871  1.00  0.00     0.083 A 
HETATM   27  C17 UNL     1      29.986  -0.097   8.541  1.00  0.00     0.048 A 
BRANCH  25  28
HETATM   28  N3  UNL     1      28.407   1.174  11.672  1.00  0.00    -0.115 N 
HETATM   29  O5  UNL     1      27.254   1.138  12.084  1.00  0.00    -0.532 OA
HETATM   30  O6  UNL     1      29.461   1.319  12.589  1.00  0.00    -0.532 OA
ENDBRANCH  25  28
BRANCH  26  31
HETATM   31  C16 UNL     1      29.974  -1.023  10.839  1.00  0.00     0.419 C 
HETATM   32  F1  UNL     1      28.927  -1.436  11.639  1.00  0.00    -0.166 F 
HETATM   33  F2  UNL     1      30.344  -2.162  10.104  1.00  0.00    -0.166 F 
HETATM   34  F3  UNL     1      31.101  -0.663  11.533  1.00  0.00    -0.166 F 
ENDBRANCH  26  31
ENDBRANCH  20  22
ENDBRANCH   1  18
TORSDOF 9
ENDMDL
