MODEL 2
REMARK VINA RESULT: -6.936925438      1.179      3.111
REMARK  1 active torsions:
REMARK  status: ('A' for Active; 'I' for Inactive)
REMARK    1  A    between atoms: C6_8  and  O3_9 
ROOT
HETATM    1  O1  UNL     1      16.322  12.675 -10.080  1.00  0.00    -0.288 OA
HETATM    2  C1  UNL     1      16.131  11.898  -9.110  1.00  0.00     0.183 A 
HETATM    3  C2  UNL     1      17.062  10.838  -8.750  1.00  0.00     0.059 A 
HETATM    4  C3  UNL     1      16.850  10.026  -7.727  1.00  0.00     0.059 A 
HETATM    5  C4  UNL     1      15.666  10.135  -6.882  1.00  0.00     0.185 A 
HETATM    6  O2  UNL     1      15.478   9.349  -5.904  1.00  0.00    -0.287 OA
HETATM    7  C5  UNL     1      14.700  11.187  -7.203  1.00  0.00     0.061 A 
HETATM    8  C6  UNL     1      13.562  11.336  -6.438  1.00  0.00     0.080 A 
HETATM    9  C7  UNL     1      12.677  12.338  -6.772  1.00  0.00     0.037 A 
HETATM   10  C8  UNL     1      12.911  13.175  -7.840  1.00  0.00     0.004 A 
HETATM   11  C9  UNL     1      14.045  13.037  -8.613  1.00  0.00     0.017 A 
HETATM   12  C10 UNL     1      14.927  12.036  -8.278  1.00  0.00     0.031 A 
ENDROOT
BRANCH   8  13
HETATM   13  O3  UNL     1      13.315  10.488  -5.346  1.00  0.00    -0.360 OA
ATOM     14  H3  UNL     1      12.925  10.824  -4.548  1.00  0.00     0.217 HD
ENDBRANCH   8  13
TORSDOF 1
ENDMDL
