MODEL 1
REMARK VINA RESULT: -7.117380272      0.000      0.000
REMARK  1 active torsions:
REMARK  status: ('A' for Active; 'I' for Inactive)
REMARK    1  A    between atoms: C6_8  and  O3_9 
ROOT
HETATM    1  O1  UNL     1      16.971  12.151 -10.363  1.00  0.00    -0.288 OA
HETATM    2  C1  UNL     1      15.911  12.211  -9.689  1.00  0.00     0.183 A 
HETATM    3  C2  UNL     1      14.817  13.116 -10.013  1.00  0.00     0.059 A 
HETATM    4  C3  UNL     1      13.706  13.170  -9.297  1.00  0.00     0.059 A 
HETATM    5  C4  UNL     1      13.496  12.325  -8.127  1.00  0.00     0.185 A 
HETATM    6  O2  UNL     1      12.424  12.389  -7.451  1.00  0.00    -0.287 OA
HETATM    7  C5  UNL     1      14.567  11.397  -7.761  1.00  0.00     0.061 A 
HETATM    8  C6  UNL     1      14.422  10.574  -6.663  1.00  0.00     0.080 A 
HETATM    9  C7  UNL     1      15.453   9.715  -6.350  1.00  0.00     0.037 A 
HETATM   10  C8  UNL     1      16.604   9.670  -7.106  1.00  0.00     0.004 A 
HETATM   11  C9  UNL     1      16.761  10.487  -8.205  1.00  0.00     0.017 A 
HETATM   12  C10 UNL     1      15.731  11.344  -8.516  1.00  0.00     0.031 A 
ENDROOT
BRANCH   8  13
HETATM   13  O3  UNL     1      13.252  10.611  -5.886  1.00  0.00    -0.360 OA
ATOM     14  H3  UNL     1      13.240  10.252  -5.007  1.00  0.00     0.217 HD
ENDBRANCH   8  13
TORSDOF 1
ENDMDL
