MODEL 4
REMARK VINA RESULT: -6.785199122      1.055      3.275
REMARK  1 active torsions:
REMARK  status: ('A' for Active; 'I' for Inactive)
REMARK    1  A    between atoms: C6_8  and  O3_9 
ROOT
HETATM    1  O1  UNL     1      12.326  11.704  -5.839  1.00  0.00    -0.288 OA
HETATM    2  C1  UNL     1      13.145  11.946  -6.762  1.00  0.00     0.183 A 
HETATM    3  C2  UNL     1      12.947  13.007  -7.739  1.00  0.00     0.059 A 
HETATM    4  C3  UNL     1      13.817  13.252  -8.707  1.00  0.00     0.059 A 
HETATM    5  C4  UNL     1      15.039  12.473  -8.865  1.00  0.00     0.185 A 
HETATM    6  O2  UNL     1      15.863  12.721  -9.798  1.00  0.00    -0.287 OA
HETATM    7  C5  UNL     1      15.284  11.394  -7.907  1.00  0.00     0.061 A 
HETATM    8  C6  UNL     1      16.425  10.625  -8.010  1.00  0.00     0.080 A 
HETATM    9  C7  UNL     1      16.619   9.618  -7.089  1.00  0.00     0.037 A 
HETATM   10  C8  UNL     1      15.705   9.376  -6.088  1.00  0.00     0.004 A 
HETATM   11  C9  UNL     1      14.560  10.137  -5.974  1.00  0.00     0.017 A 
HETATM   12  C10 UNL     1      14.369  11.141  -6.894  1.00  0.00     0.031 A 
ENDROOT
BRANCH   8  13
HETATM   13  O3  UNL     1      17.363  10.865  -9.027  1.00  0.00    -0.360 OA
ATOM     14  H3  UNL     1      17.743  11.727  -9.145  1.00  0.00     0.217 HD
ENDBRANCH   8  13
TORSDOF 1
ENDMDL
