MODEL 3
REMARK VINA RESULT: -9.447551442      1.250      1.637
REMARK  10 active torsions:
REMARK  status: ('A' for Active; 'I' for Inactive)
REMARK    1  A    between atoms: C2_2  and  N1_3 
REMARK    2  A    between atoms: C2_2  and  C21_31 
REMARK       I    between atoms: N1_3  and  C3_5 
REMARK    3  A    between atoms: C3_5  and  C4_7 
REMARK    4  A    between atoms: C4_7  and  C5_8 
REMARK    5  A    between atoms: C4_7  and  C18_21 
REMARK    6  A    between atoms: C5_8  and  C6_9 
REMARK    7  A    between atoms: C9_12  and  C10_13 
REMARK    8  A    between atoms: C18_21  and  P1_22 
REMARK    9  A    between atoms: P1_22  and  C19_25 
REMARK   10  A    between atoms: C19_25  and  N2_27 
ROOT
HETATM    1  C4  UNL     1      33.623   8.358   0.662  1.00  0.00     0.111 C 
ENDROOT
BRANCH   1   2
HETATM    2  C3  UNL     1      34.296   6.949   0.492  1.00  0.00     0.226 C 
HETATM    3  N1  UNL     1      33.824   5.846   1.206  1.00  0.00    -0.346 N 
ATOM      4  H1  UNL     1      33.034   5.979   1.838  1.00  0.00     0.163 HD
HETATM    5  O1  UNL     1      35.252   6.832  -0.287  1.00  0.00    -0.273 OA
BRANCH   3   6
HETATM    6  C2  UNL     1      34.404   4.521   1.094  1.00  0.00     0.181 C 
HETATM    7  C1  UNL     1      34.971   4.023   2.398  1.00  0.00     0.043 C 
BRANCH   6   8
HETATM    8  C21 UNL     1      33.446   3.552   0.504  1.00  0.00     0.196 C 
HETATM    9  O4  UNL     1      32.274   3.400   0.944  1.00  0.00    -0.646 OA
HETATM   10  O5  UNL     1      33.875   2.794  -0.571  1.00  0.00    -0.646 OA
ENDBRANCH   6   8
ENDBRANCH   3   6
ENDBRANCH   1   2
BRANCH   1  11
HETATM   11  C5  UNL     1      33.197   8.710  -0.712  1.00  0.00    -0.001 C 
BRANCH  11  12
HETATM   12  C6  UNL     1      31.881   9.136  -1.069  1.00  0.00    -0.039 A 
HETATM   13  C7  UNL     1      31.270   8.852  -2.255  1.00  0.00     0.012 A 
HETATM   14  C8  UNL     1      30.000   9.248  -2.602  1.00  0.00     0.013 A 
HETATM   15  C9  UNL     1      29.267   9.988  -1.703  1.00  0.00    -0.026 A 
HETATM   16  C16 UNL     1      29.842  10.299  -0.491  1.00  0.00     0.013 A 
HETATM   17  C17 UNL     1      31.120   9.890  -0.163  1.00  0.00     0.012 A 
BRANCH  15  18
HETATM   18  C10 UNL     1      27.903  10.426  -2.041  1.00  0.00    -0.026 A 
HETATM   19  C11 UNL     1      27.729  11.156  -3.182  1.00  0.00     0.012 A 
HETATM   20  C12 UNL     1      26.469  11.580  -3.522  1.00  0.00     0.001 A 
HETATM   21  C13 UNL     1      25.364  11.301  -2.757  1.00  0.00     0.000 A 
HETATM   22  C14 UNL     1      25.571  10.566  -1.614  1.00  0.00     0.001 A 
HETATM   23  C15 UNL     1      26.825  10.127  -1.249  1.00  0.00     0.012 A 
ENDBRANCH  15  18
ENDBRANCH  11  12
ENDBRANCH   1  11
BRANCH   1  24
HETATM   24  C18 UNL     1      34.623   9.178   1.384  1.00  0.00     0.123 C 
BRANCH  24  25
HETATM   25  P1  UNL     1      35.126   8.898   2.997  1.00  0.00     0.138 P 
HETATM   26  O2  UNL     1      33.818   9.108   3.735  1.00  0.00    -0.666 OA
HETATM   27  O3  UNL     1      35.151   7.366   3.695  1.00  0.00    -0.666 OA
BRANCH  25  28
HETATM   28  C19 UNL     1      35.998  10.209   3.838  1.00  0.00     0.270 C 
HETATM   29  C20 UNL     1      37.335   9.811   4.441  1.00  0.00     0.051 C 
BRANCH  28  30
HETATM   30  N2  UNL     1      35.160  10.672   4.924  1.00  0.00    -0.066 N 
ATOM     31  H23 UNL     1      35.044  11.685   4.929  1.00  0.00     0.275 HD
ATOM     32  H22 UNL     1      34.179  10.424   4.800  1.00  0.00     0.275 HD
ATOM     33  H21 UNL     1      35.552  10.314   5.794  1.00  0.00     0.275 HD
ENDBRANCH  28  30
ENDBRANCH  25  28
ENDBRANCH  24  25
ENDBRANCH   1  24
TORSDOF 10
ENDMDL
