MODEL 2
REMARK VINA RESULT: -9.565997114      0.496      1.267
REMARK  10 active torsions:
REMARK  status: ('A' for Active; 'I' for Inactive)
REMARK    1  A    between atoms: C2_2  and  N1_3 
REMARK    2  A    between atoms: C2_2  and  C21_31 
REMARK       I    between atoms: N1_3  and  C3_5 
REMARK    3  A    between atoms: C3_5  and  C4_7 
REMARK    4  A    between atoms: C4_7  and  C5_8 
REMARK    5  A    between atoms: C4_7  and  C18_21 
REMARK    6  A    between atoms: C5_8  and  C6_9 
REMARK    7  A    between atoms: C9_12  and  C10_13 
REMARK    8  A    between atoms: C18_21  and  P1_22 
REMARK    9  A    between atoms: P1_22  and  C19_25 
REMARK   10  A    between atoms: C19_25  and  N2_27 
ROOT
HETATM    1  C4  UNL     1      33.616   8.348   0.419  1.00  0.00     0.111 C 
ENDROOT
BRANCH   1   2
HETATM    2  C3  UNL     1      34.369   6.971   0.459  1.00  0.00     0.226 C 
HETATM    3  N1  UNL     1      33.824   5.884   1.146  1.00  0.00    -0.346 N 
ATOM      4  H1  UNL     1      32.928   6.007   1.617  1.00  0.00     0.163 HD
HETATM    5  O1  UNL     1      35.455   6.864  -0.128  1.00  0.00    -0.273 OA
BRANCH   3   6
HETATM    6  C2  UNL     1      34.472   4.588   1.221  1.00  0.00     0.181 C 
HETATM    7  C1  UNL     1      35.238   4.396   2.505  1.00  0.00     0.043 C 
BRANCH   6   8
HETATM    8  C21 UNL     1      33.512   3.481   0.982  1.00  0.00     0.196 C 
HETATM    9  O4  UNL     1      32.360   3.670   0.507  1.00  0.00    -0.646 OA
HETATM   10  O5  UNL     1      33.916   2.196   1.302  1.00  0.00    -0.646 OA
ENDBRANCH   6   8
ENDBRANCH   3   6
ENDBRANCH   1   2
BRANCH   1  11
HETATM   11  C5  UNL     1      32.906   8.321  -0.881  1.00  0.00    -0.001 C 
BRANCH  11  12
HETATM   12  C6  UNL     1      31.688   9.014  -1.154  1.00  0.00    -0.039 A 
HETATM   13  C7  UNL     1      31.120   9.939  -0.326  1.00  0.00     0.012 A 
HETATM   14  C8  UNL     1      29.953  10.618  -0.585  1.00  0.00     0.013 A 
HETATM   15  C9  UNL     1      29.287  10.366  -1.763  1.00  0.00    -0.026 A 
HETATM   16  C16 UNL     1      29.823   9.441  -2.631  1.00  0.00     0.013 A 
HETATM   17  C17 UNL     1      30.997   8.770  -2.349  1.00  0.00     0.012 A 
BRANCH  15  18
HETATM   18  C10 UNL     1      28.037  11.078  -2.074  1.00  0.00    -0.026 A 
HETATM   19  C11 UNL     1      27.557  11.001  -3.350  1.00  0.00     0.012 A 
HETATM   20  C12 UNL     1      26.395  11.657  -3.671  1.00  0.00     0.001 A 
HETATM   21  C13 UNL     1      25.685  12.394  -2.755  1.00  0.00     0.000 A 
HETATM   22  C14 UNL     1      26.194  12.453  -1.480  1.00  0.00     0.001 A 
HETATM   23  C15 UNL     1      27.358  11.804  -1.130  1.00  0.00     0.012 A 
ENDBRANCH  15  18
ENDBRANCH  11  12
ENDBRANCH   1  11
BRANCH   1  24
HETATM   24  C18 UNL     1      34.657   9.365   0.698  1.00  0.00     0.123 C 
BRANCH  24  25
HETATM   25  P1  UNL     1      35.012   9.989   2.252  1.00  0.00     0.138 P 
HETATM   26  O2  UNL     1      36.186  10.893   1.926  1.00  0.00    -0.666 OA
HETATM   27  O3  UNL     1      34.266  11.362   2.881  1.00  0.00    -0.666 OA
BRANCH  25  28
HETATM   28  C19 UNL     1      35.921   8.947   3.381  1.00  0.00     0.270 C 
HETATM   29  C20 UNL     1      37.056   8.153   2.755  1.00  0.00     0.051 C 
BRANCH  28  30
HETATM   30  N2  UNL     1      34.992   7.991   3.946  1.00  0.00    -0.066 N 
ATOM     31  H23 UNL     1      34.183   8.435   4.381  1.00  0.00     0.275 HD
ATOM     32  H22 UNL     1      34.489   7.460   3.236  1.00  0.00     0.275 HD
ATOM     33  H21 UNL     1      35.512   7.396   4.592  1.00  0.00     0.275 HD
ENDBRANCH  28  30
ENDBRANCH  25  28
ENDBRANCH  24  25
ENDBRANCH   1  24
TORSDOF 10
ENDMDL
