MODEL 1
REMARK VINA RESULT: -9.618751864      0.000      0.000
REMARK  10 active torsions:
REMARK  status: ('A' for Active; 'I' for Inactive)
REMARK    1  A    between atoms: C2_2  and  N1_3 
REMARK    2  A    between atoms: C2_2  and  C21_31 
REMARK       I    between atoms: N1_3  and  C3_5 
REMARK    3  A    between atoms: C3_5  and  C4_7 
REMARK    4  A    between atoms: C4_7  and  C5_8 
REMARK    5  A    between atoms: C4_7  and  C18_21 
REMARK    6  A    between atoms: C5_8  and  C6_9 
REMARK    7  A    between atoms: C9_12  and  C10_13 
REMARK    8  A    between atoms: C18_21  and  P1_22 
REMARK    9  A    between atoms: P1_22  and  C19_25 
REMARK   10  A    between atoms: C19_25  and  N2_27 
ROOT
HETATM    1  C4  UNL     1      33.640   8.465   0.277  1.00  0.00     0.111 C 
ENDROOT
BRANCH   1   2
HETATM    2  C3  UNL     1      34.401   7.097   0.404  1.00  0.00     0.226 C 
HETATM    3  N1  UNL     1      33.877   6.063   1.184  1.00  0.00    -0.346 N 
ATOM      4  H1  UNL     1      32.992   6.219   1.666  1.00  0.00     0.163 HD
HETATM    5  O1  UNL     1      35.473   6.949  -0.200  1.00  0.00    -0.273 OA
BRANCH   3   6
HETATM    6  C2  UNL     1      34.533   4.779   1.341  1.00  0.00     0.181 C 
HETATM    7  C1  UNL     1      35.103   4.583   2.722  1.00  0.00     0.043 C 
BRANCH   6   8
HETATM    8  C21 UNL     1      33.642   3.657   0.949  1.00  0.00     0.196 C 
HETATM    9  O4  UNL     1      32.442   3.830   0.606  1.00  0.00    -0.646 OA
HETATM   10  O5  UNL     1      34.170   2.378   0.968  1.00  0.00    -0.646 OA
ENDBRANCH   6   8
ENDBRANCH   3   6
ENDBRANCH   1   2
BRANCH   1  11
HETATM   11  C5  UNL     1      32.973   8.374  -1.042  1.00  0.00    -0.001 C 
BRANCH  11  12
HETATM   12  C6  UNL     1      31.692   8.930  -1.342  1.00  0.00    -0.039 A 
HETATM   13  C7  UNL     1      31.013   8.725  -2.508  1.00  0.00     0.012 A 
HETATM   14  C8  UNL     1      29.775   9.247  -2.802  1.00  0.00     0.013 A 
HETATM   15  C9  UNL     1      29.152  10.040  -1.866  1.00  0.00    -0.026 A 
HETATM   16  C16 UNL     1      29.798  10.274  -0.673  1.00  0.00     0.013 A 
HETATM   17  C17 UNL     1      31.042   9.739  -0.399  1.00  0.00     0.012 A 
BRANCH  15  18
HETATM   18  C10 UNL     1      27.824  10.612  -2.146  1.00  0.00    -0.026 A 
HETATM   19  C11 UNL     1      26.872  10.526  -1.171  1.00  0.00     0.012 A 
HETATM   20  C12 UNL     1      25.624  11.049  -1.405  1.00  0.00     0.001 A 
HETATM   21  C13 UNL     1      25.289  11.661  -2.587  1.00  0.00     0.000 A 
HETATM   22  C14 UNL     1      26.268  11.731  -3.548  1.00  0.00     0.001 A 
HETATM   23  C15 UNL     1      27.529  11.215  -3.341  1.00  0.00     0.012 A 
ENDBRANCH  15  18
ENDBRANCH  11  12
ENDBRANCH   1  11
BRANCH   1  24
HETATM   24  C18 UNL     1      34.665   9.501   0.544  1.00  0.00     0.123 C 
BRANCH  24  25
HETATM   25  P1  UNL     1      34.940  10.224   2.072  1.00  0.00     0.138 P 
HETATM   26  O2  UNL     1      36.180  11.045   1.770  1.00  0.00    -0.666 OA
HETATM   27  O3  UNL     1      34.224  11.675   2.540  1.00  0.00    -0.666 OA
BRANCH  25  28
HETATM   28  C19 UNL     1      35.709   9.230   3.338  1.00  0.00     0.270 C 
HETATM   29  C20 UNL     1      36.901   8.407   2.877  1.00  0.00     0.051 C 
BRANCH  28  30
HETATM   30  N2  UNL     1      34.716   8.302   3.837  1.00  0.00    -0.066 N 
ATOM     31  H23 UNL     1      35.057   7.738   4.615  1.00  0.00     0.275 HD
ATOM     32  H22 UNL     1      33.954   8.766   4.330  1.00  0.00     0.275 HD
ATOM     33  H21 UNL     1      34.394   7.738   3.050  1.00  0.00     0.275 HD
ENDBRANCH  28  30
ENDBRANCH  25  28
ENDBRANCH  24  25
ENDBRANCH   1  24
TORSDOF 10
ENDMDL
