MODEL 14
REMARK VINA RESULT: -8.053862943      2.783      6.463
REMARK  8 active torsions:
REMARK  status: ('A' for Active; 'I' for Inactive)
REMARK    1  A    between atoms: C2_2  and  N1_3 
REMARK    2  A    between atoms: C2_2  and  C14_22 
REMARK       I    between atoms: N1_3  and  C3_5 
REMARK    3  A    between atoms: C3_5  and  C4_7 
REMARK    4  A    between atoms: C4_7  and  C5_8 
REMARK    5  A    between atoms: C4_7  and  C7_15 
REMARK    6  A    between atoms: C5_8  and  C6_9 
REMARK       I    between atoms: C6_9  and  N2_11 
REMARK    7  A    between atoms: N2_11  and  O3_13 
REMARK    8  A    between atoms: C7_15  and  C8_16 
ROOT
HETATM    1  C4  UNL     1      33.461   8.457   0.856  1.00  0.00     0.091 C 
ENDROOT
BRANCH   1   2
HETATM    2  C3  UNL     1      34.218   7.198   0.628  1.00  0.00     0.223 C 
HETATM    3  N1  UNL     1      33.761   5.969   1.162  1.00  0.00    -0.347 N 
ATOM      4  H1  UNL     1      32.898   5.976   1.706  1.00  0.00     0.163 HD
HETATM    5  O1  UNL     1      35.273   7.209  -0.041  1.00  0.00    -0.273 OA
BRANCH   3   6
HETATM    6  C2  UNL     1      34.438   4.709   0.984  1.00  0.00     0.181 C 
HETATM    7  C1  UNL     1      35.087   4.223   2.274  1.00  0.00     0.043 C 
BRANCH   6   8
HETATM    8  C14 UNL     1      33.562   3.697   0.385  1.00  0.00     0.196 C 
HETATM    9  O4  UNL     1      32.387   3.494   0.729  1.00  0.00    -0.646 OA
HETATM   10  O5  UNL     1      34.078   2.902  -0.641  1.00  0.00    -0.646 OA
ENDBRANCH   6   8
ENDBRANCH   3   6
ENDBRANCH   1   2
BRANCH   1  11
HETATM   11  C5  UNL     1      33.801   9.080   2.163  1.00  0.00     0.119 C 
BRANCH  11  12
HETATM   12  C6  UNL     1      32.557   9.261   2.949  1.00  0.00     0.241 C 
HETATM   13  O2  UNL     1      31.444   8.766   2.645  1.00  0.00    -0.271 OA
HETATM   14  N2  UNL     1      32.607  10.050   4.135  1.00  0.00    -0.237 N 
ATOM     15  H2  UNL     1      33.489  10.473   4.423  1.00  0.00     0.197 HD
BRANCH  14  16
HETATM   16  O3  UNL     1      31.487  10.244   4.891  1.00  0.00    -0.287 OA
ATOM     17  H3  UNL     1      31.037  11.082   4.887  1.00  0.00     0.244 HD
ENDBRANCH  14  16
ENDBRANCH  11  12
ENDBRANCH   1  11
BRANCH   1  18
HETATM   18  C7  UNL     1      33.530   9.399  -0.293  1.00  0.00     0.053 C 
BRANCH  18  19
HETATM   19  C8  UNL     1      32.277   9.412  -1.077  1.00  0.00    -0.057 A 
HETATM   20  C9  UNL     1      32.194   8.758  -2.263  1.00  0.00     0.007 A 
HETATM   21  C10 UNL     1      31.035   8.755  -3.027  1.00  0.00     0.001 A 
HETATM   22  C11 UNL     1      29.951   9.433  -2.557  1.00  0.00     0.000 A 
HETATM   23  C12 UNL     1      30.016  10.107  -1.347  1.00  0.00     0.001 A 
HETATM   24  C13 UNL     1      31.190  10.097  -0.595  1.00  0.00     0.007 A 
ENDBRANCH  18  19
ENDBRANCH   1  18
TORSDOF 8
ENDMDL
