MODEL 8
REMARK VINA RESULT: -8.375591788      2.304      5.063
REMARK  8 active torsions:
REMARK  status: ('A' for Active; 'I' for Inactive)
REMARK    1  A    between atoms: C2_2  and  N1_3 
REMARK    2  A    between atoms: C2_2  and  C14_22 
REMARK       I    between atoms: N1_3  and  C3_5 
REMARK    3  A    between atoms: C3_5  and  C4_7 
REMARK    4  A    between atoms: C4_7  and  C5_8 
REMARK    5  A    between atoms: C4_7  and  C7_15 
REMARK    6  A    between atoms: C5_8  and  C6_9 
REMARK       I    between atoms: C6_9  and  N2_11 
REMARK    7  A    between atoms: N2_11  and  O3_13 
REMARK    8  A    between atoms: C7_15  and  C8_16 
ROOT
HETATM    1  C4  UNL     1      33.716   8.398   0.542  1.00  0.00     0.091 C 
ENDROOT
BRANCH   1   2
HETATM    2  C3  UNL     1      34.387   7.076   0.437  1.00  0.00     0.223 C 
HETATM    3  N1  UNL     1      33.773   5.907   0.947  1.00  0.00    -0.347 N 
ATOM      4  H1  UNL     1      32.857   6.001   1.387  1.00  0.00     0.163 HD
HETATM    5  O1  UNL     1      35.509   6.980  -0.105  1.00  0.00    -0.273 OA
BRANCH   3   6
HETATM    6  C2  UNL     1      34.359   4.592   0.883  1.00  0.00     0.181 C 
HETATM    7  C1  UNL     1      34.984   4.180   2.210  1.00  0.00     0.043 C 
BRANCH   6   8
HETATM    8  C14 UNL     1      33.409   3.593   0.381  1.00  0.00     0.196 C 
HETATM    9  O4  UNL     1      32.274   3.407   0.849  1.00  0.00    -0.646 OA
HETATM   10  O5  UNL     1      33.801   2.792  -0.694  1.00  0.00    -0.646 OA
ENDBRANCH   6   8
ENDBRANCH   3   6
ENDBRANCH   1   2
BRANCH   1  11
HETATM   11  C5  UNL     1      32.610   8.539  -0.441  1.00  0.00     0.119 C 
BRANCH  11  12
HETATM   12  C6  UNL     1      33.107   9.283  -1.623  1.00  0.00     0.241 C 
HETATM   13  O2  UNL     1      34.086  10.070  -1.609  1.00  0.00    -0.271 OA
HETATM   14  N2  UNL     1      32.442   9.108  -2.871  1.00  0.00    -0.237 N 
ATOM     15  H2  UNL     1      31.641   8.479  -2.932  1.00  0.00     0.197 HD
BRANCH  14  16
HETATM   16  O3  UNL     1      32.864   9.773  -3.986  1.00  0.00    -0.287 OA
ATOM     17  H3  UNL     1      33.638  10.324  -3.959  1.00  0.00     0.244 HD
ENDBRANCH  14  16
ENDBRANCH  11  12
ENDBRANCH   1  11
BRANCH   1  18
HETATM   18  C7  UNL     1      33.328   8.749   1.934  1.00  0.00     0.053 C 
BRANCH  18  19
HETATM   19  C8  UNL     1      34.488   9.178   2.744  1.00  0.00    -0.057 A 
HETATM   20  C9  UNL     1      34.760   8.587   3.934  1.00  0.00     0.007 A 
HETATM   21  C10 UNL     1      35.838   8.970   4.721  1.00  0.00     0.001 A 
HETATM   22  C11 UNL     1      36.642   9.973   4.270  1.00  0.00     0.000 A 
HETATM   23  C12 UNL     1      36.381  10.589   3.056  1.00  0.00     0.001 A 
HETATM   24  C13 UNL     1      35.293  10.189   2.281  1.00  0.00     0.007 A 
ENDBRANCH  18  19
ENDBRANCH   1  18
TORSDOF 8
ENDMDL
