MODEL 3
REMARK VINA RESULT: -8.493411138      1.651      2.140
REMARK  8 active torsions:
REMARK  status: ('A' for Active; 'I' for Inactive)
REMARK    1  A    between atoms: C2_2  and  N1_3 
REMARK    2  A    between atoms: C2_2  and  C14_22 
REMARK       I    between atoms: N1_3  and  C3_5 
REMARK    3  A    between atoms: C3_5  and  C4_7 
REMARK    4  A    between atoms: C4_7  and  C5_8 
REMARK    5  A    between atoms: C4_7  and  C7_15 
REMARK    6  A    between atoms: C5_8  and  C6_9 
REMARK       I    between atoms: C6_9  and  N2_11 
REMARK    7  A    between atoms: N2_11  and  O3_13 
REMARK    8  A    between atoms: C7_15  and  C8_16 
ROOT
HETATM    1  C4  UNL     1      34.631   7.560   1.854  1.00  0.00     0.091 C 
ENDROOT
BRANCH   1   2
HETATM    2  C3  UNL     1      33.797   7.647   0.626  1.00  0.00     0.223 C 
HETATM    3  N1  UNL     1      33.061   8.820   0.330  1.00  0.00    -0.347 N 
ATOM      4  H1  UNL     1      33.123   9.601   0.984  1.00  0.00     0.163 HD
HETATM    5  O1  UNL     1      33.733   6.681  -0.163  1.00  0.00    -0.273 OA
BRANCH   3   6
HETATM    6  C2  UNL     1      32.232   8.981  -0.838  1.00  0.00     0.181 C 
HETATM    7  C1  UNL     1      30.944   9.733  -0.524  1.00  0.00     0.043 C 
BRANCH   6   8
HETATM    8  C14 UNL     1      32.970   9.581  -1.954  1.00  0.00     0.196 C 
HETATM    9  O4  UNL     1      32.612   9.527  -3.141  1.00  0.00    -0.646 OA
HETATM   10  O5  UNL     1      34.157  10.260  -1.670  1.00  0.00    -0.646 OA
ENDBRANCH   6   8
ENDBRANCH   3   6
ENDBRANCH   1   2
BRANCH   1  11
HETATM   11  C5  UNL     1      35.705   6.541   1.723  1.00  0.00     0.119 C 
BRANCH  11  12
HETATM   12  C6  UNL     1      35.320   5.332   2.489  1.00  0.00     0.241 C 
HETATM   13  O2  UNL     1      34.533   5.330   3.468  1.00  0.00    -0.271 OA
HETATM   14  N2  UNL     1      35.870   4.074   2.105  1.00  0.00    -0.237 N 
ATOM     15  H2  UNL     1      36.514   4.025   1.315  1.00  0.00     0.197 HD
BRANCH  14  16
HETATM   16  O3  UNL     1      35.543   2.934   2.780  1.00  0.00    -0.287 OA
ATOM     17  H3  UNL     1      35.117   2.210   2.335  1.00  0.00     0.244 HD
ENDBRANCH  14  16
ENDBRANCH  11  12
ENDBRANCH   1  11
BRANCH   1  18
HETATM   18  C7  UNL     1      35.115   8.883   2.329  1.00  0.00     0.053 C 
BRANCH  18  19
HETATM   19  C8  UNL     1      34.558   9.237   3.652  1.00  0.00    -0.057 A 
HETATM   20  C9  UNL     1      33.360   9.864   3.755  1.00  0.00     0.007 A 
HETATM   21  C10 UNL     1      32.811  10.214   4.982  1.00  0.00     0.001 A 
HETATM   22  C11 UNL     1      33.510   9.912   6.111  1.00  0.00     0.000 A 
HETATM   23  C12 UNL     1      34.737   9.270   6.026  1.00  0.00     0.001 A 
HETATM   24  C13 UNL     1      35.270   8.927   4.784  1.00  0.00     0.007 A 
ENDBRANCH  18  19
ENDBRANCH   1  18
TORSDOF 8
ENDMDL
