MODEL 5
REMARK VINA RESULT: -8.468915351      1.232      1.694
REMARK  8 active torsions:
REMARK  status: ('A' for Active; 'I' for Inactive)
REMARK    1  A    between atoms: C2_2  and  N1_3 
REMARK    2  A    between atoms: C2_2  and  C14_22 
REMARK       I    between atoms: N1_3  and  C3_5 
REMARK    3  A    between atoms: C3_5  and  C4_7 
REMARK    4  A    between atoms: C4_7  and  C5_8 
REMARK    5  A    between atoms: C4_7  and  C7_15 
REMARK    6  A    between atoms: C5_8  and  C6_9 
REMARK       I    between atoms: C6_9  and  N2_11 
REMARK    7  A    between atoms: N2_11  and  O3_13 
REMARK    8  A    between atoms: C7_15  and  C8_16 
ROOT
HETATM    1  C4  UNL     1      34.698   7.230   1.512  1.00  0.00     0.091 C 
ENDROOT
BRANCH   1   2
HETATM    2  C3  UNL     1      33.999   8.167   0.595  1.00  0.00     0.223 C 
HETATM    3  N1  UNL     1      33.110   9.147   1.098  1.00  0.00    -0.347 N 
ATOM      4  H1  UNL     1      32.966   9.189   2.107  1.00  0.00     0.163 HD
HETATM    5  O1  UNL     1      34.187   8.100  -0.639  1.00  0.00    -0.273 OA
BRANCH   3   6
HETATM    6  C2  UNL     1      32.396  10.090   0.273  1.00  0.00     0.181 C 
HETATM    7  C1  UNL     1      31.196   9.452  -0.415  1.00  0.00     0.043 C 
BRANCH   6   8
HETATM    8  C14 UNL     1      32.033  11.301   1.017  1.00  0.00     0.196 C 
HETATM    9  O4  UNL     1      30.976  11.931   0.860  1.00  0.00    -0.646 OA
HETATM   10  O5  UNL     1      32.935  11.785   1.968  1.00  0.00    -0.646 OA
ENDBRANCH   6   8
ENDBRANCH   3   6
ENDBRANCH   1   2
BRANCH   1  11
HETATM   11  C5  UNL     1      34.581   5.818   1.059  1.00  0.00     0.119 C 
BRANCH  11  12
HETATM   12  C6  UNL     1      34.968   4.920   2.173  1.00  0.00     0.241 C 
HETATM   13  O2  UNL     1      34.487   4.975   3.332  1.00  0.00    -0.271 OA
HETATM   14  N2  UNL     1      35.952   3.918   1.933  1.00  0.00    -0.237 N 
ATOM     15  H2  UNL     1      36.372   3.834   1.007  1.00  0.00     0.197 HD
BRANCH  14  16
HETATM   16  O3  UNL     1      36.340   3.068   2.928  1.00  0.00    -0.287 OA
ATOM     17  H3  UNL     1      37.253   3.004   3.185  1.00  0.00     0.244 HD
ENDBRANCH  14  16
ENDBRANCH  11  12
ENDBRANCH   1  11
BRANCH   1  18
HETATM   18  C7  UNL     1      36.092   7.645   1.823  1.00  0.00     0.053 C 
BRANCH  18  19
HETATM   19  C8  UNL     1      36.182   8.369   3.109  1.00  0.00    -0.057 A 
HETATM   20  C9  UNL     1      37.317   9.026   3.457  1.00  0.00     0.007 A 
HETATM   21  C10 UNL     1      37.437   9.711   4.659  1.00  0.00     0.001 A 
HETATM   22  C11 UNL     1      36.371   9.716   5.508  1.00  0.00     0.000 A 
HETATM   23  C12 UNL     1      35.203   9.049   5.170  1.00  0.00     0.001 A 
HETATM   24  C13 UNL     1      35.103   8.368   3.957  1.00  0.00     0.007 A 
ENDBRANCH  18  19
ENDBRANCH   1  18
TORSDOF 8
ENDMDL
