MODEL 12
REMARK VINA RESULT: -8.071991174      2.596      6.133
REMARK  8 active torsions:
REMARK  status: ('A' for Active; 'I' for Inactive)
REMARK    1  A    between atoms: C2_2  and  N1_3 
REMARK    2  A    between atoms: C2_2  and  C14_22 
REMARK       I    between atoms: N1_3  and  C3_5 
REMARK    3  A    between atoms: C3_5  and  C4_7 
REMARK    4  A    between atoms: C4_7  and  C5_8 
REMARK    5  A    between atoms: C4_7  and  C7_15 
REMARK    6  A    between atoms: C5_8  and  C6_9 
REMARK       I    between atoms: C6_9  and  N2_11 
REMARK    7  A    between atoms: N2_11  and  O3_13 
REMARK    8  A    between atoms: C7_15  and  C8_16 
ROOT
HETATM    1  C4  UNL     1      34.350   9.436   0.935  1.00  0.00     0.091 C 
ENDROOT
BRANCH   1   2
HETATM    2  C3  UNL     1      35.407  10.024   1.799  1.00  0.00     0.223 C 
HETATM    3  N1  UNL     1      35.125  10.407   3.133  1.00  0.00    -0.347 N 
ATOM      4  H1  UNL     1      34.176  10.267   3.480  1.00  0.00     0.163 HD
HETATM    5  O1  UNL     1      36.564  10.188   1.357  1.00  0.00    -0.273 OA
BRANCH   3   6
HETATM    6  C2  UNL     1      36.095  10.983   4.030  1.00  0.00     0.181 C 
HETATM    7  C1  UNL     1      35.529  12.171   4.797  1.00  0.00     0.043 C 
BRANCH   6   8
HETATM    8  C14 UNL     1      36.682   9.975   4.920  1.00  0.00     0.196 C 
HETATM    9  O4  UNL     1      37.888   9.910   5.208  1.00  0.00    -0.646 OA
HETATM   10  O5  UNL     1      35.834   9.019   5.483  1.00  0.00    -0.646 OA
ENDBRANCH   6   8
ENDBRANCH   3   6
ENDBRANCH   1   2
BRANCH   1  11
HETATM   11  C5  UNL     1      33.802   8.177   1.507  1.00  0.00     0.119 C 
BRANCH  11  12
HETATM   12  C6  UNL     1      34.368   7.025   0.766  1.00  0.00     0.241 C 
HETATM   13  O2  UNL     1      35.292   7.106  -0.081  1.00  0.00    -0.271 OA
HETATM   14  N2  UNL     1      33.841   5.724   1.018  1.00  0.00    -0.237 N 
ATOM     15  H2  UNL     1      33.089   5.608   1.697  1.00  0.00     0.197 HD
BRANCH  14  16
HETATM   16  O3  UNL     1      34.330   4.634   0.359  1.00  0.00    -0.287 OA
ATOM     17  H3  UNL     1      35.029   4.111   0.737  1.00  0.00     0.244 HD
ENDBRANCH  14  16
ENDBRANCH  11  12
ENDBRANCH   1  11
BRANCH   1  18
HETATM   18  C7  UNL     1      33.305  10.417   0.538  1.00  0.00     0.053 C 
BRANCH  18  19
HETATM   19  C8  UNL     1      32.518   9.951  -0.624  1.00  0.00    -0.057 A 
HETATM   20  C9  UNL     1      31.162   9.932  -0.580  1.00  0.00     0.007 A 
HETATM   21  C10 UNL     1      30.393   9.495  -1.650  1.00  0.00     0.001 A 
HETATM   22  C11 UNL     1      31.035   9.075  -2.777  1.00  0.00     0.000 A 
HETATM   23  C12 UNL     1      32.420   9.088  -2.840  1.00  0.00     0.001 A 
HETATM   24  C13 UNL     1      33.174   9.531  -1.754  1.00  0.00     0.007 A 
ENDBRANCH  18  19
ENDBRANCH   1  18
TORSDOF 8
ENDMDL
