MODEL 2
REMARK VINA RESULT: -8.716073405      0.075      1.250
REMARK  8 active torsions:
REMARK  status: ('A' for Active; 'I' for Inactive)
REMARK    1  A    between atoms: C2_2  and  N1_3 
REMARK    2  A    between atoms: C2_2  and  C14_22 
REMARK       I    between atoms: N1_3  and  C3_5 
REMARK    3  A    between atoms: C3_5  and  C4_7 
REMARK    4  A    between atoms: C4_7  and  C5_8 
REMARK    5  A    between atoms: C4_7  and  C7_15 
REMARK    6  A    between atoms: C5_8  and  C6_9 
REMARK       I    between atoms: C6_9  and  N2_11 
REMARK    7  A    between atoms: N2_11  and  O3_13 
REMARK    8  A    between atoms: C7_15  and  C8_16 
ROOT
HETATM    1  C4  UNL     1      34.834   7.301   1.565  1.00  0.00     0.091 C 
ENDROOT
BRANCH   1   2
HETATM    2  C3  UNL     1      34.309   8.311   0.609  1.00  0.00     0.223 C 
HETATM    3  N1  UNL     1      32.956   8.283   0.194  1.00  0.00    -0.347 N 
ATOM      4  H1  UNL     1      32.355   7.550   0.572  1.00  0.00     0.163 HD
HETATM    5  O1  UNL     1      35.060   9.200   0.156  1.00  0.00    -0.273 OA
BRANCH   3   6
HETATM    6  C2  UNL     1      32.374   9.225  -0.729  1.00  0.00     0.181 C 
HETATM    7  C1  UNL     1      32.473   8.746  -2.172  1.00  0.00     0.043 C 
BRANCH   6   8
HETATM    8  C14 UNL     1      31.002   9.583  -0.353  1.00  0.00     0.196 C 
HETATM    9  O4  UNL     1      30.506   9.381   0.766  1.00  0.00    -0.646 OA
HETATM   10  O5  UNL     1      30.192  10.190  -1.316  1.00  0.00    -0.646 OA
ENDBRANCH   6   8
ENDBRANCH   3   6
ENDBRANCH   1   2
BRANCH   1  11
HETATM   11  C5  UNL     1      34.637   5.913   1.071  1.00  0.00     0.119 C 
BRANCH  11  12
HETATM   12  C6  UNL     1      34.959   4.962   2.162  1.00  0.00     0.241 C 
HETATM   13  O2  UNL     1      34.416   4.967   3.295  1.00  0.00    -0.271 OA
HETATM   14  N2  UNL     1      35.950   3.964   1.930  1.00  0.00    -0.237 N 
ATOM     15  H2  UNL     1      36.418   3.920   1.025  1.00  0.00     0.197 HD
BRANCH  14  16
HETATM   16  O3  UNL     1      36.279   3.067   2.904  1.00  0.00    -0.287 OA
ATOM     17  H3  UNL     1      37.138   2.662   2.922  1.00  0.00     0.244 HD
ENDBRANCH  14  16
ENDBRANCH  11  12
ENDBRANCH   1  11
BRANCH   1  18
HETATM   18  C7  UNL     1      36.223   7.585   2.015  1.00  0.00     0.053 C 
BRANCH  18  19
HETATM   19  C8  UNL     1      36.252   8.365   3.270  1.00  0.00    -0.057 A 
HETATM   20  C9  UNL     1      37.356   9.070   3.624  1.00  0.00     0.007 A 
HETATM   21  C10 UNL     1      37.418   9.808   4.799  1.00  0.00     0.001 A 
HETATM   22  C11 UNL     1      36.327   9.817   5.613  1.00  0.00     0.000 A 
HETATM   23  C12 UNL     1      35.189   9.104   5.269  1.00  0.00     0.001 A 
HETATM   24  C13 UNL     1      35.147   8.369   4.085  1.00  0.00     0.007 A 
ENDBRANCH  18  19
ENDBRANCH   1  18
TORSDOF 8
ENDMDL
