MODEL 1
REMARK VINA RESULT: -8.742936962      0.000      0.000
REMARK  8 active torsions:
REMARK  status: ('A' for Active; 'I' for Inactive)
REMARK    1  A    between atoms: C2_2  and  N1_3 
REMARK    2  A    between atoms: C2_2  and  C14_22 
REMARK       I    between atoms: N1_3  and  C3_5 
REMARK    3  A    between atoms: C3_5  and  C4_7 
REMARK    4  A    between atoms: C4_7  and  C5_8 
REMARK    5  A    between atoms: C4_7  and  C7_15 
REMARK    6  A    between atoms: C5_8  and  C6_9 
REMARK       I    between atoms: C6_9  and  N2_11 
REMARK    7  A    between atoms: N2_11  and  O3_13 
REMARK    8  A    between atoms: C7_15  and  C8_16 
ROOT
HETATM    1  C4  UNL     1      34.835   7.313   1.580  1.00  0.00     0.091 C 
ENDROOT
BRANCH   1   2
HETATM    2  C3  UNL     1      34.319   8.326   0.622  1.00  0.00     0.223 C 
HETATM    3  N1  UNL     1      32.970   8.299   0.193  1.00  0.00    -0.347 N 
ATOM      4  H1  UNL     1      32.366   7.565   0.563  1.00  0.00     0.163 HD
HETATM    5  O1  UNL     1      35.074   9.218   0.180  1.00  0.00    -0.273 OA
BRANCH   3   6
HETATM    6  C2  UNL     1      32.397   9.245  -0.732  1.00  0.00     0.181 C 
HETATM    7  C1  UNL     1      32.495   8.763  -2.174  1.00  0.00     0.043 C 
BRANCH   6   8
HETATM    8  C14 UNL     1      31.027   9.613  -0.359  1.00  0.00     0.196 C 
HETATM    9  O4  UNL     1      30.218  10.169  -1.118  1.00  0.00    -0.646 OA
HETATM   10  O5  UNL     1      30.596   9.321   0.938  1.00  0.00    -0.646 OA
ENDBRANCH   6   8
ENDBRANCH   3   6
ENDBRANCH   1   2
BRANCH   1  11
HETATM   11  C5  UNL     1      34.648   5.927   1.076  1.00  0.00     0.119 C 
BRANCH  11  12
HETATM   12  C6  UNL     1      34.966   4.971   2.164  1.00  0.00     0.241 C 
HETATM   13  O2  UNL     1      34.422   4.974   3.296  1.00  0.00    -0.271 OA
HETATM   14  N2  UNL     1      35.954   3.972   1.929  1.00  0.00    -0.237 N 
ATOM     15  H2  UNL     1      36.424   3.930   1.024  1.00  0.00     0.197 HD
BRANCH  14  16
HETATM   16  O3  UNL     1      36.280   3.070   2.901  1.00  0.00    -0.287 OA
ATOM     17  H3  UNL     1      37.189   2.886   3.108  1.00  0.00     0.244 HD
ENDBRANCH  14  16
ENDBRANCH  11  12
ENDBRANCH   1  11
BRANCH   1  18
HETATM   18  C7  UNL     1      36.218   7.599   2.047  1.00  0.00     0.053 C 
BRANCH  18  19
HETATM   19  C8  UNL     1      36.230   8.372   3.307  1.00  0.00    -0.057 A 
HETATM   20  C9  UNL     1      35.139   8.402   4.113  1.00  0.00     0.007 A 
HETATM   21  C10 UNL     1      35.115   9.123   5.300  1.00  0.00     0.001 A 
HETATM   22  C11 UNL     1      36.232   9.817   5.656  1.00  0.00     0.000 A 
HETATM   23  C12 UNL     1      37.357   9.797   4.846  1.00  0.00     0.001 A 
HETATM   24  C13 UNL     1      37.360   9.068   3.658  1.00  0.00     0.007 A 
ENDBRANCH  18  19
ENDBRANCH   1  18
TORSDOF 8
ENDMDL
