MODEL 11
REMARK VINA RESULT: -6.715720280      3.001      7.402
REMARK  7 active torsions:
REMARK  status: ('A' for Active; 'I' for Inactive)
REMARK    1  A    between atoms: C3_3  and  C4_4 
REMARK    2  A    between atoms: C4_4  and  O1_5 
REMARK    3  A    between atoms: O1_5  and  C5_6 
REMARK    4  A    between atoms: C8_9  and  S1_10 
REMARK    5  A    between atoms: S1_10  and  C9_13 
REMARK    6  A    between atoms: C9_13  and  C10_14 
REMARK    7  A    between atoms: C10_14  and  C11_15 
ROOT
HETATM    1  C1  UNL     1       1.795  53.400  83.827  1.00  0.00     0.112 C 
HETATM    2  C2  UNL     1       1.357  54.794  83.596  1.00  0.00    -0.109 C 
HETATM    3  C3  UNL     1       0.998  55.931  83.402  1.00  0.00    -0.080 C 
ENDROOT
BRANCH   3   4
HETATM    4  C4  UNL     1       0.583  57.312  83.159  1.00  0.00     0.269 C 
BRANCH   4   5
HETATM    5  O1  UNL     1       1.341  58.181  83.930  1.00  0.00    -0.340 OA
BRANCH   5   6
HETATM    6  C5  UNL     1       0.867  59.330  84.555  1.00  0.00     0.070 A 
HETATM    7  C6  UNL     1       1.294  60.580  84.206  1.00  0.00     0.038 A 
HETATM    8  C7  UNL     1       0.791  61.678  84.854  1.00  0.00     0.026 A 
HETATM    9  C8  UNL     1      -0.144  61.579  85.863  1.00  0.00     0.059 A 
HETATM   10  C12 UNL     1      -0.568  60.331  86.209  1.00  0.00     0.026 A 
HETATM   11  C13 UNL     1      -0.063  59.205  85.554  1.00  0.00     0.038 A 
BRANCH   9  12
HETATM   12  S1  UNL     1      -0.768  62.971  86.706  1.00  0.00     0.175 S 
HETATM   13  O2  UNL     1       0.479  63.833  87.019  1.00  0.00    -0.223 OA
HETATM   14  O3  UNL     1      -1.313  62.536  88.014  1.00  0.00    -0.223 OA
BRANCH  12  15
HETATM   15  C9  UNL     1      -1.811  63.959  85.728  1.00  0.00     0.146 C 
BRANCH  15  16
HETATM   16  C10 UNL     1      -1.755  63.880  84.267  1.00  0.00     0.026 C 
BRANCH  16  17
HETATM   17  C11 UNL     1      -2.676  64.710  83.447  1.00  0.00     0.087 C 
HETATM   18  S2  UNL     1      -4.026  63.917  82.627  1.00  0.00    -0.098 SA
ENDBRANCH  16  17
ENDBRANCH  15  16
ENDBRANCH  12  15
ENDBRANCH   9  12
ENDBRANCH   5   6
ENDBRANCH   4   5
ENDBRANCH   3   4
TORSDOF 7
ENDMDL
