MODEL 9
REMARK VINA RESULT: -6.784256987      3.171      6.866
REMARK  7 active torsions:
REMARK  status: ('A' for Active; 'I' for Inactive)
REMARK    1  A    between atoms: C3_3  and  C4_4 
REMARK    2  A    between atoms: C4_4  and  O1_5 
REMARK    3  A    between atoms: O1_5  and  C5_6 
REMARK    4  A    between atoms: C8_9  and  S1_10 
REMARK    5  A    between atoms: S1_10  and  C9_13 
REMARK    6  A    between atoms: C9_13  and  C10_14 
REMARK    7  A    between atoms: C10_14  and  C11_15 
ROOT
HETATM    1  C1  UNL     1      -2.886  56.189  84.173  1.00  0.00     0.112 C 
HETATM    2  C2  UNL     1      -1.531  56.679  83.834  1.00  0.00    -0.109 C 
HETATM    3  C3  UNL     1      -0.424  57.077  83.562  1.00  0.00    -0.080 C 
ENDROOT
BRANCH   3   4
HETATM    4  C4  UNL     1       0.914  57.576  83.246  1.00  0.00     0.269 C 
BRANCH   4   5
HETATM    5  O1  UNL     1       1.437  58.262  84.331  1.00  0.00    -0.340 OA
BRANCH   5   6
HETATM    6  C5  UNL     1       0.925  59.439  84.867  1.00  0.00     0.070 A 
HETATM    7  C6  UNL     1       1.333  60.672  84.444  1.00  0.00     0.038 A 
HETATM    8  C7  UNL     1       0.793  61.799  85.006  1.00  0.00     0.026 A 
HETATM    9  C8  UNL     1      -0.163  61.747  86.000  1.00  0.00     0.059 A 
HETATM   10  C12 UNL     1      -0.567  60.516  86.420  1.00  0.00     0.026 A 
HETATM   11  C13 UNL     1      -0.024  59.360  85.854  1.00  0.00     0.038 A 
BRANCH   9  12
HETATM   12  S1  UNL     1      -0.834  63.178  86.734  1.00  0.00     0.175 S 
HETATM   13  O2  UNL     1       0.390  64.069  87.051  1.00  0.00    -0.223 OA
HETATM   14  O3  UNL     1      -1.432  62.812  88.039  1.00  0.00    -0.223 OA
BRANCH  12  15
HETATM   15  C9  UNL     1      -1.841  64.097  85.656  1.00  0.00     0.146 C 
BRANCH  15  16
HETATM   16  C10 UNL     1      -1.925  63.748  84.237  1.00  0.00     0.026 C 
BRANCH  16  17
HETATM   17  C11 UNL     1      -2.745  64.581  83.318  1.00  0.00     0.087 C 
HETATM   18  S2  UNL     1      -3.972  63.789  82.326  1.00  0.00    -0.098 SA
ENDBRANCH  16  17
ENDBRANCH  15  16
ENDBRANCH  12  15
ENDBRANCH   9  12
ENDBRANCH   5   6
ENDBRANCH   4   5
ENDBRANCH   3   4
TORSDOF 7
ENDMDL
