MODEL 7
REMARK VINA RESULT: -7.241921099      1.220      1.475
REMARK  7 active torsions:
REMARK  status: ('A' for Active; 'I' for Inactive)
REMARK    1  A    between atoms: C3_3  and  C4_4 
REMARK    2  A    between atoms: C4_4  and  O1_5 
REMARK    3  A    between atoms: O1_5  and  C5_6 
REMARK    4  A    between atoms: C8_9  and  S1_10 
REMARK    5  A    between atoms: S1_10  and  C9_13 
REMARK    6  A    between atoms: C9_13  and  C10_14 
REMARK    7  A    between atoms: C10_14  and  C11_15 
ROOT
HETATM    1  C1  UNL     1      -2.925  64.422  83.245  1.00  0.00     0.112 C 
HETATM    2  C2  UNL     1      -2.133  64.214  84.479  1.00  0.00    -0.109 C 
HETATM    3  C3  UNL     1      -1.487  64.050  85.485  1.00  0.00    -0.080 C 
ENDROOT
BRANCH   3   4
HETATM    4  C4  UNL     1      -0.685  63.850  86.692  1.00  0.00     0.269 C 
BRANCH   4   5
HETATM    5  O1  UNL     1       0.391  63.019  86.418  1.00  0.00    -0.340 OA
BRANCH   5   6
HETATM    6  C5  UNL     1       0.314  61.765  85.822  1.00  0.00     0.070 A 
HETATM    7  C6  UNL     1      -0.454  60.759  86.337  1.00  0.00     0.038 A 
HETATM    8  C7  UNL     1      -0.495  59.542  85.707  1.00  0.00     0.026 A 
HETATM    9  C8  UNL     1       0.216  59.279  84.555  1.00  0.00     0.059 A 
HETATM   10  C12 UNL     1       0.982  60.285  84.045  1.00  0.00     0.026 A 
HETATM   11  C13 UNL     1       1.030  61.529  84.678  1.00  0.00     0.038 A 
BRANCH   9  12
HETATM   12  S1  UNL     1       0.186  57.726  83.765  1.00  0.00     0.175 S 
HETATM   13  O2  UNL     1       1.295  57.810  82.689  1.00  0.00    -0.223 OA
HETATM   14  O3  UNL     1      -1.094  57.584  83.034  1.00  0.00    -0.223 OA
BRANCH  12  15
HETATM   15  C9  UNL     1       0.623  56.411  84.815  1.00  0.00     0.146 C 
BRANCH  15  16
HETATM   16  C10 UNL     1       0.895  55.081  84.268  1.00  0.00     0.026 C 
BRANCH  16  17
HETATM   17  C11 UNL     1      -0.204  54.085  84.167  1.00  0.00     0.087 C 
HETATM   18  S2  UNL     1      -1.758  54.462  84.917  1.00  0.00    -0.098 SA
ENDBRANCH  16  17
ENDBRANCH  15  16
ENDBRANCH  12  15
ENDBRANCH   9  12
ENDBRANCH   5   6
ENDBRANCH   4   5
ENDBRANCH   3   4
TORSDOF 7
ENDMDL
