MODEL 6
REMARK VINA RESULT: -7.296858593      0.813      1.586
REMARK  7 active torsions:
REMARK  status: ('A' for Active; 'I' for Inactive)
REMARK    1  A    between atoms: C3_3  and  C4_4 
REMARK    2  A    between atoms: C4_4  and  O1_5 
REMARK    3  A    between atoms: O1_5  and  C5_6 
REMARK    4  A    between atoms: C8_9  and  S1_10 
REMARK    5  A    between atoms: S1_10  and  C9_13 
REMARK    6  A    between atoms: C9_13  and  C10_14 
REMARK    7  A    between atoms: C10_14  and  C11_15 
ROOT
HETATM    1  C1  UNL     1      -2.732  64.429  83.189  1.00  0.00     0.112 C 
HETATM    2  C2  UNL     1      -2.026  64.153  84.460  1.00  0.00    -0.109 C 
HETATM    3  C3  UNL     1      -1.450  63.934  85.498  1.00  0.00    -0.080 C 
ENDROOT
BRANCH   3   4
HETATM    4  C4  UNL     1      -0.733  63.672  86.746  1.00  0.00     0.269 C 
BRANCH   4   5
HETATM    5  O1  UNL     1       0.363  62.857  86.505  1.00  0.00    -0.340 OA
BRANCH   5   6
HETATM    6  C5  UNL     1       0.334  61.640  85.832  1.00  0.00     0.070 A 
HETATM    7  C6  UNL     1       1.038  61.425  84.681  1.00  0.00     0.038 A 
HETATM    8  C7  UNL     1       0.973  60.205  84.060  1.00  0.00     0.026 A 
HETATM    9  C8  UNL     1       0.216  59.162  84.552  1.00  0.00     0.059 A 
HETATM   10  C12 UNL     1      -0.485  59.380  85.700  1.00  0.00     0.026 A 
HETATM   11  C13 UNL     1      -0.426  60.619  86.341  1.00  0.00     0.038 A 
BRANCH   9  12
HETATM   12  S1  UNL     1       0.112  57.617  83.752  1.00  0.00     0.175 S 
HETATM   13  O2  UNL     1       1.222  57.656  82.674  1.00  0.00    -0.223 OA
HETATM   14  O3  UNL     1      -1.175  57.539  83.023  1.00  0.00    -0.223 OA
BRANCH  12  15
HETATM   15  C9  UNL     1       0.490  56.277  84.793  1.00  0.00     0.146 C 
BRANCH  15  16
HETATM   16  C10 UNL     1      -0.404  55.121  84.872  1.00  0.00     0.026 C 
BRANCH  16  17
HETATM   17  C11 UNL     1      -0.113  53.904  84.070  1.00  0.00     0.087 C 
HETATM   18  S2  UNL     1       1.540  53.641  83.503  1.00  0.00    -0.098 SA
ENDBRANCH  16  17
ENDBRANCH  15  16
ENDBRANCH  12  15
ENDBRANCH   9  12
ENDBRANCH   5   6
ENDBRANCH   4   5
ENDBRANCH   3   4
TORSDOF 7
ENDMDL
