MODEL 1
REMARK VINA RESULT: -7.552479416      0.000      0.000
REMARK  7 active torsions:
REMARK  status: ('A' for Active; 'I' for Inactive)
REMARK    1  A    between atoms: C3_3  and  C4_4 
REMARK    2  A    between atoms: C4_4  and  O1_5 
REMARK    3  A    between atoms: O1_5  and  C5_6 
REMARK    4  A    between atoms: C8_9  and  S1_10 
REMARK    5  A    between atoms: S1_10  and  C9_13 
REMARK    6  A    between atoms: C9_13  and  C10_14 
REMARK    7  A    between atoms: C10_14  and  C11_15 
ROOT
HETATM    1  C1  UNL     1      -2.786  64.433  83.077  1.00  0.00     0.112 C 
HETATM    2  C2  UNL     1      -2.032  64.215  84.332  1.00  0.00    -0.109 C 
HETATM    3  C3  UNL     1      -1.417  64.043  85.356  1.00  0.00    -0.080 C 
ENDROOT
BRANCH   3   4
HETATM    4  C4  UNL     1      -0.652  63.836  86.585  1.00  0.00     0.269 C 
BRANCH   4   5
HETATM    5  O1  UNL     1       0.403  62.967  86.351  1.00  0.00    -0.340 OA
BRANCH   5   6
HETATM    6  C5  UNL     1       0.300  61.708  85.768  1.00  0.00     0.070 A 
HETATM    7  C6  UNL     1      -0.501  60.729  86.283  1.00  0.00     0.038 A 
HETATM    8  C7  UNL     1      -0.566  59.507  85.666  1.00  0.00     0.026 A 
HETATM    9  C8  UNL     1       0.153  59.213  84.526  1.00  0.00     0.059 A 
HETATM   10  C12 UNL     1       0.951  60.192  84.015  1.00  0.00     0.026 A 
HETATM   11  C13 UNL     1       1.024  61.441  84.635  1.00  0.00     0.038 A 
BRANCH   9  12
HETATM   12  S1  UNL     1       0.092  57.652  83.752  1.00  0.00     0.175 S 
HETATM   13  O2  UNL     1       1.208  57.700  82.682  1.00  0.00    -0.223 OA
HETATM   14  O3  UNL     1      -1.187  57.531  83.016  1.00  0.00    -0.223 OA
BRANCH  12  15
HETATM   15  C9  UNL     1       0.494  56.339  84.818  1.00  0.00     0.146 C 
BRANCH  15  16
HETATM   16  C10 UNL     1       1.682  56.410  85.670  1.00  0.00     0.026 C 
BRANCH  16  17
HETATM   17  C11 UNL     1       2.922  55.693  85.270  1.00  0.00     0.087 C 
HETATM   18  S2  UNL     1       2.775  54.229  84.294  1.00  0.00    -0.098 SA
ENDBRANCH  16  17
ENDBRANCH  15  16
ENDBRANCH  12  15
ENDBRANCH   9  12
ENDBRANCH   5   6
ENDBRANCH   4   5
ENDBRANCH   3   4
TORSDOF 7
ENDMDL
