MODEL 5
REMARK VINA RESULT: -7.296892248      1.282      1.488
REMARK  7 active torsions:
REMARK  status: ('A' for Active; 'I' for Inactive)
REMARK    1  A    between atoms: C3_3  and  C4_4 
REMARK    2  A    between atoms: C4_4  and  O1_5 
REMARK    3  A    between atoms: O1_5  and  C5_6 
REMARK    4  A    between atoms: C8_9  and  S1_10 
REMARK    5  A    between atoms: S1_10  and  C9_13 
REMARK    6  A    between atoms: C9_13  and  C10_14 
REMARK    7  A    between atoms: C10_14  and  C11_15 
ROOT
HETATM    1  C1  UNL     1      -2.889  64.396  82.700  1.00  0.00     0.112 C 
HETATM    2  C2  UNL     1      -2.271  64.264  84.039  1.00  0.00    -0.109 C 
HETATM    3  C3  UNL     1      -1.762  64.156  85.129  1.00  0.00    -0.080 C 
ENDROOT
BRANCH   3   4
HETATM    4  C4  UNL     1      -1.149  64.002  86.447  1.00  0.00     0.269 C 
BRANCH   4   5
HETATM    5  O1  UNL     1       0.065  63.339  86.335  1.00  0.00    -0.340 OA
BRANCH   5   6
HETATM    6  C5  UNL     1       0.237  62.041  85.866  1.00  0.00     0.070 A 
HETATM    7  C6  UNL     1      -0.408  60.973  86.422  1.00  0.00     0.038 A 
HETATM    8  C7  UNL     1      -0.202  59.715  85.918  1.00  0.00     0.026 A 
HETATM    9  C8  UNL     1       0.642  59.471  84.854  1.00  0.00     0.059 A 
HETATM   10  C12 UNL     1       1.284  60.539  84.302  1.00  0.00     0.026 A 
HETATM   11  C13 UNL     1       1.081  61.826  84.807  1.00  0.00     0.038 A 
BRANCH   9  12
HETATM   12  S1  UNL     1       0.925  57.871  84.226  1.00  0.00     0.175 S 
HETATM   13  O2  UNL     1       2.158  57.354  85.004  1.00  0.00    -0.223 OA
HETATM   14  O3  UNL     1       1.342  57.978  82.808  1.00  0.00    -0.223 OA
BRANCH  12  15
HETATM   15  C9  UNL     1      -0.368  56.759  84.566  1.00  0.00     0.146 C 
BRANCH  15  16
HETATM   16  C10 UNL     1      -0.564  55.570  83.736  1.00  0.00     0.026 C 
BRANCH  16  17
HETATM   17  C11 UNL     1       0.172  54.318  84.053  1.00  0.00     0.087 C 
HETATM   18  S2  UNL     1       1.756  54.058  83.314  1.00  0.00    -0.098 SA
ENDBRANCH  16  17
ENDBRANCH  15  16
ENDBRANCH  12  15
ENDBRANCH   9  12
ENDBRANCH   5   6
ENDBRANCH   4   5
ENDBRANCH   3   4
TORSDOF 7
ENDMDL
