MODEL 2
REMARK VINA RESULT: -7.540468767      0.205      1.126
REMARK  7 active torsions:
REMARK  status: ('A' for Active; 'I' for Inactive)
REMARK    1  A    between atoms: C3_3  and  C4_4 
REMARK    2  A    between atoms: C4_4  and  O1_5 
REMARK    3  A    between atoms: O1_5  and  C5_6 
REMARK    4  A    between atoms: C8_9  and  S1_10 
REMARK    5  A    between atoms: S1_10  and  C9_13 
REMARK    6  A    between atoms: C9_13  and  C10_14 
REMARK    7  A    between atoms: C10_14  and  C11_15 
ROOT
HETATM    1  C1  UNL     1      -2.721  64.693  83.376  1.00  0.00     0.112 C 
HETATM    2  C2  UNL     1      -2.016  64.300  84.616  1.00  0.00    -0.109 C 
HETATM    3  C3  UNL     1      -1.444  63.983  85.631  1.00  0.00    -0.080 C 
ENDROOT
BRANCH   3   4
HETATM    4  C4  UNL     1      -0.738  63.617  86.859  1.00  0.00     0.269 C 
BRANCH   4   5
HETATM    5  O1  UNL     1       0.362  62.827  86.560  1.00  0.00    -0.340 OA
BRANCH   5   6
HETATM    6  C5  UNL     1       0.327  61.618  85.872  1.00  0.00     0.070 A 
HETATM    7  C6  UNL     1       1.036  61.412  84.723  1.00  0.00     0.038 A 
HETATM    8  C7  UNL     1       0.966  60.199  84.088  1.00  0.00     0.026 A 
HETATM    9  C8  UNL     1       0.198  59.156  84.563  1.00  0.00     0.059 A 
HETATM   10  C12 UNL     1      -0.509  59.366  85.709  1.00  0.00     0.026 A 
HETATM   11  C13 UNL     1      -0.444  60.597  86.365  1.00  0.00     0.038 A 
BRANCH   9  12
HETATM   12  S1  UNL     1       0.087  57.622  83.745  1.00  0.00     0.175 S 
HETATM   13  O2  UNL     1       1.187  57.675  82.657  1.00  0.00    -0.223 OA
HETATM   14  O3  UNL     1      -1.206  57.553  83.026  1.00  0.00    -0.223 OA
BRANCH  12  15
HETATM   15  C9  UNL     1       0.475  56.268  84.765  1.00  0.00     0.146 C 
BRANCH  15  16
HETATM   16  C10 UNL     1       1.636  56.316  85.654  1.00  0.00     0.026 C 
BRANCH  16  17
HETATM   17  C11 UNL     1       2.882  55.594  85.282  1.00  0.00     0.087 C 
HETATM   18  S2  UNL     1       2.744  54.007  84.518  1.00  0.00    -0.098 SA
ENDBRANCH  16  17
ENDBRANCH  15  16
ENDBRANCH  12  15
ENDBRANCH   9  12
ENDBRANCH   5   6
ENDBRANCH   4   5
ENDBRANCH   3   4
TORSDOF 7
ENDMDL
