MODEL 3
REMARK VINA RESULT: -8.644872020      1.560      3.024
REMARK  8 active torsions:
REMARK  status: ('A' for Active; 'I' for Inactive)
REMARK    1  A    between atoms: N4_10  and  C5_11 
REMARK    2  A    between atoms: C6_13  and  C7_14 
REMARK    3  A    between atoms: C7_14  and  O2_15 
REMARK    4  A    between atoms: O2_15  and  P1_16 
REMARK    5  A    between atoms: P1_16  and  O5_19 
REMARK    6  A    between atoms: O5_19  and  P2_20 
REMARK    7  A    between atoms: C8_24  and  O9_25 
REMARK    8  A    between atoms: C9_27  and  O10_28 
ROOT
HETATM    1  C5  UNL     1      23.956  31.931  31.238  1.00  0.00     0.262 C 
HETATM    2  O1  UNL     1      23.105  32.888  30.687  1.00  0.00    -0.353 OA
HETATM    3  C6  UNL     1      22.281  33.348  31.673  1.00  0.00     0.180 C 
HETATM    4  C8  UNL     1      23.011  33.269  32.986  1.00  0.00     0.182 C 
HETATM    5  C9  UNL     1      24.219  32.429  32.623  1.00  0.00     0.198 C 
ENDROOT
BRANCH   1   6
HETATM    6  N4  UNL     1      25.155  31.941  30.403  1.00  0.00    -0.297 N 
HETATM    7  C2  UNL     1      25.915  30.847  30.145  1.00  0.00     0.146 A 
HETATM    8  N2  UNL     1      25.807  29.563  30.537  1.00  0.00    -0.314 N 
HETATM    9  C3  UNL     1      26.941  31.286  29.325  1.00  0.00     0.146 A 
HETATM   10  C1  UNL     1      26.723  28.697  30.115  1.00  0.00     0.196 A 
ATOM     11  H2  UNL     1      25.042  29.263  31.142  1.00  0.00     0.170 HD
HETATM   12  N1  UNL     1      26.627  27.340  30.516  1.00  0.00    -0.063 NA
HETATM   13  N5  UNL     1      27.740  29.076  29.314  1.00  0.00    -0.295 N 
HETATM   14  C10 UNL     1      27.874  30.354  28.906  1.00  0.00     0.278 A 
ATOM     15  H5  UNL     1      28.423  28.382  29.011  1.00  0.00     0.171 HD
HETATM   16  O11 UNL     1      28.839  30.711  28.149  1.00  0.00    -0.265 OA
HETATM   17  N3  UNL     1      26.805  32.617  29.090  1.00  0.00    -0.345 N 
HETATM   18  C4  UNL     1      25.704  33.002  29.760  1.00  0.00     0.188 A 
ATOM     19  H3  UNL     1      27.415  33.205  28.521  1.00  0.00     0.167 HD
ENDBRANCH   1   6
BRANCH   5  20
HETATM   20  O10 UNL     1      24.257  31.381  33.567  1.00  0.00    -0.388 OA
ATOM     21  H10 UNL     1      23.759  31.586  34.349  1.00  0.00     0.210 HD
ENDBRANCH   5  20
BRANCH   3  22
HETATM   22  C7  UNL     1      21.848  34.773  31.468  1.00  0.00     0.216 C 
BRANCH  22  23
HETATM   23  O2  UNL     1      20.874  35.062  32.421  1.00  0.00    -0.287 OA
BRANCH  23  24
HETATM   24  P1  UNL     1      21.045  36.270  33.369  1.00  0.00     0.418 P 
HETATM   25  O3  UNL     1      19.716  36.972  32.686  1.00  0.00    -0.624 OA
HETATM   26  O4  UNL     1      20.792  35.191  34.637  1.00  0.00    -0.624 OA
BRANCH  24  27
HETATM   27  O5  UNL     1      21.077  37.379  34.434  1.00  0.00    -0.173 OA
BRANCH  27  28
HETATM   28  P2  UNL     1      22.172  38.360  34.885  1.00  0.00     0.431 P 
HETATM   29  O6  UNL     1      23.081  39.556  35.267  1.00  0.00    -0.616 OA
HETATM   30  O7  UNL     1      21.932  39.102  33.408  1.00  0.00    -0.616 OA
HETATM   31  O8  UNL     1      23.343  37.230  34.956  1.00  0.00    -0.616 OA
ENDBRANCH  27  28
ENDBRANCH  24  27
ENDBRANCH  23  24
ENDBRANCH  22  23
ENDBRANCH   3  22
BRANCH   4  32
HETATM   32  O9  UNL     1      22.168  32.610  33.886  1.00  0.00    -0.390 OA
ATOM     33  H9  UNL     1      22.274  33.034  34.730  1.00  0.00     0.210 HD
ENDBRANCH   4  32
TORSDOF 8
ENDMDL
