MODEL 14
REMARK VINA RESULT: -8.150396776      2.279      3.267
REMARK  8 active torsions:
REMARK  status: ('A' for Active; 'I' for Inactive)
REMARK    1  A    between atoms: N4_10  and  C5_11 
REMARK    2  A    between atoms: C6_13  and  C7_14 
REMARK    3  A    between atoms: C7_14  and  O2_15 
REMARK    4  A    between atoms: O2_15  and  P1_16 
REMARK    5  A    between atoms: P1_16  and  O5_19 
REMARK    6  A    between atoms: O5_19  and  P2_20 
REMARK    7  A    between atoms: C8_24  and  O9_25 
REMARK    8  A    between atoms: C9_27  and  O10_28 
ROOT
HETATM    1  C5  UNL     1      24.070  33.338  30.686  1.00  0.00     0.262 C 
HETATM    2  O1  UNL     1      22.855  33.544  31.338  1.00  0.00    -0.353 OA
HETATM    3  C6  UNL     1      22.840  32.782  32.469  1.00  0.00     0.180 C 
HETATM    4  C8  UNL     1      24.252  32.633  32.969  1.00  0.00     0.182 C 
HETATM    5  C9  UNL     1      25.056  33.159  31.796  1.00  0.00     0.198 C 
ENDROOT
BRANCH   1   6
HETATM    6  N4  UNL     1      24.315  34.552  29.912  1.00  0.00    -0.297 N 
HETATM    7  C2  UNL     1      23.452  35.596  29.836  1.00  0.00     0.146 A 
HETATM    8  N2  UNL     1      22.242  35.806  30.389  1.00  0.00    -0.314 N 
HETATM    9  C3  UNL     1      24.060  36.528  29.011  1.00  0.00     0.146 A 
HETATM   10  C1  UNL     1      21.620  36.952  30.126  1.00  0.00     0.196 A 
ATOM     11  H2  UNL     1      21.813  35.105  30.993  1.00  0.00     0.170 HD
HETATM   12  N1  UNL     1      20.345  37.193  30.699  1.00  0.00    -0.063 NA
HETATM   13  N5  UNL     1      22.172  37.891  29.329  1.00  0.00    -0.295 N 
HETATM   14  C10 UNL     1      23.381  37.708  28.763  1.00  0.00     0.278 A 
ATOM     15  H5  UNL     1      21.664  38.757  29.153  1.00  0.00     0.171 HD
HETATM   16  O11 UNL     1      23.902  38.598  28.008  1.00  0.00    -0.265 OA
HETATM   17  N3  UNL     1      25.266  36.060  28.597  1.00  0.00    -0.345 N 
HETATM   18  C4  UNL     1      25.405  34.845  29.159  1.00  0.00     0.188 A 
ATOM     19  H3  UNL     1      25.931  36.532  27.984  1.00  0.00     0.167 HD
ENDBRANCH   1   6
BRANCH   5  20
HETATM   20  O10 UNL     1      26.009  32.160  31.505  1.00  0.00    -0.388 OA
ATOM     21  H10 UNL     1      26.814  32.280  31.994  1.00  0.00     0.210 HD
ENDBRANCH   5  20
BRANCH   3  22
HETATM   22  C7  UNL     1      22.018  33.379  33.577  1.00  0.00     0.216 C 
BRANCH  22  23
HETATM   23  O2  UNL     1      21.510  34.594  33.122  1.00  0.00    -0.287 OA
BRANCH  23  24
HETATM   24  P1  UNL     1      21.514  35.835  34.043  1.00  0.00     0.418 P 
HETATM   25  O3  UNL     1      20.465  35.064  35.058  1.00  0.00    -0.624 OA
HETATM   26  O4  UNL     1      23.160  35.551  34.260  1.00  0.00    -0.624 OA
BRANCH  24  27
HETATM   27  O5  UNL     1      21.664  36.971  35.068  1.00  0.00    -0.173 OA
BRANCH  27  28
HETATM   28  P2  UNL     1      22.323  38.359  34.998  1.00  0.00     0.431 P 
HETATM   29  O6  UNL     1      23.100  39.687  35.189  1.00  0.00    -0.616 OA
HETATM   30  O7  UNL     1      21.677  38.597  36.520  1.00  0.00    -0.616 OA
HETATM   31  O8  UNL     1      21.428  38.868  33.735  1.00  0.00    -0.616 OA
ENDBRANCH  27  28
ENDBRANCH  24  27
ENDBRANCH  23  24
ENDBRANCH  22  23
ENDBRANCH   3  22
BRANCH   4  32
HETATM   32  O9  UNL     1      24.470  31.268  33.182  1.00  0.00    -0.390 OA
ATOM     33  H9  UNL     1      25.325  31.182  33.588  1.00  0.00     0.210 HD
ENDBRANCH   4  32
TORSDOF 8
ENDMDL
