MODEL 17
REMARK VINA RESULT: -8.090385928      4.523      8.220
REMARK  8 active torsions:
REMARK  status: ('A' for Active; 'I' for Inactive)
REMARK    1  A    between atoms: N4_10  and  C5_11 
REMARK    2  A    between atoms: C6_13  and  C7_14 
REMARK    3  A    between atoms: C7_14  and  O2_15 
REMARK    4  A    between atoms: O2_15  and  P1_16 
REMARK    5  A    between atoms: P1_16  and  O5_19 
REMARK    6  A    between atoms: O5_19  and  P2_20 
REMARK    7  A    between atoms: C8_24  and  O9_25 
REMARK    8  A    between atoms: C9_27  and  O10_28 
ROOT
HETATM    1  C5  UNL     1      24.472  33.482  32.149  1.00  0.00     0.262 C 
HETATM    2  O1  UNL     1      25.186  32.960  31.071  1.00  0.00    -0.353 OA
HETATM    3  C6  UNL     1      25.608  31.705  31.404  1.00  0.00     0.180 C 
HETATM    4  C8  UNL     1      24.613  31.099  32.357  1.00  0.00     0.182 C 
HETATM    5  C9  UNL     1      23.763  32.299  32.726  1.00  0.00     0.198 C 
ENDROOT
BRANCH   1   6
HETATM    6  N4  UNL     1      23.550  34.460  31.575  1.00  0.00    -0.297 N 
HETATM    7  C2  UNL     1      22.496  34.996  32.239  1.00  0.00     0.146 A 
HETATM    8  N2  UNL     1      22.030  34.810  33.489  1.00  0.00    -0.314 N 
HETATM    9  C3  UNL     1      21.891  35.866  31.346  1.00  0.00     0.146 A 
HETATM   10  C1  UNL     1      20.952  35.491  33.867  1.00  0.00     0.196 A 
ATOM     11  H2  UNL     1      22.492  34.164  34.129  1.00  0.00     0.170 HD
HETATM   12  N1  UNL     1      20.446  35.310  35.180  1.00  0.00    -0.063 NA
HETATM   13  N5  UNL     1      20.329  36.350  33.034  1.00  0.00    -0.295 N 
HETATM   14  C10 UNL     1      20.772  36.556  31.778  1.00  0.00     0.278 A 
ATOM     15  H5  UNL     1      19.505  36.854  33.361  1.00  0.00     0.171 HD
HETATM   16  O11 UNL     1      20.180  37.369  30.990  1.00  0.00    -0.265 OA
HETATM   17  N3  UNL     1      22.565  35.857  30.167  1.00  0.00    -0.345 N 
HETATM   18  C4  UNL     1      23.579  34.988  30.326  1.00  0.00     0.188 A 
ATOM     19  H3  UNL     1      22.346  36.399  29.331  1.00  0.00     0.167 HD
ENDBRANCH   1   6
BRANCH   5  20
HETATM   20  O10 UNL     1      23.737  32.331  34.137  1.00  0.00    -0.388 OA
ATOM     21  H10 UNL     1      22.873  32.534  34.475  1.00  0.00     0.210 HD
ENDBRANCH   5  20
BRANCH   3  22
HETATM   22  C7  UNL     1      25.733  30.788  30.220  1.00  0.00     0.216 C 
BRANCH  22  23
HETATM   23  O2  UNL     1      25.015  29.627  30.504  1.00  0.00    -0.287 OA
BRANCH  23  24
HETATM   24  P1  UNL     1      25.661  28.240  30.292  1.00  0.00     0.418 P 
HETATM   25  O3  UNL     1      27.130  28.970  30.104  1.00  0.00    -0.624 OA
HETATM   26  O4  UNL     1      25.167  27.875  31.860  1.00  0.00    -0.624 OA
BRANCH  24  27
HETATM   27  O5  UNL     1      26.350  26.865  30.283  1.00  0.00    -0.173 OA
BRANCH  27  28
HETATM   28  P2  UNL     1      26.265  25.650  31.223  1.00  0.00     0.431 P 
HETATM   29  O6  UNL     1      26.155  24.627  32.383  1.00  0.00    -0.616 OA
HETATM   30  O7  UNL     1      27.470  26.409  32.098  1.00  0.00    -0.616 OA
HETATM   31  O8  UNL     1      26.745  24.576  30.096  1.00  0.00    -0.616 OA
ENDBRANCH  27  28
ENDBRANCH  24  27
ENDBRANCH  23  24
ENDBRANCH  22  23
ENDBRANCH   3  22
BRANCH   4  32
HETATM   32  O9  UNL     1      25.335  30.613  33.451  1.00  0.00    -0.390 OA
ATOM     33  H9  UNL     1      24.710  30.450  34.147  1.00  0.00     0.210 HD
ENDBRANCH   4  32
TORSDOF 8
ENDMDL
