MODEL 2
REMARK VINA RESULT: -9.956645234      2.002      2.871
REMARK  2 active torsions:
REMARK  status: ('A' for Active; 'I' for Inactive)
REMARK    1  A    between atoms: C8_12  and  N3_13 
REMARK    2  A    between atoms: N3_13  and  C9_15 
ROOT
HETATM    1  O1  UNL     1      25.297   6.134  14.945  1.00  0.00    -0.273 OA
HETATM    2  C1  UNL     1      24.866   6.395  16.127  1.00  0.00     0.222 C 
HETATM    3  C2  UNL     1      25.287   5.346  17.115  1.00  0.00     0.103 C 
HETATM    4  C3  UNL     1      24.371   4.208  17.280  1.00  0.00     0.010 C 
HETATM    5  C4  UNL     1      23.713   4.036  18.626  1.00  0.00     0.005 C 
HETATM    6  C5  UNL     1      24.635   3.610  19.727  1.00  0.00     0.044 C 
HETATM    7  C6  UNL     1      24.028   3.689  21.076  1.00  0.00     0.006 A 
HETATM    8  C7  UNL     1      24.122   2.715  22.077  1.00  0.00     0.119 A 
HETATM    9  N1  UNL     1      23.426   3.205  23.125  1.00  0.00    -0.289 N 
ATOM     10  H1  UNL     1      23.301   2.733  24.020  1.00  0.00     0.187 HD
HETATM   11  N2  UNL     1      22.922   4.412  22.806  1.00  0.00    -0.069 N 
HETATM   12  C8  UNL     1      22.173   5.272  23.507  1.00  0.00     0.716 A 
HETATM   13  N4  UNL     1      21.809   6.435  22.908  1.00  0.00    -0.020 N 
ATOM     14  H4  UNL     1      21.239   7.094  23.439  1.00  0.00     0.203 HD
HETATM   15  C12 UNL     1      22.149   6.756  21.690  1.00  0.00     0.699 A 
HETATM   16  N5  UNL     1      22.920   5.844  21.002  1.00  0.00    -0.173 N 
ATOM     17  H5  UNL     1      23.210   6.055  20.047  1.00  0.00     0.186 HD
HETATM   18  C13 UNL     1      23.292   4.705  21.552  1.00  0.00     0.168 A 
HETATM   19  N6  UNL     1      21.858   7.905  20.937  1.00  0.00    -0.191 N 
ATOM     20  H6  UNL     1      21.406   8.677  21.427  1.00  0.00     0.184 HD
HETATM   21  C14 UNL     1      22.141   8.098  19.515  1.00  0.00     0.051 A 
HETATM   22  C15 UNL     1      21.038   8.748  18.931  1.00  0.00     0.030 A 
HETATM   23  C16 UNL     1      20.971   8.997  17.586  1.00  0.00     0.004 A 
HETATM   24  C17 UNL     1      22.046   8.571  16.859  1.00  0.00     0.029 A 
HETATM   25  C18 UNL     1      23.176   7.912  17.416  1.00  0.00     0.036 A 
HETATM   26  C19 UNL     1      23.217   7.679  18.774  1.00  0.00     0.059 A 
HETATM   27  N7  UNL     1      24.107   7.542  16.369  1.00  0.00    -0.327 N 
ATOM     28  H7  UNL     1      24.234   8.269  15.664  1.00  0.00     0.169 HD
ENDROOT
BRANCH  12  29
HETATM   29  N3  UNL     1      21.789   4.954  24.827  1.00  0.00    -0.219 N 
ATOM     30  H3  UNL     1      21.761   3.972  25.104  1.00  0.00     0.178 HD
BRANCH  29  31
HETATM   31  C9  UNL     1      21.430   5.966  25.810  1.00  0.00     0.099 A 
HETATM   32  C10 UNL     1      21.820   5.800  27.234  1.00  0.00     0.028 A 
HETATM   33  C11 UNL     1      20.360   5.687  26.813  1.00  0.00     0.028 A 
ENDBRANCH  29  31
ENDBRANCH  12  29
TORSDOF 2
ENDMDL
