MODEL 13
REMARK VINA RESULT: -8.938058164      2.042      4.700
REMARK  2 active torsions:
REMARK  status: ('A' for Active; 'I' for Inactive)
REMARK    1  A    between atoms: C8_12  and  N3_13 
REMARK    2  A    between atoms: N3_13  and  C9_15 
ROOT
HETATM    1  O1  UNL     1      25.009   6.357  14.611  1.00  0.00    -0.273 OA
HETATM    2  C1  UNL     1      24.468   6.005  15.722  1.00  0.00     0.222 C 
HETATM    3  C2  UNL     1      23.438   6.997  16.178  1.00  0.00     0.103 C 
HETATM    4  C3  UNL     1      23.927   8.093  17.026  1.00  0.00     0.010 C 
HETATM    5  C4  UNL     1      23.415   8.155  18.443  1.00  0.00     0.005 C 
HETATM    6  C5  UNL     1      21.971   8.533  18.575  1.00  0.00     0.044 C 
HETATM    7  C6  UNL     1      21.429   8.346  19.941  1.00  0.00     0.006 A 
HETATM    8  C7  UNL     1      20.619   9.253  20.634  1.00  0.00     0.119 A 
HETATM    9  N1  UNL     1      20.366   8.673  21.827  1.00  0.00    -0.289 N 
ATOM     10  H1  UNL     1      19.798   9.080  22.570  1.00  0.00     0.187 HD
HETATM   11  N2  UNL     1      20.978   7.476  21.884  1.00  0.00    -0.069 N 
HETATM   12  C8  UNL     1      21.021   6.549  22.849  1.00  0.00     0.716 A 
HETATM   13  N4  UNL     1      21.736   5.418  22.615  1.00  0.00    -0.020 N 
ATOM     14  H4  UNL     1      21.770   4.708  23.347  1.00  0.00     0.203 HD
HETATM   15  C12 UNL     1      22.381   5.190  21.505  1.00  0.00     0.699 A 
HETATM   16  N5  UNL     1      22.312   6.169  20.537  1.00  0.00    -0.173 N 
ATOM     17  H5  UNL     1      22.801   6.031  19.652  1.00  0.00     0.186 HD
HETATM   18  C13 UNL     1      21.628   7.279  20.729  1.00  0.00     0.168 A 
HETATM   19  N6  UNL     1      23.156   4.086  21.113  1.00  0.00    -0.191 N 
ATOM     20  H6  UNL     1      23.141   3.270  21.724  1.00  0.00     0.184 HD
HETATM   21  C14 UNL     1      23.984   3.997  19.910  1.00  0.00     0.051 A 
HETATM   22  C15 UNL     1      25.189   3.355  20.252  1.00  0.00     0.030 A 
HETATM   23  C16 UNL     1      26.207   3.196  19.350  1.00  0.00     0.004 A 
HETATM   24  C17 UNL     1      25.968   3.701  18.104  1.00  0.00     0.029 A 
HETATM   25  C18 UNL     1      24.763   4.355  17.724  1.00  0.00     0.036 A 
HETATM   26  C19 UNL     1      23.754   4.498  18.653  1.00  0.00     0.059 A 
HETATM   27  N7  UNL     1      24.855   4.821  16.356  1.00  0.00    -0.327 N 
ATOM     28  H7  UNL     1      25.292   4.148  15.726  1.00  0.00     0.169 HD
ENDROOT
BRANCH  12  29
HETATM   29  N3  UNL     1      20.333   6.766  24.062  1.00  0.00    -0.219 N 
ATOM     30  H3  UNL     1      19.373   6.431  24.145  1.00  0.00     0.178 HD
BRANCH  29  31
HETATM   31  C9  UNL     1      20.935   7.446  25.200  1.00  0.00     0.099 A 
HETATM   32  C10 UNL     1      20.120   8.359  26.044  1.00  0.00     0.028 A 
HETATM   33  C11 UNL     1      21.211   8.911  25.134  1.00  0.00     0.028 A 
ENDBRANCH  29  31
ENDBRANCH  12  29
TORSDOF 2
ENDMDL
