MODEL 1
REMARK VINA RESULT: -10.231742482      0.000      0.000
REMARK  2 active torsions:
REMARK  status: ('A' for Active; 'I' for Inactive)
REMARK    1  A    between atoms: C8_12  and  N3_13 
REMARK    2  A    between atoms: N3_13  and  C9_15 
ROOT
HETATM    1  O1  UNL     1      24.699   5.187  17.644  1.00  0.00    -0.273 OA
HETATM    2  C1  UNL     1      24.069   5.815  18.573  1.00  0.00     0.222 C 
HETATM    3  C2  UNL     1      24.089   5.057  19.868  1.00  0.00     0.103 C 
HETATM    4  C3  UNL     1      22.988   4.106  20.078  1.00  0.00     0.010 C 
HETATM    5  C4  UNL     1      22.034   4.389  21.211  1.00  0.00     0.005 C 
HETATM    6  C5  UNL     1      22.614   4.210  22.581  1.00  0.00     0.044 C 
HETATM    7  C6  UNL     1      21.748   4.729  23.666  1.00  0.00     0.006 A 
HETATM    8  C7  UNL     1      21.464   4.077  24.872  1.00  0.00     0.119 A 
HETATM    9  N1  UNL     1      20.645   4.910  25.549  1.00  0.00    -0.289 N 
ATOM     10  H1  UNL     1      20.253   4.728  26.473  1.00  0.00     0.187 HD
HETATM   11  N2  UNL     1      20.424   6.018  24.817  1.00  0.00    -0.069 N 
HETATM   12  C8  UNL     1      19.690   7.110  25.062  1.00  0.00     0.716 A 
HETATM   13  N4  UNL     1      19.658   8.083  24.115  1.00  0.00    -0.020 N 
ATOM     14  H4  UNL     1      19.101   8.917  24.299  1.00  0.00     0.203 HD
HETATM   15  C12 UNL     1      20.302   8.009  22.983  1.00  0.00     0.699 A 
HETATM   16  N5  UNL     1      21.046   6.869  22.769  1.00  0.00    -0.173 N 
ATOM     17  H5  UNL     1      21.567   6.769  21.897  1.00  0.00     0.186 HD
HETATM   18  C13 UNL     1      21.101   5.904  23.665  1.00  0.00     0.168 A 
HETATM   19  N6  UNL     1      20.371   8.917  21.914  1.00  0.00    -0.191 N 
ATOM     20  H6  UNL     1      19.955   9.836  22.061  1.00  0.00     0.184 HD
HETATM   21  C14 UNL     1      20.985   8.668  20.610  1.00  0.00     0.051 A 
HETATM   22  C15 UNL     1      20.155   9.226  19.620  1.00  0.00     0.030 A 
HETATM   23  C16 UNL     1      20.423   9.085  18.284  1.00  0.00     0.004 A 
HETATM   24  C17 UNL     1      21.547   8.369  17.986  1.00  0.00     0.029 A 
HETATM   25  C18 UNL     1      22.408   7.791  18.961  1.00  0.00     0.036 A 
HETATM   26  C19 UNL     1      22.114   7.953  20.298  1.00  0.00     0.059 A 
HETATM   27  N7  UNL     1      23.471   7.051  18.313  1.00  0.00    -0.327 N 
ATOM     28  H7  UNL     1      23.864   7.530  17.503  1.00  0.00     0.169 HD
ENDROOT
BRANCH  12  29
HETATM   29  N3  UNL     1      18.981   7.221  26.278  1.00  0.00    -0.219 N 
ATOM     30  H3  UNL     1      18.070   6.768  26.354  1.00  0.00     0.178 HD
BRANCH  29  31
HETATM   31  C9  UNL     1      19.495   7.953  27.426  1.00  0.00     0.099 A 
HETATM   32  C10 UNL     1      20.842   8.578  27.377  1.00  0.00     0.028 A 
HETATM   33  C11 UNL     1      20.582   7.365  28.262  1.00  0.00     0.028 A 
ENDBRANCH  29  31
ENDBRANCH  12  29
TORSDOF 2
ENDMDL
