MODEL 5
REMARK VINA RESULT: -9.576477817      3.644      8.471
REMARK  2 active torsions:
REMARK  status: ('A' for Active; 'I' for Inactive)
REMARK    1  A    between atoms: C8_12  and  N3_13 
REMARK    2  A    between atoms: N3_13  and  C9_15 
ROOT
HETATM    1  O1  UNL     1      20.906   8.713  22.810  1.00  0.00    -0.273 OA
HETATM    2  C1  UNL     1      21.682   7.726  22.533  1.00  0.00     0.222 C 
HETATM    3  C2  UNL     1      22.466   7.971  21.277  1.00  0.00     0.103 C 
HETATM    4  C3  UNL     1      21.836   7.530  20.025  1.00  0.00     0.010 C 
HETATM    5  C4  UNL     1      22.518   6.429  19.254  1.00  0.00     0.005 C 
HETATM    6  C5  UNL     1      23.812   6.821  18.608  1.00  0.00     0.044 C 
HETATM    7  C6  UNL     1      24.583   5.673  18.074  1.00  0.00     0.006 A 
HETATM    8  C7  UNL     1      25.216   5.620  16.827  1.00  0.00     0.119 A 
HETATM    9  N1  UNL     1      25.790   4.400  16.765  1.00  0.00    -0.289 N 
ATOM     10  H1  UNL     1      26.333   4.044  15.979  1.00  0.00     0.187 HD
HETATM   11  N2  UNL     1      25.535   3.724  17.901  1.00  0.00    -0.069 N 
HETATM   12  C8  UNL     1      25.886   2.495  18.299  1.00  0.00     0.716 A 
HETATM   13  N4  UNL     1      25.472   2.078  19.524  1.00  0.00    -0.020 N 
ATOM     14  H4  UNL     1      25.739   1.143  19.830  1.00  0.00     0.203 HD
HETATM   15  C12 UNL     1      24.752   2.810  20.328  1.00  0.00     0.699 A 
HETATM   16  N5  UNL     1      24.412   4.069  19.882  1.00  0.00    -0.173 N 
ATOM     17  H5  UNL     1      23.851   4.675  20.480  1.00  0.00     0.186 HD
HETATM   18  C13 UNL     1      24.796   4.507  18.700  1.00  0.00     0.168 A 
HETATM   19  N6  UNL     1      24.251   2.529  21.610  1.00  0.00    -0.191 N 
ATOM     20  H6  UNL     1      24.575   1.670  22.055  1.00  0.00     0.184 HD
HETATM   21  C14 UNL     1      23.306   3.352  22.365  1.00  0.00     0.051 A 
HETATM   22  C15 UNL     1      22.381   2.496  22.992  1.00  0.00     0.030 A 
HETATM   23  C16 UNL     1      21.320   2.977  23.712  1.00  0.00     0.004 A 
HETATM   24  C17 UNL     1      21.225   4.338  23.774  1.00  0.00     0.029 A 
HETATM   25  C18 UNL     1      22.141   5.232  23.153  1.00  0.00     0.036 A 
HETATM   26  C19 UNL     1      23.203   4.718  22.439  1.00  0.00     0.059 A 
HETATM   27  N7  UNL     1      21.724   6.603  23.363  1.00  0.00    -0.327 N 
ATOM     28  H7  UNL     1      21.393   6.786  24.311  1.00  0.00     0.169 HD
ENDROOT
BRANCH  12  29
HETATM   29  N3  UNL     1      26.665   1.679  17.451  1.00  0.00    -0.219 N 
ATOM     30  H3  UNL     1      27.389   2.118  16.882  1.00  0.00     0.178 HD
BRANCH  29  31
HETATM   31  C9  UNL     1      26.479   0.238  17.352  1.00  0.00     0.099 A 
HETATM   32  C10 UNL     1      26.672  -0.456  16.053  1.00  0.00     0.028 A 
HETATM   33  C11 UNL     1      25.280  -0.314  16.656  1.00  0.00     0.028 A 
ENDBRANCH  29  31
ENDBRANCH  12  29
TORSDOF 2
ENDMDL
