MODEL 6
REMARK VINA RESULT: -6.173346398      5.310      8.544
REMARK  8 active torsions:
REMARK  status: ('A' for Active; 'I' for Inactive)
REMARK    1  A    between atoms: C2_2  and  C4_4 
REMARK    2  A    between atoms: C2_2  and  C5_7 
REMARK    3  A    between atoms: C4_4  and  O1_5 
REMARK    4  A    between atoms: C5_7  and  O2_8 
REMARK    5  A    between atoms: C5_7  and  C6_10 
REMARK       I    between atoms: C6_10  and  N1_12 
REMARK    6  A    between atoms: N1_12  and  C7_14 
REMARK    7  A    between atoms: C7_14  and  C8_15 
REMARK    8  A    between atoms: C8_15  and  C9_16 
ROOT
HETATM    1  C5  UNL     1       3.612  11.777  16.155  1.00  0.00     0.219 C 
ENDROOT
BRANCH   1   2
HETATM    2  C2  UNL     1       4.966  12.425  16.186  1.00  0.00     0.008 C 
HETATM    3  C1  UNL     1       5.660  12.357  14.840  1.00  0.00     0.020 C 
HETATM    4  C3  UNL     1       5.813  11.649  17.171  1.00  0.00     0.020 C 
BRANCH   2   5
HETATM    5  C4  UNL     1       4.873  13.850  16.642  1.00  0.00     0.175 C 
BRANCH   5   6
HETATM    6  O1  UNL     1       4.078  13.920  17.793  1.00  0.00    -0.400 OA
ATOM      7  H1  UNL     1       4.257  13.170  18.346  1.00  0.00     0.209 HD
ENDBRANCH   5   6
ENDBRANCH   2   5
ENDBRANCH   1   2
BRANCH   1   8
HETATM    8  O2  UNL     1       2.655  12.651  15.721  1.00  0.00    -0.385 OA
ATOM      9  H2  UNL     1       1.957  12.741  16.359  1.00  0.00     0.210 HD
ENDBRANCH   1   8
BRANCH   1  10
HETATM   10  C6  UNL     1       3.557  10.524  15.403  1.00  0.00     0.247 C 
HETATM   11  O3  UNL     1       4.016   9.428  15.838  1.00  0.00    -0.271 OA
HETATM   12  N1  UNL     1       2.953  10.544  14.116  1.00  0.00    -0.358 N 
ATOM     13  H1  UNL     1       2.590  11.436  13.781  1.00  0.00     0.162 HD
BRANCH  12  14
HETATM   14  C7  UNL     1       2.816   9.412  13.256  1.00  0.00     0.133 C 
BRANCH  14  15
HETATM   15  C8  UNL     1       3.782   9.560  12.101  1.00  0.00     0.133 C 
BRANCH  15  16
HETATM   16  C9  UNL     1       3.245  10.536  11.119  1.00  0.00     0.174 C 
HETATM   17  O4  UNL     1       2.289  11.270  11.443  1.00  0.00    -0.648 OA
HETATM   18  O5  UNL     1       3.804  10.624   9.856  1.00  0.00    -0.648 OA
ENDBRANCH  15  16
ENDBRANCH  14  15
ENDBRANCH  12  14
ENDBRANCH   1  10
TORSDOF 8
ENDMDL
