MODEL 1
REMARK VINA RESULT: -6.433700017      0.000      0.000
REMARK  8 active torsions:
REMARK  status: ('A' for Active; 'I' for Inactive)
REMARK    1  A    between atoms: C2_2  and  C4_4 
REMARK    2  A    between atoms: C2_2  and  C5_7 
REMARK    3  A    between atoms: C4_4  and  O1_5 
REMARK    4  A    between atoms: C5_7  and  O2_8 
REMARK    5  A    between atoms: C5_7  and  C6_10 
REMARK       I    between atoms: C6_10  and  N1_12 
REMARK    6  A    between atoms: N1_12  and  C7_14 
REMARK    7  A    between atoms: C7_14  and  C8_15 
REMARK    8  A    between atoms: C8_15  and  C9_16 
ROOT
HETATM    1  C5  UNL     1       5.353  14.191  19.538  1.00  0.00     0.219 C 
ENDROOT
BRANCH   1   2
HETATM    2  C2  UNL     1       4.984  13.537  18.238  1.00  0.00     0.008 C 
HETATM    3  C1  UNL     1       3.626  12.868  18.302  1.00  0.00     0.020 C 
HETATM    4  C3  UNL     1       6.009  12.455  17.972  1.00  0.00     0.020 C 
BRANCH   2   5
HETATM    5  C4  UNL     1       5.015  14.523  17.109  1.00  0.00     0.175 C 
BRANCH   5   6
HETATM    6  O1  UNL     1       3.877  15.337  17.171  1.00  0.00    -0.400 OA
ATOM      7  H1  UNL     1       4.061  16.095  17.713  1.00  0.00     0.209 HD
ENDBRANCH   5   6
ENDBRANCH   2   5
ENDBRANCH   1   2
BRANCH   1   8
HETATM    8  O2  UNL     1       5.666  15.508  19.358  1.00  0.00    -0.385 OA
ATOM      9  H2  UNL     1       4.978  15.964  18.886  1.00  0.00     0.210 HD
ENDBRANCH   1   8
BRANCH   1  10
HETATM   10  C6  UNL     1       4.362  14.028  20.600  1.00  0.00     0.247 C 
HETATM   11  O3  UNL     1       4.160  12.934  21.206  1.00  0.00    -0.271 OA
HETATM   12  N1  UNL     1       3.587  15.161  20.970  1.00  0.00    -0.358 N 
ATOM     13  H1  UNL     1       3.762  16.033  20.470  1.00  0.00     0.162 HD
BRANCH  12  14
HETATM   14  C7  UNL     1       2.583  15.174  21.985  1.00  0.00     0.133 C 
BRANCH  14  15
HETATM   15  C8  UNL     1       2.998  16.148  23.066  1.00  0.00     0.133 C 
BRANCH  15  16
HETATM   16  C9  UNL     1       4.277  15.704  23.677  1.00  0.00     0.174 C 
HETATM   17  O4  UNL     1       5.319  16.356  23.464  1.00  0.00    -0.648 OA
HETATM   18  O5  UNL     1       4.303  14.573  24.475  1.00  0.00    -0.648 OA
ENDBRANCH  15  16
ENDBRANCH  14  15
ENDBRANCH  12  14
ENDBRANCH   1  10
TORSDOF 8
ENDMDL
