MODEL 13
REMARK VINA RESULT: -6.088876594      5.405      8.607
REMARK  8 active torsions:
REMARK  status: ('A' for Active; 'I' for Inactive)
REMARK    1  A    between atoms: C2_2  and  C4_4 
REMARK    2  A    between atoms: C2_2  and  C5_7 
REMARK    3  A    between atoms: C4_4  and  O1_5 
REMARK    4  A    between atoms: C5_7  and  O2_8 
REMARK    5  A    between atoms: C5_7  and  C6_10 
REMARK       I    between atoms: C6_10  and  N1_12 
REMARK    6  A    between atoms: N1_12  and  C7_14 
REMARK    7  A    between atoms: C7_14  and  C8_15 
REMARK    8  A    between atoms: C8_15  and  C9_16 
ROOT
HETATM    1  C5  UNL     1       3.221  11.939  16.172  1.00  0.00     0.219 C 
ENDROOT
BRANCH   1   2
HETATM    2  C2  UNL     1       4.615  12.091  16.708  1.00  0.00     0.008 C 
HETATM    3  C1  UNL     1       5.309  10.754  16.875  1.00  0.00     0.020 C 
HETATM    4  C3  UNL     1       4.503  12.717  18.082  1.00  0.00     0.020 C 
BRANCH   2   5
HETATM    5  C4  UNL     1       5.437  12.988  15.832  1.00  0.00     0.175 C 
BRANCH   5   6
HETATM    6  O1  UNL     1       5.717  12.331  14.627  1.00  0.00    -0.400 OA
ATOM      7  H1  UNL     1       5.803  12.972  13.931  1.00  0.00     0.209 HD
ENDBRANCH   5   6
ENDBRANCH   2   5
ENDBRANCH   1   2
BRANCH   1   8
HETATM    8  O2  UNL     1       2.875  13.003  15.388  1.00  0.00    -0.385 OA
ATOM      9  H2  UNL     1       3.608  13.293  14.857  1.00  0.00     0.210 HD
ENDBRANCH   1   8
BRANCH   1  10
HETATM   10  C6  UNL     1       2.972  10.675  15.482  1.00  0.00     0.247 C 
HETATM   11  O3  UNL     1       2.628   9.611  16.075  1.00  0.00    -0.271 OA
HETATM   12  N1  UNL     1       3.123  10.646  14.068  1.00  0.00    -0.358 N 
ATOM     13  H1  UNL     1       3.402  11.512  13.607  1.00  0.00     0.162 HD
BRANCH  12  14
HETATM   14  C7  UNL     1       2.916   9.498  13.245  1.00  0.00     0.133 C 
BRANCH  14  15
HETATM   15  C8  UNL     1       3.809   9.607  12.027  1.00  0.00     0.133 C 
BRANCH  15  16
HETATM   16  C9  UNL     1       3.215  10.556  11.053  1.00  0.00     0.174 C 
HETATM   17  O4  UNL     1       2.272  11.293  11.408  1.00  0.00    -0.648 OA
HETATM   18  O5  UNL     1       3.708  10.617   9.761  1.00  0.00    -0.648 OA
ENDBRANCH  15  16
ENDBRANCH  14  15
ENDBRANCH  12  14
ENDBRANCH   1  10
TORSDOF 8
ENDMDL
