MODEL 2
REMARK VINA RESULT: -6.393777964      2.216      3.507
REMARK  8 active torsions:
REMARK  status: ('A' for Active; 'I' for Inactive)
REMARK    1  A    between atoms: C2_2  and  C4_4 
REMARK    2  A    between atoms: C2_2  and  C5_7 
REMARK    3  A    between atoms: C4_4  and  O1_5 
REMARK    4  A    between atoms: C5_7  and  O2_8 
REMARK    5  A    between atoms: C5_7  and  C6_10 
REMARK       I    between atoms: C6_10  and  N1_12 
REMARK    6  A    between atoms: N1_12  and  C7_14 
REMARK    7  A    between atoms: C7_14  and  C8_15 
REMARK    8  A    between atoms: C8_15  and  C9_16 
ROOT
HETATM    1  C5  UNL     1       4.015  13.173  16.465  1.00  0.00     0.219 C 
ENDROOT
BRANCH   1   2
HETATM    2  C2  UNL     1       4.986  12.147  15.956  1.00  0.00     0.008 C 
HETATM    3  C1  UNL     1       5.806  12.667  14.794  1.00  0.00     0.020 C 
HETATM    4  C3  UNL     1       4.176  10.973  15.448  1.00  0.00     0.020 C 
BRANCH   2   5
HETATM    5  C4  UNL     1       5.894  11.672  17.051  1.00  0.00     0.175 C 
BRANCH   5   6
HETATM    6  O1  UNL     1       5.217  10.737  17.845  1.00  0.00    -0.400 OA
ATOM      7  H1  UNL     1       5.588   9.875  17.702  1.00  0.00     0.209 HD
ENDBRANCH   5   6
ENDBRANCH   2   5
ENDBRANCH   1   2
BRANCH   1   8
HETATM    8  O2  UNL     1       2.978  12.584  17.132  1.00  0.00    -0.385 OA
ATOM      9  H2  UNL     1       2.256  13.191  17.251  1.00  0.00     0.210 HD
ENDBRANCH   1   8
BRANCH   1  10
HETATM   10  C6  UNL     1       4.619  14.234  17.267  1.00  0.00     0.247 C 
HETATM   11  O3  UNL     1       5.431  15.087  16.801  1.00  0.00    -0.271 OA
HETATM   12  N1  UNL     1       4.273  14.309  18.644  1.00  0.00    -0.358 N 
ATOM     13  H1  UNL     1       3.619  13.614  19.003  1.00  0.00     0.162 HD
BRANCH  12  14
HETATM   14  C7  UNL     1       4.770  15.282  19.564  1.00  0.00     0.133 C 
BRANCH  14  15
HETATM   15  C8  UNL     1       3.821  15.367  20.740  1.00  0.00     0.133 C 
BRANCH  15  16
HETATM   16  C9  UNL     1       4.199  14.358  21.762  1.00  0.00     0.174 C 
HETATM   17  O4  UNL     1       4.526  13.209  21.401  1.00  0.00    -0.648 OA
HETATM   18  O5  UNL     1       4.185  14.697  23.104  1.00  0.00    -0.648 OA
ENDBRANCH  15  16
ENDBRANCH  14  15
ENDBRANCH  12  14
ENDBRANCH   1  10
TORSDOF 8
ENDMDL
