MODEL 3
REMARK VINA RESULT: -6.384131065      0.710      1.317
REMARK  8 active torsions:
REMARK  status: ('A' for Active; 'I' for Inactive)
REMARK    1  A    between atoms: C2_2  and  C4_4 
REMARK    2  A    between atoms: C2_2  and  C5_7 
REMARK    3  A    between atoms: C4_4  and  O1_5 
REMARK    4  A    between atoms: C5_7  and  O2_8 
REMARK    5  A    between atoms: C5_7  and  C6_10 
REMARK       I    between atoms: C6_10  and  N1_12 
REMARK    6  A    between atoms: N1_12  and  C7_14 
REMARK    7  A    between atoms: C7_14  and  C8_15 
REMARK    8  A    between atoms: C8_15  and  C9_16 
ROOT
HETATM    1  C5  UNL     1       5.343  14.160  19.530  1.00  0.00     0.219 C 
ENDROOT
BRANCH   1   2
HETATM    2  C2  UNL     1       4.989  13.453  18.254  1.00  0.00     0.008 C 
HETATM    3  C1  UNL     1       6.030  12.422  17.868  1.00  0.00     0.020 C 
HETATM    4  C3  UNL     1       4.958  14.495  17.156  1.00  0.00     0.020 C 
BRANCH   2   5
HETATM    5  C4  UNL     1       3.640  12.806  18.349  1.00  0.00     0.175 C 
BRANCH   5   6
HETATM    6  O1  UNL     1       3.075  12.717  17.071  1.00  0.00    -0.400 OA
ATOM      7  H1  UNL     1       3.648  12.213  16.507  1.00  0.00     0.209 HD
ENDBRANCH   5   6
ENDBRANCH   2   5
ENDBRANCH   1   2
BRANCH   1   8
HETATM    8  O2  UNL     1       5.617  15.480  19.304  1.00  0.00    -0.385 OA
ATOM      9  H2  UNL     1       5.024  16.042  19.790  1.00  0.00     0.210 HD
ENDBRANCH   1   8
BRANCH   1  10
HETATM   10  C6  UNL     1       4.360  14.005  20.601  1.00  0.00     0.247 C 
HETATM   11  O3  UNL     1       4.166  12.917  21.219  1.00  0.00    -0.271 OA
HETATM   12  N1  UNL     1       3.585  15.140  20.966  1.00  0.00    -0.358 N 
ATOM     13  H1  UNL     1       3.754  16.007  20.457  1.00  0.00     0.162 HD
BRANCH  12  14
HETATM   14  C7  UNL     1       2.589  15.159  21.989  1.00  0.00     0.133 C 
BRANCH  14  15
HETATM   15  C8  UNL     1       3.008  16.148  23.055  1.00  0.00     0.133 C 
BRANCH  15  16
HETATM   16  C9  UNL     1       4.283  15.706  23.676  1.00  0.00     0.174 C 
HETATM   17  O4  UNL     1       5.327  16.355  23.464  1.00  0.00    -0.648 OA
HETATM   18  O5  UNL     1       4.305  14.579  24.480  1.00  0.00    -0.648 OA
ENDBRANCH  15  16
ENDBRANCH  14  15
ENDBRANCH  12  14
ENDBRANCH   1  10
TORSDOF 8
ENDMDL
