MODEL 3
REMARK VINA RESULT: -9.896791099      2.620      5.085
REMARK  8 active torsions:
REMARK  status: ('A' for Active; 'I' for Inactive)
REMARK    1  A    between atoms: N5_13  and  C6_14 
REMARK    2  A    between atoms: C7_16  and  C8_17 
REMARK    3  A    between atoms: C8_17  and  O2_18 
REMARK    4  A    between atoms: O2_18  and  P1_19 
REMARK    5  A    between atoms: P1_19  and  O5_22 
REMARK    6  A    between atoms: O5_22  and  P2_23 
REMARK    7  A    between atoms: C9_27  and  O9_28 
REMARK    8  A    between atoms: C10_30  and  O10_31 
ROOT
HETATM    1  C6  UNL     1       2.121  17.683  20.784  1.00  0.00     0.262 C 
HETATM    2  O1  UNL     1       1.785  16.412  21.200  1.00  0.00    -0.353 OA
HETATM    3  C7  UNL     1       2.857  15.584  21.042  1.00  0.00     0.180 C 
HETATM    4  C9  UNL     1       4.075  16.456  20.854  1.00  0.00     0.182 C 
HETATM    5  C10 UNL     1       3.414  17.576  20.039  1.00  0.00     0.198 C 
ENDROOT
BRANCH   1   6
HETATM    6  N5  UNL     1       2.154  18.551  21.916  1.00  0.00    -0.297 N 
HETATM    7  C3  UNL     1       1.167  19.315  22.415  1.00  0.00     0.142 A 
HETATM    8  N3  UNL     1      -0.096  19.504  22.040  1.00  0.00    -0.336 N 
HETATM    9  C4  UNL     1       1.632  19.989  23.509  1.00  0.00     0.119 A 
HETATM   10  C2  UNL     1      -0.909  20.338  22.713  1.00  0.00     0.183 A 
ATOM     11  H3  UNL     1      -0.456  19.006  21.225  1.00  0.00     0.168 HD
HETATM   12  N2  UNL     1      -0.472  21.005  23.784  1.00  0.00    -0.339 N 
HETATM   13  C1  UNL     1       0.788  20.841  24.192  1.00  0.00     0.148 A 
ATOM     14  H2  UNL     1      -1.097  21.634  24.287  1.00  0.00     0.167 HD
HETATM   15  N1  UNL     1       1.316  21.515  25.316  1.00  0.00    -0.080 NA
HETATM   16  N4  UNL     1       2.900  19.632  23.671  1.00  0.00    -0.346 N 
HETATM   17  C5  UNL     1       3.214  18.769  22.715  1.00  0.00     0.188 A 
ATOM     18  H4  UNL     1       3.525  19.964  24.405  1.00  0.00     0.167 HD
ENDBRANCH   1   6
BRANCH   5  19
HETATM   19  O10 UNL     1       3.132  17.021  18.784  1.00  0.00    -0.388 OA
ATOM     20  H10 UNL     1       3.322  17.683  18.130  1.00  0.00     0.210 HD
ENDBRANCH   5  19
BRANCH   3  21
HETATM   21  C8  UNL     1       3.034  14.555  22.113  1.00  0.00     0.216 C 
BRANCH  21  22
HETATM   22  O2  UNL     1       4.270  14.561  22.704  1.00  0.00    -0.287 OA
BRANCH  22  23
HETATM   23  P1  UNL     1       4.102  15.360  24.208  1.00  0.00     0.418 P 
HETATM   24  O3  UNL     1       4.439  14.376  25.296  1.00  0.00    -0.624 OA
HETATM   25  O4  UNL     1       2.516  15.869  24.449  1.00  0.00    -0.624 OA
BRANCH  23  26
HETATM   26  O5  UNL     1       5.172  16.645  24.255  1.00  0.00    -0.173 OA
BRANCH  26  27
HETATM   27  P2  UNL     1       5.214  17.431  25.729  1.00  0.00     0.431 P 
HETATM   28  O6  UNL     1       6.274  16.858  26.650  1.00  0.00    -0.616 OA
HETATM   29  O7  UNL     1       3.741  17.324  26.560  1.00  0.00    -0.616 OA
HETATM   30  O8  UNL     1       5.520  19.082  25.424  1.00  0.00    -0.616 OA
ENDBRANCH  26  27
ENDBRANCH  23  26
ENDBRANCH  22  23
ENDBRANCH  21  22
ENDBRANCH   3  21
BRANCH   4  31
HETATM   31  O9  UNL     1       5.090  15.843  20.158  1.00  0.00    -0.390 OA
ATOM     32  H9  UNL     1       4.887  14.954  19.893  1.00  0.00     0.210 HD
ENDBRANCH   4  31
TORSDOF 8
ENDMDL
