MODEL 1
REMARK VINA RESULT: -10.146168673      0.000      0.000
REMARK  8 active torsions:
REMARK  status: ('A' for Active; 'I' for Inactive)
REMARK    1  A    between atoms: N5_13  and  C6_14 
REMARK    2  A    between atoms: C7_16  and  C8_17 
REMARK    3  A    between atoms: C8_17  and  O2_18 
REMARK    4  A    between atoms: O2_18  and  P1_19 
REMARK    5  A    between atoms: P1_19  and  O5_22 
REMARK    6  A    between atoms: O5_22  and  P2_23 
REMARK    7  A    between atoms: C9_27  and  O9_28 
REMARK    8  A    between atoms: C10_30  and  O10_31 
ROOT
HETATM    1  C6  UNL     1       4.257  17.800  24.124  1.00  0.00     0.262 C 
HETATM    2  O1  UNL     1       4.063  17.059  22.976  1.00  0.00    -0.353 OA
HETATM    3  C7  UNL     1       3.986  15.736  23.297  1.00  0.00     0.180 C 
HETATM    4  C9  UNL     1       3.749  15.647  24.785  1.00  0.00     0.182 C 
HETATM    5  C10 UNL     1       4.616  16.839  25.213  1.00  0.00     0.198 C 
ENDROOT
BRANCH   1   6
HETATM    6  N5  UNL     1       3.091  18.581  24.377  1.00  0.00    -0.297 N 
HETATM    7  C3  UNL     1       2.093  18.894  23.533  1.00  0.00     0.142 A 
HETATM    8  N3  UNL     1       1.874  18.595  22.254  1.00  0.00    -0.336 N 
HETATM    9  C4  UNL     1       1.174  19.662  24.191  1.00  0.00     0.119 A 
HETATM   10  C2  UNL     1       0.777  19.034  21.610  1.00  0.00     0.183 A 
ATOM     11  H3  UNL     1       2.552  18.020  21.752  1.00  0.00     0.168 HD
HETATM   12  N2  UNL     1      -0.130  19.786  22.236  1.00  0.00    -0.339 N 
HETATM   13  C1  UNL     1       0.054  20.106  23.519  1.00  0.00     0.148 A 
ATOM     14  H2  UNL     1      -0.958  20.113  21.738  1.00  0.00     0.167 HD
HETATM   15  N1  UNL     1      -0.865  20.899  24.243  1.00  0.00    -0.080 NA
HETATM   16  N4  UNL     1       1.618  19.815  25.433  1.00  0.00    -0.346 N 
HETATM   17  C5  UNL     1       2.768  19.166  25.545  1.00  0.00     0.188 A 
ATOM     18  H4  UNL     1       1.154  20.341  26.173  1.00  0.00     0.167 HD
ENDBRANCH   1   6
BRANCH   5  19
HETATM   19  O10 UNL     1       5.943  16.441  25.003  1.00  0.00    -0.388 OA
ATOM     20  H10 UNL     1       6.450  17.223  24.822  1.00  0.00     0.210 HD
ENDBRANCH   5  19
BRANCH   3  21
HETATM   21  C8  UNL     1       3.002  14.942  22.499  1.00  0.00     0.216 C 
BRANCH  21  22
HETATM   22  O2  UNL     1       3.055  15.168  21.148  1.00  0.00    -0.287 OA
BRANCH  22  23
HETATM   23  P1  UNL     1       4.240  14.112  20.510  1.00  0.00     0.418 P 
HETATM   24  O3  UNL     1       4.631  13.144  21.595  1.00  0.00    -0.624 OA
HETATM   25  O4  UNL     1       5.621  14.957  20.053  1.00  0.00    -0.624 OA
BRANCH  23  26
HETATM   26  O5  UNL     1       3.577  13.278  19.221  1.00  0.00    -0.173 OA
BRANCH  26  27
HETATM   27  P2  UNL     1       4.714  12.644  18.173  1.00  0.00     0.431 P 
HETATM   28  O6  UNL     1       6.002  12.275  18.885  1.00  0.00    -0.616 OA
HETATM   29  O7  UNL     1       5.136  13.731  16.943  1.00  0.00    -0.616 OA
HETATM   30  O8  UNL     1       4.025  11.267  17.436  1.00  0.00    -0.616 OA
ENDBRANCH  26  27
ENDBRANCH  23  26
ENDBRANCH  22  23
ENDBRANCH  21  22
ENDBRANCH   3  21
BRANCH   4  31
HETATM   31  O9  UNL     1       4.182  14.467  25.342  1.00  0.00    -0.390 OA
ATOM     32  H9  UNL     1       3.518  14.021  25.854  1.00  0.00     0.210 HD
ENDBRANCH   4  31
TORSDOF 8
ENDMDL
