MODEL 2
REMARK VINA RESULT: -10.016741118      2.027      3.992
REMARK  8 active torsions:
REMARK  status: ('A' for Active; 'I' for Inactive)
REMARK    1  A    between atoms: N5_13  and  C6_14 
REMARK    2  A    between atoms: C7_16  and  C8_17 
REMARK    3  A    between atoms: C8_17  and  O2_18 
REMARK    4  A    between atoms: O2_18  and  P1_19 
REMARK    5  A    between atoms: P1_19  and  O5_22 
REMARK    6  A    between atoms: O5_22  and  P2_23 
REMARK    7  A    between atoms: C9_27  and  O9_28 
REMARK    8  A    between atoms: C10_30  and  O10_31 
ROOT
HETATM    1  C6  UNL     1       1.408  17.910  22.855  1.00  0.00     0.262 C 
HETATM    2  O1  UNL     1       1.177  16.554  22.744  1.00  0.00    -0.353 OA
HETATM    3  C7  UNL     1       1.367  16.165  21.451  1.00  0.00     0.180 C 
HETATM    4  C9  UNL     1       2.124  17.271  20.756  1.00  0.00     0.182 C 
HETATM    5  C10 UNL     1       1.466  18.462  21.466  1.00  0.00     0.198 C 
ENDROOT
BRANCH   1   6
HETATM    6  N5  UNL     1       2.585  18.120  23.632  1.00  0.00    -0.297 N 
HETATM    7  C3  UNL     1       3.309  17.218  24.317  1.00  0.00     0.142 A 
HETATM    8  N3  UNL     1       3.176  15.904  24.487  1.00  0.00    -0.336 N 
HETATM    9  C4  UNL     1       4.359  17.851  24.920  1.00  0.00     0.119 A 
HETATM   10  C2  UNL     1       4.047  15.202  25.234  1.00  0.00     0.183 A 
ATOM     11  H3  UNL     1       2.396  15.420  24.040  1.00  0.00     0.168 HD
HETATM   12  N2  UNL     1       5.078  15.804  25.831  1.00  0.00    -0.339 N 
HETATM   13  C1  UNL     1       5.246  17.120  25.683  1.00  0.00     0.148 A 
ATOM     14  H2  UNL     1       5.732  15.262  26.394  1.00  0.00     0.167 HD
HETATM   15  N1  UNL     1       6.314  17.821  26.287  1.00  0.00    -0.080 NA
HETATM   16  N4  UNL     1       4.269  19.136  24.600  1.00  0.00    -0.346 N 
HETATM   17  C5  UNL     1       3.205  19.298  23.827  1.00  0.00     0.188 A 
ATOM     18  H4  UNL     1       4.909  19.872  24.898  1.00  0.00     0.167 HD
ENDBRANCH   1   6
BRANCH   5  19
HETATM   19  O10 UNL     1       0.154  18.520  20.980  1.00  0.00    -0.388 OA
ATOM     20  H10 UNL     1       0.198  18.797  20.073  1.00  0.00     0.210 HD
ENDBRANCH   5  19
BRANCH   3  21
HETATM   21  C8  UNL     1       2.000  14.822  21.275  1.00  0.00     0.216 C 
BRANCH  21  22
HETATM   22  O2  UNL     1       3.176  14.656  21.960  1.00  0.00    -0.287 OA
BRANCH  22  23
HETATM   23  P1  UNL     1       4.309  13.998  20.860  1.00  0.00     0.418 P 
HETATM   24  O3  UNL     1       5.091  12.933  21.581  1.00  0.00    -0.624 OA
HETATM   25  O4  UNL     1       5.398  15.171  20.340  1.00  0.00    -0.624 OA
BRANCH  23  26
HETATM   26  O5  UNL     1       3.479  13.320  19.577  1.00  0.00    -0.173 OA
BRANCH  26  27
HETATM   27  P2  UNL     1       4.454  12.928  18.277  1.00  0.00     0.431 P 
HETATM   28  O6  UNL     1       5.771  12.318  18.716  1.00  0.00    -0.616 OA
HETATM   29  O7  UNL     1       4.838  14.279  17.328  1.00  0.00    -0.616 OA
HETATM   30  O8  UNL     1       3.588  11.833  17.295  1.00  0.00    -0.616 OA
ENDBRANCH  26  27
ENDBRANCH  23  26
ENDBRANCH  22  23
ENDBRANCH  21  22
ENDBRANCH   3  21
BRANCH   4  31
HETATM   31  O9  UNL     1       1.923  17.306  19.396  1.00  0.00    -0.390 OA
ATOM     32  H9  UNL     1       1.441  18.069  19.102  1.00  0.00     0.210 HD
ENDBRANCH   4  31
TORSDOF 8
ENDMDL
