MODEL 14
REMARK VINA RESULT: -5.429958097      1.155      1.325
REMARK  4 active torsions:
REMARK  status: ('A' for Active; 'I' for Inactive)
REMARK    1  A    between atoms: N1_1  and  C1_5 
REMARK    2  A    between atoms: C1_5  and  C2_6 
REMARK    3  A    between atoms: C1_5  and  C5_15 
REMARK    4  A    between atoms: C2_6  and  C3_7 
ROOT
HETATM    1  C2  UNL     1     -11.868  25.565  42.045  1.00  0.00     0.107 C 
ENDROOT
BRANCH   1   2
HETATM    2  C1  UNL     1     -10.605  26.139  42.638  1.00  0.00     0.289 C 
BRANCH   2   3
HETATM    3  N1  UNL     1      -9.939  25.087  43.370  1.00  0.00    -0.065 N 
ATOM      4  H13 UNL     1      -9.102  24.746  42.899  1.00  0.00     0.275 HD
ATOM      5  H12 UNL     1      -9.489  25.422  44.221  1.00  0.00     0.275 HD
ATOM      6  H11 UNL     1     -10.621  24.350  43.548  1.00  0.00     0.275 HD
ENDBRANCH   2   3
BRANCH   2   7
HETATM    7  C5  UNL     1     -10.848  27.302  43.491  1.00  0.00     0.204 C 
HETATM    8  O2  UNL     1     -11.266  28.368  42.994  1.00  0.00    -0.646 OA
HETATM    9  O3  UNL     1     -10.624  27.250  44.851  1.00  0.00    -0.646 OA
ENDBRANCH   2   7
ENDBRANCH   1   2
BRANCH   1  10
HETATM   10  C3  UNL     1     -11.814  25.605  40.535  1.00  0.00     0.088 A 
HETATM   11  N2  UNL     1     -11.405  24.566  39.823  1.00  0.00    -0.311 N 
HETATM   12  S1  UNL     1     -11.542  25.097  38.237  1.00  0.00     0.070 SA
ATOM     13  H2  UNL     1     -11.083  23.659  40.159  1.00  0.00     0.175 HD
HETATM   14  N3  UNL     1     -12.122  26.649  38.521  1.00  0.00    -0.278 N 
HETATM   15  C4  UNL     1     -12.198  26.717  39.855  1.00  0.00     0.275 A 
ATOM     16  H3  UNL     1     -12.360  27.368  37.838  1.00  0.00     0.179 HD
HETATM   17  O1  UNL     1     -12.621  27.815  40.389  1.00  0.00    -0.265 OA
ENDBRANCH   1  10
TORSDOF 4
ENDMDL
