MODEL 6
REMARK VINA RESULT: -6.300331432      1.617      1.889
REMARK  4 active torsions:
REMARK  status: ('A' for Active; 'I' for Inactive)
REMARK    1  A    between atoms: N1_1  and  C1_5 
REMARK    2  A    between atoms: C1_5  and  C2_6 
REMARK    3  A    between atoms: C1_5  and  C5_15 
REMARK    4  A    between atoms: C2_6  and  C3_7 
ROOT
HETATM    1  C2  UNL     1     -11.156  27.278  41.683  1.00  0.00     0.107 C 
ENDROOT
BRANCH   1   2
HETATM    2  C1  UNL     1     -11.552  26.518  42.924  1.00  0.00     0.289 C 
BRANCH   2   3
HETATM    3  N1  UNL     1     -12.744  27.134  43.460  1.00  0.00    -0.065 N 
ATOM      4  H13 UNL     1     -12.881  26.933  44.451  1.00  0.00     0.275 HD
ATOM      5  H12 UNL     1     -12.665  28.147  43.536  1.00  0.00     0.275 HD
ATOM      6  H11 UNL     1     -13.534  26.841  42.885  1.00  0.00     0.275 HD
ENDBRANCH   2   3
BRANCH   2   7
HETATM    7  C5  UNL     1     -10.490  26.465  43.929  1.00  0.00     0.204 C 
HETATM    8  O2  UNL     1      -9.523  25.690  43.779  1.00  0.00    -0.646 OA
HETATM    9  O3  UNL     1     -10.531  27.261  45.055  1.00  0.00    -0.646 OA
ENDBRANCH   2   7
ENDBRANCH   1   2
BRANCH   1  10
HETATM   10  C3  UNL     1     -11.676  26.584  40.445  1.00  0.00     0.088 A 
HETATM   11  N2  UNL     1     -11.319  25.347  40.136  1.00  0.00    -0.311 N 
HETATM   12  S1  UNL     1     -12.159  25.038  38.716  1.00  0.00     0.070 SA
ATOM     13  H2  UNL     1     -10.685  24.728  40.641  1.00  0.00     0.175 HD
HETATM   14  N3  UNL     1     -12.952  26.510  38.546  1.00  0.00    -0.278 N 
HETATM   15  C4  UNL     1     -12.543  27.212  39.608  1.00  0.00     0.275 A 
ATOM     16  H3  UNL     1     -13.594  26.799  37.808  1.00  0.00     0.179 HD
HETATM   17  O1  UNL     1     -12.993  28.415  39.758  1.00  0.00    -0.265 OA
ENDBRANCH   1  10
TORSDOF 4
ENDMDL
