MODEL 4
REMARK VINA RESULT: -6.725124549      2.848      4.874
REMARK  4 active torsions:
REMARK  status: ('A' for Active; 'I' for Inactive)
REMARK    1  A    between atoms: N1_1  and  C1_5 
REMARK    2  A    between atoms: C1_5  and  C2_6 
REMARK    3  A    between atoms: C1_5  and  C5_15 
REMARK    4  A    between atoms: C2_6  and  C3_7 
ROOT
HETATM    1  C2  UNL     1     -12.519  26.673  40.536  1.00  0.00     0.107 C 
ENDROOT
BRANCH   1   2
HETATM    2  C1  UNL     1     -11.793  26.752  39.215  1.00  0.00     0.289 C 
BRANCH   2   3
HETATM    3  N1  UNL     1     -12.264  27.928  38.520  1.00  0.00    -0.065 N 
ATOM      4  H13 UNL     1     -12.872  28.510  39.095  1.00  0.00     0.275 HD
ATOM      5  H12 UNL     1     -11.527  28.615  38.363  1.00  0.00     0.275 HD
ATOM      6  H11 UNL     1     -12.711  27.623  37.655  1.00  0.00     0.275 HD
ENDBRANCH   2   3
BRANCH   2   7
HETATM    7  C5  UNL     1     -11.961  25.553  38.394  1.00  0.00     0.204 C 
HETATM    8  O2  UNL     1     -10.962  24.908  38.016  1.00  0.00    -0.646 OA
HETATM    9  O3  UNL     1     -13.213  25.110  38.022  1.00  0.00    -0.646 OA
ENDBRANCH   2   7
ENDBRANCH   1   2
BRANCH   1  10
HETATM   10  C3  UNL     1     -11.552  26.372  41.657  1.00  0.00     0.088 A 
HETATM   11  N2  UNL     1     -11.183  25.134  41.949  1.00  0.00    -0.311 N 
HETATM   12  S1  UNL     1     -10.115  25.332  43.228  1.00  0.00     0.070 SA
ATOM     13  H2  UNL     1     -11.479  24.267  41.502  1.00  0.00     0.175 HD
HETATM   14  N3  UNL     1     -10.164  27.006  43.364  1.00  0.00    -0.278 N 
HETATM   15  C4  UNL     1     -11.016  27.375  42.402  1.00  0.00     0.275 A 
ATOM     16  H3  UNL     1      -9.663  27.601  44.024  1.00  0.00     0.179 HD
HETATM   17  O1  UNL     1     -11.266  28.635  42.254  1.00  0.00    -0.265 OA
ENDBRANCH   1  10
TORSDOF 4
ENDMDL
