MODEL 1
REMARK VINA RESULT: -7.455942286      0.000      0.000
REMARK  4 active torsions:
REMARK  status: ('A' for Active; 'I' for Inactive)
REMARK    1  A    between atoms: N1_1  and  C1_5 
REMARK    2  A    between atoms: C1_5  and  C2_6 
REMARK    3  A    between atoms: C1_5  and  C5_15 
REMARK    4  A    between atoms: C2_6  and  C3_7 
ROOT
HETATM    1  C2  UNL     1     -11.673  25.879  42.800  1.00  0.00     0.107 C 
ENDROOT
BRANCH   1   2
HETATM    2  C1  UNL     1     -10.291  26.145  43.344  1.00  0.00     0.289 C 
BRANCH   2   3
HETATM    3  N1  UNL     1      -9.495  24.958  43.136  1.00  0.00    -0.065 N 
ATOM      4  H13 UNL     1      -8.493  25.140  43.183  1.00  0.00     0.275 HD
ATOM      5  H12 UNL     1      -9.551  24.303  43.916  1.00  0.00     0.275 HD
ATOM      6  H11 UNL     1      -9.779  24.541  42.250  1.00  0.00     0.275 HD
ENDBRANCH   2   3
BRANCH   2   7
HETATM    7  C5  UNL     1     -10.294  26.536  44.754  1.00  0.00     0.204 C 
HETATM    8  O2  UNL     1     -10.919  27.553  45.120  1.00  0.00    -0.646 OA
HETATM    9  O3  UNL     1      -9.614  25.801  45.701  1.00  0.00    -0.646 OA
ENDBRANCH   2   7
ENDBRANCH   1   2
BRANCH   1  10
HETATM   10  C3  UNL     1     -11.716  26.129  41.310  1.00  0.00     0.088 A 
HETATM   11  N2  UNL     1     -11.539  25.153  40.433  1.00  0.00    -0.311 N 
HETATM   12  S1  UNL     1     -11.693  25.925  38.951  1.00  0.00     0.070 SA
ATOM     13  H2  UNL     1     -11.354  24.168  40.615  1.00  0.00     0.175 HD
HETATM   14  N3  UNL     1     -11.981  27.491  39.489  1.00  0.00    -0.278 N 
HETATM   15  C4  UNL     1     -11.953  27.375  40.821  1.00  0.00     0.275 A 
ATOM     16  H3  UNL     1     -12.140  28.330  38.932  1.00  0.00     0.179 HD
HETATM   17  O1  UNL     1     -12.146  28.437  41.532  1.00  0.00    -0.265 OA
ENDBRANCH   1  10
TORSDOF 4
ENDMDL
