MODEL 5
REMARK VINA RESULT: -6.450107595      2.796      4.955
REMARK  4 active torsions:
REMARK  status: ('A' for Active; 'I' for Inactive)
REMARK    1  A    between atoms: N1_1  and  C1_5 
REMARK    2  A    between atoms: C1_5  and  C2_6 
REMARK    3  A    between atoms: C1_5  and  C5_15 
REMARK    4  A    between atoms: C2_6  and  C3_7 
ROOT
HETATM    1  C2  UNL     1     -11.693  26.996  39.937  1.00  0.00     0.107 C 
ENDROOT
BRANCH   1   2
HETATM    2  C1  UNL     1     -12.390  25.835  39.270  1.00  0.00     0.289 C 
BRANCH   2   3
HETATM    3  N1  UNL     1     -11.410  25.121  38.484  1.00  0.00    -0.065 N 
ATOM      4  H13 UNL     1     -11.580  25.193  37.481  1.00  0.00     0.275 HD
ATOM      5  H12 UNL     1     -10.492  25.565  38.499  1.00  0.00     0.275 HD
ATOM      6  H11 UNL     1     -11.387  24.156  38.813  1.00  0.00     0.275 HD
ENDBRANCH   2   3
BRANCH   2   7
HETATM    7  C5  UNL     1     -13.528  26.245  38.447  1.00  0.00     0.204 C 
HETATM    8  O2  UNL     1     -14.367  25.400  38.074  1.00  0.00    -0.646 OA
HETATM    9  O3  UNL     1     -13.698  27.559  38.065  1.00  0.00    -0.646 OA
ENDBRANCH   2   7
ENDBRANCH   1   2
BRANCH   1  10
HETATM   10  C3  UNL     1     -11.297  26.638  41.351  1.00  0.00     0.088 A 
HETATM   11  N2  UNL     1     -10.882  25.423  41.674  1.00  0.00    -0.311 N 
HETATM   12  S1  UNL     1     -10.559  25.541  43.316  1.00  0.00     0.070 SA
ATOM     13  H2  UNL     1     -10.783  24.609  41.068  1.00  0.00     0.175 HD
HETATM   14  N3  UNL     1     -10.965  27.154  43.557  1.00  0.00    -0.278 N 
HETATM   15  C4  UNL     1     -11.344  27.567  42.342  1.00  0.00     0.275 A 
ATOM     16  H3  UNL     1     -10.930  27.691  44.423  1.00  0.00     0.179 HD
HETATM   17  O1  UNL     1     -11.724  28.795  42.203  1.00  0.00    -0.265 OA
ENDBRANCH   1  10
TORSDOF 4
ENDMDL
