MODEL 2
REMARK VINA RESULT: -6.961541723      1.506      1.964
REMARK  4 active torsions:
REMARK  status: ('A' for Active; 'I' for Inactive)
REMARK    1  A    between atoms: N1_1  and  C1_5 
REMARK    2  A    between atoms: C1_5  and  C2_6 
REMARK    3  A    between atoms: C1_5  and  C5_15 
REMARK    4  A    between atoms: C2_6  and  C3_7 
ROOT
HETATM    1  C2  UNL     1     -11.849  26.252  42.694  1.00  0.00     0.107 C 
ENDROOT
BRANCH   1   2
HETATM    2  C1  UNL     1     -10.419  26.134  43.161  1.00  0.00     0.289 C 
BRANCH   2   3
HETATM    3  N1  UNL     1      -9.972  24.788  42.885  1.00  0.00    -0.065 N 
ATOM      4  H13 UNL     1     -10.426  24.092  43.475  1.00  0.00     0.275 HD
ATOM      5  H12 UNL     1     -10.301  24.439  41.985  1.00  0.00     0.275 HD
ATOM      6  H11 UNL     1      -8.956  24.773  42.967  1.00  0.00     0.275 HD
ENDBRANCH   2   3
BRANCH   2   7
HETATM    7  C5  UNL     1     -10.248  26.466  44.575  1.00  0.00     0.204 C 
HETATM    8  O2  UNL     1      -9.494  25.777  45.293  1.00  0.00    -0.646 OA
HETATM    9  O3  UNL     1     -10.906  27.536  45.143  1.00  0.00    -0.646 OA
ENDBRANCH   2   7
ENDBRANCH   1   2
BRANCH   1  10
HETATM   10  C3  UNL     1     -11.908  26.402  41.191  1.00  0.00     0.088 A 
HETATM   11  N2  UNL     1     -11.769  27.578  40.601  1.00  0.00    -0.311 N 
HETATM   12  S1  UNL     1     -11.894  27.216  38.967  1.00  0.00     0.070 SA
ATOM     13  H2  UNL     1     -11.620  28.489  41.036  1.00  0.00     0.175 HD
HETATM   14  N3  UNL     1     -12.125  25.555  39.075  1.00  0.00    -0.278 N 
HETATM   15  C4  UNL     1     -12.097  25.319  40.391  1.00  0.00     0.275 A 
ATOM     16  H3  UNL     1     -12.256  24.885  38.317  1.00  0.00     0.179 HD
HETATM   17  O1  UNL     1     -12.252  24.102  40.799  1.00  0.00    -0.265 OA
ENDBRANCH   1  10
TORSDOF 4
ENDMDL
