MODEL 13
REMARK VINA RESULT: -6.246917815      1.026      1.411
REMARK  4 active torsions:
REMARK  status: ('A' for Active; 'I' for Inactive)
REMARK    1  A    between atoms: N1_1  and  C1_5 
REMARK    2  A    between atoms: C1_5  and  C2_6 
REMARK    3  A    between atoms: C1_5  and  C5_15 
REMARK    4  A    between atoms: C2_6  and  C3_7 
ROOT
HETATM    1  C2  UNL     1     -30.148  -5.719  42.305  1.00  0.00     0.107 C 
ENDROOT
BRANCH   1   2
HETATM    2  C1  UNL     1     -30.905  -4.511  42.719  1.00  0.00     0.289 C 
BRANCH   2   3
HETATM    3  N1  UNL     1     -30.734  -4.181  44.106  1.00  0.00    -0.065 N 
ATOM      4  H13 UNL     1     -30.016  -3.466  44.223  1.00  0.00     0.275 HD
ATOM      5  H12 UNL     1     -31.542  -3.666  44.458  1.00  0.00     0.275 HD
ATOM      6  H11 UNL     1     -30.537  -4.991  44.693  1.00  0.00     0.275 HD
ENDBRANCH   2   3
BRANCH   2   7
HETATM    7  C5  UNL     1     -30.535  -3.309  41.914  1.00  0.00     0.204 C 
HETATM    8  O2  UNL     1     -30.046  -2.274  42.441  1.00  0.00    -0.646 OA
HETATM    9  O3  UNL     1     -30.734  -3.332  40.550  1.00  0.00    -0.646 OA
ENDBRANCH   2   7
ENDBRANCH   1   2
BRANCH   1  10
HETATM   10  C3  UNL     1     -31.049  -6.899  42.087  1.00  0.00     0.088 A 
HETATM   11  N2  UNL     1     -32.048  -7.081  42.987  1.00  0.00    -0.311 N 
HETATM   12  S1  UNL     1     -32.845  -8.437  42.408  1.00  0.00     0.070 SA
ATOM     13  H2  UNL     1     -32.262  -6.526  43.817  1.00  0.00     0.175 HD
HETATM   14  N3  UNL     1     -31.903  -8.742  41.049  1.00  0.00    -0.278 N 
HETATM   15  C4  UNL     1     -30.991  -7.776  41.085  1.00  0.00     0.275 A 
ATOM     16  H3  UNL     1     -32.007  -9.489  40.363  1.00  0.00     0.179 HD
HETATM   17  O1  UNL     1     -30.109  -7.755  40.146  1.00  0.00    -0.265 OA
ENDBRANCH   1  10
TORSDOF 4
ENDMDL
