MODEL 1
REMARK VINA RESULT: -7.140586955      0.000      0.000
REMARK  4 active torsions:
REMARK  status: ('A' for Active; 'I' for Inactive)
REMARK    1  A    between atoms: N1_1  and  C1_5 
REMARK    2  A    between atoms: C1_5  and  C2_6 
REMARK    3  A    between atoms: C1_5  and  C5_15 
REMARK    4  A    between atoms: C2_6  and  C3_7 
ROOT
HETATM    1  C2  UNL     1     -30.396  -4.920  42.528  1.00  0.00     0.107 C 
ENDROOT
BRANCH   1   2
HETATM    2  C1  UNL     1     -31.153  -3.898  43.294  1.00  0.00     0.289 C 
BRANCH   2   3
HETATM    3  N1  UNL     1     -31.257  -4.198  44.695  1.00  0.00    -0.065 N 
ATOM      4  H13 UNL     1     -32.183  -3.956  45.049  1.00  0.00     0.275 HD
ATOM      5  H12 UNL     1     -31.276  -5.206  44.848  1.00  0.00     0.275 HD
ATOM      6  H11 UNL     1     -30.528  -3.759  45.257  1.00  0.00     0.275 HD
ENDBRANCH   2   3
BRANCH   2   7
HETATM    7  C5  UNL     1     -30.557  -2.536  43.161  1.00  0.00     0.204 C 
HETATM    8  O2  UNL     1     -29.797  -2.226  42.204  1.00  0.00    -0.646 OA
HETATM    9  O3  UNL     1     -30.847  -1.584  44.116  1.00  0.00    -0.646 OA
ENDBRANCH   2   7
ENDBRANCH   1   2
BRANCH   1  10
HETATM   10  C3  UNL     1     -31.233  -6.127  42.223  1.00  0.00     0.088 A 
HETATM   11  N2  UNL     1     -32.342  -6.311  42.982  1.00  0.00    -0.311 N 
HETATM   12  S1  UNL     1     -33.023  -7.701  42.339  1.00  0.00     0.070 SA
ATOM     13  H2  UNL     1     -32.680  -5.741  43.758  1.00  0.00     0.175 HD
HETATM   14  N3  UNL     1     -31.897  -8.017  41.130  1.00  0.00    -0.278 N 
HETATM   15  C4  UNL     1     -31.019  -7.027  41.263  1.00  0.00     0.275 A 
ATOM     16  H3  UNL     1     -31.889  -8.783  40.458  1.00  0.00     0.179 HD
HETATM   17  O1  UNL     1     -30.016  -7.008  40.454  1.00  0.00    -0.265 OA
ENDBRANCH   1  10
TORSDOF 4
ENDMDL
