MODEL 11
REMARK VINA RESULT: -6.288913055      1.321      1.416
REMARK  4 active torsions:
REMARK  status: ('A' for Active; 'I' for Inactive)
REMARK    1  A    between atoms: N1_1  and  C1_5 
REMARK    2  A    between atoms: C1_5  and  C2_6 
REMARK    3  A    between atoms: C1_5  and  C5_15 
REMARK    4  A    between atoms: C2_6  and  C3_7 
ROOT
HETATM    1  C2  UNL     1     -31.640  -5.340  41.838  1.00  0.00     0.107 C 
ENDROOT
BRANCH   1   2
HETATM    2  C1  UNL     1     -30.534  -4.910  42.729  1.00  0.00     0.289 C 
BRANCH   2   3
HETATM    3  N1  UNL     1     -29.236  -5.300  42.253  1.00  0.00    -0.065 N 
ATOM      4  H13 UNL     1     -28.947  -4.715  41.469  1.00  0.00     0.275 HD
ATOM      5  H12 UNL     1     -28.512  -5.047  42.926  1.00  0.00     0.275 HD
ATOM      6  H11 UNL     1     -29.175  -6.289  42.009  1.00  0.00     0.275 HD
ENDBRANCH   2   3
BRANCH   2   7
HETATM    7  C5  UNL     1     -30.519  -3.433  42.940  1.00  0.00     0.204 C 
HETATM    8  O2  UNL     1     -30.165  -2.629  42.036  1.00  0.00    -0.646 OA
HETATM    9  O3  UNL     1     -30.906  -2.929  44.164  1.00  0.00    -0.646 OA
ENDBRANCH   2   7
ENDBRANCH   1   2
BRANCH   1  10
HETATM   10  C3  UNL     1     -31.845  -6.826  41.872  1.00  0.00     0.088 A 
HETATM   11  N2  UNL     1     -32.817  -7.291  42.696  1.00  0.00    -0.311 N 
HETATM   12  S1  UNL     1     -32.777  -8.947  42.440  1.00  0.00     0.070 SA
ATOM     13  H2  UNL     1     -33.426  -6.761  43.320  1.00  0.00     0.175 HD
HETATM   14  N3  UNL     1     -31.539  -9.014  41.304  1.00  0.00    -0.278 N 
HETATM   15  C4  UNL     1     -31.190  -7.740  41.155  1.00  0.00     0.275 A 
ATOM     16  H3  UNL     1     -31.149  -9.835  40.841  1.00  0.00     0.179 HD
HETATM   17  O1  UNL     1     -30.239  -7.476  40.328  1.00  0.00    -0.265 OA
ENDBRANCH   1  10
TORSDOF 4
ENDMDL
