MODEL 4
REMARK VINA RESULT: -6.963457266      2.761      4.969
REMARK  4 active torsions:
REMARK  status: ('A' for Active; 'I' for Inactive)
REMARK    1  A    between atoms: N1_1  and  C1_5 
REMARK    2  A    between atoms: C1_5  and  C2_6 
REMARK    3  A    between atoms: C1_5  and  C5_15 
REMARK    4  A    between atoms: C2_6  and  C3_7 
ROOT
HETATM    1  C2  UNL     1     -31.498  -7.050  41.697  1.00  0.00     0.107 C 
ENDROOT
BRANCH   1   2
HETATM    2  C1  UNL     1     -32.650  -7.632  42.430  1.00  0.00     0.289 C 
BRANCH   2   3
HETATM    3  N1  UNL     1     -33.923  -7.190  41.931  1.00  0.00    -0.065 N 
ATOM      4  H13 UNL     1     -34.200  -7.734  41.113  1.00  0.00     0.275 HD
ATOM      5  H12 UNL     1     -34.674  -7.455  42.570  1.00  0.00     0.275 HD
ATOM      6  H11 UNL     1     -33.954  -6.191  41.730  1.00  0.00     0.275 HD
ENDBRANCH   2   3
BRANCH   2   7
HETATM    7  C5  UNL     1     -32.642  -9.124  42.405  1.00  0.00     0.204 C 
HETATM    8  O2  UNL     1     -32.326  -9.810  43.415  1.00  0.00    -0.646 OA
HETATM    9  O3  UNL     1     -32.992  -9.775  41.241  1.00  0.00    -0.646 OA
ENDBRANCH   2   7
ENDBRANCH   1   2
BRANCH   1  10
HETATM   10  C3  UNL     1     -31.155  -5.675  42.187  1.00  0.00     0.088 A 
HETATM   11  N2  UNL     1     -31.785  -5.252  43.313  1.00  0.00    -0.311 N 
HETATM   12  S1  UNL     1     -31.134  -3.728  43.567  1.00  0.00     0.070 SA
ATOM     13  H2  UNL     1     -32.485  -5.743  43.869  1.00  0.00     0.175 HD
HETATM   14  N3  UNL     1     -30.087  -3.660  42.253  1.00  0.00    -0.278 N 
HETATM   15  C4  UNL     1     -30.274  -4.830  41.651  1.00  0.00     0.275 A 
ATOM     16  H3  UNL     1     -29.459  -2.904  41.983  1.00  0.00     0.179 HD
HETATM   17  O1  UNL     1     -29.592  -5.067  40.584  1.00  0.00    -0.265 OA
ENDBRANCH   1  10
TORSDOF 4
ENDMDL
