MODEL 3
REMARK VINA RESULT: -7.048238954      2.779      5.011
REMARK  4 active torsions:
REMARK  status: ('A' for Active; 'I' for Inactive)
REMARK    1  A    between atoms: N1_1  and  C1_5 
REMARK    2  A    between atoms: C1_5  and  C2_6 
REMARK    3  A    between atoms: C1_5  and  C5_15 
REMARK    4  A    between atoms: C2_6  and  C3_7 
ROOT
HETATM    1  C2  UNL     1     -30.919  -7.629  41.230  1.00  0.00     0.107 C 
ENDROOT
BRANCH   1   2
HETATM    2  C1  UNL     1     -32.315  -8.132  41.210  1.00  0.00     0.289 C 
BRANCH   2   3
HETATM    3  N1  UNL     1     -32.646  -8.846  40.008  1.00  0.00    -0.065 N 
ATOM      4  H13 UNL     1     -33.651  -8.822  39.838  1.00  0.00     0.275 HD
ATOM      5  H12 UNL     1     -32.324  -8.336  39.185  1.00  0.00     0.275 HD
ATOM      6  H11 UNL     1     -32.299  -9.805  40.000  1.00  0.00     0.275 HD
ENDBRANCH   2   3
BRANCH   2   7
HETATM    7  C5  UNL     1     -32.611  -9.026  42.368  1.00  0.00     0.204 C 
HETATM    8  O2  UNL     1     -31.976  -8.949  43.455  1.00  0.00    -0.646 OA
HETATM    9  O3  UNL     1     -33.612  -9.967  42.248  1.00  0.00    -0.646 OA
ENDBRANCH   2   7
ENDBRANCH   1   2
BRANCH   1  10
HETATM   10  C3  UNL     1     -30.831  -6.238  41.786  1.00  0.00     0.088 A 
HETATM   11  N2  UNL     1     -31.673  -5.932  42.805  1.00  0.00    -0.311 N 
HETATM   12  S1  UNL     1     -31.265  -4.350  43.178  1.00  0.00     0.070 SA
ATOM     13  H2  UNL     1     -32.383  -6.522  43.239  1.00  0.00     0.175 HD
HETATM   14  N3  UNL     1     -30.046  -4.112  42.045  1.00  0.00    -0.278 N 
HETATM   15  C4  UNL     1     -29.991  -5.276  41.405  1.00  0.00     0.275 A 
ATOM     16  H3  UNL     1     -29.484  -3.276  41.886  1.00  0.00     0.179 HD
HETATM   17  O1  UNL     1     -29.129  -5.393  40.455  1.00  0.00    -0.265 OA
ENDBRANCH   1  10
TORSDOF 4
ENDMDL
