MODEL 2
REMARK VINA RESULT: -7.121949810      2.854      5.056
REMARK  4 active torsions:
REMARK  status: ('A' for Active; 'I' for Inactive)
REMARK    1  A    between atoms: N1_1  and  C1_5 
REMARK    2  A    between atoms: C1_5  and  C2_6 
REMARK    3  A    between atoms: C1_5  and  C5_15 
REMARK    4  A    between atoms: C2_6  and  C3_7 
ROOT
HETATM    1  C2  UNL     1     -30.455  -7.912  41.645  1.00  0.00     0.107 C 
ENDROOT
BRANCH   1   2
HETATM    2  C1  UNL     1     -31.073  -8.250  40.339  1.00  0.00     0.289 C 
BRANCH   2   3
HETATM    3  N1  UNL     1     -30.335  -9.234  39.597  1.00  0.00    -0.065 N 
ATOM      4  H13 UNL     1     -29.387  -8.909  39.408  1.00  0.00     0.275 HD
ATOM      5  H12 UNL     1     -30.122 -10.043  40.182  1.00  0.00     0.275 HD
ATOM      6  H11 UNL     1     -30.798  -9.521  38.735  1.00  0.00     0.275 HD
ENDBRANCH   2   3
BRANCH   2   7
HETATM    7  C5  UNL     1     -32.473  -8.744  40.486  1.00  0.00     0.204 C 
HETATM    8  O2  UNL     1     -33.164  -9.108  39.496  1.00  0.00    -0.646 OA
HETATM    9  O3  UNL     1     -33.030  -8.806  41.746  1.00  0.00    -0.646 OA
ENDBRANCH   2   7
ENDBRANCH   1   2
BRANCH   1  10
HETATM   10  C3  UNL     1     -30.627  -6.463  41.992  1.00  0.00     0.088 A 
HETATM   11  N2  UNL     1     -31.537  -6.168  42.955  1.00  0.00    -0.311 N 
HETATM   12  S1  UNL     1     -31.424  -4.501  43.091  1.00  0.00     0.070 SA
ATOM     13  H2  UNL     1     -32.142  -6.806  43.471  1.00  0.00     0.175 HD
HETATM   14  N3  UNL     1     -30.238  -4.216  41.935  1.00  0.00    -0.278 N 
HETATM   15  C4  UNL     1     -29.961  -5.431  41.473  1.00  0.00     0.275 A 
ATOM     16  H3  UNL     1     -29.828  -3.325  41.655  1.00  0.00     0.179 HD
HETATM   17  O1  UNL     1     -29.068  -5.529  40.550  1.00  0.00    -0.265 OA
ENDBRANCH   1  10
TORSDOF 4
ENDMDL
