MODEL 9
REMARK VINA RESULT: -6.423476335      1.576      1.722
REMARK  4 active torsions:
REMARK  status: ('A' for Active; 'I' for Inactive)
REMARK    1  A    between atoms: N1_1  and  C1_5 
REMARK    2  A    between atoms: C1_5  and  C2_6 
REMARK    3  A    between atoms: C1_5  and  C5_15 
REMARK    4  A    between atoms: C2_6  and  C3_7 
ROOT
HETATM    1  C2  UNL     1     -30.235  -5.229  42.580  1.00  0.00     0.107 C 
ENDROOT
BRANCH   1   2
HETATM    2  C1  UNL     1     -31.147  -4.173  43.089  1.00  0.00     0.289 C 
BRANCH   2   3
HETATM    3  N1  UNL     1     -31.527  -4.364  44.461  1.00  0.00    -0.065 N 
ATOM      4  H13 UNL     1     -31.130  -5.228  44.831  1.00  0.00     0.275 HD
ATOM      5  H12 UNL     1     -31.056  -3.690  45.065  1.00  0.00     0.275 HD
ATOM      6  H11 UNL     1     -32.537  -4.338  44.608  1.00  0.00     0.275 HD
ENDBRANCH   2   3
BRANCH   2   7
HETATM    7  C5  UNL     1     -30.557  -2.808  42.964  1.00  0.00     0.204 C 
HETATM    8  O2  UNL     1     -30.015  -2.407  41.899  1.00  0.00    -0.646 OA
HETATM    9  O3  UNL     1     -30.608  -1.956  44.047  1.00  0.00    -0.646 OA
ENDBRANCH   2   7
ENDBRANCH   1   2
BRANCH   1  10
HETATM   10  C3  UNL     1     -30.986  -6.361  41.945  1.00  0.00     0.088 A 
HETATM   11  N2  UNL     1     -30.349  -7.040  40.957  1.00  0.00    -0.311 N 
HETATM   12  S1  UNL     1     -31.455  -8.225  40.530  1.00  0.00     0.070 SA
ATOM     13  H2  UNL     1     -29.421  -6.870  40.568  1.00  0.00     0.175 HD
HETATM   14  N3  UNL     1     -32.691  -7.838  41.603  1.00  0.00    -0.278 N 
HETATM   15  C4  UNL     1     -32.206  -6.794  42.266  1.00  0.00     0.275 A 
ATOM     16  H3  UNL     1     -33.595  -8.295  41.718  1.00  0.00     0.179 HD
HETATM   17  O1  UNL     1     -32.951  -6.266  43.175  1.00  0.00    -0.265 OA
ENDBRANCH   1  10
TORSDOF 4
ENDMDL
