MODEL 17
REMARK VINA RESULT: -5.943414734      1.452      1.498
REMARK  4 active torsions:
REMARK  status: ('A' for Active; 'I' for Inactive)
REMARK    1  A    between atoms: N1_1  and  C1_5 
REMARK    2  A    between atoms: C1_5  and  C2_6 
REMARK    3  A    between atoms: C1_5  and  C5_15 
REMARK    4  A    between atoms: C2_6  and  C3_7 
ROOT
HETATM    1  C2  UNL     1     -31.766  -5.128  42.887  1.00  0.00     0.107 C 
ENDROOT
BRANCH   1   2
HETATM    2  C1  UNL     1     -30.680  -4.296  42.310  1.00  0.00     0.289 C 
BRANCH   2   3
HETATM    3  N1  UNL     1     -30.905  -3.940  40.937  1.00  0.00    -0.065 N 
ATOM      4  H13 UNL     1     -31.067  -2.937  40.845  1.00  0.00     0.275 HD
ATOM      5  H12 UNL     1     -30.044  -4.021  40.396  1.00  0.00     0.275 HD
ATOM      6  H11 UNL     1     -31.659  -4.470  40.501  1.00  0.00     0.275 HD
ENDBRANCH   2   3
BRANCH   2   7
HETATM    7  C5  UNL     1     -30.464  -3.035  43.080  1.00  0.00     0.204 C 
HETATM    8  O2  UNL     1     -29.832  -2.056  42.600  1.00  0.00    -0.646 OA
HETATM    9  O3  UNL     1     -30.973  -2.937  44.358  1.00  0.00    -0.646 OA
ENDBRANCH   2   7
ENDBRANCH   1   2
BRANCH   1  10
HETATM   10  C3  UNL     1     -31.659  -6.563  42.463  1.00  0.00     0.088 A 
HETATM   11  N2  UNL     1     -32.691  -7.378  42.798  1.00  0.00    -0.311 N 
HETATM   12  S1  UNL     1     -32.244  -8.854  42.140  1.00  0.00     0.070 SA
ATOM     13  H2  UNL     1     -33.535  -7.149  43.324  1.00  0.00     0.175 HD
HETATM   14  N3  UNL     1     -30.772  -8.410  41.459  1.00  0.00    -0.278 N 
HETATM   15  C4  UNL     1     -30.669  -7.121  41.765  1.00  0.00     0.275 A 
ATOM     16  H3  UNL     1     -30.116  -8.990  40.937  1.00  0.00     0.179 HD
HETATM   17  O1  UNL     1     -29.615  -6.496  41.369  1.00  0.00    -0.265 OA
ENDBRANCH   1  10
TORSDOF 4
ENDMDL
