MODEL 12
REMARK VINA RESULT: -7.875429117      1.957      4.580
REMARK  14 active torsions:
REMARK  status: ('A' for Active; 'I' for Inactive)
REMARK    1  A    between atoms: C2_2  and  C4_4 
REMARK    2  A    between atoms: C4_4  and  N1_5 
REMARK    3  A    between atoms: N1_5  and  C5_6 
REMARK    4  A    between atoms: N1_5  and  S2_28 
REMARK    5  A    between atoms: C5_6  and  C6_7 
REMARK    6  A    between atoms: C6_7  and  N2_8 
REMARK    7  A    between atoms: N2_8  and  C7_11 
REMARK    8  A    between atoms: C7_11  and  C8_12 
REMARK    9  A    between atoms: C8_12  and  N3_13 
REMARK   10  A    between atoms: N3_13  and  C9_14 
REMARK   11  A    between atoms: N3_13  and  S1_18 
REMARK   12  A    between atoms: C9_14  and  C10_15 
REMARK   13  A    between atoms: S1_18  and  C13_21 
REMARK   14  A    between atoms: S2_28  and  C19_31 
ROOT
HETATM    1  N2  UNL     1      12.861 -18.130 -18.186  1.00  0.00    -0.066 N 
ATOM      2  H21 UNL     1      13.251 -17.234 -17.894  1.00  0.00     0.277 HD
ATOM      3  H22 UNL     1      13.583 -18.407 -18.851  1.00  0.00     0.277 HD
ENDROOT
BRANCH   1   4
HETATM    4  C6  UNL     1      11.598 -17.969 -18.823  1.00  0.00     0.278 C 
BRANCH   4   5
HETATM    5  C5  UNL     1      10.398 -17.972 -17.922  1.00  0.00     0.103 C 
BRANCH   5   6
HETATM    6  N1  UNL     1       9.196 -18.337 -18.561  1.00  0.00    -0.284 N 
BRANCH   6   7
HETATM    7  C4  UNL     1       8.886 -19.723 -18.653  1.00  0.00     0.144 C 
BRANCH   7   8
HETATM    8  C2  UNL     1       9.467 -20.292 -19.922  1.00  0.00    -0.004 C 
HETATM    9  C1  UNL     1       8.611 -19.902 -21.135  1.00  0.00     0.011 C 
HETATM   10  C3  UNL     1       9.515 -21.793 -19.915  1.00  0.00     0.011 C 
ENDBRANCH   7   8
ENDBRANCH   6   7
BRANCH   6  11
HETATM   11  S2  UNL     1       7.860 -17.318 -18.404  1.00  0.00     0.264 S 
HETATM   12  O3  UNL     1       7.841 -16.275 -19.450  1.00  0.00    -0.200 OA
HETATM   13  O4  UNL     1       6.553 -18.090 -18.523  1.00  0.00    -0.200 OA
BRANCH  11  14
HETATM   14  C19 UNL     1       7.824 -16.493 -16.840  1.00  0.00     0.080 A 
HETATM   15  C20 UNL     1       7.740 -15.123 -16.729  1.00  0.00     0.027 A 
HETATM   16  C21 UNL     1       7.714 -14.516 -15.489  1.00  0.00     0.028 A 
HETATM   17  C22 UNL     1       7.770 -15.253 -14.312  1.00  0.00     0.046 A 
HETATM   18  N5  UNL     1       7.744 -14.647 -13.026  1.00  0.00    -0.102 NA
HETATM   19  C23 UNL     1       7.854 -16.625 -14.424  1.00  0.00     0.028 A 
HETATM   20  C24 UNL     1       7.881 -17.237 -15.683  1.00  0.00     0.027 A 
ENDBRANCH  11  14
ENDBRANCH   6  11
ENDBRANCH   5   6
ENDBRANCH   4   5
ENDBRANCH   1   4
BRANCH   1  21
HETATM   21  C7  UNL     1      12.773 -19.077 -17.056  1.00  0.00     0.278 C 
BRANCH  21  22
HETATM   22  C8  UNL     1      13.992 -19.928 -17.090  1.00  0.00     0.103 C 
BRANCH  22  23
HETATM   23  N3  UNL     1      13.812 -21.313 -16.965  1.00  0.00    -0.284 N 
BRANCH  23  24
HETATM   24  C9  UNL     1      13.189 -21.705 -15.748  1.00  0.00     0.144 C 
BRANCH  24  25
HETATM   25  C10 UNL     1      14.135 -22.315 -14.742  1.00  0.00    -0.004 C 
HETATM   26  C11 UNL     1      13.767 -21.739 -13.385  1.00  0.00     0.011 C 
HETATM   27  C12 UNL     1      15.568 -22.016 -15.029  1.00  0.00     0.011 C 
ENDBRANCH  24  25
ENDBRANCH  23  24
BRANCH  23  28
HETATM   28  S1  UNL     1      13.411 -22.202 -18.333  1.00  0.00     0.264 S 
HETATM   29  O1  UNL     1      12.234 -23.131 -18.127  1.00  0.00    -0.200 OA
HETATM   30  O2  UNL     1      12.936 -21.216 -19.397  1.00  0.00    -0.200 OA
BRANCH  28  31
HETATM   31  C13 UNL     1      14.766 -23.051 -19.035  1.00  0.00     0.080 A 
HETATM   32  C14 UNL     1      14.690 -23.576 -20.316  1.00  0.00     0.027 A 
HETATM   33  C15 UNL     1      15.739 -24.248 -20.894  1.00  0.00     0.028 A 
HETATM   34  C16 UNL     1      16.921 -24.432 -20.223  1.00  0.00     0.046 A 
HETATM   35  N4  UNL     1      18.028 -25.134 -20.817  1.00  0.00    -0.102 NA
HETATM   36  C17 UNL     1      17.021 -23.915 -18.942  1.00  0.00     0.028 A 
HETATM   37  C18 UNL     1      15.958 -23.241 -18.372  1.00  0.00     0.027 A 
ENDBRANCH  28  31
ENDBRANCH  23  28
ENDBRANCH  22  23
ENDBRANCH  21  22
ENDBRANCH   1  21
TORSDOF 14
ENDMDL
