MODEL 1
REMARK VINA RESULT: -8.418216504      0.000      0.000
REMARK  14 active torsions:
REMARK  status: ('A' for Active; 'I' for Inactive)
REMARK    1  A    between atoms: C2_2  and  C4_4 
REMARK    2  A    between atoms: C4_4  and  N1_5 
REMARK    3  A    between atoms: N1_5  and  C5_6 
REMARK    4  A    between atoms: N1_5  and  S2_28 
REMARK    5  A    between atoms: C5_6  and  C6_7 
REMARK    6  A    between atoms: C6_7  and  N2_8 
REMARK    7  A    between atoms: N2_8  and  C7_11 
REMARK    8  A    between atoms: C7_11  and  C8_12 
REMARK    9  A    between atoms: C8_12  and  N3_13 
REMARK   10  A    between atoms: N3_13  and  C9_14 
REMARK   11  A    between atoms: N3_13  and  S1_18 
REMARK   12  A    between atoms: C9_14  and  C10_15 
REMARK   13  A    between atoms: S1_18  and  C13_21 
REMARK   14  A    between atoms: S2_28  and  C19_31 
ROOT
HETATM    1  N2  UNL     1      10.966 -17.206 -17.483  1.00  0.00    -0.066 N 
ATOM      2  H21 UNL     1      11.799 -16.708 -17.167  1.00  0.00     0.277 HD
ATOM      3  H22 UNL     1      10.608 -16.511 -18.139  1.00  0.00     0.277 HD
ENDROOT
BRANCH   1   4
HETATM    4  C6  UNL     1      10.055 -17.434 -16.414  1.00  0.00     0.278 C 
BRANCH   4   5
HETATM    5  C5  UNL     1       9.261 -16.245 -15.956  1.00  0.00     0.103 C 
BRANCH   5   6
HETATM    6  N1  UNL     1       7.879 -16.339 -16.214  1.00  0.00    -0.284 N 
BRANCH   6   7
HETATM    7  C4  UNL     1       6.981 -15.970 -15.173  1.00  0.00     0.144 C 
BRANCH   7   8
HETATM    8  C2  UNL     1       7.250 -14.549 -14.747  1.00  0.00    -0.004 C 
HETATM    9  C1  UNL     1       7.714 -14.499 -13.285  1.00  0.00     0.011 C 
HETATM   10  C3  UNL     1       6.028 -13.680 -14.824  1.00  0.00     0.011 C 
ENDBRANCH   7   8
ENDBRANCH   6   7
BRANCH   6  11
HETATM   11  S2  UNL     1       7.329 -16.014 -17.776  1.00  0.00     0.264 S 
HETATM   12  O3  UNL     1       5.867 -15.800 -17.808  1.00  0.00    -0.200 OA
HETATM   13  O4  UNL     1       7.974 -14.758 -18.345  1.00  0.00    -0.200 OA
BRANCH  11  14
HETATM   14  C19 UNL     1       7.690 -17.329 -18.903  1.00  0.00     0.080 A 
HETATM   15  C20 UNL     1       7.292 -18.628 -18.675  1.00  0.00     0.027 A 
HETATM   16  C21 UNL     1       7.593 -19.626 -19.580  1.00  0.00     0.028 A 
HETATM   17  C22 UNL     1       8.303 -19.368 -20.746  1.00  0.00     0.046 A 
HETATM   18  N5  UNL     1       8.622 -20.383 -21.690  1.00  0.00    -0.102 NA
HETATM   19  C23 UNL     1       8.702 -18.067 -20.973  1.00  0.00     0.028 A 
HETATM   20  C24 UNL     1       8.395 -17.057 -20.054  1.00  0.00     0.027 A 
ENDBRANCH  11  14
ENDBRANCH   6  11
ENDBRANCH   5   6
ENDBRANCH   4   5
ENDBRANCH   1   4
BRANCH   1  21
HETATM   21  C7  UNL     1      11.315 -18.467 -18.166  1.00  0.00     0.278 C 
BRANCH  21  22
HETATM   22  C8  UNL     1      10.663 -19.576 -17.418  1.00  0.00     0.103 C 
BRANCH  22  23
HETATM   23  N3  UNL     1      11.469 -20.663 -17.053  1.00  0.00    -0.284 N 
BRANCH  23  24
HETATM   24  C9  UNL     1      11.841 -20.669 -15.679  1.00  0.00     0.144 C 
BRANCH  24  25
HETATM   25  C10 UNL     1      13.230 -21.201 -15.421  1.00  0.00    -0.004 C 
HETATM   26  C11 UNL     1      13.412 -21.246 -13.913  1.00  0.00     0.011 C 
HETATM   27  C12 UNL     1      14.302 -20.353 -16.018  1.00  0.00     0.011 C 
ENDBRANCH  24  25
ENDBRANCH  23  24
BRANCH  23  28
HETATM   28  S1  UNL     1      11.174 -22.159 -17.756  1.00  0.00     0.264 S 
HETATM   29  O1  UNL     1      10.617 -23.183 -16.790  1.00  0.00    -0.200 OA
HETATM   30  O2  UNL     1      10.066 -21.970 -18.789  1.00  0.00    -0.200 OA
BRANCH  28  31
HETATM   31  C13 UNL     1      12.541 -22.801 -18.631  1.00  0.00     0.080 A 
HETATM   32  C14 UNL     1      12.948 -22.237 -19.831  1.00  0.00     0.027 A 
HETATM   33  C15 UNL     1      14.020 -22.720 -20.541  1.00  0.00     0.028 A 
HETATM   34  C16 UNL     1      14.742 -23.795 -20.091  1.00  0.00     0.046 A 
HETATM   35  N4  UNL     1      15.868 -24.312 -20.825  1.00  0.00    -0.102 NA
HETATM   36  C17 UNL     1      14.356 -24.376 -18.895  1.00  0.00     0.028 A 
HETATM   37  C18 UNL     1      13.275 -23.880 -18.190  1.00  0.00     0.027 A 
ENDBRANCH  28  31
ENDBRANCH  23  28
ENDBRANCH  22  23
ENDBRANCH  21  22
ENDBRANCH   1  21
TORSDOF 14
ENDMDL
