MODEL 2
REMARK VINA RESULT: -8.090273306      1.006      7.547
REMARK  14 active torsions:
REMARK  status: ('A' for Active; 'I' for Inactive)
REMARK    1  A    between atoms: C2_2  and  C4_4 
REMARK    2  A    between atoms: C4_4  and  N1_5 
REMARK    3  A    between atoms: N1_5  and  C5_6 
REMARK    4  A    between atoms: N1_5  and  S2_28 
REMARK    5  A    between atoms: C5_6  and  C6_7 
REMARK    6  A    between atoms: C6_7  and  N2_8 
REMARK    7  A    between atoms: N2_8  and  C7_11 
REMARK    8  A    between atoms: C7_11  and  C8_12 
REMARK    9  A    between atoms: C8_12  and  N3_13 
REMARK   10  A    between atoms: N3_13  and  C9_14 
REMARK   11  A    between atoms: N3_13  and  S1_18 
REMARK   12  A    between atoms: C9_14  and  C10_15 
REMARK   13  A    between atoms: S1_18  and  C13_21 
REMARK   14  A    between atoms: S2_28  and  C19_31 
ROOT
HETATM    1  N2  UNL     1       8.554 -19.138 -15.743  1.00  0.00    -0.066 N 
ATOM      2  H21 UNL     1       8.197 -20.094 -15.781  1.00  0.00     0.277 HD
ATOM      3  H22 UNL     1       8.320 -18.846 -16.691  1.00  0.00     0.277 HD
ENDROOT
BRANCH   1   4
HETATM    4  C6  UNL     1       9.959 -19.114 -15.520  1.00  0.00     0.278 C 
BRANCH   4   5
HETATM    5  C5  UNL     1      10.823 -19.415 -16.710  1.00  0.00     0.103 C 
BRANCH   5   6
HETATM    6  N1  UNL     1      11.561 -20.610 -16.602  1.00  0.00    -0.284 N 
BRANCH   6   7
HETATM    7  C4  UNL     1      12.096 -20.948 -15.327  1.00  0.00     0.144 C 
BRANCH   7   8
HETATM    8  C2  UNL     1      13.573 -21.226 -15.451  1.00  0.00    -0.004 C 
HETATM    9  C1  UNL     1      14.215 -21.378 -14.065  1.00  0.00     0.011 C 
HETATM   10  C3  UNL     1      14.316 -20.114 -16.133  1.00  0.00     0.011 C 
ENDBRANCH   7   8
ENDBRANCH   6   7
BRANCH   6  11
HETATM   11  S2  UNL     1      11.105 -21.926 -17.554  1.00  0.00     0.264 S 
HETATM   12  O3  UNL     1      10.586 -23.041 -16.735  1.00  0.00    -0.200 OA
HETATM   13  O4  UNL     1      10.006 -21.549 -18.538  1.00  0.00    -0.200 OA
BRANCH  11  14
HETATM   14  C19 UNL     1      12.450 -22.562 -18.511  1.00  0.00     0.080 A 
HETATM   15  C20 UNL     1      12.899 -21.944 -19.657  1.00  0.00     0.027 A 
HETATM   16  C21 UNL     1      13.953 -22.471 -20.376  1.00  0.00     0.028 A 
HETATM   17  C22 UNL     1      14.601 -23.634 -19.978  1.00  0.00     0.046 A 
HETATM   18  N5  UNL     1      15.689 -24.192 -20.705  1.00  0.00    -0.102 NA
HETATM   19  C23 UNL     1      14.152 -24.252 -18.830  1.00  0.00     0.028 A 
HETATM   20  C24 UNL     1      13.082 -23.715 -18.104  1.00  0.00     0.027 A 
ENDBRANCH  11  14
ENDBRANCH   6  11
ENDBRANCH   5   6
ENDBRANCH   4   5
ENDBRANCH   1   4
BRANCH   1  21
HETATM   21  C7  UNL     1       7.839 -18.332 -14.734  1.00  0.00     0.278 C 
BRANCH  21  22
HETATM   22  C8  UNL     1       6.786 -17.558 -15.446  1.00  0.00     0.103 C 
BRANCH  22  23
HETATM   23  N3  UNL     1       7.133 -16.282 -15.912  1.00  0.00    -0.284 N 
BRANCH  23  24
HETATM   24  C9  UNL     1       8.328 -15.764 -15.338  1.00  0.00     0.144 C 
BRANCH  24  25
HETATM   25  C10 UNL     1       8.108 -14.579 -14.428  1.00  0.00    -0.004 C 
HETATM   26  C11 UNL     1       8.452 -15.034 -13.020  1.00  0.00     0.011 C 
HETATM   27  C12 UNL     1       6.705 -14.075 -14.452  1.00  0.00     0.011 C 
ENDBRANCH  24  25
ENDBRANCH  23  24
BRANCH  23  28
HETATM   28  S1  UNL     1       6.853 -15.908 -17.525  1.00  0.00     0.264 S 
HETATM   29  O1  UNL     1       5.433 -15.462 -17.806  1.00  0.00    -0.200 OA
HETATM   30  O2  UNL     1       7.708 -14.690 -17.869  1.00  0.00    -0.200 OA
BRANCH  28  31
HETATM   31  C13 UNL     1       7.345 -17.167 -18.630  1.00  0.00     0.080 A 
HETATM   32  C14 UNL     1       8.680 -17.341 -18.962  1.00  0.00     0.027 A 
HETATM   33  C15 UNL     1       9.096 -18.323 -19.828  1.00  0.00     0.028 A 
HETATM   34  C16 UNL     1       8.201 -19.183 -20.409  1.00  0.00     0.046 A 
HETATM   35  N4  UNL     1       8.623 -20.217 -21.317  1.00  0.00    -0.102 NA
HETATM   36  C17 UNL     1       6.862 -19.030 -20.092  1.00  0.00     0.028 A 
HETATM   37  C18 UNL     1       6.456 -18.037 -19.220  1.00  0.00     0.027 A 
ENDBRANCH  28  31
ENDBRANCH  23  28
ENDBRANCH  22  23
ENDBRANCH  21  22
ENDBRANCH   1  21
TORSDOF 14
ENDMDL
