MODEL 9
REMARK VINA RESULT: -7.948165689      2.266      4.542
REMARK  14 active torsions:
REMARK  status: ('A' for Active; 'I' for Inactive)
REMARK    1  A    between atoms: C2_2  and  C4_4 
REMARK    2  A    between atoms: C4_4  and  N1_5 
REMARK    3  A    between atoms: N1_5  and  C5_6 
REMARK    4  A    between atoms: N1_5  and  S2_28 
REMARK    5  A    between atoms: C5_6  and  C6_7 
REMARK    6  A    between atoms: C6_7  and  N2_8 
REMARK    7  A    between atoms: N2_8  and  C7_11 
REMARK    8  A    between atoms: C7_11  and  C8_12 
REMARK    9  A    between atoms: C8_12  and  N3_13 
REMARK   10  A    between atoms: N3_13  and  C9_14 
REMARK   11  A    between atoms: N3_13  and  S1_18 
REMARK   12  A    between atoms: C9_14  and  C10_15 
REMARK   13  A    between atoms: S1_18  and  C13_21 
REMARK   14  A    between atoms: S2_28  and  C19_31 
ROOT
HETATM    1  N2  UNL     1      11.619 -18.309 -16.077  1.00  0.00    -0.066 N 
ATOM      2  H21 UNL     1      12.065 -17.809 -15.307  1.00  0.00     0.277 HD
ATOM      3  H22 UNL     1      12.457 -18.625 -16.565  1.00  0.00     0.277 HD
ENDROOT
BRANCH   1   4
HETATM    4  C6  UNL     1      10.840 -17.436 -16.886  1.00  0.00     0.278 C 
BRANCH   4   5
HETATM    5  C5  UNL     1       9.385 -17.779 -17.020  1.00  0.00     0.103 C 
BRANCH   5   6
HETATM    6  N1  UNL     1       8.510 -16.801 -16.508  1.00  0.00    -0.284 N 
BRANCH   6   7
HETATM    7  C4  UNL     1       9.034 -15.863 -15.574  1.00  0.00     0.144 C 
BRANCH   7   8
HETATM    8  C2  UNL     1       8.548 -16.198 -14.187  1.00  0.00    -0.004 C 
HETATM    9  C1  UNL     1       8.063 -14.936 -13.461  1.00  0.00     0.011 C 
HETATM   10  C3  UNL     1       9.625 -16.786 -13.323  1.00  0.00     0.011 C 
ENDBRANCH   7   8
ENDBRANCH   6   7
BRANCH   6  11
HETATM   11  S2  UNL     1       7.297 -16.199 -17.516  1.00  0.00     0.264 S 
HETATM   12  O3  UNL     1       7.714 -14.951 -18.189  1.00  0.00    -0.200 OA
HETATM   13  O4  UNL     1       6.935 -17.194 -18.609  1.00  0.00    -0.200 OA
BRANCH  11  14
HETATM   14  C19 UNL     1       5.805 -15.845 -16.633  1.00  0.00     0.080 A 
HETATM   15  C20 UNL     1       5.508 -14.587 -16.158  1.00  0.00     0.027 A 
HETATM   16  C21 UNL     1       4.332 -14.351 -15.475  1.00  0.00     0.028 A 
HETATM   17  C22 UNL     1       3.407 -15.361 -15.239  1.00  0.00     0.046 A 
HETATM   18  N5  UNL     1       2.191 -15.137 -14.538  1.00  0.00    -0.102 NA
HETATM   19  C23 UNL     1       3.705 -16.620 -15.715  1.00  0.00     0.028 A 
HETATM   20  C24 UNL     1       4.899 -16.856 -16.408  1.00  0.00     0.027 A 
ENDBRANCH  11  14
ENDBRANCH   6  11
ENDBRANCH   5   6
ENDBRANCH   4   5
ENDBRANCH   1   4
BRANCH   1  21
HETATM   21  C7  UNL     1      10.814 -19.447 -15.590  1.00  0.00     0.278 C 
BRANCH  21  22
HETATM   22  C8  UNL     1      11.737 -20.598 -15.400  1.00  0.00     0.103 C 
BRANCH  22  23
HETATM   23  N3  UNL     1      12.390 -21.092 -16.538  1.00  0.00    -0.284 N 
BRANCH  23  24
HETATM   24  C9  UNL     1      13.706 -21.569 -16.286  1.00  0.00     0.144 C 
BRANCH  24  25
HETATM   25  C10 UNL     1      14.184 -21.337 -14.873  1.00  0.00    -0.004 C 
HETATM   26  C11 UNL     1      15.452 -20.506 -14.966  1.00  0.00     0.011 C 
HETATM   27  C12 UNL     1      14.479 -22.602 -14.139  1.00  0.00     0.011 C 
ENDBRANCH  24  25
ENDBRANCH  23  24
BRANCH  23  28
HETATM   28  S1  UNL     1      11.493 -21.934 -17.681  1.00  0.00     0.264 S 
HETATM   29  O1  UNL     1      12.297 -22.971 -18.437  1.00  0.00    -0.200 OA
HETATM   30  O2  UNL     1      10.439 -22.745 -16.932  1.00  0.00    -0.200 OA
BRANCH  28  31
HETATM   31  C13 UNL     1      10.613 -20.900 -18.779  1.00  0.00     0.080 A 
HETATM   32  C14 UNL     1      11.255 -19.884 -19.470  1.00  0.00     0.027 A 
HETATM   33  C15 UNL     1      10.589 -19.056 -20.339  1.00  0.00     0.028 A 
HETATM   34  C16 UNL     1       9.244 -19.198 -20.565  1.00  0.00     0.046 A 
HETATM   35  N4  UNL     1       8.533 -18.337 -21.474  1.00  0.00    -0.102 NA
HETATM   36  C17 UNL     1       8.580 -20.207 -19.887  1.00  0.00     0.028 A 
HETATM   37  C18 UNL     1       9.263 -21.033 -19.015  1.00  0.00     0.027 A 
ENDBRANCH  28  31
ENDBRANCH  23  28
ENDBRANCH  22  23
ENDBRANCH  21  22
ENDBRANCH   1  21
TORSDOF 14
ENDMDL
