MODEL 1
REMARK VINA RESULT: -9.937885379      0.000      0.000
REMARK  14 active torsions:
REMARK  status: ('A' for Active; 'I' for Inactive)
REMARK    1  A    between atoms: C4_5  and  S1_6 
REMARK    2  A    between atoms: S1_6  and  N2_9 
REMARK    3  A    between atoms: N2_9  and  C5_10 
REMARK    4  A    between atoms: N2_9  and  C22_35 
REMARK    5  A    between atoms: C5_10  and  C6_11 
REMARK    6  A    between atoms: C6_11  and  N3_12 
REMARK    7  A    between atoms: N3_12  and  C7_15 
REMARK    8  A    between atoms: C7_15  and  C8_16 
REMARK    9  A    between atoms: C8_16  and  N4_17 
REMARK   10  A    between atoms: N4_17  and  C9_18 
REMARK   11  A    between atoms: N4_17  and  S2_25 
REMARK   12  A    between atoms: C9_18  and  C10_19 
REMARK   13  A    between atoms: S2_25  and  C16_28 
REMARK   14  A    between atoms: C22_35  and  C23_36 
ROOT
HETATM    1  N3  UNL     1     -13.537  20.174 -18.802  1.00  0.00    -0.069 N 
ATOM      2  H31 UNL     1     -13.991  19.492 -19.410  1.00  0.00     0.277 HD
ATOM      3  H32 UNL     1     -12.624  20.223 -19.253  1.00  0.00     0.277 HD
ENDROOT
BRANCH   1   4
HETATM    4  C6  UNL     1     -13.416  19.657 -17.458  1.00  0.00     0.278 C 
BRANCH   4   5
HETATM    5  C5  UNL     1     -11.959  19.356 -17.117  1.00  0.00     0.109 C 
BRANCH   5   6
HETATM    6  N2  UNL     1     -11.369  20.312 -16.271  1.00  0.00    -0.259 N 
BRANCH   6   7
HETATM    7  S1  UNL     1     -10.584  21.549 -17.046  1.00  0.00     0.268 S 
HETATM    8  O1  UNL     1      -9.341  21.929 -16.244  1.00  0.00    -0.200 OA
HETATM    9  O2  UNL     1     -11.422  22.818 -17.181  1.00  0.00    -0.200 OA
BRANCH   7  10
HETATM   10  C4  UNL     1     -10.003  21.200 -18.658  1.00  0.00     0.080 A 
HETATM   11  C3  UNL     1      -8.975  20.319 -18.879  1.00  0.00     0.027 A 
HETATM   12  C2  UNL     1      -8.513  20.039 -20.169  1.00  0.00     0.028 A 
HETATM   13  C1  UNL     1      -9.090  20.653 -21.266  1.00  0.00     0.046 A 
HETATM   14  N1  UNL     1      -8.617  20.364 -22.568  1.00  0.00    -0.102 NA
HETATM   15  C30 UNL     1     -10.123  21.537 -21.026  1.00  0.00     0.028 A 
HETATM   16  C29 UNL     1     -10.584  21.816 -19.734  1.00  0.00     0.027 A 
ENDBRANCH   7  10
ENDBRANCH   6   7
BRANCH   6  17
HETATM   17  C22 UNL     1     -11.148  19.985 -14.943  1.00  0.00     0.119 C 
BRANCH  17  18
HETATM   18  C23 UNL     1     -10.223  18.857 -14.662  1.00  0.00    -0.020 A 
HETATM   19  C24 UNL     1     -10.668  17.617 -14.275  1.00  0.00     0.013 A 
HETATM   20  C25 UNL     1      -9.770  16.583 -14.017  1.00  0.00     0.001 A 
HETATM   21  C26 UNL     1      -8.413  16.764 -14.138  1.00  0.00     0.000 A 
HETATM   22  C27 UNL     1      -7.962  18.006 -14.525  1.00  0.00     0.001 A 
HETATM   23  C28 UNL     1      -8.867  19.037 -14.782  1.00  0.00     0.013 A 
ENDBRANCH  17  18
ENDBRANCH   6  17
ENDBRANCH   5   6
ENDBRANCH   4   5
ENDBRANCH   1   4
BRANCH   1  24
HETATM   24  C7  UNL     1     -14.208  21.442 -18.873  1.00  0.00     0.253 C 
BRANCH  24  25
HETATM   25  C8  UNL     1     -15.402  21.471 -17.972  1.00  0.00     0.163 C 
BRANCH  25  26
HETATM   26  N4  UNL     1     -15.940  22.745 -17.673  1.00  0.00    -0.301 N 
BRANCH  26  27
HETATM   27  C9  UNL     1     -15.198  23.876 -18.078  1.00  0.00     0.174 C 
BRANCH  27  28
HETATM   28  C10 UNL     1     -15.904  24.625 -19.179  1.00  0.00    -0.040 A 
HETATM   29  C11 UNL     1     -17.044  25.367 -18.961  1.00  0.00     0.009 A 
HETATM   30  C12 UNL     1     -17.662  26.037 -20.003  1.00  0.00     0.001 A 
HETATM   31  C13 UNL     1     -17.151  25.977 -21.288  1.00  0.00     0.000 A 
HETATM   32  C14 UNL     1     -16.020  25.243 -21.507  1.00  0.00     0.001 A 
HETATM   33  C15 UNL     1     -15.409  24.578 -20.464  1.00  0.00     0.009 A 
ENDBRANCH  27  28
ENDBRANCH  26  27
BRANCH  26  34
HETATM   34  S2  UNL     1     -16.653  22.792 -16.140  1.00  0.00     0.261 S 
HETATM   35  O3  UNL     1     -17.970  22.051 -16.212  1.00  0.00    -0.200 OA
HETATM   36  O4  UNL     1     -16.934  24.245 -15.781  1.00  0.00    -0.200 OA
BRANCH  34  37
HETATM   37  C16 UNL     1     -15.717  22.120 -14.853  1.00  0.00     0.079 A 
HETATM   38  C17 UNL     1     -14.469  22.578 -14.489  1.00  0.00     0.027 A 
HETATM   39  C18 UNL     1     -13.776  21.996 -13.453  1.00  0.00     0.028 A 
HETATM   40  C19 UNL     1     -14.285  20.932 -12.727  1.00  0.00     0.046 A 
HETATM   41  N5  UNL     1     -13.552  20.348 -11.664  1.00  0.00    -0.102 NA
HETATM   42  C20 UNL     1     -15.534  20.490 -13.108  1.00  0.00     0.028 A 
HETATM   43  C21 UNL     1     -16.248  21.054 -14.140  1.00  0.00     0.027 A 
ENDBRANCH  34  37
ENDBRANCH  26  34
ENDBRANCH  25  26
ENDBRANCH  24  25
ENDBRANCH   1  24
TORSDOF 14
ENDMDL
