MODEL 3
REMARK VINA RESULT: -9.726967855      1.717      2.202
REMARK  14 active torsions:
REMARK  status: ('A' for Active; 'I' for Inactive)
REMARK    1  A    between atoms: C4_5  and  S1_6 
REMARK    2  A    between atoms: S1_6  and  N2_9 
REMARK    3  A    between atoms: N2_9  and  C5_10 
REMARK    4  A    between atoms: N2_9  and  C22_35 
REMARK    5  A    between atoms: C5_10  and  C6_11 
REMARK    6  A    between atoms: C6_11  and  N3_12 
REMARK    7  A    between atoms: N3_12  and  C7_15 
REMARK    8  A    between atoms: C7_15  and  C8_16 
REMARK    9  A    between atoms: C8_16  and  N4_17 
REMARK   10  A    between atoms: N4_17  and  C9_18 
REMARK   11  A    between atoms: N4_17  and  S2_25 
REMARK   12  A    between atoms: C9_18  and  C10_19 
REMARK   13  A    between atoms: S2_25  and  C16_28 
REMARK   14  A    between atoms: C22_35  and  C23_36 
ROOT
HETATM    1  N3  UNL     1     -13.481  19.567 -18.566  1.00  0.00    -0.069 N 
ATOM      2  H31 UNL     1     -14.168  18.910 -18.936  1.00  0.00     0.277 HD
ATOM      3  H32 UNL     1     -12.698  19.361 -19.187  1.00  0.00     0.277 HD
ENDROOT
BRANCH   1   4
HETATM    4  C6  UNL     1     -13.147  19.238 -17.199  1.00  0.00     0.278 C 
BRANCH   4   5
HETATM    5  C5  UNL     1     -11.635  19.153 -17.011  1.00  0.00     0.109 C 
BRANCH   5   6
HETATM    6  N2  UNL     1     -11.113  20.160 -16.181  1.00  0.00    -0.259 N 
BRANCH   6   7
HETATM    7  S1  UNL     1     -10.426  21.442 -16.976  1.00  0.00     0.268 S 
HETATM    8  O1  UNL     1      -9.170  21.879 -16.224  1.00  0.00    -0.200 OA
HETATM    9  O2  UNL     1     -11.333  22.667 -17.062  1.00  0.00    -0.200 OA
BRANCH   7  10
HETATM   10  C4  UNL     1      -9.898  21.136 -18.614  1.00  0.00     0.080 A 
HETATM   11  C3  UNL     1      -8.880  20.259 -18.892  1.00  0.00     0.027 A 
HETATM   12  C2  UNL     1      -8.461  20.013 -20.204  1.00  0.00     0.028 A 
HETATM   13  C1  UNL     1      -9.072  20.658 -21.264  1.00  0.00     0.046 A 
HETATM   14  N1  UNL     1      -8.641  20.403 -22.588  1.00  0.00    -0.102 NA
HETATM   15  C30 UNL     1     -10.094  21.537 -20.967  1.00  0.00     0.028 A 
HETATM   16  C29 UNL     1     -10.512  21.781 -19.654  1.00  0.00     0.027 A 
ENDBRANCH   7  10
ENDBRANCH   6   7
BRANCH   6  17
HETATM   17  C22 UNL     1     -10.860  19.868 -14.850  1.00  0.00     0.119 C 
BRANCH  17  18
HETATM   18  C23 UNL     1     -10.029  18.671 -14.559  1.00  0.00    -0.020 A 
HETATM   19  C24 UNL     1     -10.559  17.511 -14.051  1.00  0.00     0.013 A 
HETATM   20  C25 UNL     1      -9.748  16.409 -13.788  1.00  0.00     0.001 A 
HETATM   21  C26 UNL     1      -8.394  16.441 -14.025  1.00  0.00     0.000 A 
HETATM   22  C27 UNL     1      -7.859  17.602 -14.533  1.00  0.00     0.001 A 
HETATM   23  C28 UNL     1      -8.676  18.703 -14.795  1.00  0.00     0.013 A 
ENDBRANCH  17  18
ENDBRANCH   6  17
ENDBRANCH   5   6
ENDBRANCH   4   5
ENDBRANCH   1   4
BRANCH   1  24
HETATM   24  C7  UNL     1     -13.926  20.921 -18.740  1.00  0.00     0.253 C 
BRANCH  24  25
HETATM   25  C8  UNL     1     -15.248  21.143 -18.076  1.00  0.00     0.163 C 
BRANCH  25  26
HETATM   26  N4  UNL     1     -15.387  22.332 -17.323  1.00  0.00    -0.301 N 
BRANCH  26  27
HETATM   27  C9  UNL     1     -14.728  23.486 -17.800  1.00  0.00     0.174 C 
BRANCH  27  28
HETATM   28  C10 UNL     1     -15.597  24.250 -18.765  1.00  0.00    -0.040 A 
HETATM   29  C11 UNL     1     -15.089  24.899 -19.870  1.00  0.00     0.009 A 
HETATM   30  C12 UNL     1     -15.925  25.593 -20.727  1.00  0.00     0.001 A 
HETATM   31  C13 UNL     1     -17.289  25.653 -20.498  1.00  0.00     0.000 A 
HETATM   32  C14 UNL     1     -17.795  25.010 -19.404  1.00  0.00     0.001 A 
HETATM   33  C15 UNL     1     -16.957  24.320 -18.553  1.00  0.00     0.009 A 
ENDBRANCH  27  28
ENDBRANCH  26  27
BRANCH  26  34
HETATM   34  S2  UNL     1     -15.334  22.041 -15.657  1.00  0.00     0.261 S 
HETATM   35  O3  UNL     1     -13.882  22.000 -15.234  1.00  0.00    -0.200 OA
HETATM   36  O4  UNL     1     -15.956  20.679 -15.383  1.00  0.00    -0.200 OA
BRANCH  34  37
HETATM   37  C16 UNL     1     -16.160  23.189 -14.665  1.00  0.00     0.079 A 
HETATM   38  C17 UNL     1     -15.739  23.562 -13.407  1.00  0.00     0.027 A 
HETATM   39  C18 UNL     1     -16.445  24.483 -12.669  1.00  0.00     0.028 A 
HETATM   40  C19 UNL     1     -17.603  25.079 -13.140  1.00  0.00     0.046 A 
HETATM   41  N5  UNL     1     -18.315  26.025 -12.360  1.00  0.00    -0.102 NA
HETATM   42  C20 UNL     1     -18.007  24.691 -14.399  1.00  0.00     0.028 A 
HETATM   43  C21 UNL     1     -17.319  23.773 -15.159  1.00  0.00     0.027 A 
ENDBRANCH  34  37
ENDBRANCH  26  34
ENDBRANCH  25  26
ENDBRANCH  24  25
ENDBRANCH   1  24
TORSDOF 14
ENDMDL
