MODEL 2
REMARK VINA RESULT: -9.826681344      2.940      4.476
REMARK  14 active torsions:
REMARK  status: ('A' for Active; 'I' for Inactive)
REMARK    1  A    between atoms: C4_5  and  S1_6 
REMARK    2  A    between atoms: S1_6  and  N2_9 
REMARK    3  A    between atoms: N2_9  and  C5_10 
REMARK    4  A    between atoms: N2_9  and  C22_35 
REMARK    5  A    between atoms: C5_10  and  C6_11 
REMARK    6  A    between atoms: C6_11  and  N3_12 
REMARK    7  A    between atoms: N3_12  and  C7_15 
REMARK    8  A    between atoms: C7_15  and  C8_16 
REMARK    9  A    between atoms: C8_16  and  N4_17 
REMARK   10  A    between atoms: N4_17  and  C9_18 
REMARK   11  A    between atoms: N4_17  and  S2_25 
REMARK   12  A    between atoms: C9_18  and  C10_19 
REMARK   13  A    between atoms: S2_25  and  C16_28 
REMARK   14  A    between atoms: C22_35  and  C23_36 
ROOT
HETATM    1  N3  UNL     1     -11.355  20.079 -20.417  1.00  0.00    -0.069 N 
ATOM      2  H31 UNL     1     -11.989  19.604 -19.775  1.00  0.00     0.277 HD
ATOM      3  H32 UNL     1     -11.904  20.020 -21.274  1.00  0.00     0.277 HD
ENDROOT
BRANCH   1   4
HETATM    4  C6  UNL     1     -10.119  19.342 -20.551  1.00  0.00     0.278 C 
BRANCH   4   5
HETATM    5  C5  UNL     1      -9.950  18.345 -19.408  1.00  0.00     0.109 C 
BRANCH   5   6
HETATM    6  N2  UNL     1      -8.827  18.597 -18.601  1.00  0.00    -0.259 N 
BRANCH   6   7
HETATM    7  S1  UNL     1      -7.536  17.590 -18.857  1.00  0.00     0.268 S 
HETATM    8  O1  UNL     1      -6.300  18.433 -19.164  1.00  0.00    -0.200 OA
HETATM    9  O2  UNL     1      -7.723  16.641 -20.037  1.00  0.00    -0.200 OA
BRANCH   7  10
HETATM   10  C4  UNL     1      -7.076  16.574 -17.510  1.00  0.00     0.080 A 
HETATM   11  C3  UNL     1      -7.872  15.543 -17.079  1.00  0.00     0.027 A 
HETATM   12  C2  UNL     1      -7.501  14.730 -16.003  1.00  0.00     0.028 A 
HETATM   13  C1  UNL     1      -6.306  14.950 -15.341  1.00  0.00     0.046 A 
HETATM   14  N1  UNL     1      -5.938  14.122 -14.255  1.00  0.00    -0.102 NA
HETATM   15  C30 UNL     1      -5.517  15.991 -15.788  1.00  0.00     0.028 A 
HETATM   16  C29 UNL     1      -5.891  16.804 -16.864  1.00  0.00     0.027 A 
ENDBRANCH   7  10
ENDBRANCH   6   7
BRANCH   6  17
HETATM   17  C22 UNL     1      -8.984  19.353 -17.451  1.00  0.00     0.119 C 
BRANCH  17  18
HETATM   18  C23 UNL     1      -9.291  18.626 -16.192  1.00  0.00    -0.020 A 
HETATM   19  C24 UNL     1      -8.463  18.666 -15.097  1.00  0.00     0.013 A 
HETATM   20  C25 UNL     1      -8.783  17.968 -13.933  1.00  0.00     0.001 A 
HETATM   21  C26 UNL     1      -9.931  17.219 -13.838  1.00  0.00     0.000 A 
HETATM   22  C27 UNL     1     -10.763  17.177 -14.933  1.00  0.00     0.001 A 
HETATM   23  C28 UNL     1     -10.438  17.877 -16.096  1.00  0.00     0.013 A 
ENDBRANCH  17  18
ENDBRANCH   6  17
ENDBRANCH   5   6
ENDBRANCH   4   5
ENDBRANCH   1   4
BRANCH   1  24
HETATM   24  C7  UNL     1     -11.169  21.448 -20.025  1.00  0.00     0.253 C 
BRANCH  24  25
HETATM   25  C8  UNL     1     -11.565  21.659 -18.598  1.00  0.00     0.163 C 
BRANCH  25  26
HETATM   26  N4  UNL     1     -12.943  21.850 -18.344  1.00  0.00    -0.301 N 
BRANCH  26  27
HETATM   27  C9  UNL     1     -13.349  23.118 -17.874  1.00  0.00     0.174 C 
BRANCH  27  28
HETATM   28  C10 UNL     1     -14.217  23.821 -18.885  1.00  0.00    -0.040 A 
HETATM   29  C11 UNL     1     -14.776  25.060 -18.651  1.00  0.00     0.009 A 
HETATM   30  C12 UNL     1     -15.570  25.668 -19.608  1.00  0.00     0.001 A 
HETATM   31  C13 UNL     1     -15.823  25.050 -20.821  1.00  0.00     0.000 A 
HETATM   32  C14 UNL     1     -15.269  23.823 -21.055  1.00  0.00     0.001 A 
HETATM   33  C15 UNL     1     -14.479  23.222 -20.098  1.00  0.00     0.009 A 
ENDBRANCH  27  28
ENDBRANCH  26  27
BRANCH  26  34
HETATM   34  S2  UNL     1     -13.653  20.492 -17.626  1.00  0.00     0.261 S 
HETATM   35  O3  UNL     1     -12.751  19.304 -17.876  1.00  0.00    -0.200 OA
HETATM   36  O4  UNL     1     -14.993  20.233 -18.300  1.00  0.00    -0.200 OA
BRANCH  34  37
HETATM   37  C16 UNL     1     -13.948  20.606 -15.927  1.00  0.00     0.079 A 
HETATM   38  C17 UNL     1     -15.206  20.681 -15.370  1.00  0.00     0.027 A 
HETATM   39  C18 UNL     1     -15.371  20.771 -14.007  1.00  0.00     0.028 A 
HETATM   40  C19 UNL     1     -14.299  20.791 -13.131  1.00  0.00     0.046 A 
HETATM   41  N5  UNL     1     -14.494  20.884 -11.730  1.00  0.00    -0.102 NA
HETATM   42  C20 UNL     1     -13.050  20.715 -13.710  1.00  0.00     0.028 A 
HETATM   43  C21 UNL     1     -12.857  20.624 -15.069  1.00  0.00     0.027 A 
ENDBRANCH  34  37
ENDBRANCH  26  34
ENDBRANCH  25  26
ENDBRANCH  24  25
ENDBRANCH   1  24
TORSDOF 14
ENDMDL
