MODEL 1
REMARK VINA RESULT: -10.599076590      0.000      0.000
REMARK  4 active torsions:
REMARK  status: ('A' for Active; 'I' for Inactive)
REMARK    1  A    between atoms: C1_2  and  C2_5 
REMARK    2  A    between atoms: C6_9  and  C7_10 
REMARK    3  A    between atoms: C11_18  and  N3_19 
REMARK    4  A    between atoms: N3_19  and  C12_21 
ROOT
HETATM    1  C7  UNL     1     -17.373  37.700  -3.607  1.00  0.00     0.154 A 
HETATM    2  N1  UNL     1     -16.486  37.983  -4.590  1.00  0.00    -0.282 N 
ATOM      3  H1  UNL     1     -16.573  38.741  -5.267  1.00  0.00     0.188 HD
HETATM    4  N2  UNL     1     -15.491  37.117  -4.531  1.00  0.00    -0.282 N 
ATOM      5  H2  UNL     1     -14.679  37.089  -5.148  1.00  0.00     0.188 HD
HETATM    6  C8  UNL     1     -15.740  36.283  -3.513  1.00  0.00     0.143 A 
HETATM    7  C9  UNL     1     -15.011  35.232  -3.031  1.00  0.00     0.056 A 
HETATM    8  C10 UNL     1     -15.532  34.554  -1.932  1.00  0.00     0.053 A 
HETATM    9  C11 UNL     1     -16.722  34.919  -1.358  1.00  0.00     0.116 A 
HETATM   10  N4  UNL     1     -17.387  35.965  -1.880  1.00  0.00    -0.276 N 
ATOM     11  H4  UNL     1     -18.273  36.248  -1.462  1.00  0.00     0.189 HD
HETATM   12  N5  UNL     1     -16.920  36.640  -2.928  1.00  0.00    -0.219 N 
ENDROOT
BRANCH   1  13
HETATM   13  C6  UNL     1     -18.566  38.499  -3.279  1.00  0.00     0.012 A 
HETATM   14  C5  UNL     1     -18.962  39.472  -4.210  1.00  0.00     0.015 A 
HETATM   15  C4  UNL     1     -20.052  40.261  -4.003  1.00  0.00     0.002 A 
HETATM   16  C3  UNL     1     -20.789  40.092  -2.829  1.00  0.00     0.016 A 
HETATM   17  C2  UNL     1     -20.403  39.118  -1.902  1.00  0.00     0.048 A 
HETATM   18  C18 UNL     1     -19.303  38.352  -2.151  1.00  0.00     0.031 A 
BRANCH  17  19
HETATM   19  C1  UNL     1     -21.280  38.976  -0.683  1.00  0.00     0.417 C 
HETATM   20  F1  UNL     1     -21.690  37.650  -0.558  1.00  0.00    -0.166 F 
HETATM   21  F2  UNL     1     -22.361  39.842  -0.881  1.00  0.00    -0.166 F 
HETATM   22  F3  UNL     1     -20.568  39.358   0.411  1.00  0.00    -0.166 F 
ENDBRANCH  17  19
ENDBRANCH   1  13
BRANCH   9  23
HETATM   23  N3  UNL     1     -17.228  34.220  -0.205  1.00  0.00    -0.371 N 
ATOM     24  H3  UNL     1     -17.212  33.200  -0.206  1.00  0.00     0.161 HD
BRANCH  23  25
HETATM   25  C12 UNL     1     -17.747  34.890   0.932  1.00  0.00     0.083 C 
HETATM   26  C13 UNL     1     -18.869  35.871   0.536  1.00  0.00     0.025 C 
HETATM   27  C14 UNL     1     -19.319  36.631   1.796  1.00  0.00     0.002 C 
HETATM   28  C15 UNL     1     -18.155  37.438   2.304  1.00  0.00     0.000 C 
HETATM   29  C16 UNL     1     -16.994  36.529   2.664  1.00  0.00     0.002 C 
HETATM   30  C17 UNL     1     -16.572  35.804   1.407  1.00  0.00     0.025 C 
ENDBRANCH  23  25
ENDBRANCH   9  23
TORSDOF 4
ENDMDL
