MODEL 2
REMARK VINA RESULT: -10.581326715      3.138      5.120
REMARK  4 active torsions:
REMARK  status: ('A' for Active; 'I' for Inactive)
REMARK    1  A    between atoms: C1_2  and  C2_5 
REMARK    2  A    between atoms: C6_9  and  C7_10 
REMARK    3  A    between atoms: C11_18  and  N3_19 
REMARK    4  A    between atoms: N3_19  and  C12_21 
ROOT
HETATM    1  C7  UNL     1     -18.307  38.737  -4.311  1.00  0.00     0.154 A 
HETATM    2  N1  UNL     1     -18.851  39.529  -5.265  1.00  0.00    -0.282 N 
ATOM      3  H1  UNL     1     -18.509  39.625  -6.221  1.00  0.00     0.188 HD
HETATM    4  N2  UNL     1     -19.896  40.156  -4.757  1.00  0.00    -0.282 N 
ATOM      5  H2  UNL     1     -20.499  40.816  -5.247  1.00  0.00     0.188 HD
HETATM    6  C8  UNL     1     -20.020  39.766  -3.481  1.00  0.00     0.143 A 
HETATM    7  C9  UNL     1     -20.947  40.110  -2.537  1.00  0.00     0.056 A 
HETATM    8  C10 UNL     1     -20.821  39.517  -1.284  1.00  0.00     0.053 A 
HETATM    9  C11 UNL     1     -19.814  38.630  -1.005  1.00  0.00     0.116 A 
HETATM   10  N4  UNL     1     -18.938  38.333  -1.980  1.00  0.00    -0.276 N 
ATOM     11  H4  UNL     1     -18.185  37.673  -1.786  1.00  0.00     0.189 HD
HETATM   12  N5  UNL     1     -19.027  38.877  -3.192  1.00  0.00    -0.219 N 
ENDROOT
BRANCH   1  13
HETATM   13  C6  UNL     1     -17.189  37.800  -4.516  1.00  0.00     0.012 A 
HETATM   14  C5  UNL     1     -16.557  37.819  -5.769  1.00  0.00     0.015 A 
HETATM   15  C4  UNL     1     -15.512  36.996  -6.058  1.00  0.00     0.002 A 
HETATM   16  C3  UNL     1     -15.066  36.110  -5.076  1.00  0.00     0.016 A 
HETATM   17  C2  UNL     1     -15.687  36.092  -3.822  1.00  0.00     0.048 A 
HETATM   18  C18 UNL     1     -16.730  36.934  -3.579  1.00  0.00     0.031 A 
BRANCH  17  19
HETATM   19  C1  UNL     1     -15.112  35.134  -2.809  1.00  0.00     0.417 C 
HETATM   20  F1  UNL     1     -14.027  34.463  -3.369  1.00  0.00    -0.166 F 
HETATM   21  F2  UNL     1     -16.150  34.260  -2.470  1.00  0.00    -0.166 F 
HETATM   22  F3  UNL     1     -14.720  35.841  -1.716  1.00  0.00    -0.166 F 
ENDBRANCH  17  19
ENDBRANCH   1  13
BRANCH   9  23
HETATM   23  N3  UNL     1     -19.719  38.009   0.291  1.00  0.00    -0.371 N 
ATOM     24  H3  UNL     1     -20.579  37.810   0.802  1.00  0.00     0.161 HD
BRANCH  23  25
HETATM   25  C12 UNL     1     -18.480  37.660   0.887  1.00  0.00     0.083 C 
HETATM   26  C13 UNL     1     -18.068  36.222   0.514  1.00  0.00     0.025 C 
HETATM   27  C14 UNL     1     -16.771  35.876   1.267  1.00  0.00     0.002 C 
HETATM   28  C15 UNL     1     -17.057  35.908   2.743  1.00  0.00     0.000 C 
HETATM   29  C16 UNL     1     -17.520  37.290   3.166  1.00  0.00     0.002 C 
HETATM   30  C17 UNL     1     -18.796  37.597   2.416  1.00  0.00     0.025 C 
ENDBRANCH  23  25
ENDBRANCH   9  23
TORSDOF 4
ENDMDL
