MODEL 3
REMARK VINA RESULT: -10.554039444      3.450      6.875
REMARK  4 active torsions:
REMARK  status: ('A' for Active; 'I' for Inactive)
REMARK    1  A    between atoms: C1_2  and  C2_5 
REMARK    2  A    between atoms: C6_9  and  C7_10 
REMARK    3  A    between atoms: C11_18  and  N3_19 
REMARK    4  A    between atoms: N3_19  and  C12_21 
ROOT
HETATM    1  C7  UNL     1     -19.790  38.379   1.190  1.00  0.00     0.154 A 
HETATM    2  N1  UNL     1     -20.261  39.137   2.208  1.00  0.00    -0.282 N 
ATOM      3  H1  UNL     1     -19.973  39.065   3.183  1.00  0.00     0.188 HD
HETATM    4  N2  UNL     1     -21.155  39.985   1.733  1.00  0.00    -0.282 N 
ATOM      5  H2  UNL     1     -21.674  40.678   2.271  1.00  0.00     0.188 HD
HETATM    6  C8  UNL     1     -21.255  39.770   0.414  1.00  0.00     0.143 A 
HETATM    7  C9  UNL     1     -22.022  40.395  -0.529  1.00  0.00     0.056 A 
HETATM    8  C10 UNL     1     -21.895  39.951  -1.842  1.00  0.00     0.053 A 
HETATM    9  C11 UNL     1     -21.039  38.934  -2.178  1.00  0.00     0.116 A 
HETATM   10  N4  UNL     1     -20.310  38.365  -1.203  1.00  0.00    -0.276 N 
ATOM     11  H4  UNL     1     -19.669  37.608  -1.439  1.00  0.00     0.189 HD
HETATM   12  N5  UNL     1     -20.403  38.764   0.064  1.00  0.00    -0.219 N 
ENDROOT
BRANCH   1  13
HETATM   13  C6  UNL     1     -18.705  37.388   1.296  1.00  0.00     0.012 A 
HETATM   14  C5  UNL     1     -18.087  37.245   2.548  1.00  0.00     0.015 A 
HETATM   15  C4  UNL     1     -17.078  36.355   2.752  1.00  0.00     0.002 A 
HETATM   16  C3  UNL     1     -16.651  35.568   1.680  1.00  0.00     0.016 A 
HETATM   17  C2  UNL     1     -17.270  35.701   0.432  1.00  0.00     0.048 A 
HETATM   18  C18 UNL     1     -18.276  36.607   0.275  1.00  0.00     0.031 A 
BRANCH  17  19
HETATM   19  C1  UNL     1     -16.774  34.782  -0.657  1.00  0.00     0.417 C 
HETATM   20  F1  UNL     1     -16.811  33.465  -0.204  1.00  0.00    -0.166 F 
HETATM   21  F2  UNL     1     -15.471  35.198  -0.951  1.00  0.00    -0.166 F 
HETATM   22  F3  UNL     1     -17.571  34.933  -1.748  1.00  0.00    -0.166 F 
ENDBRANCH  17  19
ENDBRANCH   1  13
BRANCH   9  23
HETATM   23  N3  UNL     1     -20.903  38.510  -3.548  1.00  0.00    -0.371 N 
ATOM     24  H3  UNL     1     -21.565  38.864  -4.238  1.00  0.00     0.161 HD
BRANCH  23  25
HETATM   25  C12 UNL     1     -19.887  37.620  -3.978  1.00  0.00     0.083 C 
HETATM   26  C13 UNL     1     -19.507  37.878  -5.451  1.00  0.00     0.025 C 
HETATM   27  C14 UNL     1     -18.474  36.821  -5.880  1.00  0.00     0.002 C 
HETATM   28  C15 UNL     1     -19.122  35.466  -5.800  1.00  0.00     0.000 C 
HETATM   29  C16 UNL     1     -19.567  35.171  -4.379  1.00  0.00     0.002 C 
HETATM   30  C17 UNL     1     -20.583  36.220  -3.990  1.00  0.00     0.025 C 
ENDBRANCH  23  25
ENDBRANCH   9  23
TORSDOF 4
ENDMDL
