MODEL 2
REMARK VINA RESULT: -7.778249582      1.983      7.055
REMARK  5 active torsions:
REMARK  status: ('A' for Active; 'I' for Inactive)
REMARK    1  A    between atoms: C4_9  and  C5_10 
REMARK    2  A    between atoms: C5_10  and  N3_11 
REMARK    3  A    between atoms: C7_13  and  O2_14 
REMARK    4  A    between atoms: C8_16  and  C9_17 
REMARK    5  A    between atoms: C9_17  and  O3_18 
ROOT
HETATM    1  O1  UNL     1      11.985  17.121  61.789  1.00  0.00    -0.266 OA
HETATM    2  C1  UNL     1      12.709  16.111  61.607  1.00  0.00     0.275 A 
HETATM    3  N1  UNL     1      13.866  15.994  62.285  1.00  0.00    -0.318 N 
ATOM      4  H1  UNL     1      14.152  16.720  62.941  1.00  0.00     0.169 HD
HETATM    5  C2  UNL     1      14.651  14.903  62.091  1.00  0.00     0.184 A 
HETATM    6  N2  UNL     1      14.294  13.932  61.230  1.00  0.00    -0.350 N 
ATOM      7  H2  UNL     1      14.902  13.123  61.104  1.00  0.00     0.166 HD
HETATM    8  C3  UNL     1      13.137  14.014  60.528  1.00  0.00     0.075 A 
HETATM    9  C4  UNL     1      12.504  13.220  59.603  1.00  0.00     0.015 A 
HETATM   10  C11 UNL     1      11.326  13.837  59.236  1.00  0.00     0.099 A 
HETATM   11  N4  UNL     1      11.249  14.986  59.928  1.00  0.00    -0.359 N 
ATOM     12  H4  UNL     1      10.485  15.658  59.864  1.00  0.00     0.165 HD
HETATM   13  C12 UNL     1      12.330  15.117  60.717  1.00  0.00     0.128 A 
ENDROOT
BRANCH   9  14
HETATM   14  C5  UNL     1      13.052  11.927  59.124  1.00  0.00     0.315 C 
BRANCH  14  15
HETATM   15  N3  UNL     1      13.303  11.933  57.706  1.00  0.00     0.095 N 
HETATM   16  C6  UNL     1      14.453  12.704  57.337  1.00  0.00     0.304 C 
HETATM   17  C7  UNL     1      14.758  12.148  55.949  1.00  0.00     0.154 C 
HETATM   18  C8  UNL     1      14.655  10.662  56.223  1.00  0.00     0.068 C 
HETATM   19  C10 UNL     1      13.531  10.604  57.221  1.00  0.00     0.282 C 
BRANCH  17  20
HETATM   20  O2  UNL     1      16.036  12.510  55.534  1.00  0.00    -0.393 OA
ATOM     21  H2  UNL     1      16.265  13.376  55.852  1.00  0.00     0.210 HD
ENDBRANCH  17  20
BRANCH  18  22
HETATM   22  C9  UNL     1      14.339   9.884  54.963  1.00  0.00     0.173 C 
BRANCH  22  23
HETATM   23  O3  UNL     1      15.442   9.906  54.117  1.00  0.00    -0.400 OA
ATOM     24  H3  UNL     1      15.256  10.463  53.369  1.00  0.00     0.209 HD
ENDBRANCH  22  23
ENDBRANCH  18  22
ENDBRANCH  14  15
ENDBRANCH   9  14
TORSDOF 5
ENDMDL
