MODEL 6
REMARK VINA RESULT: -7.566726253      2.585      6.955
REMARK  5 active torsions:
REMARK  status: ('A' for Active; 'I' for Inactive)
REMARK    1  A    between atoms: C4_9  and  C5_10 
REMARK    2  A    between atoms: C5_10  and  N3_11 
REMARK    3  A    between atoms: C7_13  and  O2_14 
REMARK    4  A    between atoms: C8_16  and  C9_17 
REMARK    5  A    between atoms: C9_17  and  O3_18 
ROOT
HETATM    1  O1  UNL     1      15.025  15.856  63.815  1.00  0.00    -0.266 OA
HETATM    2  C1  UNL     1      14.277  15.644  62.828  1.00  0.00     0.275 A 
HETATM    3  N1  UNL     1      13.527  16.649  62.337  1.00  0.00    -0.318 N 
ATOM      4  H1  UNL     1      13.566  17.574  62.764  1.00  0.00     0.169 HD
HETATM    5  C2  UNL     1      12.718  16.424  61.270  1.00  0.00     0.184 A 
HETATM    6  N2  UNL     1      12.651  15.211  60.691  1.00  0.00    -0.350 N 
ATOM      7  H2  UNL     1      12.035  15.069  59.890  1.00  0.00     0.166 HD
HETATM    8  C3  UNL     1      13.390  14.174  61.156  1.00  0.00     0.075 A 
HETATM    9  C4  UNL     1      13.546  12.856  60.802  1.00  0.00     0.015 A 
HETATM   10  C11 UNL     1      14.458  12.281  61.663  1.00  0.00     0.099 A 
HETATM   11  N4  UNL     1      14.846  13.236  62.524  1.00  0.00    -0.359 N 
ATOM     12  H4  UNL     1      15.518  13.106  63.280  1.00  0.00     0.165 HD
HETATM   13  C12 UNL     1      14.217  14.390  62.240  1.00  0.00     0.128 A 
ENDROOT
BRANCH   9  14
HETATM   14  C5  UNL     1      12.823  12.223  59.672  1.00  0.00     0.315 C 
BRANCH  14  15
HETATM   15  N3  UNL     1      13.722  11.683  58.684  1.00  0.00     0.095 N 
HETATM   16  C6  UNL     1      13.077  10.806  57.751  1.00  0.00     0.304 C 
HETATM   17  C7  UNL     1      14.080  10.798  56.601  1.00  0.00     0.154 C 
HETATM   18  C8  UNL     1      14.361  12.281  56.475  1.00  0.00     0.068 C 
HETATM   19  C10 UNL     1      14.320  12.731  57.910  1.00  0.00     0.282 C 
BRANCH  17  20
HETATM   20  O2  UNL     1      13.508  10.280  55.443  1.00  0.00    -0.393 OA
ATOM     21  H2  UNL     1      13.519   9.330  55.452  1.00  0.00     0.210 HD
ENDBRANCH  17  20
BRANCH  18  22
HETATM   22  C9  UNL     1      15.709  12.539  55.835  1.00  0.00     0.173 C 
BRANCH  22  23
HETATM   23  O3  UNL     1      16.193  11.359  55.284  1.00  0.00    -0.400 OA
ATOM     24  H3  UNL     1      16.642  10.857  55.955  1.00  0.00     0.209 HD
ENDBRANCH  22  23
ENDBRANCH  18  22
ENDBRANCH  14  15
ENDBRANCH   9  14
TORSDOF 5
ENDMDL
