MODEL 7
REMARK VINA RESULT: -7.551761750      2.040      6.835
REMARK  5 active torsions:
REMARK  status: ('A' for Active; 'I' for Inactive)
REMARK    1  A    between atoms: C4_9  and  C5_10 
REMARK    2  A    between atoms: C5_10  and  N3_11 
REMARK    3  A    between atoms: C7_13  and  O2_14 
REMARK    4  A    between atoms: C8_16  and  C9_17 
REMARK    5  A    between atoms: C9_17  and  O3_18 
ROOT
HETATM    1  O1  UNL     1      14.351  14.167  63.203  1.00  0.00    -0.266 OA
HETATM    2  C1  UNL     1      14.082  14.389  61.996  1.00  0.00     0.275 A 
HETATM    3  N1  UNL     1      13.393  15.498  61.664  1.00  0.00    -0.318 N 
ATOM      4  H1  UNL     1      13.092  16.151  62.387  1.00  0.00     0.169 HD
HETATM    5  C2  UNL     1      13.101  15.741  60.360  1.00  0.00     0.184 A 
HETATM    6  N2  UNL     1      13.487  14.893  59.389  1.00  0.00    -0.350 N 
ATOM      7  H2  UNL     1      13.254  15.101  58.418  1.00  0.00     0.166 HD
HETATM    8  C3  UNL     1      14.182  13.767  59.684  1.00  0.00     0.075 A 
HETATM    9  C4  UNL     1      14.707  12.731  58.951  1.00  0.00     0.015 A 
HETATM   10  C11 UNL     1      15.323  11.854  59.820  1.00  0.00     0.099 A 
HETATM   11  N4  UNL     1      15.171  12.353  61.058  1.00  0.00    -0.359 N 
ATOM     12  H4  UNL     1      15.523  11.919  61.912  1.00  0.00     0.165 HD
HETATM   13  C12 UNL     1      14.486  13.508  61.005  1.00  0.00     0.128 A 
ENDROOT
BRANCH   9  14
HETATM   14  C5  UNL     1      14.595  12.634  57.475  1.00  0.00     0.315 C 
BRANCH  14  15
HETATM   15  N3  UNL     1      14.628  11.270  57.014  1.00  0.00     0.095 N 
HETATM   16  C6  UNL     1      13.347  10.628  57.054  1.00  0.00     0.304 C 
HETATM   17  C7  UNL     1      13.564   9.461  56.095  1.00  0.00     0.154 C 
HETATM   18  C8  UNL     1      14.234  10.177  54.941  1.00  0.00     0.068 C 
HETATM   19  C10 UNL     1      15.075  11.200  55.653  1.00  0.00     0.282 C 
BRANCH  17  20
HETATM   20  O2  UNL     1      12.351   8.892  55.717  1.00  0.00    -0.393 OA
ATOM     21  H2  UNL     1      11.902   9.437  55.082  1.00  0.00     0.210 HD
ENDBRANCH  17  20
BRANCH  18  22
HETATM   22  C9  UNL     1      15.072   9.229  54.110  1.00  0.00     0.173 C 
BRANCH  22  23
HETATM   23  O3  UNL     1      14.237   8.383  53.390  1.00  0.00    -0.400 OA
ATOM     24  H3  UNL     1      13.741   8.891  52.758  1.00  0.00     0.209 HD
ENDBRANCH  22  23
ENDBRANCH  18  22
ENDBRANCH  14  15
ENDBRANCH   9  14
TORSDOF 5
ENDMDL
