MODEL 3
REMARK VINA RESULT: -7.744410760      2.461      2.993
REMARK  5 active torsions:
REMARK  status: ('A' for Active; 'I' for Inactive)
REMARK    1  A    between atoms: C4_9  and  C5_10 
REMARK    2  A    between atoms: C5_10  and  N3_11 
REMARK    3  A    between atoms: C7_13  and  O2_14 
REMARK    4  A    between atoms: C8_16  and  C9_17 
REMARK    5  A    between atoms: C9_17  and  O3_18 
ROOT
HETATM    1  O1  UNL     1      15.043   9.008  53.552  1.00  0.00    -0.266 OA
HETATM    2  C1  UNL     1      14.391   9.379  54.560  1.00  0.00     0.275 A 
HETATM    3  N1  UNL     1      13.335   8.651  54.971  1.00  0.00    -0.318 N 
ATOM      4  H1  UNL     1      13.068   7.805  54.468  1.00  0.00     0.169 HD
HETATM    5  C2  UNL     1      12.628   9.049  56.060  1.00  0.00     0.184 A 
HETATM    6  N2  UNL     1      12.962  10.161  56.739  1.00  0.00    -0.350 N 
ATOM      7  H2  UNL     1      12.414  10.437  57.554  1.00  0.00     0.166 HD
HETATM    8  C3  UNL     1      14.018  10.921  56.356  1.00  0.00     0.075 A 
HETATM    9  C4  UNL     1      14.602  12.075  56.818  1.00  0.00     0.015 A 
HETATM   10  C11 UNL     1      15.673  12.376  56.001  1.00  0.00     0.099 A 
HETATM   11  N4  UNL     1      15.733  11.419  55.060  1.00  0.00    -0.359 N 
ATOM     12  H4  UNL     1      16.425  11.376  54.312  1.00  0.00     0.165 HD
HETATM   13  C12 UNL     1      14.745  10.527  55.251  1.00  0.00     0.128 A 
ENDROOT
BRANCH   9  14
HETATM   14  C5  UNL     1      14.113  12.821  58.003  1.00  0.00     0.315 C 
BRANCH  14  15
HETATM   15  N3  UNL     1      14.728  12.368  59.225  1.00  0.00     0.095 N 
HETATM   16  C6  UNL     1      15.944  11.640  59.011  1.00  0.00     0.304 C 
HETATM   17  C7  UNL     1      16.596  11.731  60.387  1.00  0.00     0.154 C 
HETATM   18  C8  UNL     1      16.409  13.204  60.682  1.00  0.00     0.068 C 
HETATM   19  C10 UNL     1      15.061  13.477  60.071  1.00  0.00     0.282 C 
BRANCH  17  20
HETATM   20  O2  UNL     1      17.943  11.383  60.326  1.00  0.00    -0.393 OA
ATOM     21  H2  UNL     1      18.261  11.099  61.175  1.00  0.00     0.210 HD
ENDBRANCH  17  20
BRANCH  18  22
HETATM   22  C9  UNL     1      16.426  13.481  62.170  1.00  0.00     0.173 C 
BRANCH  22  23
HETATM   23  O3  UNL     1      15.202  13.123  62.721  1.00  0.00    -0.400 OA
ATOM     24  H3  UNL     1      15.346  12.546  63.463  1.00  0.00     0.209 HD
ENDBRANCH  22  23
ENDBRANCH  18  22
ENDBRANCH  14  15
ENDBRANCH   9  14
TORSDOF 5
ENDMDL
