MODEL 4
REMARK VINA RESULT: -7.673629361      1.913      2.361
REMARK  5 active torsions:
REMARK  status: ('A' for Active; 'I' for Inactive)
REMARK    1  A    between atoms: C4_9  and  C5_10 
REMARK    2  A    between atoms: C5_10  and  N3_11 
REMARK    3  A    between atoms: C7_13  and  O2_14 
REMARK    4  A    between atoms: C8_16  and  C9_17 
REMARK    5  A    between atoms: C9_17  and  O3_18 
ROOT
HETATM    1  O1  UNL     1      15.324   9.337  53.624  1.00  0.00    -0.266 OA
HETATM    2  C1  UNL     1      14.542   9.539  54.587  1.00  0.00     0.275 A 
HETATM    3  N1  UNL     1      13.583   8.634  54.863  1.00  0.00    -0.318 N 
ATOM      4  H1  UNL     1      13.493   7.792  54.295  1.00  0.00     0.169 HD
HETATM    5  C2  UNL     1      12.737   8.849  55.903  1.00  0.00     0.184 A 
HETATM    6  N2  UNL     1      12.836   9.953  56.666  1.00  0.00    -0.350 N 
ATOM      7  H2  UNL     1      12.187  10.090  57.440  1.00  0.00     0.166 HD
HETATM    8  C3  UNL     1      13.788  10.888  56.419  1.00  0.00     0.075 A 
HETATM    9  C4  UNL     1      14.145  12.084  56.991  1.00  0.00     0.015 A 
HETATM   10  C11 UNL     1      15.217  12.596  56.290  1.00  0.00     0.099 A 
HETATM   11  N4  UNL     1      15.503  11.722  55.310  1.00  0.00    -0.359 N 
ATOM     12  H4  UNL     1      16.252  11.833  54.626  1.00  0.00     0.165 HD
HETATM   13  C12 UNL     1      14.655  10.681  55.365  1.00  0.00     0.128 A 
ENDROOT
BRANCH   9  14
HETATM   14  C5  UNL     1      13.450  12.669  58.163  1.00  0.00     0.315 C 
BRANCH  14  15
HETATM   15  N3  UNL     1      14.326  13.485  58.965  1.00  0.00     0.095 N 
HETATM   16  C6  UNL     1      13.638  14.517  59.683  1.00  0.00     0.304 C 
HETATM   17  C7  UNL     1      14.657  14.863  60.765  1.00  0.00     0.154 C 
HETATM   18  C8  UNL     1      15.042  13.474  61.231  1.00  0.00     0.068 C 
HETATM   19  C10 UNL     1      15.008  12.692  59.946  1.00  0.00     0.282 C 
BRANCH  17  20
HETATM   20  O2  UNL     1      14.071  15.606  61.786  1.00  0.00    -0.393 OA
ATOM     21  H2  UNL     1      14.237  15.212  62.634  1.00  0.00     0.210 HD
ENDBRANCH  17  20
BRANCH  18  22
HETATM   22  C9  UNL     1      16.415  13.461  61.869  1.00  0.00     0.173 C 
BRANCH  22  23
HETATM   23  O3  UNL     1      16.897  14.762  61.954  1.00  0.00    -0.400 OA
ATOM     24  H3  UNL     1      17.308  14.892  62.802  1.00  0.00     0.209 HD
ENDBRANCH  22  23
ENDBRANCH  18  22
ENDBRANCH  14  15
ENDBRANCH   9  14
TORSDOF 5
ENDMDL
