MODEL 8
REMARK VINA RESULT: -9.677783813      3.337      5.578
REMARK  3 active torsions:
REMARK  status: ('A' for Active; 'I' for Inactive)
REMARK    1  A    between atoms: C1_2  and  C2_4 
REMARK    2  A    between atoms: C7_9  and  C8_10 
REMARK    3  A    between atoms: C14_16  and  C15_17 
ROOT
HETATM    1  C2  UNL     1     -21.429  39.220  -2.976  1.00  0.00     0.068 A 
HETATM    2  C3  UNL     1     -22.334  39.820  -2.123  1.00  0.00     0.021 A 
HETATM    3  C4  UNL     1     -22.300  39.631  -0.760  1.00  0.00     0.002 A 
HETATM    4  C5  UNL     1     -21.336  38.816  -0.203  1.00  0.00     0.014 A 
HETATM    5  C6  UNL     1     -20.435  38.216  -1.047  1.00  0.00     0.005 A 
HETATM    6  C7  UNL     1     -19.365  37.360  -0.830  1.00  0.00     0.014 A 
HETATM    7  C14 UNL     1     -18.776  37.045  -2.029  1.00  0.00     0.055 A 
HETATM    8  N1  UNL     1     -19.475  37.700  -2.967  1.00  0.00    -0.353 N 
ATOM      9  H1  UNL     1     -19.274  37.664  -3.967  1.00  0.00     0.166 HD
HETATM   10  C21 UNL     1     -20.468  38.407  -2.425  1.00  0.00     0.061 A 
ENDROOT
BRANCH   6  11
HETATM   11  C8  UNL     1     -19.005  36.921   0.530  1.00  0.00    -0.023 A 
HETATM   12  C9  UNL     1     -18.244  37.807   1.258  1.00  0.00     0.012 A 
HETATM   13  C10 UNL     1     -17.881  37.426   2.541  1.00  0.00     0.001 A 
HETATM   14  C11 UNL     1     -18.266  36.211   3.069  1.00  0.00     0.000 A 
HETATM   15  C12 UNL     1     -19.027  35.357   2.305  1.00  0.00     0.001 A 
HETATM   16  C13 UNL     1     -19.400  35.709   1.032  1.00  0.00     0.012 A 
ENDBRANCH   6  11
BRANCH   7  17
HETATM   17  C15 UNL     1     -17.628  36.168  -2.185  1.00  0.00    -0.009 A 
HETATM   18  C16 UNL     1     -17.162  35.321  -1.200  1.00  0.00     0.014 A 
HETATM   19  C17 UNL     1     -16.086  34.491  -1.337  1.00  0.00     0.001 A 
HETATM   20  C18 UNL     1     -15.406  34.486  -2.535  1.00  0.00     0.000 A 
HETATM   21  C19 UNL     1     -15.832  35.323  -3.568  1.00  0.00     0.001 A 
HETATM   22  C20 UNL     1     -16.923  36.140  -3.380  1.00  0.00     0.014 A 
ENDBRANCH   7  17
BRANCH   1  23
HETATM   23  C1  UNL     1     -21.516  39.462  -4.427  1.00  0.00     0.211 C 
HETATM   24  O1  UNL     1     -21.505  38.524  -5.259  1.00  0.00    -0.644 OA
HETATM   25  O2  UNL     1     -21.614  40.746  -4.927  1.00  0.00    -0.644 OA
ENDBRANCH   1  23
TORSDOF 3
ENDMDL
