MODEL 2
REMARK VINA RESULT: -10.754644700      0.232      1.000
REMARK  3 active torsions:
REMARK  status: ('A' for Active; 'I' for Inactive)
REMARK    1  A    between atoms: C1_2  and  C2_4 
REMARK    2  A    between atoms: C7_9  and  C8_10 
REMARK    3  A    between atoms: C14_16  and  C15_17 
ROOT
HETATM    1  C2  UNL     1     -17.664  36.525   2.107  1.00  0.00     0.068 A 
HETATM    2  C3  UNL     1     -18.095  37.379   3.104  1.00  0.00     0.021 A 
HETATM    3  C4  UNL     1     -18.974  38.411   2.862  1.00  0.00     0.002 A 
HETATM    4  C5  UNL     1     -19.454  38.620   1.586  1.00  0.00     0.014 A 
HETATM    5  C6  UNL     1     -19.028  37.775   0.592  1.00  0.00     0.005 A 
HETATM    6  C7  UNL     1     -19.304  37.701  -0.766  1.00  0.00     0.014 A 
HETATM    7  C14 UNL     1     -18.610  36.655  -1.321  1.00  0.00     0.055 A 
HETATM    8  N1  UNL     1     -17.919  36.096  -0.317  1.00  0.00    -0.353 N 
ATOM      9  H1  UNL     1     -17.304  35.288  -0.420  1.00  0.00     0.166 HD
HETATM   10  C21 UNL     1     -18.140  36.732   0.835  1.00  0.00     0.061 A 
ENDROOT
BRANCH   6  11
HETATM   11  C8  UNL     1     -20.224  38.656  -1.408  1.00  0.00    -0.023 A 
HETATM   12  C9  UNL     1     -21.518  38.642  -0.940  1.00  0.00     0.012 A 
HETATM   13  C10 UNL     1     -22.414  39.523  -1.525  1.00  0.00     0.001 A 
HETATM   14  C11 UNL     1     -22.027  40.382  -2.534  1.00  0.00     0.000 A 
HETATM   15  C12 UNL     1     -20.723  40.361  -2.970  1.00  0.00     0.001 A 
HETATM   16  C13 UNL     1     -19.816  39.499  -2.409  1.00  0.00     0.012 A 
ENDBRANCH   6  11
BRANCH   7  17
HETATM   17  C15 UNL     1     -18.654  36.281  -2.724  1.00  0.00    -0.009 A 
HETATM   18  C16 UNL     1     -19.781  35.802  -3.362  1.00  0.00     0.014 A 
HETATM   19  C17 UNL     1     -19.833  35.450  -4.680  1.00  0.00     0.001 A 
HETATM   20  C18 UNL     1     -18.692  35.573  -5.442  1.00  0.00     0.000 A 
HETATM   21  C19 UNL     1     -17.523  36.052  -4.850  1.00  0.00     0.001 A 
HETATM   22  C20 UNL     1     -17.521  36.394  -3.518  1.00  0.00     0.014 A 
ENDBRANCH   7  17
BRANCH   1  23
HETATM   23  C1  UNL     1     -16.723  35.438   2.429  1.00  0.00     0.211 C 
HETATM   24  O1  UNL     1     -15.917  34.985   1.582  1.00  0.00    -0.644 OA
HETATM   25  O2  UNL     1     -16.696  34.873   3.689  1.00  0.00    -0.644 OA
ENDBRANCH   1  23
TORSDOF 3
ENDMDL
