MODEL 3
REMARK VINA RESULT: -9.991902021      2.989      5.773
REMARK  3 active torsions:
REMARK  status: ('A' for Active; 'I' for Inactive)
REMARK    1  A    between atoms: C1_2  and  C2_4 
REMARK    2  A    between atoms: C7_9  and  C8_10 
REMARK    3  A    between atoms: C14_16  and  C15_17 
ROOT
HETATM    1  C2  UNL     1     -16.636  35.740  -4.004  1.00  0.00     0.068 A 
HETATM    2  C3  UNL     1     -15.713  34.839  -3.511  1.00  0.00     0.021 A 
HETATM    3  C4  UNL     1     -15.624  34.532  -2.172  1.00  0.00     0.002 A 
HETATM    4  C5  UNL     1     -16.477  35.134  -1.271  1.00  0.00     0.014 A 
HETATM    5  C6  UNL     1     -17.396  36.031  -1.756  1.00  0.00     0.005 A 
HETATM    6  C7  UNL     1     -18.378  36.798  -1.145  1.00  0.00     0.014 A 
HETATM    7  C14 UNL     1     -19.036  37.543  -2.092  1.00  0.00     0.055 A 
HETATM    8  N1  UNL     1     -18.464  37.236  -3.266  1.00  0.00    -0.353 N 
ATOM      9  H1  UNL     1     -18.741  37.635  -4.164  1.00  0.00     0.166 HD
HETATM   10  C21 UNL     1     -17.486  36.342  -3.108  1.00  0.00     0.061 A 
ENDROOT
BRANCH   6  11
HETATM   11  C8  UNL     1     -18.595  36.738   0.311  1.00  0.00    -0.023 A 
HETATM   12  C9  UNL     1     -18.349  37.906   0.998  1.00  0.00     0.012 A 
HETATM   13  C10 UNL     1     -18.537  37.885   2.371  1.00  0.00     0.001 A 
HETATM   14  C11 UNL     1     -18.955  36.744   3.025  1.00  0.00     0.000 A 
HETATM   15  C12 UNL     1     -19.189  35.600   2.298  1.00  0.00     0.001 A 
HETATM   16  C13 UNL     1     -19.010  35.593   0.938  1.00  0.00     0.012 A 
ENDBRANCH   6  11
BRANCH   7  17
HETATM   17  C15 UNL     1     -20.124  38.465  -1.815  1.00  0.00    -0.009 A 
HETATM   18  C16 UNL     1     -21.213  38.160  -1.023  1.00  0.00     0.014 A 
HETATM   19  C17 UNL     1     -22.239  39.019  -0.754  1.00  0.00     0.001 A 
HETATM   20  C18 UNL     1     -22.204  40.282  -1.304  1.00  0.00     0.000 A 
HETATM   21  C19 UNL     1     -21.127  40.645  -2.114  1.00  0.00     0.001 A 
HETATM   22  C20 UNL     1     -20.117  39.743  -2.354  1.00  0.00     0.014 A 
ENDBRANCH   7  17
BRANCH   1  23
HETATM   23  C1  UNL     1     -16.682  36.027  -5.448  1.00  0.00     0.211 C 
HETATM   24  O1  UNL     1     -17.112  37.117  -5.896  1.00  0.00    -0.644 OA
HETATM   25  O2  UNL     1     -16.250  35.093  -6.371  1.00  0.00    -0.644 OA
ENDBRANCH   1  23
TORSDOF 3
ENDMDL
