MODEL 1
REMARK VINA RESULT: -10.837940587      0.000      0.000
REMARK  3 active torsions:
REMARK  status: ('A' for Active; 'I' for Inactive)
REMARK    1  A    between atoms: C1_2  and  C2_4 
REMARK    2  A    between atoms: C7_9  and  C8_10 
REMARK    3  A    between atoms: C14_16  and  C15_17 
ROOT
HETATM    1  C2  UNL     1     -17.641  36.519   2.156  1.00  0.00     0.068 A 
HETATM    2  C3  UNL     1     -18.040  37.416   3.126  1.00  0.00     0.021 A 
HETATM    3  C4  UNL     1     -18.904  38.454   2.861  1.00  0.00     0.002 A 
HETATM    4  C5  UNL     1     -19.403  38.623   1.586  1.00  0.00     0.014 A 
HETATM    5  C6  UNL     1     -19.009  37.734   0.617  1.00  0.00     0.005 A 
HETATM    6  C7  UNL     1     -19.309  37.615  -0.732  1.00  0.00     0.014 A 
HETATM    7  C14 UNL     1     -18.643  36.537  -1.259  1.00  0.00     0.055 A 
HETATM    8  N1  UNL     1     -17.945  36.003  -0.246  1.00  0.00    -0.353 N 
ATOM      9  H1  UNL     1     -17.345  35.182  -0.329  1.00  0.00     0.166 HD
HETATM   10  C21 UNL     1     -18.135  36.686   0.885  1.00  0.00     0.061 A 
ENDROOT
BRANCH   6  11
HETATM   11  C8  UNL     1     -20.224  38.562  -1.395  1.00  0.00    -0.023 A 
HETATM   12  C9  UNL     1     -19.651  39.374  -2.348  1.00  0.00     0.012 A 
HETATM   13  C10 UNL     1     -20.480  40.281  -2.988  1.00  0.00     0.001 A 
HETATM   14  C11 UNL     1     -21.824  40.369  -2.687  1.00  0.00     0.000 A 
HETATM   15  C12 UNL     1     -22.353  39.537  -1.728  1.00  0.00     0.001 A 
HETATM   16  C13 UNL     1     -21.555  38.630  -1.078  1.00  0.00     0.012 A 
ENDBRANCH   6  11
BRANCH   7  17
HETATM   17  C15 UNL     1     -18.718  36.111  -2.646  1.00  0.00    -0.009 A 
HETATM   18  C16 UNL     1     -19.899  35.944  -3.342  1.00  0.00     0.014 A 
HETATM   19  C17 UNL     1     -19.980  35.547  -4.645  1.00  0.00     0.001 A 
HETATM   20  C18 UNL     1     -18.813  35.289  -5.330  1.00  0.00     0.000 A 
HETATM   21  C19 UNL     1     -17.589  35.441  -4.677  1.00  0.00     0.001 A 
HETATM   22  C20 UNL     1     -17.560  35.844  -3.363  1.00  0.00     0.014 A 
ENDBRANCH   7  17
BRANCH   1  23
HETATM   23  C1  UNL     1     -16.713  35.428   2.502  1.00  0.00     0.211 C 
HETATM   24  O1  UNL     1     -15.863  34.994   1.688  1.00  0.00    -0.644 OA
HETATM   25  O2  UNL     1     -16.747  34.837   3.751  1.00  0.00    -0.644 OA
ENDBRANCH   1  23
TORSDOF 3
ENDMDL
