MODEL 20
REMARK VINA RESULT: -8.799127569      1.545      2.115
REMARK  3 active torsions:
REMARK  status: ('A' for Active; 'I' for Inactive)
REMARK    1  A    between atoms: C1_2  and  C2_4 
REMARK    2  A    between atoms: C7_9  and  C8_10 
REMARK    3  A    between atoms: C14_16  and  C15_17 
ROOT
HETATM    1  C2  UNL     1     -19.359  37.906   1.391  1.00  0.00     0.068 A 
HETATM    2  C3  UNL     1     -20.151  38.901   1.931  1.00  0.00     0.021 A 
HETATM    3  C4  UNL     1     -20.877  39.771   1.150  1.00  0.00     0.002 A 
HETATM    4  C5  UNL     1     -20.827  39.665  -0.225  1.00  0.00     0.014 A 
HETATM    5  C6  UNL     1     -20.042  38.678  -0.766  1.00  0.00     0.005 A 
HETATM    6  C7  UNL     1     -19.770  38.300  -2.073  1.00  0.00     0.014 A 
HETATM    7  C14 UNL     1     -18.905  37.233  -2.074  1.00  0.00     0.055 A 
HETATM    8  N1  UNL     1     -18.652  36.963  -0.785  1.00  0.00    -0.353 N 
ATOM      9  H1  UNL     1     -18.037  36.214  -0.463  1.00  0.00     0.166 HD
HETATM   10  C21 UNL     1     -19.308  37.798   0.023  1.00  0.00     0.061 A 
ENDROOT
BRANCH   6  11
HETATM   11  C8  UNL     1     -20.378  39.008  -3.213  1.00  0.00    -0.023 A 
HETATM   12  C9  UNL     1     -19.681  40.103  -3.672  1.00  0.00     0.012 A 
HETATM   13  C10 UNL     1     -20.227  40.798  -4.741  1.00  0.00     0.001 A 
HETATM   14  C11 UNL     1     -21.417  40.412  -5.322  1.00  0.00     0.000 A 
HETATM   15  C12 UNL     1     -22.078  39.311  -4.829  1.00  0.00     0.001 A 
HETATM   16  C13 UNL     1     -21.561  38.605  -3.773  1.00  0.00     0.012 A 
ENDBRANCH   6  11
BRANCH   7  17
HETATM   17  C15 UNL     1     -18.399  36.576  -3.266  1.00  0.00    -0.009 A 
HETATM   18  C16 UNL     1     -19.062  35.564  -3.932  1.00  0.00     0.014 A 
HETATM   19  C17 UNL     1     -18.596  34.940  -5.054  1.00  0.00     0.001 A 
HETATM   20  C18 UNL     1     -17.382  35.334  -5.571  1.00  0.00     0.000 A 
HETATM   21  C19 UNL     1     -16.667  36.352  -4.939  1.00  0.00     0.001 A 
HETATM   22  C20 UNL     1     -17.180  36.950  -3.811  1.00  0.00     0.014 A 
ENDBRANCH   7  17
BRANCH   1  23
HETATM   23  C1  UNL     1     -18.606  37.004   2.281  1.00  0.00     0.211 C 
HETATM   24  O1  UNL     1     -18.644  35.758   2.150  1.00  0.00    -0.644 OA
HETATM   25  O2  UNL     1     -17.823  37.507   3.303  1.00  0.00    -0.644 OA
ENDBRANCH   1  23
TORSDOF 3
ENDMDL
