MODEL 4
REMARK VINA RESULT: -9.978685903      0.962      1.482
REMARK  3 active torsions:
REMARK  status: ('A' for Active; 'I' for Inactive)
REMARK    1  A    between atoms: C1_2  and  C2_4 
REMARK    2  A    between atoms: C7_9  and  C8_10 
REMARK    3  A    between atoms: C14_16  and  C15_17 
ROOT
HETATM    1  C2  UNL     1     -18.025  36.524   1.603  1.00  0.00     0.068 A 
HETATM    2  C3  UNL     1     -18.542  37.472   2.463  1.00  0.00     0.021 A 
HETATM    3  C4  UNL     1     -19.307  38.528   2.023  1.00  0.00     0.002 A 
HETATM    4  C5  UNL     1     -19.580  38.666   0.678  1.00  0.00     0.014 A 
HETATM    5  C6  UNL     1     -19.067  37.726  -0.181  1.00  0.00     0.005 A 
HETATM    6  C7  UNL     1     -19.144  37.565  -1.557  1.00  0.00     0.014 A 
HETATM    7  C14 UNL     1     -18.445  36.444  -1.930  1.00  0.00     0.055 A 
HETATM    8  N1  UNL     1     -17.947  35.926  -0.797  1.00  0.00    -0.353 N 
ATOM      9  H1  UNL     1     -17.377  35.081  -0.752  1.00  0.00     0.166 HD
HETATM   10  C21 UNL     1     -18.294  36.658   0.263  1.00  0.00     0.061 A 
ENDROOT
BRANCH   6  11
HETATM   11  C8  UNL     1     -19.896  38.517  -2.394  1.00  0.00    -0.023 A 
HETATM   12  C9  UNL     1     -21.156  38.110  -2.772  1.00  0.00     0.012 A 
HETATM   13  C10 UNL     1     -21.891  38.978  -3.564  1.00  0.00     0.001 A 
HETATM   14  C11 UNL     1     -21.385  40.198  -3.960  1.00  0.00     0.000 A 
HETATM   15  C12 UNL     1     -20.120  40.563  -3.559  1.00  0.00     0.001 A 
HETATM   16  C13 UNL     1     -19.371  39.723  -2.774  1.00  0.00     0.012 A 
ENDBRANCH   6  11
BRANCH   7  17
HETATM   17  C15 UNL     1     -18.306  35.968  -3.295  1.00  0.00    -0.009 A 
HETATM   18  C16 UNL     1     -19.212  35.133  -3.920  1.00  0.00     0.014 A 
HETATM   19  C17 UNL     1     -19.092  34.681  -5.202  1.00  0.00     0.001 A 
HETATM   20  C18 UNL     1     -17.997  35.074  -5.940  1.00  0.00     0.000 A 
HETATM   21  C19 UNL     1     -17.048  35.917  -5.360  1.00  0.00     0.001 A 
HETATM   22  C20 UNL     1     -17.215  36.345  -4.064  1.00  0.00     0.014 A 
ENDBRANCH   7  17
BRANCH   1  23
HETATM   23  C1  UNL     1     -17.213  35.415   2.136  1.00  0.00     0.211 C 
HETATM   24  O1  UNL     1     -17.452  34.893   3.250  1.00  0.00    -0.644 OA
HETATM   25  O2  UNL     1     -16.148  34.908   1.417  1.00  0.00    -0.644 OA
ENDBRANCH   1  23
TORSDOF 3
ENDMDL
