MODEL 10
REMARK VINA RESULT: -9.622455441      3.296      5.632
REMARK  3 active torsions:
REMARK  status: ('A' for Active; 'I' for Inactive)
REMARK    1  A    between atoms: C1_2  and  C2_4 
REMARK    2  A    between atoms: C7_9  and  C8_10 
REMARK    3  A    between atoms: C14_16  and  C15_17 
ROOT
HETATM    1  C2  UNL     1     -21.336  39.213  -3.038  1.00  0.00     0.068 A 
HETATM    2  C3  UNL     1     -22.253  39.817  -2.200  1.00  0.00     0.021 A 
HETATM    3  C4  UNL     1     -22.237  39.637  -0.836  1.00  0.00     0.002 A 
HETATM    4  C5  UNL     1     -21.280  38.827  -0.261  1.00  0.00     0.014 A 
HETATM    5  C6  UNL     1     -20.367  38.223  -1.089  1.00  0.00     0.005 A 
HETATM    6  C7  UNL     1     -19.299  37.369  -0.852  1.00  0.00     0.014 A 
HETATM    7  C14 UNL     1     -18.693  37.047  -2.041  1.00  0.00     0.055 A 
HETATM    8  N1  UNL     1     -19.381  37.696  -2.993  1.00  0.00    -0.353 N 
ATOM      9  H1  UNL     1     -19.166  37.653  -3.990  1.00  0.00     0.166 HD
HETATM   10  C21 UNL     1     -20.382  38.405  -2.468  1.00  0.00     0.061 A 
ENDROOT
BRANCH   6  11
HETATM   11  C8  UNL     1     -18.956  36.940   0.515  1.00  0.00    -0.023 A 
HETATM   12  C9  UNL     1     -19.496  35.737   0.914  1.00  0.00     0.012 A 
HETATM   13  C10 UNL     1     -19.200  35.304   2.197  1.00  0.00     0.001 A 
HETATM   14  C11 UNL     1     -18.398  36.044   3.041  1.00  0.00     0.000 A 
HETATM   15  C12 UNL     1     -17.880  37.240   2.601  1.00  0.00     0.001 A 
HETATM   16  C13 UNL     1     -18.158  37.692   1.335  1.00  0.00     0.012 A 
ENDBRANCH   6  11
BRANCH   7  17
HETATM   17  C15 UNL     1     -17.543  36.171  -2.177  1.00  0.00    -0.009 A 
HETATM   18  C16 UNL     1     -17.122  35.290  -1.201  1.00  0.00     0.014 A 
HETATM   19  C17 UNL     1     -16.044  34.461  -1.319  1.00  0.00     0.001 A 
HETATM   20  C18 UNL     1     -15.312  34.492  -2.485  1.00  0.00     0.000 A 
HETATM   21  C19 UNL     1     -15.691  35.364  -3.507  1.00  0.00     0.001 A 
HETATM   22  C20 UNL     1     -16.786  36.179  -3.340  1.00  0.00     0.014 A 
ENDBRANCH   7  17
BRANCH   1  23
HETATM   23  C1  UNL     1     -21.405  39.445  -4.491  1.00  0.00     0.211 C 
HETATM   24  O1  UNL     1     -20.389  39.377  -5.223  1.00  0.00    -0.644 OA
HETATM   25  O2  UNL     1     -22.605  39.752  -5.104  1.00  0.00    -0.644 OA
ENDBRANCH   1  23
TORSDOF 3
ENDMDL
