MODEL 3
REMARK VINA RESULT: -8.110728237      4.834      7.934
REMARK  7 active torsions:
REMARK  status: ('A' for Active; 'I' for Inactive)
REMARK    1  A    between atoms: C2_2  and  C3_3 
REMARK    2  A    between atoms: C3_3  and  C4_4 
REMARK    3  A    between atoms: C8_14  and  C9_15 
REMARK    4  A    between atoms: C11_17  and  S1_18 
REMARK    5  A    between atoms: S1_18  and  N4_19 
REMARK    6  A    between atoms: C12_25  and  O4_26 
REMARK    7  A    between atoms: O4_26  and  C13_27 
ROOT
HETATM    1  C4  UNL     1      43.399  14.492  50.190  1.00  0.00     0.055 A 
HETATM    2  N1  UNL     1      43.456  15.212  51.334  1.00  0.00    -0.300 N 
ATOM      3  H1  UNL     1      43.127  14.898  52.247  1.00  0.00     0.187 HD
HETATM    4  N2  UNL     1      44.000  16.374  51.083  1.00  0.00    -0.289 N 
HETATM    5  C5  UNL     1      44.262  17.470  52.009  1.00  0.00     0.178 C 
HETATM    6  C6  UNL     1      44.315  16.457  49.779  1.00  0.00     0.147 A 
HETATM    7  C7  UNL     1      44.894  17.414  48.993  1.00  0.00     0.277 A 
HETATM    8  O1  UNL     1      45.257  18.516  49.461  1.00  0.00    -0.265 OA
HETATM    9  N3  UNL     1      45.089  17.181  47.660  1.00  0.00    -0.307 N 
ATOM     10  H3  UNL     1      45.523  17.908  47.091  1.00  0.00     0.170 HD
HETATM   11  C8  UNL     1      44.736  16.048  47.085  1.00  0.00     0.122 A 
HETATM   12  N5  UNL     1      44.165  15.119  47.892  1.00  0.00    -0.338 N 
ATOM     13  H5  UNL     1      43.886  14.236  47.464  1.00  0.00     0.167 HD
HETATM   14  C15 UNL     1      43.939  15.261  49.187  1.00  0.00     0.092 A 
ENDROOT
BRANCH  11  15
HETATM   15  C9  UNL     1      44.927  15.787  45.630  1.00  0.00     0.051 A 
HETATM   16  C10 UNL     1      43.875  15.417  44.851  1.00  0.00     0.051 A 
HETATM   17  C11 UNL     1      44.120  15.196  43.530  1.00  0.00     0.123 A 
HETATM   18  S2  UNL     1      45.793  15.503  43.394  1.00  0.00    -0.051 SA
HETATM   19  C12 UNL     1      46.130  15.903  45.013  1.00  0.00     0.125 A 
BRANCH  17  20
HETATM   20  S1  UNL     1      42.974  14.707  42.266  1.00  0.00     0.263 S 
HETATM   21  O2  UNL     1      43.571  13.548  41.510  1.00  0.00    -0.200 OA
HETATM   22  O3  UNL     1      41.735  14.222  42.933  1.00  0.00    -0.200 OA
BRANCH  20  23
HETATM   23  N4  UNL     1      42.697  16.027  41.198  1.00  0.00    -0.324 N 
ATOM     24  H42 UNL     1      43.359  16.785  41.034  1.00  0.00     0.169 HD
ATOM     25  H41 UNL     1      41.779  15.930  40.765  1.00  0.00     0.169 HD
ENDBRANCH  20  23
ENDBRANCH  17  20
BRANCH  19  26
HETATM   26  O4  UNL     1      47.406  16.246  45.423  1.00  0.00    -0.343 OA
BRANCH  26  27
HETATM   27  C13 UNL     1      48.506  16.353  44.541  1.00  0.00     0.172 C 
HETATM   28  C14 UNL     1      48.824  17.770  44.178  1.00  0.00     0.034 C 
ENDBRANCH  26  27
ENDBRANCH  19  26
ENDBRANCH  11  15
BRANCH   1  29
HETATM   29  C3  UNL     1      42.839  13.144  50.082  1.00  0.00     0.061 C 
BRANCH  29  30
HETATM   30  C2  UNL     1      43.666  12.136  50.799  1.00  0.00     0.002 C 
HETATM   31  C1  UNL     1      44.063  10.964  49.945  1.00  0.00     0.005 C 
ENDBRANCH  29  30
ENDBRANCH   1  29
TORSDOF 7
ENDMDL
