MODEL 1
REMARK VINA RESULT: -8.691663371      0.000      0.000
REMARK  7 active torsions:
REMARK  status: ('A' for Active; 'I' for Inactive)
REMARK    1  A    between atoms: C2_2  and  C3_3 
REMARK    2  A    between atoms: C3_3  and  C4_4 
REMARK    3  A    between atoms: C8_14  and  C9_15 
REMARK    4  A    between atoms: C11_17  and  S1_18 
REMARK    5  A    between atoms: S1_18  and  N4_19 
REMARK    6  A    between atoms: C12_25  and  O4_26 
REMARK    7  A    between atoms: O4_26  and  C13_27 
ROOT
HETATM    1  C4  UNL     1      44.784  16.615  47.835  1.00  0.00     0.055 A 
HETATM    2  N1  UNL     1      44.751  16.586  46.483  1.00  0.00    -0.300 N 
ATOM      3  H1  UNL     1      45.114  17.313  45.867  1.00  0.00     0.187 HD
HETATM    4  N2  UNL     1      44.179  15.477  46.091  1.00  0.00    -0.289 N 
HETATM    5  C5  UNL     1      43.926  15.021  44.728  1.00  0.00     0.178 C 
HETATM    6  C6  UNL     1      43.819  14.748  47.161  1.00  0.00     0.147 A 
HETATM    7  C7  UNL     1      43.208  13.537  47.332  1.00  0.00     0.277 A 
HETATM    8  O1  UNL     1      42.840  12.844  46.358  1.00  0.00    -0.265 OA
HETATM    9  N3  UNL     1      42.985  13.054  48.591  1.00  0.00    -0.307 N 
ATOM     10  H3  UNL     1      42.527  12.148  48.697  1.00  0.00     0.170 HD
HETATM   11  C8  UNL     1      43.340  13.719  49.673  1.00  0.00     0.122 A 
HETATM   12  N5  UNL     1      43.944  14.916  49.469  1.00  0.00    -0.338 N 
ATOM     13  H5  UNL     1      44.226  15.444  50.295  1.00  0.00     0.167 HD
HETATM   14  C15 UNL     1      44.198  15.458  48.290  1.00  0.00     0.092 A 
ENDROOT
BRANCH  11  15
HETATM   15  C9  UNL     1      43.087  13.212  51.052  1.00  0.00     0.051 A 
HETATM   16  C10 UNL     1      42.691  11.926  51.252  1.00  0.00     0.051 A 
HETATM   17  C11 UNL     1      42.479  11.528  52.537  1.00  0.00     0.123 A 
HETATM   18  S2  UNL     1      42.830  12.935  53.436  1.00  0.00    -0.051 SA
HETATM   19  C12 UNL     1      43.235  13.983  52.159  1.00  0.00     0.125 A 
BRANCH  17  20
HETATM   20  S1  UNL     1      41.964   9.934  53.124  1.00  0.00     0.263 S 
HETATM   21  O2  UNL     1      42.757   8.882  52.392  1.00  0.00    -0.200 OA
HETATM   22  O3  UNL     1      42.315   9.842  54.568  1.00  0.00    -0.200 OA
BRANCH  20  23
HETATM   23  N4  UNL     1      40.283   9.723  52.820  1.00  0.00    -0.324 N 
ATOM     24  H42 UNL     1      39.868   8.868  52.449  1.00  0.00     0.169 HD
ATOM     25  H41 UNL     1      39.782  10.576  53.065  1.00  0.00     0.169 HD
ENDBRANCH  20  23
ENDBRANCH  17  20
BRANCH  19  26
HETATM   26  O4  UNL     1      43.610  15.294  52.390  1.00  0.00    -0.343 OA
BRANCH  26  27
HETATM   27  C13 UNL     1      42.698  16.317  52.734  1.00  0.00     0.172 C 
HETATM   28  C14 UNL     1      42.112  16.999  51.537  1.00  0.00     0.034 C 
ENDBRANCH  26  27
ENDBRANCH  19  26
ENDBRANCH  11  15
BRANCH   1  29
HETATM   29  C3  UNL     1      45.340  17.710  48.631  1.00  0.00     0.061 C 
BRANCH  29  30
HETATM   30  C2  UNL     1      44.289  18.436  49.394  1.00  0.00     0.002 C 
HETATM   31  C1  UNL     1      44.832  19.282  50.512  1.00  0.00     0.005 C 
ENDBRANCH  29  30
ENDBRANCH   1  29
TORSDOF 7
ENDMDL
