MODEL 2
REMARK VINA RESULT: -8.428989827      1.626      3.992
REMARK  7 active torsions:
REMARK  status: ('A' for Active; 'I' for Inactive)
REMARK    1  A    between atoms: C2_2  and  C3_3 
REMARK    2  A    between atoms: C3_3  and  C4_4 
REMARK    3  A    between atoms: C8_14  and  C9_15 
REMARK    4  A    between atoms: C11_17  and  S1_18 
REMARK    5  A    between atoms: S1_18  and  N4_19 
REMARK    6  A    between atoms: C12_25  and  O4_26 
REMARK    7  A    between atoms: O4_26  and  C13_27 
ROOT
HETATM    1  C4  UNL     1      44.503  16.569  47.747  1.00  0.00     0.055 A 
HETATM    2  N1  UNL     1      44.834  17.807  48.180  1.00  0.00    -0.300 N 
ATOM      3  H1  UNL     1      45.107  18.588  47.584  1.00  0.00     0.187 HD
HETATM    4  N2  UNL     1      44.749  17.843  49.484  1.00  0.00    -0.289 N 
HETATM    5  C5  UNL     1      45.013  18.966  50.378  1.00  0.00     0.178 C 
HETATM    6  C6  UNL     1      44.363  16.642  49.948  1.00  0.00     0.147 A 
HETATM    7  C7  UNL     1      44.117  16.131  51.192  1.00  0.00     0.277 A 
HETATM    8  O1  UNL     1      44.246  16.826  52.224  1.00  0.00    -0.265 OA
HETATM    9  N3  UNL     1      43.719  14.831  51.333  1.00  0.00    -0.307 N 
ATOM     10  H3  UNL     1      43.540  14.469  52.269  1.00  0.00     0.170 HD
HETATM   11  C8  UNL     1      43.559  14.028  50.298  1.00  0.00     0.122 A 
HETATM   12  N5  UNL     1      43.812  14.566  49.079  1.00  0.00    -0.338 N 
ATOM     13  H5  UNL     1      43.692  13.960  48.267  1.00  0.00     0.167 HD
HETATM   14  C15 UNL     1      44.199  15.809  48.852  1.00  0.00     0.092 A 
ENDROOT
BRANCH  11  15
HETATM   15  C9  UNL     1      43.143  12.604  50.438  1.00  0.00     0.051 A 
HETATM   16  C10 UNL     1      42.831  12.093  51.660  1.00  0.00     0.051 A 
HETATM   17  C11 UNL     1      42.457  10.785  51.715  1.00  0.00     0.123 A 
HETATM   18  S2  UNL     1      42.544  10.292  50.084  1.00  0.00    -0.051 SA
HETATM   19  C12 UNL     1      43.050  11.757  49.382  1.00  0.00     0.125 A 
BRANCH  17  20
HETATM   20  S1  UNL     1      41.994   9.833  53.140  1.00  0.00     0.263 S 
HETATM   21  O2  UNL     1      42.696   8.501  53.067  1.00  0.00    -0.200 OA
HETATM   22  O3  UNL     1      42.497  10.543  54.348  1.00  0.00    -0.200 OA
BRANCH  20  23
HETATM   23  N4  UNL     1      40.289   9.601  53.150  1.00  0.00    -0.324 N 
ATOM     24  H42 UNL     1      39.745   9.294  52.344  1.00  0.00     0.169 HD
ATOM     25  H41 UNL     1      39.920   9.818  54.075  1.00  0.00     0.169 HD
ENDBRANCH  20  23
ENDBRANCH  17  20
BRANCH  19  26
HETATM   26  O4  UNL     1      43.266  11.870  48.020  1.00  0.00    -0.343 OA
BRANCH  26  27
HETATM   27  C13 UNL     1      42.244  12.174  47.092  1.00  0.00     0.172 C 
HETATM   28  C14 UNL     1      42.748  12.928  45.900  1.00  0.00     0.034 C 
ENDBRANCH  26  27
ENDBRANCH  19  26
ENDBRANCH  11  15
BRANCH   1  29
HETATM   29  C3  UNL     1      44.497  16.151  46.345  1.00  0.00     0.061 C 
BRANCH  29  30
HETATM   30  C2  UNL     1      45.867  15.867  45.839  1.00  0.00     0.002 C 
HETATM   31  C1  UNL     1      45.956  15.812  44.339  1.00  0.00     0.005 C 
ENDBRANCH  29  30
ENDBRANCH   1  29
TORSDOF 7
ENDMDL
