MODEL 4
REMARK VINA RESULT: -7.982651707      4.829      7.807
REMARK  7 active torsions:
REMARK  status: ('A' for Active; 'I' for Inactive)
REMARK    1  A    between atoms: C2_2  and  C3_3 
REMARK    2  A    between atoms: C3_3  and  C4_4 
REMARK    3  A    between atoms: C8_14  and  C9_15 
REMARK    4  A    between atoms: C11_17  and  S1_18 
REMARK    5  A    between atoms: S1_18  and  N4_19 
REMARK    6  A    between atoms: C12_25  and  O4_26 
REMARK    7  A    between atoms: O4_26  and  C13_27 
ROOT
HETATM    1  C4  UNL     1      43.362  14.570  50.281  1.00  0.00     0.055 A 
HETATM    2  N1  UNL     1      43.440  15.354  51.381  1.00  0.00    -0.300 N 
ATOM      3  H1  UNL     1      43.124  15.094  52.315  1.00  0.00     0.187 HD
HETATM    4  N2  UNL     1      43.987  16.497  51.056  1.00  0.00    -0.289 N 
HETATM    5  C5  UNL     1      44.268  17.642  51.915  1.00  0.00     0.178 C 
HETATM    6  C6  UNL     1      44.282  16.504  49.745  1.00  0.00     0.147 A 
HETATM    7  C7  UNL     1      44.853  17.411  48.897  1.00  0.00     0.277 A 
HETATM    8  O1  UNL     1      45.229  18.536  49.297  1.00  0.00    -0.265 OA
HETATM    9  N3  UNL     1      45.027  17.102  47.577  1.00  0.00    -0.307 N 
ATOM     10  H3  UNL     1      45.455  17.794  46.962  1.00  0.00     0.170 HD
HETATM   11  C8  UNL     1      44.659  15.941  47.073  1.00  0.00     0.122 A 
HETATM   12  N5  UNL     1      44.096  15.063  47.940  1.00  0.00    -0.338 N 
ATOM     13  H5  UNL     1      43.806  14.158  47.567  1.00  0.00     0.167 HD
HETATM   14  C15 UNL     1      43.890  15.278  49.227  1.00  0.00     0.092 A 
ENDROOT
BRANCH  11  15
HETATM   15  C9  UNL     1      44.827  15.597  45.632  1.00  0.00     0.051 A 
HETATM   16  C10 UNL     1      43.804  15.036  44.933  1.00  0.00     0.051 A 
HETATM   17  C11 UNL     1      44.024  14.748  43.621  1.00  0.00     0.123 A 
HETATM   18  S2  UNL     1      45.635  15.258  43.382  1.00  0.00    -0.051 SA
HETATM   19  C12 UNL     1      45.979  15.820  44.951  1.00  0.00     0.125 A 
BRANCH  17  20
HETATM   20  S1  UNL     1      42.905  14.021  42.451  1.00  0.00     0.263 S 
HETATM   21  O2  UNL     1      41.584  14.741  42.550  1.00  0.00    -0.200 OA
HETATM   22  O3  UNL     1      43.449  14.261  41.086  1.00  0.00    -0.200 OA
BRANCH  20  23
HETATM   23  N4  UNL     1      42.695  12.352  42.813  1.00  0.00    -0.324 N 
ATOM     24  H42 UNL     1      43.273  11.828  43.470  1.00  0.00     0.169 HD
ATOM     25  H41 UNL     1      41.914  11.981  42.273  1.00  0.00     0.169 HD
ENDBRANCH  20  23
ENDBRANCH  17  20
BRANCH  19  26
HETATM   26  O4  UNL     1      47.213  16.355  45.273  1.00  0.00    -0.343 OA
BRANCH  26  27
HETATM   27  C13 UNL     1      48.315  16.362  44.388  1.00  0.00     0.172 C 
HETATM   28  C14 UNL     1      48.700  17.742  43.951  1.00  0.00     0.034 C 
ENDBRANCH  26  27
ENDBRANCH  19  26
ENDBRANCH  11  15
BRANCH   1  29
HETATM   29  C3  UNL     1      42.794  13.222  50.257  1.00  0.00     0.061 C 
BRANCH  29  30
HETATM   30  C2  UNL     1      43.746  12.205  50.782  1.00  0.00     0.002 C 
HETATM   31  C1  UNL     1      43.890  11.001  49.893  1.00  0.00     0.005 C 
ENDBRANCH  29  30
ENDBRANCH   1  29
TORSDOF 7
ENDMDL
