MODEL 5
REMARK VINA RESULT: -7.934534129      1.620      3.440
REMARK  7 active torsions:
REMARK  status: ('A' for Active; 'I' for Inactive)
REMARK    1  A    between atoms: C2_2  and  C3_3 
REMARK    2  A    between atoms: C3_3  and  C4_4 
REMARK    3  A    between atoms: C8_14  and  C9_15 
REMARK    4  A    between atoms: C11_17  and  S1_18 
REMARK    5  A    between atoms: S1_18  and  N4_19 
REMARK    6  A    between atoms: C12_25  and  O4_26 
REMARK    7  A    between atoms: O4_26  and  C13_27 
ROOT
HETATM    1  C4  UNL     1      42.975  12.981  45.993  1.00  0.00     0.055 A 
HETATM    2  N1  UNL     1      43.435  13.849  45.063  1.00  0.00    -0.300 N 
ATOM      3  H1  UNL     1      43.384  13.714  44.053  1.00  0.00     0.187 HD
HETATM    4  N2  UNL     1      43.955  14.887  45.664  1.00  0.00    -0.289 N 
HETATM    5  C5  UNL     1      44.569  16.067  45.064  1.00  0.00     0.178 C 
HETATM    6  C6  UNL     1      43.857  14.738  46.996  1.00  0.00     0.147 A 
HETATM    7  C7  UNL     1      44.220  15.497  48.073  1.00  0.00     0.277 A 
HETATM    8  O1  UNL     1      44.788  16.603  47.935  1.00  0.00    -0.265 OA
HETATM    9  N3  UNL     1      43.965  15.055  49.341  1.00  0.00    -0.307 N 
ATOM     10  H3  UNL     1      44.244  15.637  50.131  1.00  0.00     0.170 HD
HETATM   11  C8  UNL     1      43.371  13.901  49.578  1.00  0.00     0.122 A 
HETATM   12  N5  UNL     1      43.023  13.173  48.487  1.00  0.00    -0.338 N 
ATOM     13  H5  UNL     1      42.562  12.278  48.652  1.00  0.00     0.167 HD
HETATM   14  C15 UNL     1      43.231  13.523  47.230  1.00  0.00     0.092 A 
ENDROOT
BRANCH  11  15
HETATM   15  C9  UNL     1      43.103  13.399  50.955  1.00  0.00     0.051 A 
HETATM   16  C10 UNL     1      42.723  12.108  51.157  1.00  0.00     0.051 A 
HETATM   17  C11 UNL     1      42.495  11.715  52.440  1.00  0.00     0.123 A 
HETATM   18  S2  UNL     1      42.809  13.132  53.336  1.00  0.00    -0.051 SA
HETATM   19  C12 UNL     1      43.221  14.178  52.059  1.00  0.00     0.125 A 
BRANCH  17  20
HETATM   20  S1  UNL     1      41.994  10.117  53.028  1.00  0.00     0.263 S 
HETATM   21  O2  UNL     1      42.772   9.070  52.273  1.00  0.00    -0.200 OA
HETATM   22  O3  UNL     1      42.376  10.017  54.463  1.00  0.00    -0.200 OA
BRANCH  20  23
HETATM   23  N4  UNL     1      40.307   9.907  52.759  1.00  0.00    -0.324 N 
ATOM     24  H42 UNL     1      39.576  10.304  53.349  1.00  0.00     0.169 HD
ATOM     25  H41 UNL     1      40.163   9.329  51.931  1.00  0.00     0.169 HD
ENDBRANCH  20  23
ENDBRANCH  17  20
BRANCH  19  26
HETATM   26  O4  UNL     1      43.572  15.497  52.288  1.00  0.00    -0.343 OA
BRANCH  26  27
HETATM   27  C13 UNL     1      42.632  16.522  52.537  1.00  0.00     0.172 C 
HETATM   28  C14 UNL     1      42.608  17.562  51.461  1.00  0.00     0.034 C 
ENDBRANCH  26  27
ENDBRANCH  19  26
ENDBRANCH  11  15
BRANCH   1  29
HETATM   29  C3  UNL     1      42.340  11.697  45.693  1.00  0.00     0.061 C 
BRANCH  29  30
HETATM   30  C2  UNL     1      41.369  11.803  44.570  1.00  0.00     0.002 C 
HETATM   31  C1  UNL     1      40.032  12.357  44.980  1.00  0.00     0.005 C 
ENDBRANCH  29  30
ENDBRANCH   1  29
TORSDOF 7
ENDMDL
