MODEL 3
REMARK VINA RESULT: -8.744105787      3.124      8.606
REMARK  14 active torsions:
REMARK  status: ('A' for Active; 'I' for Inactive)
REMARK    1  A    between atoms: C1_2  and  C2_3 
REMARK       I    between atoms: C1_2  and  N2_28 
REMARK    2  A    between atoms: C2_3  and  C3_4 
REMARK    3  A    between atoms: C3_4  and  C4_5 
REMARK    4  A    between atoms: C4_5  and  O2_6 
REMARK    5  A    between atoms: C4_5  and  O3_8 
REMARK    6  A    between atoms: C4_5  and  C5_10 
REMARK    7  A    between atoms: C5_10  and  C6_11 
REMARK    8  A    between atoms: C5_10  and  N1_18 
REMARK    9  A    between atoms: C6_11  and  C7_12 
REMARK       I    between atoms: N1_18  and  C13_20 
REMARK   10  A    between atoms: C13_20  and  C14_22 
REMARK   11  A    between atoms: N2_28  and  C20_30 
REMARK   12  A    between atoms: C20_30  and  C21_31 
REMARK   13  A    between atoms: C20_30  and  C28_38 
REMARK   14  A    between atoms: C21_31  and  C22_32 
ROOT
HETATM    1  C4  UNL     1      45.263  50.067  43.780  1.00  0.00     0.180 C 
ENDROOT
BRANCH   1   2
HETATM    2  C3  UNL     1      44.283  51.024  43.296  1.00  0.00     0.079 C 
BRANCH   2   3
HETATM    3  C2  UNL     1      44.606  52.241  42.566  1.00  0.00     0.108 C 
BRANCH   3   4
HETATM    4  C1  UNL     1      44.678  52.231  41.108  1.00  0.00     0.218 C 
HETATM    5  O1  UNL     1      44.264  53.197  40.434  1.00  0.00    -0.274 OA
HETATM    6  N2  UNL     1      45.209  51.141  40.363  1.00  0.00    -0.346 N 
ATOM      7  H2  UNL     1      45.552  50.335  40.886  1.00  0.00     0.163 HD
BRANCH   6   8
HETATM    8  C20 UNL     1      45.298  51.089  38.921  1.00  0.00     0.189 C 
BRANCH   8   9
HETATM    9  C21 UNL     1      43.939  51.188  38.295  1.00  0.00     0.074 C 
BRANCH   9  10
HETATM   10  C22 UNL     1      43.186  49.921  38.301  1.00  0.00    -0.056 A 
HETATM   11  C23 UNL     1      43.433  48.951  37.348  1.00  0.00     0.007 A 
HETATM   12  C24 UNL     1      42.747  47.744  37.343  1.00  0.00     0.001 A 
HETATM   13  C25 UNL     1      41.800  47.510  38.316  1.00  0.00     0.000 A 
HETATM   14  C26 UNL     1      41.532  48.451  39.275  1.00  0.00     0.001 A 
HETATM   15  C27 UNL     1      42.233  49.648  39.252  1.00  0.00     0.007 A 
ENDBRANCH   9  10
ENDBRANCH   8   9
BRANCH   8  16
HETATM   16  C28 UNL     1      46.218  52.144  38.406  1.00  0.00     0.197 C 
HETATM   17  O5  UNL     1      45.911  52.723  37.335  1.00  0.00    -0.646 OA
HETATM   18  O6  UNL     1      47.378  52.504  39.055  1.00  0.00    -0.646 OA
ENDBRANCH   8  16
ENDBRANCH   6   8
ENDBRANCH   3   4
ENDBRANCH   2   3
ENDBRANCH   1   2
BRANCH   1  19
HETATM   19  O2  UNL     1      46.543  50.412  43.257  1.00  0.00    -0.364 OA
ATOM     20  H2  UNL     1      47.134  50.588  43.980  1.00  0.00     0.213 HD
ENDBRANCH   1  19
BRANCH   1  21
HETATM   21  O3  UNL     1      45.423  50.334  45.169  1.00  0.00    -0.364 OA
ATOM     22  H3  UNL     1      44.552  50.518  45.504  1.00  0.00     0.213 HD
ENDBRANCH   1  21
BRANCH   1  23
HETATM   23  C5  UNL     1      45.124  48.625  43.524  1.00  0.00     0.151 C 
BRANCH  23  24
HETATM   24  C6  UNL     1      44.123  48.129  42.554  1.00  0.00     0.069 C 
BRANCH  24  25
HETATM   25  C7  UNL     1      44.579  47.388  41.394  1.00  0.00    -0.056 A 
HETATM   26  C8  UNL     1      45.636  47.830  40.585  1.00  0.00     0.007 A 
HETATM   27  C9  UNL     1      46.020  47.108  39.473  1.00  0.00     0.001 A 
HETATM   28  C10 UNL     1      45.396  45.938  39.105  1.00  0.00     0.000 A 
HETATM   29  C11 UNL     1      44.361  45.489  39.883  1.00  0.00     0.001 A 
HETATM   30  C12 UNL     1      43.984  46.217  40.994  1.00  0.00     0.007 A 
ENDBRANCH  24  25
ENDBRANCH  23  24
BRANCH  23  31
HETATM   31  N1  UNL     1      44.930  47.913  44.819  1.00  0.00    -0.347 N 
HETATM   32  C13 UNL     1      45.928  47.093  45.391  1.00  0.00     0.252 C 
HETATM   33  O4  UNL     1      47.012  46.978  44.758  1.00  0.00    -0.268 OA
ATOM     34  H1  UNL     1      44.043  48.022  45.312  1.00  0.00     0.163 HD
BRANCH  32  35
HETATM   35  C14 UNL     1      45.812  46.378  46.638  1.00  0.00     0.032 A 
HETATM   36  C15 UNL     1      44.634  45.802  47.073  1.00  0.00     0.017 A 
HETATM   37  C16 UNL     1      44.561  45.116  48.284  1.00  0.00     0.001 A 
HETATM   38  C17 UNL     1      45.680  44.997  49.078  1.00  0.00     0.000 A 
HETATM   39  C18 UNL     1      46.853  45.561  48.665  1.00  0.00     0.001 A 
HETATM   40  C19 UNL     1      46.902  46.242  47.453  1.00  0.00     0.017 A 
ENDBRANCH  32  35
ENDBRANCH  23  31
ENDBRANCH   1  23
TORSDOF 14
ENDMDL
