MODEL 5
REMARK VINA RESULT: -8.637037046      5.698     11.296
REMARK  14 active torsions:
REMARK  status: ('A' for Active; 'I' for Inactive)
REMARK    1  A    between atoms: C1_2  and  C2_3 
REMARK       I    between atoms: C1_2  and  N2_28 
REMARK    2  A    between atoms: C2_3  and  C3_4 
REMARK    3  A    between atoms: C3_4  and  C4_5 
REMARK    4  A    between atoms: C4_5  and  O2_6 
REMARK    5  A    between atoms: C4_5  and  O3_8 
REMARK    6  A    between atoms: C4_5  and  C5_10 
REMARK    7  A    between atoms: C5_10  and  C6_11 
REMARK    8  A    between atoms: C5_10  and  N1_18 
REMARK    9  A    between atoms: C6_11  and  C7_12 
REMARK       I    between atoms: N1_18  and  C13_20 
REMARK   10  A    between atoms: C13_20  and  C14_22 
REMARK   11  A    between atoms: N2_28  and  C20_30 
REMARK   12  A    between atoms: C20_30  and  C21_31 
REMARK   13  A    between atoms: C20_30  and  C28_38 
REMARK   14  A    between atoms: C21_31  and  C22_32 
ROOT
HETATM    1  C4  UNL     1      45.418  45.826  46.960  1.00  0.00     0.180 C 
ENDROOT
BRANCH   1   2
HETATM    2  C3  UNL     1      45.943  46.911  46.150  1.00  0.00     0.079 C 
BRANCH   2   3
HETATM    3  C2  UNL     1      45.166  47.671  45.180  1.00  0.00     0.108 C 
BRANCH   3   4
HETATM    4  C1  UNL     1      45.453  47.558  43.754  1.00  0.00     0.218 C 
HETATM    5  O1  UNL     1      45.090  46.558  43.099  1.00  0.00    -0.274 OA
HETATM    6  N2  UNL     1      46.157  48.554  43.020  1.00  0.00    -0.346 N 
ATOM      7  H2  UNL     1      46.470  49.381  43.528  1.00  0.00     0.163 HD
BRANCH   6   8
HETATM    8  C20 UNL     1      46.463  48.482  41.609  1.00  0.00     0.189 C 
BRANCH   8   9
HETATM    9  C21 UNL     1      45.441  49.224  40.800  1.00  0.00     0.074 C 
BRANCH   9  10
HETATM   10  C22 UNL     1      44.273  48.409  40.422  1.00  0.00    -0.056 A 
HETATM   11  C23 UNL     1      43.004  48.761  40.843  1.00  0.00     0.007 A 
HETATM   12  C24 UNL     1      41.887  48.018  40.486  1.00  0.00     0.001 A 
HETATM   13  C25 UNL     1      42.052  46.904  39.691  1.00  0.00     0.000 A 
HETATM   14  C26 UNL     1      43.296  46.529  39.258  1.00  0.00     0.001 A 
HETATM   15  C27 UNL     1      44.393  47.291  39.633  1.00  0.00     0.007 A 
ENDBRANCH   9  10
ENDBRANCH   8   9
BRANCH   8  16
HETATM   16  C28 UNL     1      47.843  48.976  41.337  1.00  0.00     0.197 C 
HETATM   17  O5  UNL     1      48.722  48.135  41.025  1.00  0.00    -0.646 OA
HETATM   18  O6  UNL     1      48.187  50.307  41.415  1.00  0.00    -0.646 OA
ENDBRANCH   8  16
ENDBRANCH   6   8
ENDBRANCH   3   4
ENDBRANCH   2   3
ENDBRANCH   1   2
BRANCH   1  19
HETATM   19  O2  UNL     1      44.090  46.152  47.362  1.00  0.00    -0.364 OA
ATOM     20  H2  UNL     1      44.002  45.991  48.295  1.00  0.00     0.213 HD
ENDBRANCH   1  19
BRANCH   1  21
HETATM   21  O3  UNL     1      45.205  44.736  46.070  1.00  0.00    -0.364 OA
ATOM     22  H3  UNL     1      44.797  45.105  45.294  1.00  0.00     0.213 HD
ENDBRANCH   1  21
BRANCH   1  23
HETATM   23  C5  UNL     1      46.092  45.388  48.193  1.00  0.00     0.151 C 
BRANCH  23  24
HETATM   24  C6  UNL     1      47.540  45.626  48.380  1.00  0.00     0.069 C 
BRANCH  24  25
HETATM   25  C7  UNL     1      48.096  45.545  49.717  1.00  0.00    -0.056 A 
HETATM   26  C8  UNL     1      48.505  44.333  50.290  1.00  0.00     0.007 A 
HETATM   27  C9  UNL     1      49.003  44.297  51.577  1.00  0.00     0.001 A 
HETATM   28  C10 UNL     1      49.122  45.429  52.351  1.00  0.00     0.000 A 
HETATM   29  C11 UNL     1      48.728  46.623  51.808  1.00  0.00     0.001 A 
HETATM   30  C12 UNL     1      48.231  46.650  50.520  1.00  0.00     0.007 A 
ENDBRANCH  24  25
ENDBRANCH  23  24
BRANCH  23  31
HETATM   31  N1  UNL     1      45.810  43.943  48.419  1.00  0.00    -0.347 N 
HETATM   32  C13 UNL     1      44.812  43.496  49.314  1.00  0.00     0.252 C 
HETATM   33  O4  UNL     1      44.154  44.376  49.930  1.00  0.00    -0.268 OA
ATOM     34  H1  UNL     1      46.357  43.249  47.908  1.00  0.00     0.163 HD
BRANCH  32  35
HETATM   35  C14 UNL     1      44.484  42.117  49.581  1.00  0.00     0.032 A 
HETATM   36  C15 UNL     1      43.450  41.733  50.413  1.00  0.00     0.017 A 
HETATM   37  C16 UNL     1      43.160  40.390  50.646  1.00  0.00     0.001 A 
HETATM   38  C17 UNL     1      43.912  39.407  50.041  1.00  0.00     0.000 A 
HETATM   39  C18 UNL     1      44.939  39.767  49.217  1.00  0.00     0.001 A 
HETATM   40  C19 UNL     1      45.211  41.115  48.999  1.00  0.00     0.017 A 
ENDBRANCH  32  35
ENDBRANCH  23  31
ENDBRANCH   1  23
TORSDOF 14
ENDMDL
