MODEL 2
REMARK VINA RESULT: -9.035363285      5.497     11.148
REMARK  14 active torsions:
REMARK  status: ('A' for Active; 'I' for Inactive)
REMARK    1  A    between atoms: C1_2  and  C2_3 
REMARK       I    between atoms: C1_2  and  N2_28 
REMARK    2  A    between atoms: C2_3  and  C3_4 
REMARK    3  A    between atoms: C3_4  and  C4_5 
REMARK    4  A    between atoms: C4_5  and  O2_6 
REMARK    5  A    between atoms: C4_5  and  O3_8 
REMARK    6  A    between atoms: C4_5  and  C5_10 
REMARK    7  A    between atoms: C5_10  and  C6_11 
REMARK    8  A    between atoms: C5_10  and  N1_18 
REMARK    9  A    between atoms: C6_11  and  C7_12 
REMARK       I    between atoms: N1_18  and  C13_20 
REMARK   10  A    between atoms: C13_20  and  C14_22 
REMARK   11  A    between atoms: N2_28  and  C20_30 
REMARK   12  A    between atoms: C20_30  and  C21_31 
REMARK   13  A    between atoms: C20_30  and  C28_38 
REMARK   14  A    between atoms: C21_31  and  C22_32 
ROOT
HETATM    1  C4  UNL     1      45.033  45.775  46.662  1.00  0.00     0.180 C 
ENDROOT
BRANCH   1   2
HETATM    2  C3  UNL     1      45.229  47.045  45.984  1.00  0.00     0.079 C 
BRANCH   2   3
HETATM    3  C2  UNL     1      45.065  47.252  44.552  1.00  0.00     0.108 C 
BRANCH   3   4
HETATM    4  C1  UNL     1      46.214  47.164  43.657  1.00  0.00     0.218 C 
HETATM    5  O1  UNL     1      47.381  47.180  44.102  1.00  0.00    -0.274 OA
HETATM    6  N2  UNL     1      46.094  47.061  42.243  1.00  0.00    -0.346 N 
ATOM      7  H2  UNL     1      45.153  47.049  41.849  1.00  0.00     0.163 HD
BRANCH   6   8
HETATM    8  C20 UNL     1      47.205  46.972  41.321  1.00  0.00     0.189 C 
BRANCH   8   9
HETATM    9  C21 UNL     1      46.811  46.236  40.075  1.00  0.00     0.074 C 
BRANCH   9  10
HETATM   10  C22 UNL     1      45.430  46.506  39.635  1.00  0.00    -0.056 A 
HETATM   11  C23 UNL     1      45.174  47.460  38.668  1.00  0.00     0.007 A 
HETATM   12  C24 UNL     1      43.884  47.720  38.226  1.00  0.00     0.001 A 
HETATM   13  C25 UNL     1      42.836  47.005  38.766  1.00  0.00     0.000 A 
HETATM   14  C26 UNL     1      43.057  46.053  39.726  1.00  0.00     0.001 A 
HETATM   15  C27 UNL     1      44.358  45.818  40.147  1.00  0.00     0.007 A 
ENDBRANCH   9  10
ENDBRANCH   8   9
BRANCH   8  16
HETATM   16  C28 UNL     1      47.747  48.326  41.010  1.00  0.00     0.197 C 
HETATM   17  O5  UNL     1      48.984  48.439  40.824  1.00  0.00    -0.646 OA
HETATM   18  O6  UNL     1      46.952  49.447  40.921  1.00  0.00    -0.646 OA
ENDBRANCH   8  16
ENDBRANCH   6   8
ENDBRANCH   3   4
ENDBRANCH   2   3
ENDBRANCH   1   2
BRANCH   1  19
HETATM   19  O2  UNL     1      43.658  45.646  47.013  1.00  0.00    -0.364 OA
ATOM     20  H2  UNL     1      43.512  44.777  47.370  1.00  0.00     0.213 HD
ENDBRANCH   1  19
BRANCH   1  21
HETATM   21  O3  UNL     1      45.186  44.769  45.666  1.00  0.00    -0.364 OA
ATOM     22  H3  UNL     1      44.633  44.044  45.937  1.00  0.00     0.213 HD
ENDBRANCH   1  21
BRANCH   1  23
HETATM   23  C5  UNL     1      45.773  45.434  47.887  1.00  0.00     0.151 C 
BRANCH  23  24
HETATM   24  C6  UNL     1      47.213  45.751  48.006  1.00  0.00     0.069 C 
BRANCH  24  25
HETATM   25  C7  UNL     1      47.833  45.714  49.316  1.00  0.00    -0.056 A 
HETATM   26  C8  UNL     1      48.404  44.549  49.847  1.00  0.00     0.007 A 
HETATM   27  C9  UNL     1      48.959  44.551  51.111  1.00  0.00     0.001 A 
HETATM   28  C10 UNL     1      48.979  45.677  51.903  1.00  0.00     0.000 A 
HETATM   29  C11 UNL     1      48.425  46.825  51.402  1.00  0.00     0.001 A 
HETATM   30  C12 UNL     1      47.873  46.814  50.136  1.00  0.00     0.007 A 
ENDBRANCH  24  25
ENDBRANCH  23  24
BRANCH  23  31
HETATM   31  N1  UNL     1      45.573  43.989  48.194  1.00  0.00    -0.347 N 
HETATM   32  C13 UNL     1      44.667  43.543  49.182  1.00  0.00     0.252 C 
HETATM   33  O4  UNL     1      44.018  44.423  49.810  1.00  0.00    -0.268 OA
ATOM     34  H1  UNL     1      46.110  43.297  47.672  1.00  0.00     0.163 HD
BRANCH  32  35
HETATM   35  C14 UNL     1      44.420  42.165  49.532  1.00  0.00     0.032 A 
HETATM   36  C15 UNL     1      43.379  41.767  50.348  1.00  0.00     0.017 A 
HETATM   37  C16 UNL     1      43.171  40.425  50.662  1.00  0.00     0.001 A 
HETATM   38  C17 UNL     1      44.012  39.459  50.156  1.00  0.00     0.000 A 
HETATM   39  C18 UNL     1      45.047  39.834  49.348  1.00  0.00     0.001 A 
HETATM   40  C19 UNL     1      45.236  41.180  49.049  1.00  0.00     0.017 A 
ENDBRANCH  32  35
ENDBRANCH  23  31
ENDBRANCH   1  23
TORSDOF 14
ENDMDL
