MODEL 4
REMARK VINA RESULT: -8.656530616      5.666     11.243
REMARK  14 active torsions:
REMARK  status: ('A' for Active; 'I' for Inactive)
REMARK    1  A    between atoms: C1_2  and  C2_3 
REMARK       I    between atoms: C1_2  and  N2_28 
REMARK    2  A    between atoms: C2_3  and  C3_4 
REMARK    3  A    between atoms: C3_4  and  C4_5 
REMARK    4  A    between atoms: C4_5  and  O2_6 
REMARK    5  A    between atoms: C4_5  and  O3_8 
REMARK    6  A    between atoms: C4_5  and  C5_10 
REMARK    7  A    between atoms: C5_10  and  C6_11 
REMARK    8  A    between atoms: C5_10  and  N1_18 
REMARK    9  A    between atoms: C6_11  and  C7_12 
REMARK       I    between atoms: N1_18  and  C13_20 
REMARK   10  A    between atoms: C13_20  and  C14_22 
REMARK   11  A    between atoms: N2_28  and  C20_30 
REMARK   12  A    between atoms: C20_30  and  C21_31 
REMARK   13  A    between atoms: C20_30  and  C28_38 
REMARK   14  A    between atoms: C21_31  and  C22_32 
ROOT
HETATM    1  C4  UNL     1      45.418  45.845  46.925  1.00  0.00     0.180 C 
ENDROOT
BRANCH   1   2
HETATM    2  C3  UNL     1      45.932  46.935  46.114  1.00  0.00     0.079 C 
BRANCH   2   3
HETATM    3  C2  UNL     1      45.145  47.691  45.150  1.00  0.00     0.108 C 
BRANCH   3   4
HETATM    4  C1  UNL     1      45.422  47.579  43.722  1.00  0.00     0.218 C 
HETATM    5  O1  UNL     1      45.033  46.590  43.064  1.00  0.00    -0.274 OA
HETATM    6  N2  UNL     1      46.143  48.563  42.989  1.00  0.00    -0.346 N 
ATOM      7  H2  UNL     1      46.477  49.380  43.499  1.00  0.00     0.163 HD
BRANCH   6   8
HETATM    8  C20 UNL     1      46.440  48.491  41.575  1.00  0.00     0.189 C 
BRANCH   8   9
HETATM    9  C21 UNL     1      45.434  49.264  40.776  1.00  0.00     0.074 C 
BRANCH   9  10
HETATM   10  C22 UNL     1      44.247  48.479  40.392  1.00  0.00    -0.056 A 
HETATM   11  C23 UNL     1      44.373  47.360  39.592  1.00  0.00     0.007 A 
HETATM   12  C24 UNL     1      43.271  46.596  39.230  1.00  0.00     0.001 A 
HETATM   13  C25 UNL     1      42.024  46.966  39.684  1.00  0.00     0.000 A 
HETATM   14  C26 UNL     1      41.865  48.071  40.479  1.00  0.00     0.001 A 
HETATM   15  C27 UNL     1      42.986  48.814  40.821  1.00  0.00     0.007 A 
ENDBRANCH   9  10
ENDBRANCH   8   9
BRANCH   8  16
HETATM   16  C28 UNL     1      47.831  48.951  41.299  1.00  0.00     0.197 C 
HETATM   17  O5  UNL     1      48.079  50.178  41.403  1.00  0.00    -0.646 OA
HETATM   18  O6  UNL     1      48.844  48.091  40.939  1.00  0.00    -0.646 OA
ENDBRANCH   8  16
ENDBRANCH   6   8
ENDBRANCH   3   4
ENDBRANCH   2   3
ENDBRANCH   1   2
BRANCH   1  19
HETATM   19  O2  UNL     1      44.075  46.140  47.297  1.00  0.00    -0.364 OA
ATOM     20  H2  UNL     1      43.808  46.948  46.873  1.00  0.00     0.213 HD
ENDBRANCH   1  19
BRANCH   1  21
HETATM   21  O3  UNL     1      45.250  44.741  46.041  1.00  0.00    -0.364 OA
ATOM     22  H3  UNL     1      45.204  43.967  46.591  1.00  0.00     0.213 HD
ENDBRANCH   1  21
BRANCH   1  23
HETATM   23  C5  UNL     1      46.079  45.435  48.174  1.00  0.00     0.151 C 
BRANCH  23  24
HETATM   24  C6  UNL     1      47.520  45.694  48.379  1.00  0.00     0.069 C 
BRANCH  24  25
HETATM   25  C7  UNL     1      48.040  45.732  49.733  1.00  0.00    -0.056 A 
HETATM   26  C8  UNL     1      48.040  46.901  50.508  1.00  0.00     0.007 A 
HETATM   27  C9  UNL     1      48.570  46.899  51.782  1.00  0.00     0.001 A 
HETATM   28  C10 UNL     1      49.119  45.771  52.349  1.00  0.00     0.000 A 
HETATM   29  C11 UNL     1      49.128  44.619  51.606  1.00  0.00     0.001 A 
HETATM   30  C12 UNL     1      48.595  44.629  50.333  1.00  0.00     0.007 A 
ENDBRANCH  24  25
ENDBRANCH  23  24
BRANCH  23  31
HETATM   31  N1  UNL     1      45.811  43.990  48.419  1.00  0.00    -0.347 N 
HETATM   32  C13 UNL     1      44.790  43.544  49.287  1.00  0.00     0.252 C 
HETATM   33  O4  UNL     1      44.096  44.425  49.862  1.00  0.00    -0.268 OA
ATOM     34  H1  UNL     1      46.387  43.296  47.942  1.00  0.00     0.163 HD
BRANCH  32  35
HETATM   35  C14 UNL     1      44.474  42.165  49.571  1.00  0.00     0.032 A 
HETATM   36  C15 UNL     1      43.415  41.781  50.371  1.00  0.00     0.017 A 
HETATM   37  C16 UNL     1      43.139  40.438  50.621  1.00  0.00     0.001 A 
HETATM   38  C17 UNL     1      43.929  39.456  50.065  1.00  0.00     0.000 A 
HETATM   39  C18 UNL     1      44.981  39.817  49.273  1.00  0.00     0.001 A 
HETATM   40  C19 UNL     1      45.238  41.164  49.038  1.00  0.00     0.017 A 
ENDBRANCH  32  35
ENDBRANCH  23  31
ENDBRANCH   1  23
TORSDOF 14
ENDMDL
