MODEL 6
REMARK VINA RESULT: -8.516713573      1.394      4.639
REMARK  14 active torsions:
REMARK  status: ('A' for Active; 'I' for Inactive)
REMARK    1  A    between atoms: C1_2  and  C2_3 
REMARK       I    between atoms: C1_2  and  N2_28 
REMARK    2  A    between atoms: C2_3  and  C3_4 
REMARK    3  A    between atoms: C3_4  and  C4_5 
REMARK    4  A    between atoms: C4_5  and  O2_6 
REMARK    5  A    between atoms: C4_5  and  O3_8 
REMARK    6  A    between atoms: C4_5  and  C5_10 
REMARK    7  A    between atoms: C5_10  and  C6_11 
REMARK    8  A    between atoms: C5_10  and  N1_18 
REMARK    9  A    between atoms: C6_11  and  C7_12 
REMARK       I    between atoms: N1_18  and  C13_20 
REMARK   10  A    between atoms: C13_20  and  C14_22 
REMARK   11  A    between atoms: N2_28  and  C20_30 
REMARK   12  A    between atoms: C20_30  and  C21_31 
REMARK   13  A    between atoms: C20_30  and  C28_38 
REMARK   14  A    between atoms: C21_31  and  C22_32 
ROOT
HETATM    1  C4  UNL     1      41.597  47.319  38.089  1.00  0.00     0.180 C 
ENDROOT
BRANCH   1   2
HETATM    2  C3  UNL     1      42.832  46.758  38.610  1.00  0.00     0.079 C 
BRANCH   2   3
HETATM    3  C2  UNL     1      43.069  46.439  40.011  1.00  0.00     0.108 C 
BRANCH   3   4
HETATM    4  C1  UNL     1      43.960  47.267  40.815  1.00  0.00     0.218 C 
HETATM    5  O1  UNL     1      44.550  48.251  40.321  1.00  0.00    -0.274 OA
HETATM    6  N2  UNL     1      44.224  47.018  42.192  1.00  0.00    -0.346 N 
ATOM      7  H2  UNL     1      43.760  46.219  42.623  1.00  0.00     0.163 HD
BRANCH   6   8
HETATM    8  C20 UNL     1      45.100  47.812  43.025  1.00  0.00     0.189 C 
BRANCH   8   9
HETATM    9  C21 UNL     1      44.366  48.977  43.618  1.00  0.00     0.074 C 
BRANCH   9  10
HETATM   10  C22 UNL     1      45.049  50.269  43.433  1.00  0.00    -0.056 A 
HETATM   11  C23 UNL     1      46.075  50.397  42.516  1.00  0.00     0.007 A 
HETATM   12  C24 UNL     1      46.723  51.608  42.313  1.00  0.00     0.001 A 
HETATM   13  C25 UNL     1      46.329  52.707  43.044  1.00  0.00     0.000 A 
HETATM   14  C26 UNL     1      45.315  52.613  43.961  1.00  0.00     0.001 A 
HETATM   15  C27 UNL     1      44.688  51.389  44.142  1.00  0.00     0.007 A 
ENDBRANCH   9  10
ENDBRANCH   8   9
BRANCH   8  16
HETATM   16  C28 UNL     1      45.738  46.971  44.078  1.00  0.00     0.197 C 
HETATM   17  O5  UNL     1      45.059  46.044  44.586  1.00  0.00    -0.646 OA
HETATM   18  O6  UNL     1      47.030  47.170  44.511  1.00  0.00    -0.646 OA
ENDBRANCH   8  16
ENDBRANCH   6   8
ENDBRANCH   3   4
ENDBRANCH   2   3
ENDBRANCH   1   2
BRANCH   1  19
HETATM   19  O2  UNL     1      40.969  46.353  37.250  1.00  0.00    -0.364 OA
ATOM     20  H2  UNL     1      40.428  45.784  37.786  1.00  0.00     0.213 HD
ENDBRANCH   1  19
BRANCH   1  21
HETATM   21  O3  UNL     1      40.699  47.389  39.192  1.00  0.00    -0.364 OA
ATOM     22  H3  UNL     1      39.860  47.655  38.832  1.00  0.00     0.213 HD
ENDBRANCH   1  21
BRANCH   1  23
HETATM   23  C5  UNL     1      41.586  48.566  37.309  1.00  0.00     0.151 C 
BRANCH  23  24
HETATM   24  C6  UNL     1      41.449  48.528  35.836  1.00  0.00     0.069 C 
BRANCH  24  25
HETATM   25  C7  UNL     1      40.412  49.323  35.207  1.00  0.00    -0.056 A 
HETATM   26  C8  UNL     1      40.237  50.687  35.482  1.00  0.00     0.007 A 
HETATM   27  C9  UNL     1      39.219  51.400  34.882  1.00  0.00     0.001 A 
HETATM   28  C10 UNL     1      38.336  50.820  33.999  1.00  0.00     0.000 A 
HETATM   29  C11 UNL     1      38.491  49.488  33.718  1.00  0.00     0.001 A 
HETATM   30  C12 UNL     1      39.513  48.782  34.322  1.00  0.00     0.007 A 
ENDBRANCH  24  25
ENDBRANCH  23  24
BRANCH  23  31
HETATM   31  N1  UNL     1      42.787  49.375  37.658  1.00  0.00    -0.347 N 
HETATM   32  C13 UNL     1      42.695  50.680  38.192  1.00  0.00     0.252 C 
HETATM   33  O4  UNL     1      41.539  51.151  38.367  1.00  0.00    -0.268 OA
ATOM     34  H1  UNL     1      43.712  48.972  37.507  1.00  0.00     0.163 HD
BRANCH  32  35
HETATM   35  C14 UNL     1      43.811  51.518  38.554  1.00  0.00     0.032 A 
HETATM   36  C15 UNL     1      43.707  52.580  39.431  1.00  0.00     0.017 A 
HETATM   37  C16 UNL     1      44.809  53.367  39.759  1.00  0.00     0.001 A 
HETATM   38  C17 UNL     1      46.041  53.095  39.207  1.00  0.00     0.000 A 
HETATM   39  C18 UNL     1      46.163  52.049  38.337  1.00  0.00     0.001 A 
HETATM   40  C19 UNL     1      45.048  51.277  38.023  1.00  0.00     0.017 A 
ENDBRANCH  32  35
ENDBRANCH  23  31
ENDBRANCH   1  23
TORSDOF 14
ENDMDL
