MODEL 11
REMARK VINA RESULT: -8.333852946      5.584     11.232
REMARK  14 active torsions:
REMARK  status: ('A' for Active; 'I' for Inactive)
REMARK    1  A    between atoms: C1_2  and  C2_3 
REMARK       I    between atoms: C1_2  and  N2_28 
REMARK    2  A    between atoms: C2_3  and  C3_4 
REMARK    3  A    between atoms: C3_4  and  C4_5 
REMARK    4  A    between atoms: C4_5  and  O2_6 
REMARK    5  A    between atoms: C4_5  and  O3_8 
REMARK    6  A    between atoms: C4_5  and  C5_10 
REMARK    7  A    between atoms: C5_10  and  C6_11 
REMARK    8  A    between atoms: C5_10  and  N1_18 
REMARK    9  A    between atoms: C6_11  and  C7_12 
REMARK       I    between atoms: N1_18  and  C13_20 
REMARK   10  A    between atoms: C13_20  and  C14_22 
REMARK   11  A    between atoms: N2_28  and  C20_30 
REMARK   12  A    between atoms: C20_30  and  C21_31 
REMARK   13  A    between atoms: C20_30  and  C28_38 
REMARK   14  A    between atoms: C21_31  and  C22_32 
ROOT
HETATM    1  C4  UNL     1      45.167  45.751  46.667  1.00  0.00     0.180 C 
ENDROOT
BRANCH   1   2
HETATM    2  C3  UNL     1      45.478  46.953  45.913  1.00  0.00     0.079 C 
BRANCH   2   3
HETATM    3  C2  UNL     1      46.413  47.011  44.799  1.00  0.00     0.108 C 
BRANCH   3   4
HETATM    4  C1  UNL     1      46.015  47.615  43.531  1.00  0.00     0.218 C 
HETATM    5  O1  UNL     1      46.590  48.632  43.092  1.00  0.00    -0.274 OA
HETATM    6  N2  UNL     1      44.961  47.104  42.723  1.00  0.00    -0.346 N 
ATOM      7  H2  UNL     1      44.469  46.275  43.058  1.00  0.00     0.163 HD
BRANCH   6   8
HETATM    8  C20 UNL     1      44.533  47.670  41.463  1.00  0.00     0.189 C 
BRANCH   8   9
HETATM    9  C21 UNL     1      43.989  46.609  40.555  1.00  0.00     0.074 C 
BRANCH   9  10
HETATM   10  C22 UNL     1      43.588  47.108  39.227  1.00  0.00    -0.056 A 
HETATM   11  C23 UNL     1      42.292  46.940  38.775  1.00  0.00     0.007 A 
HETATM   12  C24 UNL     1      41.888  47.416  37.535  1.00  0.00     0.001 A 
HETATM   13  C25 UNL     1      42.802  48.072  36.740  1.00  0.00     0.000 A 
HETATM   14  C26 UNL     1      44.094  48.254  37.160  1.00  0.00     0.001 A 
HETATM   15  C27 UNL     1      44.468  47.765  38.404  1.00  0.00     0.007 A 
ENDBRANCH   9  10
ENDBRANCH   8   9
BRANCH   8  16
HETATM   16  C28 UNL     1      43.546  48.766  41.680  1.00  0.00     0.197 C 
HETATM   17  O5  UNL     1      43.943  49.952  41.558  1.00  0.00    -0.646 OA
HETATM   18  O6  UNL     1      42.229  48.531  42.007  1.00  0.00    -0.646 OA
ENDBRANCH   8  16
ENDBRANCH   6   8
ENDBRANCH   3   4
ENDBRANCH   2   3
ENDBRANCH   1   2
BRANCH   1  19
HETATM   19  O2  UNL     1      43.783  45.763  47.006  1.00  0.00    -0.364 OA
ATOM     20  H2  UNL     1      43.286  45.396  46.283  1.00  0.00     0.213 HD
ENDBRANCH   1  19
BRANCH   1  21
HETATM   21  O3  UNL     1      45.241  44.673  45.740  1.00  0.00    -0.364 OA
ATOM     22  H3  UNL     1      44.619  44.875  45.050  1.00  0.00     0.213 HD
ENDBRANCH   1  21
BRANCH   1  23
HETATM   23  C5  UNL     1      45.863  45.427  47.923  1.00  0.00     0.151 C 
BRANCH  23  24
HETATM   24  C6  UNL     1      47.298  45.744  48.087  1.00  0.00     0.069 C 
BRANCH  24  25
HETATM   25  C7  UNL     1      47.887  45.663  49.410  1.00  0.00    -0.056 A 
HETATM   26  C8  UNL     1      48.376  44.463  49.945  1.00  0.00     0.007 A 
HETATM   27  C9  UNL     1      48.903  44.425  51.220  1.00  0.00     0.001 A 
HETATM   28  C10 UNL     1      48.975  45.543  52.019  1.00  0.00     0.000 A 
HETATM   29  C11 UNL     1      48.502  46.726  51.514  1.00  0.00     0.001 A 
HETATM   30  C12 UNL     1      47.977  46.755  50.237  1.00  0.00     0.007 A 
ENDBRANCH  24  25
ENDBRANCH  23  24
BRANCH  23  31
HETATM   31  N1  UNL     1      45.649  43.988  48.245  1.00  0.00    -0.347 N 
HETATM   32  C13 UNL     1      44.676  43.556  49.174  1.00  0.00     0.252 C 
HETATM   33  O4  UNL     1      43.979  44.443  49.734  1.00  0.00    -0.268 OA
ATOM     34  H1  UNL     1      46.227  43.289  47.778  1.00  0.00     0.163 HD
BRANCH  32  35
HETATM   35  C14 UNL     1      44.413  42.184  49.533  1.00  0.00     0.032 A 
HETATM   36  C15 UNL     1      43.399  41.808  50.394  1.00  0.00     0.017 A 
HETATM   37  C16 UNL     1      43.173  40.472  50.716  1.00  0.00     0.001 A 
HETATM   38  C17 UNL     1      43.969  39.487  50.174  1.00  0.00     0.000 A 
HETATM   39  C18 UNL     1      44.977  39.839  49.323  1.00  0.00     0.001 A 
HETATM   40  C19 UNL     1      45.184  41.180  49.016  1.00  0.00     0.017 A 
ENDBRANCH  32  35
ENDBRANCH  23  31
ENDBRANCH   1  23
TORSDOF 14
ENDMDL
