MODEL 1
REMARK VINA RESULT: -9.133695503      0.000      0.000
REMARK  14 active torsions:
REMARK  status: ('A' for Active; 'I' for Inactive)
REMARK    1  A    between atoms: C1_2  and  C2_3 
REMARK       I    between atoms: C1_2  and  N2_28 
REMARK    2  A    between atoms: C2_3  and  C3_4 
REMARK    3  A    between atoms: C3_4  and  C4_5 
REMARK    4  A    between atoms: C4_5  and  O2_6 
REMARK    5  A    between atoms: C4_5  and  O3_8 
REMARK    6  A    between atoms: C4_5  and  C5_10 
REMARK    7  A    between atoms: C5_10  and  C6_11 
REMARK    8  A    between atoms: C5_10  and  N1_18 
REMARK    9  A    between atoms: C6_11  and  C7_12 
REMARK       I    between atoms: N1_18  and  C13_20 
REMARK   10  A    between atoms: C13_20  and  C14_22 
REMARK   11  A    between atoms: N2_28  and  C20_30 
REMARK   12  A    between atoms: C20_30  and  C21_31 
REMARK   13  A    between atoms: C20_30  and  C28_38 
REMARK   14  A    between atoms: C21_31  and  C22_32 
ROOT
HETATM    1  C4  UNL     1      43.032  47.054  39.226  1.00  0.00     0.180 C 
ENDROOT
BRANCH   1   2
HETATM    2  C3  UNL     1      44.169  46.153  39.136  1.00  0.00     0.079 C 
BRANCH   2   3
HETATM    3  C2  UNL     1      45.558  46.581  39.056  1.00  0.00     0.108 C 
BRANCH   3   4
HETATM    4  C1  UNL     1      46.197  47.230  40.196  1.00  0.00     0.218 C 
HETATM    5  O1  UNL     1      47.396  47.576  40.153  1.00  0.00    -0.274 OA
HETATM    6  N2  UNL     1      45.518  47.505  41.416  1.00  0.00    -0.346 N 
ATOM      7  H2  UNL     1      44.538  47.230  41.483  1.00  0.00     0.163 HD
BRANCH   6   8
HETATM    8  C20 UNL     1      46.112  48.145  42.569  1.00  0.00     0.189 C 
BRANCH   8   9
HETATM    9  C21 UNL     1      45.409  49.429  42.892  1.00  0.00     0.074 C 
BRANCH   9  10
HETATM   10  C22 UNL     1      46.198  50.635  42.584  1.00  0.00    -0.056 A 
HETATM   11  C23 UNL     1      47.269  50.571  41.713  1.00  0.00     0.007 A 
HETATM   12  C24 UNL     1      48.017  51.697  41.396  1.00  0.00     0.001 A 
HETATM   13  C25 UNL     1      47.679  52.905  41.965  1.00  0.00     0.000 A 
HETATM   14  C26 UNL     1      46.623  53.002  42.832  1.00  0.00     0.001 A 
HETATM   15  C27 UNL     1      45.896  51.858  43.130  1.00  0.00     0.007 A 
ENDBRANCH   9  10
ENDBRANCH   8   9
BRANCH   8  16
HETATM   16  C28 UNL     1      46.132  47.220  43.739  1.00  0.00     0.197 C 
HETATM   17  O5  UNL     1      47.170  47.183  44.446  1.00  0.00    -0.646 OA
HETATM   18  O6  UNL     1      45.066  46.414  44.071  1.00  0.00    -0.646 OA
ENDBRANCH   8  16
ENDBRANCH   6   8
ENDBRANCH   3   4
ENDBRANCH   2   3
ENDBRANCH   1   2
BRANCH   1  19
HETATM   19  O2  UNL     1      41.952  46.511  38.471  1.00  0.00    -0.364 OA
ATOM     20  H2  UNL     1      41.885  46.982  37.648  1.00  0.00     0.213 HD
ENDBRANCH   1  19
BRANCH   1  21
HETATM   21  O3  UNL     1      42.549  46.947  40.562  1.00  0.00    -0.364 OA
ATOM     22  H3  UNL     1      42.381  47.836  40.853  1.00  0.00     0.213 HD
ENDBRANCH   1  21
BRANCH   1  23
HETATM   23  C5  UNL     1      43.126  48.459  38.801  1.00  0.00     0.151 C 
BRANCH  23  24
HETATM   24  C6  UNL     1      43.347  49.530  39.797  1.00  0.00     0.069 C 
BRANCH  24  25
HETATM   25  C7  UNL     1      44.157  50.675  39.428  1.00  0.00    -0.056 A 
HETATM   26  C8  UNL     1      45.239  50.578  38.541  1.00  0.00     0.007 A 
HETATM   27  C9  UNL     1      46.001  51.688  38.238  1.00  0.00     0.001 A 
HETATM   28  C10 UNL     1      45.745  52.927  38.781  1.00  0.00     0.000 A 
HETATM   29  C11 UNL     1      44.691  53.041  39.650  1.00  0.00     0.001 A 
HETATM   30  C12 UNL     1      43.934  51.926  39.947  1.00  0.00     0.007 A 
ENDBRANCH  24  25
ENDBRANCH  23  24
BRANCH  23  31
HETATM   31  N1  UNL     1      41.931  48.805  37.982  1.00  0.00    -0.347 N 
HETATM   32  C13 UNL     1      42.034  49.350  36.683  1.00  0.00     0.252 C 
HETATM   33  O4  UNL     1      43.194  49.540  36.227  1.00  0.00    -0.268 OA
ATOM     34  H1  UNL     1      41.003  48.642  38.373  1.00  0.00     0.163 HD
BRANCH  32  35
HETATM   35  C14 UNL     1      40.924  49.707  35.833  1.00  0.00     0.032 A 
HETATM   36  C15 UNL     1      40.307  48.813  34.979  1.00  0.00     0.017 A 
HETATM   37  C16 UNL     1      39.235  49.194  34.175  1.00  0.00     0.001 A 
HETATM   38  C17 UNL     1      38.765  50.488  34.218  1.00  0.00     0.000 A 
HETATM   39  C18 UNL     1      39.363  51.386  35.055  1.00  0.00     0.001 A 
HETATM   40  C19 UNL     1      40.433  50.983  35.849  1.00  0.00     0.017 A 
ENDBRANCH  32  35
ENDBRANCH  23  31
ENDBRANCH   1  23
TORSDOF 14
ENDMDL
