MODEL 6
REMARK VINA RESULT: -10.695021115      6.269      9.826
REMARK  14 active torsions:
REMARK  status: ('A' for Active; 'I' for Inactive)
REMARK    1  A    between atoms: C1_2  and  C2_3 
REMARK       I    between atoms: C1_2  and  N2_28 
REMARK    2  A    between atoms: C2_3  and  C3_4 
REMARK    3  A    between atoms: C3_4  and  C4_5 
REMARK    4  A    between atoms: C4_5  and  O2_6 
REMARK    5  A    between atoms: C4_5  and  O3_8 
REMARK    6  A    between atoms: C4_5  and  C5_10 
REMARK    7  A    between atoms: C5_10  and  C6_11 
REMARK    8  A    between atoms: C5_10  and  N1_18 
REMARK    9  A    between atoms: C6_11  and  C7_12 
REMARK       I    between atoms: N1_18  and  C13_20 
REMARK   10  A    between atoms: C13_20  and  C14_22 
REMARK   11  A    between atoms: N2_28  and  C20_30 
REMARK   12  A    between atoms: C20_30  and  C21_31 
REMARK   13  A    between atoms: C20_30  and  C30_42 
REMARK   14  A    between atoms: C21_31  and  C22_32 
ROOT
HETATM    1  C4  UNL     1      44.766  52.655  38.835  1.00  0.00     0.180 C 
ENDROOT
BRANCH   1   2
HETATM    2  C3  UNL     1      44.593  51.697  37.717  1.00  0.00     0.079 C 
BRANCH   2   3
HETATM    3  C2  UNL     1      43.232  51.366  37.274  1.00  0.00     0.108 C 
BRANCH   3   4
HETATM    4  C1  UNL     1      43.007  49.887  37.358  1.00  0.00     0.218 C 
HETATM    5  O1  UNL     1      43.967  49.140  37.078  1.00  0.00    -0.274 OA
HETATM    6  N2  UNL     1      41.775  49.297  37.734  1.00  0.00    -0.346 N 
ATOM      7  H2  UNL     1      40.992  49.909  37.961  1.00  0.00     0.163 HD
BRANCH   6   8
HETATM    8  C20 UNL     1      41.577  47.869  37.810  1.00  0.00     0.189 C 
BRANCH   8   9
HETATM    9  C21 UNL     1      41.171  47.501  39.243  1.00  0.00     0.077 C 
BRANCH   9  10
HETATM   10  C22 UNL     1      42.311  46.904  39.965  1.00  0.00    -0.028 A 
HETATM   11  C23 UNL     1      43.118  45.847  39.607  1.00  0.00     0.096 A 
HETATM   12  N3  UNL     1      44.013  45.680  40.585  1.00  0.00    -0.365 N 
HETATM   13  C24 UNL     1      43.816  46.590  41.562  1.00  0.00     0.042 A 
ATOM     14  H3  UNL     1      44.742  44.966  40.592  1.00  0.00     0.165 HD
HETATM   15  C25 UNL     1      44.480  46.804  42.749  1.00  0.00     0.030 A 
HETATM   16  C29 UNL     1      42.747  47.375  41.191  1.00  0.00    -0.002 A 
HETATM   17  C26 UNL     1      44.072  47.825  43.593  1.00  0.00     0.002 A 
HETATM   18  C27 UNL     1      43.004  48.591  43.199  1.00  0.00     0.001 A 
HETATM   19  C28 UNL     1      42.321  48.402  42.022  1.00  0.00     0.014 A 
ENDBRANCH   9  10
ENDBRANCH   8   9
BRANCH   8  20
HETATM   20  C30 UNL     1      40.519  47.458  36.874  1.00  0.00     0.197 C 
HETATM   21  O5  UNL     1      40.446  47.981  35.746  1.00  0.00    -0.646 OA
HETATM   22  O6  UNL     1      39.604  46.495  37.238  1.00  0.00    -0.646 OA
ENDBRANCH   8  20
ENDBRANCH   6   8
ENDBRANCH   3   4
ENDBRANCH   2   3
ENDBRANCH   1   2
BRANCH   1  23
HETATM   23  O2  UNL     1      46.120  53.170  38.540  1.00  0.00    -0.364 OA
ATOM     24  H2  UNL     1      46.073  54.026  38.951  1.00  0.00     0.213 HD
ENDBRANCH   1  23
BRANCH   1  25
HETATM   25  O3  UNL     1      43.979  53.788  38.783  1.00  0.00    -0.364 OA
ATOM     26  H3  UNL     1      44.258  54.510  39.333  1.00  0.00     0.213 HD
ENDBRANCH   1  25
BRANCH   1  27
HETATM   27  C5  UNL     1      44.977  52.087  40.203  1.00  0.00     0.151 C 
BRANCH  27  28
HETATM   28  C6  UNL     1      44.501  50.674  40.421  1.00  0.00     0.069 C 
BRANCH  28  29
HETATM   29  C7  UNL     1      45.599  49.697  40.633  1.00  0.00    -0.056 A 
HETATM   30  C8  UNL     1      45.855  48.674  39.715  1.00  0.00     0.007 A 
HETATM   31  C9  UNL     1      46.859  47.749  39.878  1.00  0.00     0.001 A 
HETATM   32  C10 UNL     1      47.669  47.814  40.999  1.00  0.00     0.000 A 
HETATM   33  C11 UNL     1      47.438  48.814  41.919  1.00  0.00     0.001 A 
HETATM   34  C12 UNL     1      46.414  49.746  41.741  1.00  0.00     0.007 A 
ENDBRANCH  28  29
ENDBRANCH  27  28
BRANCH  27  35
HETATM   35  N1  UNL     1      44.110  52.866  41.152  1.00  0.00    -0.347 N 
HETATM   36  C13 UNL     1      44.613  53.293  42.408  1.00  0.00     0.252 C 
HETATM   37  O4  UNL     1      45.792  52.997  42.687  1.00  0.00    -0.268 OA
ATOM     38  H1  UNL     1      43.149  53.089  40.891  1.00  0.00     0.163 HD
BRANCH  36  39
HETATM   39  C14 UNL     1      43.825  54.047  43.366  1.00  0.00     0.032 A 
HETATM   40  C15 UNL     1      43.291  53.509  44.515  1.00  0.00     0.017 A 
HETATM   41  C16 UNL     1      42.537  54.273  45.403  1.00  0.00     0.001 A 
HETATM   42  C17 UNL     1      42.301  55.604  45.152  1.00  0.00     0.000 A 
HETATM   43  C18 UNL     1      42.829  56.155  44.005  1.00  0.00     0.001 A 
HETATM   44  C19 UNL     1      43.583  55.378  43.124  1.00  0.00     0.017 A 
ENDBRANCH  36  39
ENDBRANCH  27  35
ENDBRANCH   1  27
TORSDOF 14
ENDMDL
