MODEL 1
REMARK VINA RESULT: -11.278507873      0.000      0.000
REMARK  14 active torsions:
REMARK  status: ('A' for Active; 'I' for Inactive)
REMARK    1  A    between atoms: C1_2  and  C2_3 
REMARK       I    between atoms: C1_2  and  N2_28 
REMARK    2  A    between atoms: C2_3  and  C3_4 
REMARK    3  A    between atoms: C3_4  and  C4_5 
REMARK    4  A    between atoms: C4_5  and  O2_6 
REMARK    5  A    between atoms: C4_5  and  O3_8 
REMARK    6  A    between atoms: C4_5  and  C5_10 
REMARK    7  A    between atoms: C5_10  and  C6_11 
REMARK    8  A    between atoms: C5_10  and  N1_18 
REMARK    9  A    between atoms: C6_11  and  C7_12 
REMARK       I    between atoms: N1_18  and  C13_20 
REMARK   10  A    between atoms: C13_20  and  C14_22 
REMARK   11  A    between atoms: N2_28  and  C20_30 
REMARK   12  A    between atoms: C20_30  and  C21_31 
REMARK   13  A    between atoms: C20_30  and  C30_42 
REMARK   14  A    between atoms: C21_31  and  C22_32 
ROOT
HETATM    1  C4  UNL     1      44.779  45.652  46.483  1.00  0.00     0.180 C 
ENDROOT
BRANCH   1   2
HETATM    2  C3  UNL     1      44.934  47.010  45.908  1.00  0.00     0.079 C 
BRANCH   2   3
HETATM    3  C2  UNL     1      44.493  47.246  44.527  1.00  0.00     0.108 C 
BRANCH   3   4
HETATM    4  C1  UNL     1      45.669  47.220  43.599  1.00  0.00     0.218 C 
HETATM    5  O1  UNL     1      46.808  47.191  44.109  1.00  0.00    -0.274 OA
HETATM    6  N2  UNL     1      45.559  47.227  42.186  1.00  0.00    -0.346 N 
ATOM      7  H2  UNL     1      44.628  47.252  41.772  1.00  0.00     0.163 HD
BRANCH   6   8
HETATM    8  C20 UNL     1      46.704  47.201  41.307  1.00  0.00     0.189 C 
BRANCH   8   9
HETATM    9  C21 UNL     1      46.363  46.351  40.076  1.00  0.00     0.077 C 
BRANCH   9  10
HETATM   10  C22 UNL     1      44.909  46.370  39.823  1.00  0.00    -0.028 A 
HETATM   11  C23 UNL     1      43.903  45.659  40.438  1.00  0.00     0.096 A 
HETATM   12  N3  UNL     1      42.751  46.019  39.863  1.00  0.00    -0.365 N 
HETATM   13  C24 UNL     1      42.975  46.937  38.899  1.00  0.00     0.042 A 
ATOM     14  H3  UNL     1      41.834  45.652  40.117  1.00  0.00     0.165 HD
HETATM   15  C25 UNL     1      42.109  47.589  38.051  1.00  0.00     0.030 A 
HETATM   16  C29 UNL     1      44.331  47.175  38.857  1.00  0.00    -0.002 A 
HETATM   17  C26 UNL     1      42.602  48.504  37.134  1.00  0.00     0.002 A 
HETATM   18  C27 UNL     1      43.956  48.722  37.112  1.00  0.00     0.001 A 
HETATM   19  C28 UNL     1      44.845  48.087  37.945  1.00  0.00     0.014 A 
ENDBRANCH   9  10
ENDBRANCH   8   9
BRANCH   8  20
HETATM   20  C30 UNL     1      47.045  48.569  40.885  1.00  0.00     0.197 C 
HETATM   21  O5  UNL     1      48.177  48.815  40.426  1.00  0.00    -0.646 OA
HETATM   22  O6  UNL     1      46.120  49.582  40.996  1.00  0.00    -0.646 OA
ENDBRANCH   8  20
ENDBRANCH   6   8
ENDBRANCH   3   4
ENDBRANCH   2   3
ENDBRANCH   1   2
BRANCH   1  23
HETATM   23  O2  UNL     1      43.349  45.681  46.860  1.00  0.00    -0.364 OA
ATOM     24  H2  UNL     1      43.404  45.402  47.767  1.00  0.00     0.213 HD
ENDBRANCH   1  23
BRANCH   1  25
HETATM   25  O3  UNL     1      44.847  44.607  45.583  1.00  0.00    -0.364 OA
ATOM     26  H3  UNL     1      44.181  44.602  44.906  1.00  0.00     0.213 HD
ENDBRANCH   1  25
BRANCH   1  27
HETATM   27  C5  UNL     1      45.411  45.391  47.813  1.00  0.00     0.151 C 
BRANCH  27  28
HETATM   28  C6  UNL     1      46.910  45.533  47.881  1.00  0.00     0.069 C 
BRANCH  28  29
HETATM   29  C7  UNL     1      47.443  45.616  49.264  1.00  0.00    -0.056 A 
HETATM   30  C8  UNL     1      47.429  46.817  49.982  1.00  0.00     0.007 A 
HETATM   31  C9  UNL     1      47.917  46.934  51.262  1.00  0.00     0.001 A 
HETATM   32  C10 UNL     1      48.453  45.823  51.891  1.00  0.00     0.000 A 
HETATM   33  C11 UNL     1      48.478  44.629  51.205  1.00  0.00     0.001 A 
HETATM   34  C12 UNL     1      47.980  44.524  49.906  1.00  0.00     0.007 A 
ENDBRANCH  28  29
ENDBRANCH  27  28
BRANCH  27  35
HETATM   35  N1  UNL     1      45.215  43.934  48.127  1.00  0.00    -0.347 N 
HETATM   36  C13 UNL     1      44.258  43.523  49.091  1.00  0.00     0.252 C 
HETATM   37  O4  UNL     1      43.596  44.414  49.660  1.00  0.00    -0.268 OA
ATOM     38  H1  UNL     1      45.775  43.233  47.643  1.00  0.00     0.163 HD
BRANCH  36  39
HETATM   39  C14 UNL     1      44.023  42.134  49.437  1.00  0.00     0.032 A 
HETATM   40  C15 UNL     1      43.000  41.706  50.251  1.00  0.00     0.017 A 
HETATM   41  C16 UNL     1      42.817  40.359  50.558  1.00  0.00     0.001 A 
HETATM   42  C17 UNL     1      43.668  39.407  50.048  1.00  0.00     0.000 A 
HETATM   43  C18 UNL     1      44.698  39.821  49.233  1.00  0.00     0.001 A 
HETATM   44  C19 UNL     1      44.868  41.174  48.934  1.00  0.00     0.017 A 
ENDBRANCH  36  39
ENDBRANCH  27  35
ENDBRANCH   1  27
TORSDOF 14
ENDMDL
