MODEL 2
REMARK VINA RESULT: -11.090089254      2.814      6.076
REMARK  14 active torsions:
REMARK  status: ('A' for Active; 'I' for Inactive)
REMARK    1  A    between atoms: C1_2  and  C2_3 
REMARK       I    between atoms: C1_2  and  N2_28 
REMARK    2  A    between atoms: C2_3  and  C3_4 
REMARK    3  A    between atoms: C3_4  and  C4_5 
REMARK    4  A    between atoms: C4_5  and  O2_6 
REMARK    5  A    between atoms: C4_5  and  O3_8 
REMARK    6  A    between atoms: C4_5  and  C5_10 
REMARK    7  A    between atoms: C5_10  and  C6_11 
REMARK    8  A    between atoms: C5_10  and  N1_18 
REMARK    9  A    between atoms: C6_11  and  C7_12 
REMARK       I    between atoms: N1_18  and  C13_20 
REMARK   10  A    between atoms: C13_20  and  C14_22 
REMARK   11  A    between atoms: N2_28  and  C20_30 
REMARK   12  A    between atoms: C20_30  and  C21_31 
REMARK   13  A    between atoms: C20_30  and  C30_42 
REMARK   14  A    between atoms: C21_31  and  C22_32 
ROOT
HETATM    1  C4  UNL     1      43.967  49.477  44.209  1.00  0.00     0.180 C 
ENDROOT
BRANCH   1   2
HETATM    2  C3  UNL     1      44.200  50.471  43.133  1.00  0.00     0.079 C 
BRANCH   2   3
HETATM    3  C2  UNL     1      45.534  50.553  42.524  1.00  0.00     0.108 C 
BRANCH   3   4
HETATM    4  C1  UNL     1      45.415  50.673  41.035  1.00  0.00     0.218 C 
HETATM    5  O1  UNL     1      46.326  50.180  40.341  1.00  0.00    -0.274 OA
HETATM    6  N2  UNL     1      44.333  51.312  40.380  1.00  0.00    -0.346 N 
ATOM      7  H2  UNL     1      43.590  51.716  40.950  1.00  0.00     0.163 HD
BRANCH   6   8
HETATM    8  C20 UNL     1      44.234  51.417  38.944  1.00  0.00     0.189 C 
BRANCH   8   9
HETATM    9  C21 UNL     1      42.777  51.714  38.568  1.00  0.00     0.077 C 
BRANCH   9  10
HETATM   10  C22 UNL     1      42.290  50.735  37.577  1.00  0.00    -0.028 A 
HETATM   11  C23 UNL     1      42.219  50.838  36.205  1.00  0.00     0.096 A 
HETATM   12  N3  UNL     1      41.709  49.692  35.745  1.00  0.00    -0.365 N 
HETATM   13  C24 UNL     1      41.448  48.851  36.769  1.00  0.00     0.042 A 
ATOM     14  H3  UNL     1      41.540  49.483  34.761  1.00  0.00     0.165 HD
HETATM   15  C25 UNL     1      40.925  47.578  36.783  1.00  0.00     0.030 A 
HETATM   16  C29 UNL     1      41.808  49.488  37.934  1.00  0.00    -0.002 A 
HETATM   17  C26 UNL     1      40.755  46.916  37.990  1.00  0.00     0.002 A 
HETATM   18  C27 UNL     1      41.122  47.574  39.136  1.00  0.00     0.001 A 
HETATM   19  C28 UNL     1      41.645  48.845  39.154  1.00  0.00     0.014 A 
ENDBRANCH   9  10
ENDBRANCH   8   9
BRANCH   8  20
HETATM   20  C30 UNL     1      45.102  52.503  38.458  1.00  0.00     0.197 C 
HETATM   21  O5  UNL     1      45.844  52.315  37.476  1.00  0.00    -0.646 OA
HETATM   22  O6  UNL     1      45.098  53.729  39.085  1.00  0.00    -0.646 OA
ENDBRANCH   8  20
ENDBRANCH   6   8
ENDBRANCH   3   4
ENDBRANCH   2   3
ENDBRANCH   1   2
BRANCH   1  23
HETATM   23  O2  UNL     1      44.747  50.084  45.308  1.00  0.00    -0.364 OA
ATOM     24  H2  UNL     1      45.221  50.757  44.833  1.00  0.00     0.213 HD
ENDBRANCH   1  23
BRANCH   1  25
HETATM   25  O3  UNL     1      42.685  49.433  44.718  1.00  0.00    -0.364 OA
ATOM     26  H3  UNL     1      41.986  49.407  44.075  1.00  0.00     0.213 HD
ENDBRANCH   1  25
BRANCH   1  27
HETATM   27  C5  UNL     1      44.650  48.152  44.083  1.00  0.00     0.151 C 
BRANCH  27  28
HETATM   28  C6  UNL     1      44.031  47.169  43.123  1.00  0.00     0.069 C 
BRANCH  28  29
HETATM   29  C7  UNL     1      44.859  46.902  41.920  1.00  0.00    -0.056 A 
HETATM   30  C8  UNL     1      44.286  46.476  40.717  1.00  0.00     0.007 A 
HETATM   31  C9  UNL     1      45.020  46.215  39.584  1.00  0.00     0.001 A 
HETATM   32  C10 UNL     1      46.395  46.374  39.612  1.00  0.00     0.000 A 
HETATM   33  C11 UNL     1      46.984  46.793  40.785  1.00  0.00     0.001 A 
HETATM   34  C12 UNL     1      46.227  47.054  41.928  1.00  0.00     0.007 A 
ENDBRANCH  28  29
ENDBRANCH  27  28
BRANCH  27  35
HETATM   35  N1  UNL     1      44.507  47.444  45.401  1.00  0.00    -0.347 N 
HETATM   36  C13 UNL     1      45.613  46.779  45.990  1.00  0.00     0.252 C 
HETATM   37  O4  UNL     1      46.696  46.806  45.372  1.00  0.00    -0.268 OA
ATOM     38  H1  UNL     1      43.605  47.442  45.877  1.00  0.00     0.163 HD
BRANCH  36  39
HETATM   39  C14 UNL     1      45.536  46.079  47.259  1.00  0.00     0.032 A 
HETATM   40  C15 UNL     1      46.578  45.994  48.154  1.00  0.00     0.017 A 
HETATM   41  C16 UNL     1      46.457  45.305  49.359  1.00  0.00     0.001 A 
HETATM   42  C17 UNL     1      45.277  44.684  49.693  1.00  0.00     0.000 A 
HETATM   43  C18 UNL     1      44.226  44.760  48.805  1.00  0.00     0.001 A 
HETATM   44  C19 UNL     1      44.361  45.454  47.601  1.00  0.00     0.017 A 
ENDBRANCH  36  39
ENDBRANCH  27  35
ENDBRANCH   1  27
TORSDOF 14
ENDMDL
