MODEL 7
REMARK VINA RESULT: -10.404782389      1.411      4.521
REMARK  14 active torsions:
REMARK  status: ('A' for Active; 'I' for Inactive)
REMARK    1  A    between atoms: C1_2  and  C2_3 
REMARK       I    between atoms: C1_2  and  N2_28 
REMARK    2  A    between atoms: C2_3  and  C3_4 
REMARK    3  A    between atoms: C3_4  and  C4_5 
REMARK    4  A    between atoms: C4_5  and  O2_6 
REMARK    5  A    between atoms: C4_5  and  O3_8 
REMARK    6  A    between atoms: C4_5  and  C5_10 
REMARK    7  A    between atoms: C5_10  and  C6_11 
REMARK    8  A    between atoms: C5_10  and  N1_18 
REMARK    9  A    between atoms: C6_11  and  C7_12 
REMARK       I    between atoms: N1_18  and  C13_20 
REMARK   10  A    between atoms: C13_20  and  C14_22 
REMARK   11  A    between atoms: N2_28  and  C20_30 
REMARK   12  A    between atoms: C20_30  and  C21_31 
REMARK   13  A    between atoms: C20_30  and  C30_42 
REMARK   14  A    between atoms: C21_31  and  C22_32 
ROOT
HETATM    1  C4  UNL     1      45.146  44.846  47.318  1.00  0.00     0.180 C 
ENDROOT
BRANCH   1   2
HETATM    2  C3  UNL     1      45.846  46.106  46.968  1.00  0.00     0.079 C 
BRANCH   2   3
HETATM    3  C2  UNL     1      45.114  47.136  46.219  1.00  0.00     0.108 C 
BRANCH   3   4
HETATM    4  C1  UNL     1      45.100  46.798  44.759  1.00  0.00     0.218 C 
HETATM    5  O1  UNL     1      44.480  45.773  44.408  1.00  0.00    -0.274 OA
HETATM    6  N2  UNL     1      45.746  47.573  43.764  1.00  0.00    -0.346 N 
ATOM      7  H2  UNL     1      46.253  48.410  44.053  1.00  0.00     0.163 HD
BRANCH   6   8
HETATM    8  C20 UNL     1      45.721  47.233  42.361  1.00  0.00     0.189 C 
BRANCH   8   9
HETATM    9  C21 UNL     1      44.644  48.077  41.667  1.00  0.00     0.077 C 
BRANCH   9  10
HETATM   10  C22 UNL     1      43.840  47.238  40.756  1.00  0.00    -0.028 A 
HETATM   11  C23 UNL     1      43.774  45.866  40.659  1.00  0.00     0.096 A 
HETATM   12  N3  UNL     1      42.905  45.577  39.686  1.00  0.00    -0.365 N 
HETATM   13  C24 UNL     1      42.407  46.712  39.149  1.00  0.00     0.042 A 
ATOM     14  H3  UNL     1      42.655  44.634  39.389  1.00  0.00     0.165 HD
HETATM   15  C25 UNL     1      41.497  46.910  38.137  1.00  0.00     0.030 A 
HETATM   16  C29 UNL     1      42.983  47.773  39.811  1.00  0.00    -0.002 A 
HETATM   17  C26 UNL     1      41.147  48.200  37.769  1.00  0.00     0.002 A 
HETATM   18  C27 UNL     1      41.736  49.240  38.443  1.00  0.00     0.001 A 
HETATM   19  C28 UNL     1      42.648  49.073  39.458  1.00  0.00     0.014 A 
ENDBRANCH   9  10
ENDBRANCH   8   9
BRANCH   8  20
HETATM   20  C30 UNL     1      47.033  47.508  41.754  1.00  0.00     0.197 C 
HETATM   21  O5  UNL     1      47.686  46.582  41.237  1.00  0.00    -0.646 OA
HETATM   22  O6  UNL     1      47.546  48.786  41.754  1.00  0.00    -0.646 OA
ENDBRANCH   8  20
ENDBRANCH   6   8
ENDBRANCH   3   4
ENDBRANCH   2   3
ENDBRANCH   1   2
BRANCH   1  23
HETATM   23  O2  UNL     1      43.763  45.344  47.484  1.00  0.00    -0.364 OA
ATOM     24  H2  UNL     1      43.517  44.904  48.289  1.00  0.00     0.213 HD
ENDBRANCH   1  23
BRANCH   1  25
HETATM   25  O3  UNL     1      45.029  43.921  46.301  1.00  0.00    -0.364 OA
ATOM     26  H3  UNL     1      44.516  44.197  45.549  1.00  0.00     0.213 HD
ENDBRANCH   1  25
BRANCH   1  27
HETATM   27  C5  UNL     1      45.398  44.273  48.676  1.00  0.00     0.151 C 
BRANCH  27  28
HETATM   28  C6  UNL     1      44.181  43.934  49.497  1.00  0.00     0.069 C 
BRANCH  28  29
HETATM   29  C7  UNL     1      43.921  42.477  49.613  1.00  0.00    -0.056 A 
HETATM   30  C8  UNL     1      42.884  41.979  50.409  1.00  0.00     0.007 A 
HETATM   31  C9  UNL     1      42.616  40.638  50.544  1.00  0.00     0.001 A 
HETATM   32  C10 UNL     1      43.397  39.716  49.869  1.00  0.00     0.000 A 
HETATM   33  C11 UNL     1      44.425  40.180  49.078  1.00  0.00     0.001 A 
HETATM   34  C12 UNL     1      44.687  41.545  48.950  1.00  0.00     0.007 A 
ENDBRANCH  28  29
ENDBRANCH  27  28
BRANCH  27  35
HETATM   35  N1  UNL     1      46.053  45.344  49.503  1.00  0.00    -0.347 N 
HETATM   36  C13 UNL     1      47.220  45.064  50.259  1.00  0.00     0.252 C 
HETATM   37  O4  UNL     1      47.674  43.903  50.209  1.00  0.00    -0.268 OA
ATOM     38  H1  UNL     1      45.653  46.282  49.521  1.00  0.00     0.163 HD
BRANCH  36  39
HETATM   39  C14 UNL     1      47.896  46.055  51.076  1.00  0.00     0.032 A 
HETATM   40  C15 UNL     1      47.411  47.322  51.306  1.00  0.00     0.017 A 
HETATM   41  C16 UNL     1      48.099  48.242  52.095  1.00  0.00     0.001 A 
HETATM   42  C17 UNL     1      49.299  47.903  52.674  1.00  0.00     0.000 A 
HETATM   43  C18 UNL     1      49.797  46.638  52.451  1.00  0.00     0.001 A 
HETATM   44  C19 UNL     1      49.096  45.727  51.659  1.00  0.00     0.017 A 
ENDBRANCH  36  39
ENDBRANCH  27  35
ENDBRANCH   1  27
TORSDOF 14
ENDMDL
