MODEL 3
REMARK VINA RESULT: -11.004855920      1.227      1.701
REMARK  14 active torsions:
REMARK  status: ('A' for Active; 'I' for Inactive)
REMARK    1  A    between atoms: C1_2  and  C2_3 
REMARK       I    between atoms: C1_2  and  N2_28 
REMARK    2  A    between atoms: C2_3  and  C3_4 
REMARK    3  A    between atoms: C3_4  and  C4_5 
REMARK    4  A    between atoms: C4_5  and  O2_6 
REMARK    5  A    between atoms: C4_5  and  O3_8 
REMARK    6  A    between atoms: C4_5  and  C5_10 
REMARK    7  A    between atoms: C5_10  and  C6_11 
REMARK    8  A    between atoms: C5_10  and  N1_18 
REMARK    9  A    between atoms: C6_11  and  C7_12 
REMARK       I    between atoms: N1_18  and  C13_20 
REMARK   10  A    between atoms: C13_20  and  C14_22 
REMARK   11  A    between atoms: N2_28  and  C20_30 
REMARK   12  A    between atoms: C20_30  and  C21_31 
REMARK   13  A    between atoms: C20_30  and  C30_42 
REMARK   14  A    between atoms: C21_31  and  C22_32 
ROOT
HETATM    1  C4  UNL     1      45.088  45.727  46.725  1.00  0.00     0.180 C 
ENDROOT
BRANCH   1   2
HETATM    2  C3  UNL     1      45.656  46.888  45.996  1.00  0.00     0.079 C 
BRANCH   2   3
HETATM    3  C2  UNL     1      44.753  47.735  45.206  1.00  0.00     0.108 C 
BRANCH   3   4
HETATM    4  C1  UNL     1      44.927  47.451  43.745  1.00  0.00     0.218 C 
HETATM    5  O1  UNL     1      44.386  46.424  43.287  1.00  0.00    -0.274 OA
HETATM    6  N2  UNL     1      45.666  48.277  42.863  1.00  0.00    -0.346 N 
ATOM      7  H2  UNL     1      46.109  49.116  43.239  1.00  0.00     0.163 HD
BRANCH   6   8
HETATM    8  C20 UNL     1      45.822  47.988  41.458  1.00  0.00     0.189 C 
BRANCH   8   9
HETATM    9  C21 UNL     1      45.342  49.199  40.647  1.00  0.00     0.077 C 
BRANCH   9  10
HETATM   10  C22 UNL     1      44.616  48.755  39.441  1.00  0.00    -0.028 A 
HETATM   11  C23 UNL     1      45.056  48.655  38.140  1.00  0.00     0.096 A 
HETATM   12  N3  UNL     1      44.034  48.206  37.406  1.00  0.00    -0.365 N 
HETATM   13  C24 UNL     1      42.947  48.012  38.185  1.00  0.00     0.042 A 
ATOM     14  H3  UNL     1      44.068  48.035  36.401  1.00  0.00     0.165 HD
HETATM   15  C25 UNL     1      41.682  47.565  37.879  1.00  0.00     0.030 A 
HETATM   16  C29 UNL     1      43.292  48.351  39.474  1.00  0.00    -0.002 A 
HETATM   17  C26 UNL     1      40.730  47.452  38.880  1.00  0.00     0.002 A 
HETATM   18  C27 UNL     1      41.100  47.798  40.155  1.00  0.00     0.001 A 
HETATM   19  C28 UNL     1      42.354  48.247  40.492  1.00  0.00     0.014 A 
ENDBRANCH   9  10
ENDBRANCH   8   9
BRANCH   8  20
HETATM   20  C30 UNL     1      47.237  47.718  41.154  1.00  0.00     0.197 C 
HETATM   21  O5  UNL     1      47.720  46.594  41.385  1.00  0.00    -0.646 OA
HETATM   22  O6  UNL     1      48.033  48.703  40.614  1.00  0.00    -0.646 OA
ENDBRANCH   8  20
ENDBRANCH   6   8
ENDBRANCH   3   4
ENDBRANCH   2   3
ENDBRANCH   1   2
BRANCH   1  23
HETATM   23  O2  UNL     1      43.780  46.281  47.135  1.00  0.00    -0.364 OA
ATOM     24  H2  UNL     1      43.207  45.558  46.907  1.00  0.00     0.213 HD
ENDBRANCH   1  23
BRANCH   1  25
HETATM   25  O3  UNL     1      44.742  44.641  45.946  1.00  0.00    -0.364 OA
ATOM     26  H3  UNL     1      45.082  44.644  45.059  1.00  0.00     0.213 HD
ENDBRANCH   1  25
BRANCH   1  27
HETATM   27  C5  UNL     1      45.679  45.394  48.057  1.00  0.00     0.151 C 
BRANCH  27  28
HETATM   28  C6  UNL     1      47.181  45.467  48.160  1.00  0.00     0.069 C 
BRANCH  28  29
HETATM   29  C7  UNL     1      47.686  45.484  49.556  1.00  0.00    -0.056 A 
HETATM   30  C8  UNL     1      47.692  46.657  50.318  1.00  0.00     0.007 A 
HETATM   31  C9  UNL     1      48.156  46.713  51.611  1.00  0.00     0.001 A 
HETATM   32  C10 UNL     1      48.645  45.565  52.210  1.00  0.00     0.000 A 
HETATM   33  C11 UNL     1      48.650  44.395  51.481  1.00  0.00     0.001 A 
HETATM   34  C12 UNL     1      48.177  44.353  50.168  1.00  0.00     0.007 A 
ENDBRANCH  28  29
ENDBRANCH  27  28
BRANCH  27  35
HETATM   35  N1  UNL     1      45.412  43.938  48.318  1.00  0.00    -0.347 N 
HETATM   36  C13 UNL     1      44.345  43.537  49.163  1.00  0.00     0.252 C 
HETATM   37  O4  UNL     1      43.647  44.436  49.674  1.00  0.00    -0.268 OA
ATOM     38  H1  UNL     1      46.004  43.231  47.883  1.00  0.00     0.163 HD
BRANCH  36  39
HETATM   39  C14 UNL     1      44.038  42.149  49.452  1.00  0.00     0.032 A 
HETATM   40  C15 UNL     1      43.008  41.743  50.269  1.00  0.00     0.017 A 
HETATM   41  C16 UNL     1      42.755  40.396  50.519  1.00  0.00     0.001 A 
HETATM   42  C17 UNL     1      43.539  39.421  49.949  1.00  0.00     0.000 A 
HETATM   43  C18 UNL     1      44.575  39.813  49.129  1.00  0.00     0.001 A 
HETATM   44  C19 UNL     1      44.816  41.167  48.887  1.00  0.00     0.017 A 
ENDBRANCH  36  39
ENDBRANCH  27  35
ENDBRANCH   1  27
TORSDOF 14
ENDMDL
