MODEL 4
REMARK VINA RESULT: -10.966488646      0.990      1.196
REMARK  14 active torsions:
REMARK  status: ('A' for Active; 'I' for Inactive)
REMARK    1  A    between atoms: C1_2  and  C2_3 
REMARK       I    between atoms: C1_2  and  N2_28 
REMARK    2  A    between atoms: C2_3  and  C3_4 
REMARK    3  A    between atoms: C3_4  and  C4_5 
REMARK    4  A    between atoms: C4_5  and  O2_6 
REMARK    5  A    between atoms: C4_5  and  O3_8 
REMARK    6  A    between atoms: C4_5  and  C5_10 
REMARK    7  A    between atoms: C5_10  and  C6_11 
REMARK    8  A    between atoms: C5_10  and  N1_18 
REMARK    9  A    between atoms: C6_11  and  C7_12 
REMARK       I    between atoms: N1_18  and  C13_20 
REMARK   10  A    between atoms: C13_20  and  C14_22 
REMARK   11  A    between atoms: N2_28  and  C20_30 
REMARK   12  A    between atoms: C20_30  and  C21_31 
REMARK   13  A    between atoms: C20_30  and  C30_42 
REMARK   14  A    between atoms: C21_31  and  C22_32 
ROOT
HETATM    1  C4  UNL     1      45.125  45.675  46.843  1.00  0.00     0.180 C 
ENDROOT
BRANCH   1   2
HETATM    2  C3  UNL     1      45.733  46.783  46.066  1.00  0.00     0.079 C 
BRANCH   2   3
HETATM    3  C2  UNL     1      44.868  47.595  45.201  1.00  0.00     0.108 C 
BRANCH   3   4
HETATM    4  C1  UNL     1      44.945  47.105  43.787  1.00  0.00     0.218 C 
HETATM    5  O1  UNL     1      44.590  45.929  43.563  1.00  0.00    -0.274 OA
HETATM    6  N2  UNL     1      45.394  47.896  42.702  1.00  0.00    -0.346 N 
ATOM      7  H2  UNL     1      45.685  48.856  42.887  1.00  0.00     0.163 HD
BRANCH   6   8
HETATM    8  C20 UNL     1      45.461  47.406  41.345  1.00  0.00     0.189 C 
BRANCH   8   9
HETATM    9  C21 UNL     1      44.625  48.325  40.446  1.00  0.00     0.077 C 
BRANCH   9  10
HETATM   10  C22 UNL     1      43.509  47.574  39.838  1.00  0.00    -0.028 A 
HETATM   11  C23 UNL     1      42.927  46.393  40.239  1.00  0.00     0.096 A 
HETATM   12  N3  UNL     1      41.953  46.112  39.368  1.00  0.00    -0.365 N 
HETATM   13  C24 UNL     1      41.883  47.069  38.418  1.00  0.00     0.042 A 
ATOM     14  H3  UNL     1      41.349  45.291  39.414  1.00  0.00     0.165 HD
HETATM   15  C25 UNL     1      41.050  47.206  37.331  1.00  0.00     0.030 A 
HETATM   16  C29 UNL     1      42.856  48.003  38.695  1.00  0.00    -0.002 A 
HETATM   17  C26 UNL     1      41.186  48.302  36.494  1.00  0.00     0.002 A 
HETATM   18  C27 UNL     1      42.163  49.218  36.792  1.00  0.00     0.001 A 
HETATM   19  C28 UNL     1      43.009  49.108  37.869  1.00  0.00     0.014 A 
ENDBRANCH   9  10
ENDBRANCH   8   9
BRANCH   8  20
HETATM   20  C30 UNL     1      46.858  47.398  40.882  1.00  0.00     0.197 C 
HETATM   21  O5  UNL     1      47.660  46.560  41.336  1.00  0.00    -0.646 OA
HETATM   22  O6  UNL     1      47.286  48.313  39.946  1.00  0.00    -0.646 OA
ENDBRANCH   8  20
ENDBRANCH   6   8
ENDBRANCH   3   4
ENDBRANCH   2   3
ENDBRANCH   1   2
BRANCH   1  23
HETATM   23  O2  UNL     1      43.842  46.295  47.237  1.00  0.00    -0.364 OA
ATOM     24  H2  UNL     1      43.229  45.716  46.798  1.00  0.00     0.213 HD
ENDBRANCH   1  23
BRANCH   1  25
HETATM   25  O3  UNL     1      44.733  44.573  46.111  1.00  0.00    -0.364 OA
ATOM     26  H3  UNL     1      44.432  43.827  46.617  1.00  0.00     0.213 HD
ENDBRANCH   1  25
BRANCH   1  27
HETATM   27  C5  UNL     1      45.711  45.374  48.186  1.00  0.00     0.151 C 
BRANCH  27  28
HETATM   28  C6  UNL     1      47.210  45.479  48.301  1.00  0.00     0.069 C 
BRANCH  28  29
HETATM   29  C7  UNL     1      47.697  45.615  49.697  1.00  0.00    -0.056 A 
HETATM   30  C8  UNL     1      47.616  46.831  50.385  1.00  0.00     0.007 A 
HETATM   31  C9  UNL     1      48.059  46.996  51.676  1.00  0.00     0.001 A 
HETATM   32  C10 UNL     1      48.616  45.922  52.348  1.00  0.00     0.000 A 
HETATM   33  C11 UNL     1      48.707  44.713  51.693  1.00  0.00     0.001 A 
HETATM   34  C12 UNL     1      48.254  44.559  50.382  1.00  0.00     0.007 A 
ENDBRANCH  28  29
ENDBRANCH  27  28
BRANCH  27  35
HETATM   35  N1  UNL     1      45.472  43.916  48.465  1.00  0.00    -0.347 N 
HETATM   36  C13 UNL     1      44.328  43.495  49.190  1.00  0.00     0.252 C 
HETATM   37  O4  UNL     1      43.539  44.378  49.583  1.00  0.00    -0.268 OA
ATOM     38  H1  UNL     1      46.140  43.222  48.129  1.00  0.00     0.163 HD
BRANCH  36  39
HETATM   39  C14 UNL     1      44.044  42.104  49.490  1.00  0.00     0.032 A 
HETATM   40  C15 UNL     1      43.006  41.687  50.292  1.00  0.00     0.017 A 
HETATM   41  C16 UNL     1      42.776  40.338  50.555  1.00  0.00     0.001 A 
HETATM   42  C17 UNL     1      43.591  39.373  50.012  1.00  0.00     0.000 A 
HETATM   43  C18 UNL     1      44.635  39.777  49.208  1.00  0.00     0.001 A 
HETATM   44  C19 UNL     1      44.853  41.132  48.954  1.00  0.00     0.017 A 
ENDBRANCH  36  39
ENDBRANCH  27  35
ENDBRANCH   1  27
TORSDOF 14
ENDMDL
