MODEL 6
REMARK VINA RESULT: -4.992369920      2.543      3.150
REMARK  4 active torsions:
REMARK  status: ('A' for Active; 'I' for Inactive)
REMARK    1  A    between atoms: N1_2  and  C3_4 
REMARK    2  A    between atoms: C4_9  and  C5_10 
REMARK    3  A    between atoms: C5_10  and  S1_11 
REMARK    4  A    between atoms: S1_11  and  N4_12 
ROOT
HETATM    1  C3  UNL     1      -4.824   5.452  13.404  1.00  0.00     0.162 A 
HETATM    2  N2  UNL     1      -3.831   4.920  14.112  1.00  0.00    -0.279 N 
ATOM      3  H2  UNL     1      -2.886   5.294  14.025  1.00  0.00     0.189 HD
HETATM    4  N3  UNL     1      -4.058   3.956  14.890  1.00  0.00    -0.295 N 
ATOM      5  H3  UNL     1      -3.296   3.550  15.432  1.00  0.00     0.187 HD
HETATM    6  C4  UNL     1      -5.288   3.465  15.007  1.00  0.00     0.085 A 
HETATM    7  S2  UNL     1      -6.142   4.485  13.911  1.00  0.00    -0.037 SA
ENDROOT
BRANCH   6   8
HETATM    8  C5  UNL     1      -5.776   2.334  15.864  1.00  0.00     0.229 C 
BRANCH   8   9
HETATM    9  S1  UNL     1      -4.576   1.019  15.670  1.00  0.00     0.230 S 
HETATM   10  O1  UNL     1      -3.350   1.442  16.433  1.00  0.00    -0.206 OA
HETATM   11  O2  UNL     1      -5.143  -0.235  16.236  1.00  0.00    -0.206 OA
BRANCH   9  12
HETATM   12  N4  UNL     1      -4.131   0.876  14.018  1.00  0.00    -0.328 N 
ATOM     13  H42 UNL     1      -4.543   1.423  13.262  1.00  0.00     0.168 HD
ATOM     14  H41 UNL     1      -3.402   0.170  13.916  1.00  0.00     0.168 HD
ENDBRANCH   9  12
ENDBRANCH   8   9
ENDBRANCH   6   8
BRANCH   1  15
HETATM   15  N1  UNL     1      -4.802   6.533  12.474  1.00  0.00    -0.369 N 
HETATM   16  C1  UNL     1      -3.576   7.110  12.051  1.00  0.00     0.151 C 
HETATM   17  C2  UNL     1      -6.061   7.028  11.970  1.00  0.00     0.151 C 
ENDBRANCH   1  15
TORSDOF 4
ENDMDL
