MODEL 9
REMARK VINA RESULT: -4.782340703      3.346      4.425
REMARK  4 active torsions:
REMARK  status: ('A' for Active; 'I' for Inactive)
REMARK    1  A    between atoms: N1_2  and  C3_4 
REMARK    2  A    between atoms: C4_9  and  C5_10 
REMARK    3  A    between atoms: C5_10  and  S1_11 
REMARK    4  A    between atoms: S1_11  and  N4_12 
ROOT
HETATM    1  C3  UNL     1       0.255   3.860  10.992  1.00  0.00     0.162 A 
HETATM    2  N2  UNL     1      -0.090   3.193  12.090  1.00  0.00    -0.279 N 
ATOM      3  H2  UNL     1       0.630   2.819  12.708  1.00  0.00     0.189 HD
HETATM    4  N3  UNL     1      -1.307   3.023  12.367  1.00  0.00    -0.295 N 
ATOM      5  H3  UNL     1      -1.570   2.512  13.210  1.00  0.00     0.187 HD
HETATM    6  C4  UNL     1      -2.250   3.507  11.566  1.00  0.00     0.085 A 
HETATM    7  S2  UNL     1      -1.282   4.248  10.348  1.00  0.00    -0.037 SA
ENDROOT
BRANCH   6   8
HETATM    8  C5  UNL     1      -3.742   3.421  11.703  1.00  0.00     0.229 C 
BRANCH   8   9
HETATM    9  S1  UNL     1      -4.139   1.676  11.656  1.00  0.00     0.230 S 
HETATM   10  O1  UNL     1      -5.553   1.572  11.153  1.00  0.00    -0.206 OA
HETATM   11  O2  UNL     1      -3.196   0.995  10.727  1.00  0.00    -0.206 OA
BRANCH   9  12
HETATM   12  N4  UNL     1      -4.109   1.029  13.246  1.00  0.00    -0.328 N 
ATOM     13  H42 UNL     1      -3.570   1.424  14.017  1.00  0.00     0.168 HD
ATOM     14  H41 UNL     1      -4.706   0.203  13.295  1.00  0.00     0.168 HD
ENDBRANCH   9  12
ENDBRANCH   8   9
ENDBRANCH   6   8
BRANCH   1  15
HETATM   15  N1  UNL     1       1.552   4.170  10.486  1.00  0.00    -0.369 N 
HETATM   16  C1  UNL     1       2.464   4.956  11.239  1.00  0.00     0.151 C 
HETATM   17  C2  UNL     1       1.916   3.664   9.184  1.00  0.00     0.151 C 
ENDBRANCH   1  15
TORSDOF 4
ENDMDL
