MODEL 10
REMARK VINA RESULT: -4.753296507      2.932      5.470
REMARK  4 active torsions:
REMARK  status: ('A' for Active; 'I' for Inactive)
REMARK    1  A    between atoms: N1_2  and  C3_4 
REMARK    2  A    between atoms: C4_9  and  C5_10 
REMARK    3  A    between atoms: C5_10  and  S1_11 
REMARK    4  A    between atoms: S1_11  and  N4_12 
ROOT
HETATM    1  C3  UNL     1      -5.050   1.918  15.067  1.00  0.00     0.162 A 
HETATM    2  N2  UNL     1      -4.272   1.034  14.449  1.00  0.00    -0.279 N 
ATOM      3  H2  UNL     1      -4.062   0.141  14.893  1.00  0.00     0.189 HD
HETATM    4  N3  UNL     1      -3.793   1.302  13.315  1.00  0.00    -0.295 N 
ATOM      5  H3  UNL     1      -3.197   0.622  12.843  1.00  0.00     0.187 HD
HETATM    6  C4  UNL     1      -4.062   2.465  12.732  1.00  0.00     0.085 A 
HETATM    7  S2  UNL     1      -5.072   3.191  13.925  1.00  0.00    -0.037 SA
ENDROOT
BRANCH   6   8
HETATM    8  C5  UNL     1      -3.602   2.983  11.400  1.00  0.00     0.229 C 
BRANCH   8   9
HETATM    9  S1  UNL     1      -1.832   2.720  11.357  1.00  0.00     0.230 S 
HETATM   10  O1  UNL     1      -1.613   1.245  11.562  1.00  0.00    -0.206 OA
HETATM   11  O2  UNL     1      -1.316   3.150  10.028  1.00  0.00    -0.206 OA
BRANCH   9  12
HETATM   12  N4  UNL     1      -1.089   3.539  12.670  1.00  0.00    -0.328 N 
ATOM     13  H42 UNL     1      -0.853   4.531  12.669  1.00  0.00     0.168 HD
ATOM     14  H41 UNL     1      -0.925   2.886  13.437  1.00  0.00     0.168 HD
ENDBRANCH   9  12
ENDBRANCH   8   9
ENDBRANCH   6   8
BRANCH   1  15
HETATM   15  N1  UNL     1      -5.694   1.833  16.337  1.00  0.00    -0.369 N 
HETATM   16  C1  UNL     1      -5.413   0.766  17.230  1.00  0.00     0.151 C 
HETATM   17  C2  UNL     1      -6.641   2.862  16.694  1.00  0.00     0.151 C 
ENDBRANCH   1  15
TORSDOF 4
ENDMDL
