MODEL 7
REMARK VINA RESULT: -4.917744852      2.879      5.782
REMARK  4 active torsions:
REMARK  status: ('A' for Active; 'I' for Inactive)
REMARK    1  A    between atoms: N1_2  and  C3_4 
REMARK    2  A    between atoms: C4_9  and  C5_10 
REMARK    3  A    between atoms: C5_10  and  S1_11 
REMARK    4  A    between atoms: S1_11  and  N4_12 
ROOT
HETATM    1  C3  UNL     1      -5.189   2.199  15.360  1.00  0.00     0.162 A 
HETATM    2  N2  UNL     1      -4.273   1.619  14.590  1.00  0.00    -0.279 N 
ATOM      3  H2  UNL     1      -3.958   0.672  14.798  1.00  0.00     0.189 HD
HETATM    4  N3  UNL     1      -3.796   2.239  13.603  1.00  0.00    -0.295 N 
ATOM      5  H3  UNL     1      -3.095   1.792  13.013  1.00  0.00     0.187 HD
HETATM    6  C4  UNL     1      -4.203   3.474  13.327  1.00  0.00     0.085 A 
HETATM    7  S2  UNL     1      -5.347   3.720  14.593  1.00  0.00    -0.037 SA
ENDROOT
BRANCH   6   8
HETATM    8  C5  UNL     1      -3.773   4.385  12.215  1.00  0.00     0.229 C 
BRANCH   8   9
HETATM    9  S1  UNL     1      -3.861   3.406  10.718  1.00  0.00     0.230 S 
HETATM   10  O1  UNL     1      -2.549   2.678  10.605  1.00  0.00    -0.206 OA
HETATM   11  O2  UNL     1      -4.990   2.443  10.840  1.00  0.00    -0.206 OA
BRANCH   9  12
HETATM   12  N4  UNL     1      -3.996   4.439   9.353  1.00  0.00    -0.328 N 
ATOM     13  H42 UNL     1      -4.121   5.450   9.409  1.00  0.00     0.168 HD
ATOM     14  H41 UNL     1      -3.933   3.890   8.496  1.00  0.00     0.168 HD
ENDBRANCH   9  12
ENDBRANCH   8   9
ENDBRANCH   6   8
BRANCH   1  15
HETATM   15  N1  UNL     1      -5.860   1.695  16.514  1.00  0.00    -0.369 N 
HETATM   16  C1  UNL     1      -5.485   0.456  17.096  1.00  0.00     0.151 C 
HETATM   17  C2  UNL     1      -6.932   2.479  17.078  1.00  0.00     0.151 C 
ENDBRANCH   1  15
TORSDOF 4
ENDMDL
