MODEL 15
REMARK VINA RESULT: -4.619507206      2.810      3.142
REMARK  4 active torsions:
REMARK  status: ('A' for Active; 'I' for Inactive)
REMARK    1  A    between atoms: N1_2  and  C3_4 
REMARK    2  A    between atoms: C4_9  and  C5_10 
REMARK    3  A    between atoms: C5_10  and  S1_11 
REMARK    4  A    between atoms: S1_11  and  N4_12 
ROOT
HETATM    1  C3  UNL     1      -5.481   4.458  13.855  1.00  0.00     0.162 A 
HETATM    2  N2  UNL     1      -6.192   4.280  14.965  1.00  0.00    -0.279 N 
ATOM      3  H2  UNL     1      -6.902   4.962  15.231  1.00  0.00     0.189 HD
HETATM    4  N3  UNL     1      -5.989   3.268  15.687  1.00  0.00    -0.295 N 
ATOM      5  H3  UNL     1      -6.536   3.133  16.538  1.00  0.00     0.187 HD
HETATM    6  C4  UNL     1      -5.065   2.376  15.346  1.00  0.00     0.085 A 
HETATM    7  S2  UNL     1      -4.475   3.074  13.885  1.00  0.00    -0.037 SA
ENDROOT
BRANCH   6   8
HETATM    8  C5  UNL     1      -4.663   1.114  16.052  1.00  0.00     0.229 C 
BRANCH   8   9
HETATM    9  S1  UNL     1      -6.008   0.728  17.170  1.00  0.00     0.230 S 
HETATM   10  O1  UNL     1      -7.279   0.880  16.379  1.00  0.00    -0.206 OA
HETATM   11  O2  UNL     1      -5.847  -0.672  17.648  1.00  0.00    -0.206 OA
BRANCH   9  12
HETATM   12  N4  UNL     1      -6.054   1.878  18.444  1.00  0.00    -0.328 N 
ATOM     13  H42 UNL     1      -5.900   2.879  18.321  1.00  0.00     0.168 HD
ATOM     14  H41 UNL     1      -6.257   1.409  19.326  1.00  0.00     0.168 HD
ENDBRANCH   9  12
ENDBRANCH   8   9
ENDBRANCH   6   8
BRANCH   1  15
HETATM   15  N1  UNL     1      -5.539   5.512  12.897  1.00  0.00    -0.369 N 
HETATM   16  C1  UNL     1      -6.556   6.501  12.956  1.00  0.00     0.151 C 
HETATM   17  C2  UNL     1      -4.533   5.551  11.862  1.00  0.00     0.151 C 
ENDBRANCH   1  15
TORSDOF 4
ENDMDL
