MODEL 12
REMARK VINA RESULT: -8.009759619      2.425      3.123
REMARK  4 active torsions:
REMARK  status: ('A' for Active; 'I' for Inactive)
REMARK    1  A    between atoms: N1_10  and  N2_11 
REMARK       I    between atoms: N2_11  and  C10_13 
REMARK    2  A    between atoms: C10_13  and  C11_15 
REMARK    3  A    between atoms: C15_20  and  S1_21 
REMARK    4  A    between atoms: S1_21  and  N3_22 
ROOT
HETATM    1  N2  UNL     1      -2.900   4.859  12.847  1.00  0.00    -0.263 N 
ATOM      2  H2  UNL     1      -2.278   4.610  13.616  1.00  0.00     0.190 HD
HETATM    3  C10 UNL     1      -4.288   4.839  13.088  1.00  0.00     0.270 C 
HETATM    4  O1  UNL     1      -5.031   5.155  12.099  1.00  0.00    -0.266 OA
ENDROOT
BRANCH   3   5
HETATM    5  C11 UNL     1      -4.907   4.488  14.363  1.00  0.00     0.035 A 
HETATM    6  C12 UNL     1      -5.514   5.388  15.206  1.00  0.00     0.019 A 
HETATM    7  C13 UNL     1      -6.091   5.041  16.403  1.00  0.00     0.026 A 
HETATM    8  C14 UNL     1      -6.075   3.714  16.810  1.00  0.00     0.057 A 
HETATM    9 CL1  UNL     1      -6.813   3.275  18.340  1.00  0.00    -0.083 Cl
HETATM   10  C15 UNL     1      -5.473   2.785  15.988  1.00  0.00     0.102 A 
HETATM   11  C16 UNL     1      -4.908   3.161  14.802  1.00  0.00     0.044 A 
BRANCH  10  12
HETATM   12  S1  UNL     1      -5.465   1.120  16.520  1.00  0.00     0.258 S 
HETATM   13  O2  UNL     1      -4.993   1.059  17.937  1.00  0.00    -0.201 OA
HETATM   14  O3  UNL     1      -6.863   0.561  16.372  1.00  0.00    -0.201 OA
BRANCH  12  15
HETATM   15  N3  UNL     1      -4.437   0.152  15.519  1.00  0.00    -0.324 N 
ATOM     16  H32 UNL     1      -3.585  -0.300  15.853  1.00  0.00     0.169 HD
ATOM     17  H31 UNL     1      -4.798   0.099  14.566  1.00  0.00     0.169 HD
ENDBRANCH  12  15
ENDBRANCH  10  12
ENDBRANCH   3   5
BRANCH   1  18
HETATM   18  N1  UNL     1      -2.322   5.197  11.623  1.00  0.00    -0.284 N 
HETATM   19  C2  UNL     1      -1.914   4.265  10.591  1.00  0.00     0.109 C 
HETATM   20  C1  UNL     1      -2.889   4.343   9.435  1.00  0.00     0.034 C 
HETATM   21  C3  UNL     1      -0.633   4.906  10.100  1.00  0.00     0.067 C 
HETATM   22  C4  UNL     1      -0.986   6.353  10.158  1.00  0.00    -0.028 A 
HETATM   23  C5  UNL     1      -0.525   7.485   9.517  1.00  0.00     0.009 A 
HETATM   24  C9  UNL     1      -1.994   6.475  11.086  1.00  0.00     0.057 A 
HETATM   25  C6  UNL     1      -1.073   8.707   9.810  1.00  0.00     0.001 A 
HETATM   26  C7  UNL     1      -2.085   8.828  10.739  1.00  0.00     0.002 A 
HETATM   27  C8  UNL     1      -2.558   7.710  11.390  1.00  0.00     0.031 A 
ENDBRANCH   1  18
TORSDOF 4
ENDMDL
