MODEL 16
REMARK VINA RESULT: -6.965233733      4.685      8.380
REMARK  4 active torsions:
REMARK  status: ('A' for Active; 'I' for Inactive)
REMARK    1  A    between atoms: N1_10  and  N2_11 
REMARK       I    between atoms: N2_11  and  C10_13 
REMARK    2  A    between atoms: C10_13  and  C11_15 
REMARK    3  A    between atoms: C15_20  and  S1_21 
REMARK    4  A    between atoms: S1_21  and  N3_22 
ROOT
HETATM    1  N2  UNL     1      -5.278   6.498  12.555  1.00  0.00    -0.263 N 
ATOM      2  H2  UNL     1      -5.521   7.300  13.135  1.00  0.00     0.190 HD
HETATM    3  C10 UNL     1      -5.339   6.652  11.156  1.00  0.00     0.270 C 
HETATM    4  O1  UNL     1      -5.028   5.623  10.466  1.00  0.00    -0.266 OA
ENDROOT
BRANCH   3   5
HETATM    5  C11 UNL     1      -5.726   7.881  10.469  1.00  0.00     0.035 A 
HETATM    6  C12 UNL     1      -5.929   9.090  11.092  1.00  0.00     0.019 A 
HETATM    7  C13 UNL     1      -6.294  10.236  10.430  1.00  0.00     0.026 A 
HETATM    8  C14 UNL     1      -6.476  10.202   9.054  1.00  0.00     0.057 A 
HETATM    9 CL1  UNL     1      -6.943  11.669   8.212  1.00  0.00    -0.083 Cl
HETATM   10  C15 UNL     1      -6.282   9.005   8.398  1.00  0.00     0.102 A 
HETATM   11  C16 UNL     1      -5.918   7.881   9.085  1.00  0.00     0.044 A 
BRANCH  10  12
HETATM   12  S1  UNL     1      -6.517   8.985   6.666  1.00  0.00     0.258 S 
HETATM   13  O2  UNL     1      -7.927   9.372   6.357  1.00  0.00    -0.201 OA
HETATM   14  O3  UNL     1      -5.525   9.938   6.036  1.00  0.00    -0.201 OA
BRANCH  12  15
HETATM   15  N3  UNL     1      -6.182   7.418   6.010  1.00  0.00    -0.324 N 
ATOM     16  H32 UNL     1      -6.547   6.551   6.405  1.00  0.00     0.169 HD
ATOM     17  H31 UNL     1      -5.580   7.485   5.189  1.00  0.00     0.169 HD
ENDBRANCH  12  15
ENDBRANCH  10  12
ENDBRANCH   3   5
BRANCH   1  18
HETATM   18  N1  UNL     1      -4.906   5.317  13.197  1.00  0.00    -0.284 N 
HETATM   19  C2  UNL     1      -3.957   4.342  12.699  1.00  0.00     0.109 C 
HETATM   20  C1  UNL     1      -2.675   4.438  13.500  1.00  0.00     0.034 C 
HETATM   21  C3  UNL     1      -4.614   3.044  13.119  1.00  0.00     0.067 C 
HETATM   22  C4  UNL     1      -5.171   3.412  14.451  1.00  0.00    -0.028 A 
HETATM   23  C5  UNL     1      -5.525   2.701  15.579  1.00  0.00     0.009 A 
HETATM   24  C9  UNL     1      -5.333   4.778  14.446  1.00  0.00     0.057 A 
HETATM   25  C6  UNL     1      -6.030   3.358  16.671  1.00  0.00     0.001 A 
HETATM   26  C7  UNL     1      -6.191   4.727  16.665  1.00  0.00     0.002 A 
HETATM   27  C8  UNL     1      -5.843   5.456  15.549  1.00  0.00     0.031 A 
ENDBRANCH   1  18
TORSDOF 4
ENDMDL
