MODEL 14
REMARK VINA RESULT: -7.112200078      5.059      6.731
REMARK  4 active torsions:
REMARK  status: ('A' for Active; 'I' for Inactive)
REMARK    1  A    between atoms: N1_10  and  N2_11 
REMARK       I    between atoms: N2_11  and  C10_13 
REMARK    2  A    between atoms: C10_13  and  C11_15 
REMARK    3  A    between atoms: C15_20  and  S1_21 
REMARK    4  A    between atoms: S1_21  and  N3_22 
ROOT
HETATM    1  N2  UNL     1       0.629   5.154  12.201  1.00  0.00    -0.263 N 
ATOM      2  H2  UNL     1       0.557   4.335  12.805  1.00  0.00     0.190 HD
HETATM    3  C10 UNL     1      -0.541   5.901  11.962  1.00  0.00     0.270 C 
HETATM    4  O1  UNL     1      -0.408   6.918  11.200  1.00  0.00    -0.266 OA
ENDROOT
BRANCH   3   5
HETATM    5  C11 UNL     1      -1.856   5.593  12.517  1.00  0.00     0.035 A 
HETATM    6  C12 UNL     1      -2.675   6.510  13.132  1.00  0.00     0.019 A 
HETATM    7  C13 UNL     1      -3.909   6.202  13.650  1.00  0.00     0.026 A 
HETATM    8  C14 UNL     1      -4.382   4.900  13.562  1.00  0.00     0.057 A 
HETATM    9 CL1  UNL     1      -5.959   4.510  14.225  1.00  0.00    -0.083 Cl
HETATM   10  C15 UNL     1      -3.585   3.954  12.951  1.00  0.00     0.102 A 
HETATM   11  C16 UNL     1      -2.360   4.292  12.445  1.00  0.00     0.044 A 
BRANCH  10  12
HETATM   12  S1  UNL     1      -4.199   2.321  12.851  1.00  0.00     0.258 S 
HETATM   13  O2  UNL     1      -5.462   2.320  12.052  1.00  0.00    -0.201 OA
HETATM   14  O3  UNL     1      -3.138   1.447  12.220  1.00  0.00    -0.201 OA
BRANCH  12  15
HETATM   15  N3  UNL     1      -4.502   1.672  14.427  1.00  0.00    -0.324 N 
ATOM     16  H32 UNL     1      -4.066   2.028  15.277  1.00  0.00     0.169 HD
ATOM     17  H31 UNL     1      -5.165   0.898  14.383  1.00  0.00     0.169 HD
ENDBRANCH  12  15
ENDBRANCH  10  12
ENDBRANCH   3   5
BRANCH   1  18
HETATM   18  N1  UNL     1       1.879   5.461  11.665  1.00  0.00    -0.284 N 
HETATM   19  C2  UNL     1       2.884   6.302  12.282  1.00  0.00     0.109 C 
HETATM   20  C1  UNL     1       4.017   5.434  12.790  1.00  0.00     0.034 C 
HETATM   21  C3  UNL     1       3.433   7.043  11.081  1.00  0.00     0.067 C 
HETATM   22  C4  UNL     1       3.422   5.973  10.044  1.00  0.00    -0.028 A 
HETATM   23  C5  UNL     1       4.118   5.758   8.872  1.00  0.00     0.009 A 
HETATM   24  C9  UNL     1       2.474   5.056  10.435  1.00  0.00     0.057 A 
HETATM   25  C6  UNL     1       3.859   4.642   8.118  1.00  0.00     0.001 A 
HETATM   26  C7  UNL     1       2.909   3.724   8.511  1.00  0.00     0.002 A 
HETATM   27  C8  UNL     1       2.203   3.920   9.678  1.00  0.00     0.031 A 
ENDBRANCH   1  18
TORSDOF 4
ENDMDL
