MODEL 15
REMARK VINA RESULT: -7.063299713      4.860      7.719
REMARK  4 active torsions:
REMARK  status: ('A' for Active; 'I' for Inactive)
REMARK    1  A    between atoms: N1_10  and  N2_11 
REMARK       I    between atoms: N2_11  and  C10_13 
REMARK    2  A    between atoms: C10_13  and  C11_15 
REMARK    3  A    between atoms: C15_20  and  S1_21 
REMARK    4  A    between atoms: S1_21  and  N3_22 
ROOT
HETATM    1  N2  UNL     1      -3.600   4.856  13.028  1.00  0.00    -0.263 N 
ATOM      2  H2  UNL     1      -2.714   5.297  13.274  1.00  0.00     0.190 HD
HETATM    3  C10 UNL     1      -3.749   4.361  11.718  1.00  0.00     0.270 C 
HETATM    4  O1  UNL     1      -4.874   3.817  11.451  1.00  0.00    -0.266 OA
ENDROOT
BRANCH   3   5
HETATM    5  C11 UNL     1      -2.726   4.430  10.679  1.00  0.00     0.035 A 
HETATM    6  C12 UNL     1      -2.972   4.291   9.334  1.00  0.00     0.019 A 
HETATM    7  C13 UNL     1      -1.996   4.357   8.369  1.00  0.00     0.026 A 
HETATM    8  C14 UNL     1      -0.678   4.575   8.745  1.00  0.00     0.057 A 
HETATM    9 CL1  UNL     1       0.566   4.658   7.510  1.00  0.00    -0.083 Cl
HETATM   10  C15 UNL     1      -0.395   4.718  10.087  1.00  0.00     0.102 A 
HETATM   11  C16 UNL     1      -1.388   4.647  11.024  1.00  0.00     0.044 A 
BRANCH  10  12
HETATM   12  S1  UNL     1       1.271   4.992  10.538  1.00  0.00     0.258 S 
HETATM   13  O2  UNL     1       2.062   3.752  10.270  1.00  0.00    -0.201 OA
HETATM   14  O3  UNL     1       1.795   6.170   9.748  1.00  0.00    -0.201 OA
BRANCH  12  15
HETATM   15  N3  UNL     1       1.402   5.420  12.210  1.00  0.00    -0.324 N 
ATOM     16  H32 UNL     1       1.330   6.377  12.555  1.00  0.00     0.169 HD
ATOM     17  H31 UNL     1       1.558   4.594  12.789  1.00  0.00     0.169 HD
ENDBRANCH  12  15
ENDBRANCH  10  12
ENDBRANCH   3   5
BRANCH   1  18
HETATM   18  N1  UNL     1      -4.587   4.782  14.011  1.00  0.00    -0.284 N 
HETATM   19  C2  UNL     1      -5.509   5.841  14.369  1.00  0.00     0.109 C 
HETATM   20  C1  UNL     1      -6.890   5.496  13.850  1.00  0.00     0.034 C 
HETATM   21  C3  UNL     1      -5.578   5.681  15.873  1.00  0.00     0.067 C 
HETATM   22  C4  UNL     1      -5.542   4.198  16.015  1.00  0.00    -0.028 A 
HETATM   23  C5  UNL     1      -5.961   3.311  16.985  1.00  0.00     0.009 A 
HETATM   24  C9  UNL     1      -4.936   3.709  14.881  1.00  0.00     0.057 A 
HETATM   25  C6  UNL     1      -5.770   1.965  16.809  1.00  0.00     0.001 A 
HETATM   26  C7  UNL     1      -5.163   1.475  15.672  1.00  0.00     0.002 A 
HETATM   27  C8  UNL     1      -4.738   2.344  14.691  1.00  0.00     0.031 A 
ENDBRANCH   1  18
TORSDOF 4
ENDMDL
