MODEL 8
REMARK VINA RESULT: -9.971134720      1.809      3.042
REMARK  5 active torsions:
REMARK  status: ('A' for Active; 'I' for Inactive)
REMARK    1  A    between atoms: C4_8  and  O1_9 
REMARK    2  A    between atoms: O1_9  and  C5_10 
REMARK    3  A    between atoms: C5_10  and  C6_11 
REMARK    4  A    between atoms: N4_14  and  C9_15 
REMARK    5  A    between atoms: C9_15  and  C10_16 
ROOT
HETATM    1  O1  UNL     1       3.433   0.632  22.085  1.00  0.00    -0.350 OA
ENDROOT
BRANCH   1   2
HETATM    2  C4  UNL     1       2.532   1.566  22.624  1.00  0.00     0.084 A 
HETATM    3  C3  UNL     1       2.486   1.667  23.977  1.00  0.00     0.065 A 
HETATM    4  C2  UNL     1       3.315   0.913  24.779  1.00  0.00     0.134 A 
HETATM    5  C21 UNL     1       1.662   2.608  24.612  1.00  0.00     0.051 A 
HETATM    6  N2  UNL     1       3.300   1.144  26.092  1.00  0.00    -0.318 N 
HETATM    7  N3  UNL     1       4.096  -0.145  24.174  1.00  0.00    -0.082 NA
HETATM    8  C1  UNL     1       2.542   2.050  26.664  1.00  0.00     0.194 A 
ATOM      9  H2  UNL     1       3.911   0.583  26.686  1.00  0.00     0.169 HD
HETATM   10  N1  UNL     1       2.791   2.338  28.105  1.00  0.00    -0.063 NA
HETATM   11  N5  UNL     1       1.695   2.803  25.960  1.00  0.00    -0.330 N 
ATOM     12  H5  UNL     1       1.098   3.496  26.412  1.00  0.00     0.168 HD
HETATM   13  C20 UNL     1       0.875   3.426  23.841  1.00  0.00     0.030 A 
HETATM   14  C19 UNL     1       0.897   3.333  22.455  1.00  0.00     0.005 A 
HETATM   15  C18 UNL     1       1.740   2.388  21.845  1.00  0.00     0.038 A 
ENDBRANCH   1   2
BRANCH   1  16
HETATM   16  C5  UNL     1       4.009   0.902  20.858  1.00  0.00     0.180 C 
BRANCH  16  17
HETATM   17  C6  UNL     1       5.156   1.846  20.772  1.00  0.00     0.013 C 
HETATM   18  C7  UNL     1       6.181   1.209  21.737  1.00  0.00     0.026 C 
HETATM   19  C8  UNL     1       7.320   0.680  20.922  1.00  0.00     0.122 C 
HETATM   20  N4  UNL     1       7.865   1.890  20.221  1.00  0.00    -0.389 N 
HETATM   21  C16 UNL     1       7.076   2.316  19.216  1.00  0.00     0.122 C 
HETATM   22  C17 UNL     1       5.649   1.746  19.326  1.00  0.00     0.026 C 
BRANCH  20  23
HETATM   23  C9  UNL     1       9.119   2.171  20.709  1.00  0.00     0.100 C 
BRANCH  23  24
HETATM   24  C10 UNL     1       9.294   3.626  20.756  1.00  0.00     0.018 A 
HETATM   25  C11 UNL     1       8.334   4.359  21.423  1.00  0.00     0.016 A 
HETATM   26  C12 UNL     1       8.524   5.725  21.632  1.00  0.00     0.001 A 
HETATM   27  C13 UNL     1       9.655   6.316  21.166  1.00  0.00     0.003 A 
HETATM   28  C14 UNL     1      10.652   5.594  20.484  1.00  0.00     0.043 A 
HETATM   29  C15 UNL     1      10.417   4.256  20.308  1.00  0.00     0.128 A 
HETATM   30  F1  UNL     1      11.303   3.504  19.592  1.00  0.00    -0.205 F 
ENDBRANCH  23  24
ENDBRANCH  20  23
ENDBRANCH  16  17
ENDBRANCH   1  16
TORSDOF 5
ENDMDL
