MODEL 3
REMARK VINA RESULT: -10.234570025      2.852      8.206
REMARK  5 active torsions:
REMARK  status: ('A' for Active; 'I' for Inactive)
REMARK    1  A    between atoms: C4_8  and  O1_9 
REMARK    2  A    between atoms: O1_9  and  C5_10 
REMARK    3  A    between atoms: C5_10  and  C6_11 
REMARK    4  A    between atoms: N4_14  and  C9_15 
REMARK    5  A    between atoms: C9_15  and  C10_16 
ROOT
HETATM    1  O1  UNL     1       8.729   1.297  20.681  1.00  0.00    -0.350 OA
ENDROOT
BRANCH   1   2
HETATM    2  C4  UNL     1       9.451   2.096  19.778  1.00  0.00     0.084 A 
HETATM    3  C3  UNL     1       9.828   3.327  20.208  1.00  0.00     0.065 A 
HETATM    4  C2  UNL     1       9.547   3.753  21.488  1.00  0.00     0.134 A 
HETATM    5  C21 UNL     1      10.600   4.178  19.404  1.00  0.00     0.051 A 
HETATM    6  N2  UNL     1      10.044   4.925  21.884  1.00  0.00    -0.318 N 
HETATM    7  N3  UNL     1       8.659   2.957  22.308  1.00  0.00    -0.082 NA
HETATM    8  C1  UNL     1      10.790   5.694  21.125  1.00  0.00     0.194 A 
ATOM      9  H2  UNL     1       9.833   5.243  22.830  1.00  0.00     0.169 HD
HETATM   10  N1  UNL     1      11.447   6.864  21.775  1.00  0.00    -0.063 NA
HETATM   11  N5  UNL     1      11.087   5.363  19.867  1.00  0.00    -0.330 N 
ATOM     12  H5  UNL     1      11.655   5.972  19.278  1.00  0.00     0.168 HD
HETATM   13  C20 UNL     1      10.961   3.756  18.149  1.00  0.00     0.030 A 
HETATM   14  C19 UNL     1      10.577   2.505  17.682  1.00  0.00     0.005 A 
HETATM   15  C18 UNL     1       9.812   1.669  18.513  1.00  0.00     0.038 A 
ENDBRANCH   1   2
BRANCH   1  16
HETATM   16  C5  UNL     1       7.661   0.563  20.204  1.00  0.00     0.180 C 
BRANCH  16  17
HETATM   17  C6  UNL     1       6.428   0.433  21.027  1.00  0.00     0.013 C 
HETATM   18  C7  UNL     1       5.900   1.884  21.063  1.00  0.00     0.026 C 
HETATM   19  C8  UNL     1       4.641   1.941  20.253  1.00  0.00     0.122 C 
HETATM   20  N4  UNL     1       3.718   0.977  20.939  1.00  0.00    -0.389 N 
HETATM   21  C16 UNL     1       4.044  -0.311  20.719  1.00  0.00     0.122 C 
HETATM   22  C17 UNL     1       5.490  -0.457  20.208  1.00  0.00     0.026 C 
BRANCH  20  23
HETATM   23  C9  UNL     1       2.680   1.672  21.512  1.00  0.00     0.100 C 
BRANCH  23  24
HETATM   24  C10 UNL     1       2.718   1.469  22.965  1.00  0.00     0.018 A 
HETATM   25  C11 UNL     1       3.547   0.475  23.443  1.00  0.00     0.016 A 
HETATM   26  C12 UNL     1       3.743   0.336  24.818  1.00  0.00     0.001 A 
HETATM   27  C13 UNL     1       3.103   1.182  25.667  1.00  0.00     0.003 A 
HETATM   28  C14 UNL     1       2.253   2.204  25.208  1.00  0.00     0.043 A 
HETATM   29  C15 UNL     1       2.099   2.300  23.849  1.00  0.00     0.128 A 
HETATM   30  F1  UNL     1       1.233   3.219  23.332  1.00  0.00    -0.205 F 
ENDBRANCH  23  24
ENDBRANCH  20  23
ENDBRANCH  16  17
ENDBRANCH   1  16
TORSDOF 5
ENDMDL
