MODEL 7
REMARK VINA RESULT: -10.002213206      2.906      8.378
REMARK  5 active torsions:
REMARK  status: ('A' for Active; 'I' for Inactive)
REMARK    1  A    between atoms: C4_8  and  O1_9 
REMARK    2  A    between atoms: O1_9  and  C5_10 
REMARK    3  A    between atoms: C5_10  and  C6_11 
REMARK    4  A    between atoms: N4_14  and  C9_15 
REMARK    5  A    between atoms: C9_15  and  C10_16 
ROOT
HETATM    1  O1  UNL     1       8.761   1.410  20.582  1.00  0.00    -0.350 OA
ENDROOT
BRANCH   1   2
HETATM    2  C4  UNL     1       9.502   2.226  19.709  1.00  0.00     0.084 A 
HETATM    3  C3  UNL     1       9.875   3.445  20.173  1.00  0.00     0.065 A 
HETATM    4  C2  UNL     1       9.572   3.845  21.457  1.00  0.00     0.134 A 
HETATM    5  C21 UNL     1      10.664   4.311  19.402  1.00  0.00     0.051 A 
HETATM    6  N2  UNL     1      10.066   5.006  21.888  1.00  0.00    -0.318 N 
HETATM    7  N3  UNL     1       8.667   3.034  22.244  1.00  0.00    -0.082 NA
HETATM    8  C1  UNL     1      10.828   5.789  21.159  1.00  0.00     0.194 A 
ATOM      9  H2  UNL     1       9.839   5.303  22.837  1.00  0.00     0.169 HD
HETATM   10  N1  UNL     1      11.476   6.941  21.846  1.00  0.00    -0.063 NA
HETATM   11  N5  UNL     1      11.146   5.484  19.900  1.00  0.00    -0.330 N 
ATOM     12  H5  UNL     1      11.726   6.103  19.334  1.00  0.00     0.168 HD
HETATM   13  C20 UNL     1      11.045   3.916  18.145  1.00  0.00     0.030 A 
HETATM   14  C19 UNL     1      10.666   2.677  17.644  1.00  0.00     0.005 A 
HETATM   15  C18 UNL     1       9.883   1.826  18.443  1.00  0.00     0.038 A 
ENDBRANCH   1   2
BRANCH   1  16
HETATM   16  C5  UNL     1       8.038   0.360  20.050  1.00  0.00     0.180 C 
BRANCH  16  17
HETATM   17  C6  UNL     1       6.551   0.413  20.047  1.00  0.00     0.013 C 
HETATM   18  C7  UNL     1       6.183  -0.574  21.177  1.00  0.00     0.026 C 
HETATM   19  C8  UNL     1       5.619   0.214  22.318  1.00  0.00     0.122 C 
HETATM   20  N4  UNL     1       4.415   0.896  21.736  1.00  0.00    -0.389 N 
HETATM   21  C16 UNL     1       4.732   1.918  20.918  1.00  0.00     0.122 C 
HETATM   22  C17 UNL     1       6.200   1.846  20.454  1.00  0.00     0.026 C 
BRANCH  20  23
HETATM   23  C9  UNL     1       3.278   0.375  22.306  1.00  0.00     0.100 C 
BRANCH  23  24
HETATM   24  C10 UNL     1       2.933   1.172  23.489  1.00  0.00     0.018 A 
HETATM   25  C11 UNL     1       2.161   2.298  23.290  1.00  0.00     0.016 A 
HETATM   26  C12 UNL     1       1.674   3.009  24.387  1.00  0.00     0.001 A 
HETATM   27  C13 UNL     1       1.978   2.581  25.641  1.00  0.00     0.003 A 
HETATM   28  C14 UNL     1       2.762   1.437  25.874  1.00  0.00     0.043 A 
HETATM   29  C15 UNL     1       3.210   0.774  24.762  1.00  0.00     0.128 A 
HETATM   30  F1  UNL     1       4.037  -0.302  24.906  1.00  0.00    -0.205 F 
ENDBRANCH  23  24
ENDBRANCH  20  23
ENDBRANCH  16  17
ENDBRANCH   1  16
TORSDOF 5
ENDMDL
