MODEL 13
REMARK VINA RESULT: -9.842675631      2.575      3.268
REMARK  5 active torsions:
REMARK  status: ('A' for Active; 'I' for Inactive)
REMARK    1  A    between atoms: C4_8  and  O1_9 
REMARK    2  A    between atoms: O1_9  and  C5_10 
REMARK    3  A    between atoms: C5_10  and  C6_11 
REMARK    4  A    between atoms: N4_14  and  C9_15 
REMARK    5  A    between atoms: C9_15  and  C10_16 
ROOT
HETATM    1  O1  UNL     1       3.499   0.655  22.827  1.00  0.00    -0.350 OA
ENDROOT
BRANCH   1   2
HETATM    2  C4  UNL     1       3.038   1.166  24.053  1.00  0.00     0.084 A 
HETATM    3  C3  UNL     1       2.091   2.137  23.999  1.00  0.00     0.065 A 
HETATM    4  C2  UNL     1       1.579   2.570  22.795  1.00  0.00     0.134 A 
HETATM    5  C21 UNL     1       1.526   2.672  25.165  1.00  0.00     0.051 A 
HETATM    6  N2  UNL     1       0.571   3.442  22.817  1.00  0.00    -0.318 N 
HETATM    7  N3  UNL     1       2.211   2.128  21.570  1.00  0.00    -0.082 NA
HETATM    8  C1  UNL     1       0.036   3.909  23.922  1.00  0.00     0.194 A 
ATOM      9  H2  UNL     1       0.194   3.765  21.926  1.00  0.00     0.169 HD
HETATM   10  N1  UNL     1      -1.217   4.705  23.789  1.00  0.00    -0.063 NA
HETATM   11  N5  UNL     1       0.490   3.558  25.125  1.00  0.00    -0.330 N 
ATOM     12  H5  UNL     1       0.080   3.935  25.980  1.00  0.00     0.168 HD
HETATM   13  C20 UNL     1       1.960   2.213  26.383  1.00  0.00     0.030 A 
HETATM   14  C19 UNL     1       2.937   1.228  26.464  1.00  0.00     0.005 A 
HETATM   15  C18 UNL     1       3.479   0.702  25.278  1.00  0.00     0.038 A 
ENDBRANCH   1   2
BRANCH   1  16
HETATM   16  C5  UNL     1       4.513  -0.282  22.842  1.00  0.00     0.180 C 
BRANCH  16  17
HETATM   17  C6  UNL     1       5.487  -0.335  21.719  1.00  0.00     0.013 C 
HETATM   18  C7  UNL     1       4.729  -1.168  20.662  1.00  0.00     0.026 C 
HETATM   19  C8  UNL     1       4.369  -0.262  19.526  1.00  0.00     0.122 C 
HETATM   20  N4  UNL     1       5.691   0.240  19.022  1.00  0.00    -0.389 N 
HETATM   21  C16 UNL     1       6.255   1.151  19.839  1.00  0.00     0.122 C 
HETATM   22  C17 UNL     1       5.637   1.114  21.250  1.00  0.00     0.026 C 
BRANCH  20  23
HETATM   23  C9  UNL     1       5.921  -0.269  17.766  1.00  0.00     0.100 C 
BRANCH  23  24
HETATM   24  C10 UNL     1       7.319  -0.705  17.680  1.00  0.00     0.018 A 
HETATM   25  C11 UNL     1       7.632  -1.938  18.214  1.00  0.00     0.016 A 
HETATM   26  C12 UNL     1       8.908  -2.471  18.028  1.00  0.00     0.001 A 
HETATM   27  C13 UNL     1       9.828  -1.760  17.326  1.00  0.00     0.003 A 
HETATM   28  C14 UNL     1       9.536  -0.501  16.769  1.00  0.00     0.043 A 
HETATM   29  C15 UNL     1       8.268  -0.025  16.978  1.00  0.00     0.128 A 
HETATM   30  F1  UNL     1       7.934   1.220  16.532  1.00  0.00    -0.205 F 
ENDBRANCH  23  24
ENDBRANCH  20  23
ENDBRANCH  16  17
ENDBRANCH   1  16
TORSDOF 5
ENDMDL
