MODEL 6
REMARK VINA RESULT: -6.201927900      2.260      4.714
REMARK  15 active torsions:
REMARK  status: ('A' for Active; 'I' for Inactive)
REMARK    1  A    between atoms: C3_3  and  O1_4 
REMARK    2  A    between atoms: O1_4  and  C4_5 
REMARK    3  A    between atoms: C4_5  and  C5_6 
REMARK    4  A    between atoms: C7_10  and  O4_11 
REMARK    5  A    between atoms: C8_13  and  O5_14 
REMARK    6  A    between atoms: C9_16  and  C10_17 
REMARK    7  A    between atoms: C10_17  and  O6_18 
REMARK    8  A    between atoms: C10_17  and  C11_20 
REMARK    9  A    between atoms: C11_20  and  O7_21 
REMARK   10  A    between atoms: O7_21  and  C12_22 
REMARK   11  A    between atoms: C12_22  and  C13_23 
REMARK   12  A    between atoms: C17_29  and  C18_30 
REMARK   13  A    between atoms: C18_30  and  O10_31 
REMARK   14  A    between atoms: C18_30  and  C19_33 
REMARK   15  A    between atoms: C19_33  and  O11_34 
ROOT
HETATM    1  C10 UNL     1      30.906  -5.182   1.446  1.00  0.00     0.173 C 
ENDROOT
BRANCH   1   2
HETATM    2  C9  UNL     1      29.995  -4.003   1.566  1.00  0.00     0.187 C 
HETATM    3  C8  UNL     1      28.661  -4.498   2.084  1.00  0.00     0.178 C 
HETATM    4  C7  UNL     1      27.696  -4.598   0.929  1.00  0.00     0.155 C 
HETATM    5  C6  UNL     1      27.417  -3.209   0.415  1.00  0.00     0.115 C 
HETATM    6  C4  UNL     1      28.734  -2.433   0.529  1.00  0.00     0.262 C 
HETATM    7  O13 UNL     1      29.791  -3.327   0.375  1.00  0.00    -0.335 OA
BRANCH   3   8
HETATM    8  O5  UNL     1      28.786  -5.778   2.638  1.00  0.00    -0.390 OA
ATOM      9  H5  UNL     1      29.247  -6.317   2.006  1.00  0.00     0.210 HD
ENDBRANCH   3   8
BRANCH   4  10
HETATM   10  O4  UNL     1      28.318  -5.312  -0.099  1.00  0.00    -0.393 OA
ATOM     11  H4  UNL     1      29.251  -5.143  -0.042  1.00  0.00     0.210 HD
ENDBRANCH   4  10
BRANCH   6  12
HETATM   12  O1  UNL     1      28.795  -1.785   1.769  1.00  0.00    -0.317 OA
BRANCH  12  13
HETATM   13  C3  UNL     1      27.933  -0.798   2.159  1.00  0.00     0.135 C 
HETATM   14  C2  UNL     1      28.171  -0.079   3.239  1.00  0.00    -0.007 C 
HETATM   15  C1  UNL     1      27.274   1.002   3.711  1.00  0.00     0.038 C 
ENDBRANCH  12  13
ENDBRANCH   6  12
BRANCH   6  16
HETATM   16  C5  UNL     1      28.723  -1.429  -0.549  1.00  0.00     0.239 C 
HETATM   17  O2  UNL     1      29.809  -0.927  -0.926  1.00  0.00    -0.644 OA
HETATM   18  O3  UNL     1      27.568  -0.998  -1.182  1.00  0.00    -0.644 OA
ENDBRANCH   6  16
ENDBRANCH   1   2
BRANCH   1  19
HETATM   19  O6  UNL     1      31.553  -5.346   2.671  1.00  0.00    -0.391 OA
ATOM     20  H6  UNL     1      31.583  -6.277   2.860  1.00  0.00     0.210 HD
ENDBRANCH   1  19
BRANCH   1  21
HETATM   21  C11 UNL     1      31.966  -4.987   0.375  1.00  0.00     0.206 C 
BRANCH  21  22
HETATM   22  O7  UNL     1      33.049  -4.317   0.910  1.00  0.00    -0.341 OA
BRANCH  22  23
HETATM   23  C12 UNL     1      33.376  -3.143   0.273  1.00  0.00     0.276 C 
HETATM   24  C14 UNL     1      34.830  -2.892   0.520  1.00  0.00     0.049 C 
HETATM   25  C15 UNL     1      35.223  -2.068   1.458  1.00  0.00    -0.022 C 
HETATM   26  C16 UNL     1      34.246  -1.363   2.299  1.00  0.00     0.061 C 
HETATM   27  C17 UNL     1      32.830  -1.668   1.970  1.00  0.00     0.160 C 
HETATM   28  O12 UNL     1      32.609  -2.064   0.680  1.00  0.00    -0.335 OA
BRANCH  23  29
HETATM   29  C13 UNL     1      33.237  -3.297  -1.187  1.00  0.00     0.243 C 
HETATM   30  O8  UNL     1      34.042  -4.067  -1.834  1.00  0.00    -0.644 OA
HETATM   31  O9  UNL     1      32.287  -2.673  -1.944  1.00  0.00    -0.644 OA
ENDBRANCH  23  29
BRANCH  27  32
HETATM   32  C18 UNL     1      31.888  -0.522   2.272  1.00  0.00     0.171 C 
BRANCH  32  33
HETATM   33  O10 UNL     1      31.423   0.019   1.075  1.00  0.00    -0.391 OA
ATOM     34  H10 UNL     1      30.963   0.830   1.256  1.00  0.00     0.210 HD
ENDBRANCH  32  33
BRANCH  32  35
HETATM   35  C19 UNL     1      32.577   0.592   3.022  1.00  0.00     0.198 C 
BRANCH  35  36
HETATM   36  O11 UNL     1      31.889   1.788   2.957  1.00  0.00    -0.398 OA
ATOM     37  H11 UNL     1      31.745   2.177   3.811  1.00  0.00     0.209 HD
ENDBRANCH  35  36
ENDBRANCH  32  35
ENDBRANCH  27  32
ENDBRANCH  22  23
ENDBRANCH  21  22
ENDBRANCH   1  21
TORSDOF 15
ENDMDL
