MODEL 3
REMARK VINA RESULT: -6.288494254      2.322      4.307
REMARK  15 active torsions:
REMARK  status: ('A' for Active; 'I' for Inactive)
REMARK    1  A    between atoms: C3_3  and  O1_4 
REMARK    2  A    between atoms: O1_4  and  C4_5 
REMARK    3  A    between atoms: C4_5  and  C5_6 
REMARK    4  A    between atoms: C7_10  and  O4_11 
REMARK    5  A    between atoms: C8_13  and  O5_14 
REMARK    6  A    between atoms: C9_16  and  C10_17 
REMARK    7  A    between atoms: C10_17  and  O6_18 
REMARK    8  A    between atoms: C10_17  and  C11_20 
REMARK    9  A    between atoms: C11_20  and  O7_21 
REMARK   10  A    between atoms: O7_21  and  C12_22 
REMARK   11  A    between atoms: C12_22  and  C13_23 
REMARK   12  A    between atoms: C17_29  and  C18_30 
REMARK   13  A    between atoms: C18_30  and  O10_31 
REMARK   14  A    between atoms: C18_30  and  C19_33 
REMARK   15  A    between atoms: C19_33  and  O11_34 
ROOT
HETATM    1  C10 UNL     1      30.948  -4.821   1.916  1.00  0.00     0.173 C 
ENDROOT
BRANCH   1   2
HETATM    2  C9  UNL     1      29.604  -4.171   1.865  1.00  0.00     0.187 C 
HETATM    3  C8  UNL     1      28.623  -5.177   1.300  1.00  0.00     0.178 C 
HETATM    4  C7  UNL     1      28.373  -4.854  -0.152  1.00  0.00     0.155 C 
HETATM    5  C6  UNL     1      27.655  -3.531  -0.231  1.00  0.00     0.115 C 
HETATM    6  C4  UNL     1      28.237  -2.655   0.883  1.00  0.00     0.262 C 
HETATM    7  O13 UNL     1      29.563  -3.023   1.091  1.00  0.00    -0.335 OA
BRANCH   3   8
HETATM    8  O5  UNL     1      29.152  -6.473   1.355  1.00  0.00    -0.390 OA
ATOM      9  H5  UNL     1      30.028  -6.437   0.990  1.00  0.00     0.210 HD
ENDBRANCH   3   8
BRANCH   4  10
HETATM   10  O4  UNL     1      29.610  -4.701  -0.784  1.00  0.00    -0.393 OA
ATOM     11  H4  UNL     1      30.128  -4.102  -0.261  1.00  0.00     0.210 HD
ENDBRANCH   4  10
BRANCH   6  12
HETATM   12  O1  UNL     1      27.479  -2.810   2.050  1.00  0.00    -0.317 OA
BRANCH  12  13
HETATM   13  C3  UNL     1      26.131  -2.594   2.122  1.00  0.00     0.135 C 
HETATM   14  C2  UNL     1      25.332  -3.477   2.689  1.00  0.00    -0.007 C 
HETATM   15  C1  UNL     1      23.865  -3.298   2.795  1.00  0.00     0.038 C 
ENDBRANCH  12  13
ENDBRANCH   6  12
BRANCH   6  16
HETATM   16  C5  UNL     1      28.136  -1.261   0.415  1.00  0.00     0.239 C 
HETATM   17  O2  UNL     1      28.493  -0.334   1.181  1.00  0.00    -0.644 OA
HETATM   18  O3  UNL     1      27.664  -0.906  -0.838  1.00  0.00    -0.644 OA
ENDBRANCH   6  16
ENDBRANCH   1   2
BRANCH   1  19
HETATM   19  O6  UNL     1      31.139  -5.302   3.213  1.00  0.00    -0.391 OA
ATOM     20  H6  UNL     1      31.673  -6.085   3.155  1.00  0.00     0.210 HD
ENDBRANCH   1  19
BRANCH   1  21
HETATM   21  C11 UNL     1      32.074  -3.848   1.605  1.00  0.00     0.206 C 
BRANCH  21  22
HETATM   22  O7  UNL     1      32.602  -4.132   0.361  1.00  0.00    -0.341 OA
BRANCH  22  23
HETATM   23  C12 UNL     1      33.109  -3.046  -0.314  1.00  0.00     0.276 C 
HETATM   24  C14 UNL     1      34.040  -3.568  -1.362  1.00  0.00     0.049 C 
HETATM   25  C15 UNL     1      35.334  -3.590  -1.165  1.00  0.00    -0.022 C 
HETATM   26  C16 UNL     1      35.912  -3.103   0.095  1.00  0.00     0.061 C 
HETATM   27  C17 UNL     1      34.910  -2.594   1.066  1.00  0.00     0.160 C 
HETATM   28  O12 UNL     1      33.748  -2.135   0.510  1.00  0.00    -0.335 OA
BRANCH  23  29
HETATM   29  C13 UNL     1      32.034  -2.349  -1.043  1.00  0.00     0.243 C 
HETATM   30  O8  UNL     1      31.692  -1.154  -0.704  1.00  0.00    -0.644 OA
HETATM   31  O9  UNL     1      31.341  -2.880  -2.094  1.00  0.00    -0.644 OA
ENDBRANCH  23  29
BRANCH  27  32
HETATM   32  C18 UNL     1      35.453  -1.508   1.971  1.00  0.00     0.171 C 
BRANCH  32  33
HETATM   33  O10 UNL     1      34.490  -0.512   2.123  1.00  0.00    -0.391 OA
ATOM     34  H10 UNL     1      33.634  -0.871   1.923  1.00  0.00     0.210 HD
ENDBRANCH  32  33
BRANCH  32  35
HETATM   35  C19 UNL     1      36.681  -0.850   1.387  1.00  0.00     0.198 C 
BRANCH  35  36
HETATM   36  O11 UNL     1      36.573   0.525   1.324  1.00  0.00    -0.398 OA
ATOM     37  H11 UNL     1      37.187   0.970   1.896  1.00  0.00     0.209 HD
ENDBRANCH  35  36
ENDBRANCH  32  35
ENDBRANCH  27  32
ENDBRANCH  22  23
ENDBRANCH  21  22
ENDBRANCH   1  21
TORSDOF 15
ENDMDL
