MODEL 1
REMARK VINA RESULT: -6.473724075      0.000      0.000
REMARK  15 active torsions:
REMARK  status: ('A' for Active; 'I' for Inactive)
REMARK    1  A    between atoms: C3_3  and  O1_4 
REMARK    2  A    between atoms: O1_4  and  C4_5 
REMARK    3  A    between atoms: C4_5  and  C5_6 
REMARK    4  A    between atoms: C7_10  and  O4_11 
REMARK    5  A    between atoms: C8_13  and  O5_14 
REMARK    6  A    between atoms: C9_16  and  C10_17 
REMARK    7  A    between atoms: C10_17  and  O6_18 
REMARK    8  A    between atoms: C10_17  and  C11_20 
REMARK    9  A    between atoms: C11_20  and  O7_21 
REMARK   10  A    between atoms: O7_21  and  C12_22 
REMARK   11  A    between atoms: C12_22  and  C13_23 
REMARK   12  A    between atoms: C17_29  and  C18_30 
REMARK   13  A    between atoms: C18_30  and  O10_31 
REMARK   14  A    between atoms: C18_30  and  C19_33 
REMARK   15  A    between atoms: C19_33  and  O11_34 
ROOT
HETATM    1  C10 UNL     1      28.101  -1.845   0.246  1.00  0.00     0.173 C 
ENDROOT
BRANCH   1   2
HETATM    2  C9  UNL     1      27.245  -2.224   1.410  1.00  0.00     0.187 C 
HETATM    3  C8  UNL     1      27.534  -1.253   2.535  1.00  0.00     0.178 C 
HETATM    4  C7  UNL     1      28.454  -1.917   3.529  1.00  0.00     0.155 C 
HETATM    5  C6  UNL     1      27.713  -3.053   4.184  1.00  0.00     0.115 C 
HETATM    6  C4  UNL     1      26.828  -3.676   3.098  1.00  0.00     0.262 C 
HETATM    7  O13 UNL     1      27.456  -3.514   1.867  1.00  0.00    -0.335 OA
BRANCH   3   8
HETATM    8  O5  UNL     1      28.191  -0.114   2.053  1.00  0.00    -0.390 OA
ATOM      9  H5  UNL     1      27.616   0.297   1.418  1.00  0.00     0.210 HD
ENDBRANCH   3   8
BRANCH   4  10
HETATM   10  O4  UNL     1      29.532  -2.465   2.828  1.00  0.00    -0.393 OA
ATOM     11  H4  UNL     1      29.317  -2.436   1.903  1.00  0.00     0.210 HD
ENDBRANCH   4  10
BRANCH   6  12
HETATM   12  O1  UNL     1      25.568  -3.064   3.109  1.00  0.00    -0.317 OA
BRANCH  12  13
HETATM   13  C3  UNL     1      24.488  -3.523   2.405  1.00  0.00     0.135 C 
HETATM   14  C2  UNL     1      23.264  -3.151   2.726  1.00  0.00    -0.007 C 
HETATM   15  C1  UNL     1      22.057  -3.616   2.001  1.00  0.00     0.038 C 
ENDBRANCH  12  13
ENDBRANCH   6  12
BRANCH   6  16
HETATM   16  C5  UNL     1      26.683  -5.101   3.442  1.00  0.00     0.239 C 
HETATM   17  O2  UNL     1      27.469  -5.934   2.929  1.00  0.00    -0.644 OA
HETATM   18  O3  UNL     1      25.719  -5.586   4.310  1.00  0.00    -0.644 OA
ENDBRANCH   6  16
ENDBRANCH   1   2
BRANCH   1  19
HETATM   19  O6  UNL     1      27.261  -1.364  -0.760  1.00  0.00    -0.391 OA
ATOM     20  H6  UNL     1      27.737  -0.695  -1.239  1.00  0.00     0.210 HD
ENDBRANCH   1  19
BRANCH   1  21
HETATM   21  C11 UNL     1      28.875  -3.027  -0.313  1.00  0.00     0.206 C 
BRANCH  21  22
HETATM   22  O7  UNL     1      29.982  -2.573  -1.001  1.00  0.00    -0.341 OA
BRANCH  22  23
HETATM   23  C12 UNL     1      31.103  -2.374  -0.228  1.00  0.00     0.276 C 
HETATM   24  C14 UNL     1      32.292  -2.504  -1.126  1.00  0.00     0.049 C 
HETATM   25  C15 UNL     1      32.976  -3.619  -1.183  1.00  0.00    -0.022 C 
HETATM   26  C16 UNL     1      32.593  -4.780  -0.366  1.00  0.00     0.061 C 
HETATM   27  C17 UNL     1      31.409  -4.548   0.500  1.00  0.00     0.160 C 
HETATM   28  O12 UNL     1      31.192  -3.243   0.846  1.00  0.00    -0.335 OA
BRANCH  23  29
HETATM   29  C13 UNL     1      31.133  -0.990   0.280  1.00  0.00     0.243 C 
HETATM   30  O8  UNL     1      31.051   0.001  -0.538  1.00  0.00    -0.644 OA
HETATM   31  O9  UNL     1      31.241  -0.653   1.600  1.00  0.00    -0.644 OA
ENDBRANCH  23  29
BRANCH  27  32
HETATM   32  C18 UNL     1      31.430  -5.369   1.772  1.00  0.00     0.171 C 
BRANCH  32  33
HETATM   33  O10 UNL     1      30.201  -5.249   2.417  1.00  0.00    -0.391 OA
ATOM     34  H10 UNL     1      29.636  -5.965   2.151  1.00  0.00     0.210 HD
ENDBRANCH  32  33
BRANCH  32  35
HETATM   35  C19 UNL     1      32.485  -4.884   2.738  1.00  0.00     0.198 C 
BRANCH  35  36
HETATM   36  O11 UNL     1      32.075  -3.789   3.473  1.00  0.00    -0.398 OA
ATOM     37  H11 UNL     1      32.617  -3.634   4.237  1.00  0.00     0.209 HD
ENDBRANCH  35  36
ENDBRANCH  32  35
ENDBRANCH  27  32
ENDBRANCH  22  23
ENDBRANCH  21  22
ENDBRANCH   1  21
TORSDOF 15
ENDMDL
