MODEL 5
REMARK VINA RESULT: -9.305451966      1.593      6.427
REMARK  3 active torsions:
REMARK  status: ('A' for Active; 'I' for Inactive)
REMARK    1  A    between atoms: C4_4  and  O1_5 
REMARK    2  A    between atoms: C11_14  and  O3_15 
REMARK    3  A    between atoms: C13_18  and  O4_19 
ROOT
HETATM    1  C1  UNL     1      16.993 -56.624 -46.942  1.00  0.00     0.048 C 
HETATM    2  C2  UNL     1      16.921 -55.840 -45.678  1.00  0.00    -0.058 A 
HETATM    3  C3  UNL     1      16.702 -56.500 -44.503  1.00  0.00     0.044 A 
HETATM    4  C4  UNL     1      16.629 -55.781 -43.290  1.00  0.00     0.081 A 
HETATM    5  C5  UNL     1      16.778 -54.409 -43.273  1.00  0.00     0.062 A 
HETATM    6  C6  UNL     1      17.000 -53.771 -44.487  1.00  0.00     0.032 A 
HETATM    7  C7  UNL     1      17.074 -54.473 -45.696  1.00  0.00     0.023 A 
HETATM    8  C8  UNL     1      17.156 -52.324 -44.470  1.00  0.00     0.194 A 
HETATM    9  O2  UNL     1      17.361 -51.697 -45.551  1.00  0.00    -0.287 OA
HETATM   10  C9  UNL     1      17.082 -51.584 -43.222  1.00  0.00     0.035 A 
HETATM   11  C10 UNL     1      17.231 -50.192 -43.189  1.00  0.00     0.053 A 
HETATM   12  C11 UNL     1      17.162 -49.480 -42.011  1.00  0.00     0.069 A 
HETATM   13  C12 UNL     1      16.941 -50.122 -40.807  1.00  0.00     0.074 A 
HETATM   14  C13 UNL     1      16.793 -51.489 -40.822  1.00  0.00     0.083 A 
HETATM   15  C14 UNL     1      16.863 -52.198 -42.009  1.00  0.00     0.062 A 
HETATM   16  C15 UNL     1      16.704 -53.665 -42.026  1.00  0.00     0.199 A 
HETATM   17  O5  UNL     1      16.508 -54.182 -40.910  1.00  0.00    -0.286 OA
ENDROOT
BRANCH   4  18
HETATM   18  O1  UNL     1      16.409 -56.470 -42.132  1.00  0.00    -0.360 OA
ATOM     19  H1  UNL     1      17.093 -56.484 -41.472  1.00  0.00     0.217 HD
ENDBRANCH   4  18
BRANCH  14  20
HETATM   20  O4  UNL     1      16.571 -52.154 -39.626  1.00  0.00    -0.360 OA
ATOM     21  H4  UNL     1      16.304 -51.653 -38.864  1.00  0.00     0.217 HD
ENDBRANCH  14  20
BRANCH  12  22
HETATM   22  O3  UNL     1      17.314 -48.099 -42.014  1.00  0.00    -0.361 OA
ATOM     23  H3  UNL     1      16.632 -47.540 -41.661  1.00  0.00     0.217 HD
ENDBRANCH  12  22
TORSDOF 3
ENDMDL
