MODEL 3
REMARK VINA RESULT: -9.543873544      1.179      5.408
REMARK  3 active torsions:
REMARK  status: ('A' for Active; 'I' for Inactive)
REMARK    1  A    between atoms: C4_4  and  O1_5 
REMARK    2  A    between atoms: C11_14  and  O3_15 
REMARK    3  A    between atoms: C13_18  and  O4_19 
ROOT
HETATM    1  C1  UNL     1      16.636 -58.353 -45.917  1.00  0.00     0.048 C 
HETATM    2  C2  UNL     1      16.827 -56.877 -45.857  1.00  0.00    -0.058 A 
HETATM    3  C3  UNL     1      17.089 -56.198 -47.012  1.00  0.00     0.044 A 
HETATM    4  C4  UNL     1      17.274 -54.798 -46.985  1.00  0.00     0.081 A 
HETATM    5  C5  UNL     1      17.194 -54.099 -45.798  1.00  0.00     0.062 A 
HETATM    6  C6  UNL     1      16.925 -54.822 -44.642  1.00  0.00     0.032 A 
HETATM    7  C7  UNL     1      16.740 -56.210 -44.657  1.00  0.00     0.023 A 
HETATM    8  C8  UNL     1      16.841 -54.086 -43.390  1.00  0.00     0.194 A 
HETATM    9  O2  UNL     1      16.598 -54.701 -42.310  1.00  0.00    -0.287 OA
HETATM   10  C9  UNL     1      17.031 -52.645 -43.361  1.00  0.00     0.035 A 
HETATM   11  C10 UNL     1      16.952 -51.923 -42.164  1.00  0.00     0.053 A 
HETATM   12  C11 UNL     1      17.131 -50.557 -42.125  1.00  0.00     0.069 A 
HETATM   13  C12 UNL     1      17.398 -49.845 -43.279  1.00  0.00     0.074 A 
HETATM   14  C13 UNL     1      17.478 -50.540 -44.464  1.00  0.00     0.083 A 
HETATM   15  C14 UNL     1      17.298 -51.912 -44.495  1.00  0.00     0.062 A 
HETATM   16  C15 UNL     1      17.384 -52.658 -45.765  1.00  0.00     0.199 A 
HETATM   17  O5  UNL     1      17.626 -51.959 -46.767  1.00  0.00    -0.286 OA
ENDROOT
BRANCH   4  18
HETATM   18  O1  UNL     1      17.535 -54.148 -48.157  1.00  0.00    -0.360 OA
ATOM     19  H1  UNL     1      16.813 -53.965 -48.748  1.00  0.00     0.217 HD
ENDBRANCH   4  18
BRANCH  14  20
HETATM   20  O4  UNL     1      17.744 -49.845 -45.634  1.00  0.00    -0.360 OA
ATOM     21  H4  UNL     1      17.768 -50.320 -46.456  1.00  0.00     0.217 HD
ENDBRANCH  14  20
BRANCH  12  22
HETATM   22  O3  UNL     1      17.047 -49.871 -40.921  1.00  0.00    -0.361 OA
ATOM     23  H3  UNL     1      17.635 -49.148 -40.737  1.00  0.00     0.217 HD
ENDBRANCH  12  22
TORSDOF 3
ENDMDL
