MODEL 1
REMARK VINA RESULT: -9.841734255      0.000      0.000
REMARK  3 active torsions:
REMARK  status: ('A' for Active; 'I' for Inactive)
REMARK    1  A    between atoms: C4_4  and  O1_5 
REMARK    2  A    between atoms: C11_14  and  O3_15 
REMARK    3  A    between atoms: C13_18  and  O4_19 
ROOT
HETATM    1  C1  UNL     1      16.998 -49.572 -41.145  1.00  0.00     0.048 C 
HETATM    2  C2  UNL     1      17.091 -50.460 -42.336  1.00  0.00    -0.058 A 
HETATM    3  C3  UNL     1      17.365 -49.905 -43.553  1.00  0.00     0.044 A 
HETATM    4  C4  UNL     1      17.460 -50.723 -44.700  1.00  0.00     0.081 A 
HETATM    5  C5  UNL     1      17.278 -52.088 -44.610  1.00  0.00     0.062 A 
HETATM    6  C6  UNL     1      17.002 -52.619 -43.356  1.00  0.00     0.032 A 
HETATM    7  C7  UNL     1      16.905 -51.817 -42.212  1.00  0.00     0.023 A 
HETATM    8  C8  UNL     1      16.809 -54.058 -43.259  1.00  0.00     0.194 A 
HETATM    9  O2  UNL     1      16.555 -54.588 -42.137  1.00  0.00    -0.287 OA
HETATM   10  C9  UNL     1      16.907 -54.901 -44.439  1.00  0.00     0.035 A 
HETATM   11  C10 UNL     1      16.725 -56.287 -44.362  1.00  0.00     0.053 A 
HETATM   12  C11 UNL     1      16.815 -57.096 -45.474  1.00  0.00     0.069 A 
HETATM   13  C12 UNL     1      17.091 -56.561 -46.719  1.00  0.00     0.074 A 
HETATM   14  C13 UNL     1      17.273 -55.201 -46.811  1.00  0.00     0.083 A 
HETATM   15  C14 UNL     1      17.181 -54.394 -45.689  1.00  0.00     0.062 A 
HETATM   16  C15 UNL     1      17.375 -52.935 -45.788  1.00  0.00     0.199 A 
HETATM   17  O5  UNL     1      17.621 -52.516 -46.935  1.00  0.00    -0.286 OA
ENDROOT
BRANCH   4  18
HETATM   18  O1  UNL     1      17.736 -50.138 -45.903  1.00  0.00    -0.360 OA
ATOM     19  H1  UNL     1      17.305 -50.471 -46.682  1.00  0.00     0.217 HD
ENDBRANCH   4  18
BRANCH  14  20
HETATM   20  O4  UNL     1      17.552 -54.642 -48.049  1.00  0.00    -0.360 OA
ATOM     21  H4  UNL     1      16.906 -54.075 -48.454  1.00  0.00     0.217 HD
ENDBRANCH  14  20
BRANCH  12  22
HETATM   22  O3  UNL     1      16.629 -58.468 -45.363  1.00  0.00    -0.361 OA
ATOM     23  H3  UNL     1      17.037 -58.953 -44.655  1.00  0.00     0.217 HD
ENDBRANCH  12  22
TORSDOF 3
ENDMDL
