MODEL 9
REMARK VINA RESULT: -8.931518743      0.940      1.078
REMARK  3 active torsions:
REMARK  status: ('A' for Active; 'I' for Inactive)
REMARK    1  A    between atoms: C4_4  and  O1_5 
REMARK    2  A    between atoms: C11_14  and  O3_15 
REMARK    3  A    between atoms: C13_18  and  O4_19 
ROOT
HETATM    1  C1  UNL     1      16.599 -50.992 -39.718  1.00  0.00     0.048 C 
HETATM    2  C2  UNL     1      16.739 -51.538 -41.096  1.00  0.00    -0.058 A 
HETATM    3  C3  UNL     1      16.998 -50.678 -42.123  1.00  0.00     0.044 A 
HETATM    4  C4  UNL     1      17.137 -51.168 -43.441  1.00  0.00     0.081 A 
HETATM    5  C5  UNL     1      17.012 -52.516 -43.708  1.00  0.00     0.062 A 
HETATM    6  C6  UNL     1      16.748 -53.363 -42.638  1.00  0.00     0.032 A 
HETATM    7  C7  UNL     1      16.609 -52.888 -41.329  1.00  0.00     0.023 A 
HETATM    8  C8  UNL     1      16.615 -54.785 -42.919  1.00  0.00     0.194 A 
HETATM    9  O2  UNL     1      16.375 -55.595 -41.977  1.00  0.00    -0.287 OA
HETATM   10  C9  UNL     1      16.758 -55.290 -44.274  1.00  0.00     0.035 A 
HETATM   11  C10 UNL     1      16.634 -56.655 -44.561  1.00  0.00     0.053 A 
HETATM   12  C11 UNL     1      16.766 -57.145 -45.841  1.00  0.00     0.069 A 
HETATM   13  C12 UNL     1      17.029 -56.297 -46.901  1.00  0.00     0.074 A 
HETATM   14  C13 UNL     1      17.154 -54.953 -46.636  1.00  0.00     0.083 A 
HETATM   15  C14 UNL     1      17.019 -54.468 -45.347  1.00  0.00     0.062 A 
HETATM   16  C15 UNL     1      17.153 -53.025 -45.063  1.00  0.00     0.199 A 
HETATM   17  O5  UNL     1      17.390 -52.316 -46.058  1.00  0.00    -0.286 OA
ENDROOT
BRANCH   4  18
HETATM   18  O1  UNL     1      17.397 -50.282 -44.447  1.00  0.00    -0.360 OA
ATOM     19  H1  UNL     1      18.292 -49.994 -44.581  1.00  0.00     0.217 HD
ENDBRANCH   4  18
BRANCH  14  20
HETATM   20  O4  UNL     1      17.419 -54.083 -47.684  1.00  0.00    -0.360 OA
ATOM     21  H4  UNL     1      16.813 -54.046 -48.415  1.00  0.00     0.217 HD
ENDBRANCH  14  20
BRANCH  12  22
HETATM   22  O3  UNL     1      16.637 -58.505 -46.091  1.00  0.00    -0.361 OA
ATOM     23  H3  UNL     1      16.380 -58.814 -46.952  1.00  0.00     0.217 HD
ENDBRANCH  12  22
TORSDOF 3
ENDMDL
