MODEL 2
REMARK VINA RESULT: -9.686922368      1.903      5.905
REMARK  3 active torsions:
REMARK  status: ('A' for Active; 'I' for Inactive)
REMARK    1  A    between atoms: C4_4  and  O1_5 
REMARK    2  A    between atoms: C11_14  and  O3_15 
REMARK    3  A    between atoms: C13_18  and  O4_19 
ROOT
HETATM    1  C1  UNL     1      17.841 -54.264 -48.443  1.00  0.00     0.048 C 
HETATM    2  C2  UNL     1      17.523 -54.542 -47.015  1.00  0.00    -0.058 A 
HETATM    3  C3  UNL     1      17.340 -55.835 -46.620  1.00  0.00     0.044 A 
HETATM    4  C4  UNL     1      17.038 -56.128 -45.271  1.00  0.00     0.081 A 
HETATM    5  C5  UNL     1      16.923 -55.116 -44.339  1.00  0.00     0.062 A 
HETATM    6  C6  UNL     1      17.116 -53.812 -44.777  1.00  0.00     0.032 A 
HETATM    7  C7  UNL     1      17.416 -53.511 -46.111  1.00  0.00     0.023 A 
HETATM    8  C8  UNL     1      16.995 -52.745 -43.795  1.00  0.00     0.194 A 
HETATM    9  O2  UNL     1      17.162 -51.540 -44.146  1.00  0.00    -0.287 OA
HETATM   10  C9  UNL     1      16.684 -53.045 -42.407  1.00  0.00     0.035 A 
HETATM   11  C10 UNL     1      16.565 -52.030 -41.450  1.00  0.00     0.053 A 
HETATM   12  C11 UNL     1      16.270 -52.303 -40.132  1.00  0.00     0.069 A 
HETATM   13  C12 UNL     1      16.080 -53.603 -39.704  1.00  0.00     0.074 A 
HETATM   14  C13 UNL     1      16.194 -54.612 -40.632  1.00  0.00     0.083 A 
HETATM   15  C14 UNL     1      16.490 -54.330 -41.954  1.00  0.00     0.062 A 
HETATM   16  C15 UNL     1      16.612 -55.413 -42.950  1.00  0.00     0.199 A 
HETATM   17  O5  UNL     1      16.430 -56.560 -42.501  1.00  0.00    -0.286 OA
ENDROOT
BRANCH   4  18
HETATM   18  O1  UNL     1      16.861 -57.432 -44.907  1.00  0.00    -0.360 OA
ATOM     19  H1  UNL     1      16.210 -57.636 -44.245  1.00  0.00     0.217 HD
ENDBRANCH   4  18
BRANCH  14  20
HETATM   20  O4  UNL     1      16.007 -55.925 -40.223  1.00  0.00    -0.360 OA
ATOM     21  H4  UNL     1      16.329 -56.628 -40.775  1.00  0.00     0.217 HD
ENDBRANCH  14  20
BRANCH  12  22
HETATM   22  O3  UNL     1      16.159 -51.272 -39.209  1.00  0.00    -0.361 OA
ATOM     23  H3  UNL     1      16.930 -50.939 -38.765  1.00  0.00     0.217 HD
ENDBRANCH  12  22
TORSDOF 3
ENDMDL
