MODEL 3
REMARK VINA RESULT: -4.577663369      3.085      4.419
REMARK  4 active torsions:
REMARK  status: ('A' for Active; 'I' for Inactive)
REMARK    1  A    between atoms: N1_1  and  C1_5 
REMARK    2  A    between atoms: C1_5  and  C2_6 
REMARK    3  A    between atoms: C2_6  and  C3_7 
REMARK    4  A    between atoms: C6_10  and  O1_11 
ROOT
HETATM    1  C3  UNL     1     -13.695  36.001  97.274  1.00  0.00    -0.056 A 
HETATM    2  C4  UNL     1     -14.626  36.589  96.444  1.00  0.00     0.010 A 
HETATM    3  C5  UNL     1     -15.680  35.895  95.885  1.00  0.00     0.037 A 
HETATM    4  C6  UNL     1     -15.823  34.552  96.159  1.00  0.00     0.065 A 
HETATM    5  C7  UNL     1     -14.897  33.922  96.998  1.00  0.00     0.037 A 
HETATM    6  C8  UNL     1     -13.852  34.656  97.538  1.00  0.00     0.010 A 
ENDROOT
BRANCH   1   7
HETATM    7  C2  UNL     1     -12.611  36.846  97.812  1.00  0.00     0.065 C 
BRANCH   7   8
HETATM    8  C1  UNL     1     -11.652  37.303  96.709  1.00  0.00     0.234 C 
BRANCH   8   9
HETATM    9  N1  UNL     1     -10.838  36.203  96.230  1.00  0.00    -0.079 N 
ATOM     10  H13 UNL     1     -11.413  35.422  95.915  1.00  0.00     0.274 HD
ATOM     11  H12 UNL     1     -10.383  36.430  95.346  1.00  0.00     0.274 HD
ATOM     12  H11 UNL     1     -10.161  35.910  96.935  1.00  0.00     0.274 HD
ENDBRANCH   8   9
ENDBRANCH   7   8
ENDBRANCH   1   7
BRANCH   4  13
HETATM   13  O1  UNL     1     -16.879  33.807  95.613  1.00  0.00    -0.361 OA
ATOM     14  H1  UNL     1     -17.761  33.877  95.959  1.00  0.00     0.217 HD
ENDBRANCH   4  13
TORSDOF 4
ENDMDL
