MODEL 8
REMARK VINA RESULT: -4.464100791      7.914      8.996
REMARK  4 active torsions:
REMARK  status: ('A' for Active; 'I' for Inactive)
REMARK    1  A    between atoms: N1_1  and  C1_5 
REMARK    2  A    between atoms: C1_5  and  C2_6 
REMARK    3  A    between atoms: C2_6  and  C3_7 
REMARK    4  A    between atoms: C6_10  and  O1_11 
ROOT
HETATM    1  C3  UNL     1     -20.052  39.370  94.565  1.00  0.00    -0.056 A 
HETATM    2  C4  UNL     1     -21.121  39.393  93.694  1.00  0.00     0.010 A 
HETATM    3  C5  UNL     1     -22.321  40.006  93.993  1.00  0.00     0.037 A 
HETATM    4  C6  UNL     1     -22.473  40.629  95.213  1.00  0.00     0.065 A 
HETATM    5  C7  UNL     1     -21.408  40.626  96.122  1.00  0.00     0.037 A 
HETATM    6  C8  UNL     1     -20.221  39.997  95.781  1.00  0.00     0.010 A 
ENDROOT
BRANCH   1   7
HETATM    7  C2  UNL     1     -18.819  38.682  94.133  1.00  0.00     0.065 C 
BRANCH   7   8
HETATM    8  C1  UNL     1     -17.872  39.633  93.394  1.00  0.00     0.234 C 
BRANCH   8   9
HETATM    9  N1  UNL     1     -17.978  39.469  91.958  1.00  0.00    -0.079 N 
ATOM     10  H13 UNL     1     -18.721  38.816  91.709  1.00  0.00     0.274 HD
ATOM     11  H12 UNL     1     -18.350  40.308  91.512  1.00  0.00     0.274 HD
ATOM     12  H11 UNL     1     -17.085  39.194  91.549  1.00  0.00     0.274 HD
ENDBRANCH   8   9
ENDBRANCH   7   8
ENDBRANCH   1   7
BRANCH   4  13
HETATM   13  O1  UNL     1     -23.675  41.265  95.560  1.00  0.00    -0.361 OA
ATOM     14  H1  UNL     1     -23.754  41.762  96.366  1.00  0.00     0.217 HD
ENDBRANCH   4  13
TORSDOF 4
ENDMDL
