MODEL 4
REMARK VINA RESULT: -4.508668098      7.590      8.729
REMARK  4 active torsions:
REMARK  status: ('A' for Active; 'I' for Inactive)
REMARK    1  A    between atoms: N1_1  and  C1_5 
REMARK    2  A    between atoms: C1_5  and  C2_6 
REMARK    3  A    between atoms: C2_6  and  C3_7 
REMARK    4  A    between atoms: C6_10  and  O1_11 
ROOT
HETATM    1  C3  UNL     1     -20.011  39.210  94.427  1.00  0.00    -0.056 A 
HETATM    2  C4  UNL     1     -21.135  39.244  93.629  1.00  0.00     0.010 A 
HETATM    3  C5  UNL     1     -22.298  39.892  93.996  1.00  0.00     0.037 A 
HETATM    4  C6  UNL     1     -22.353  40.541  95.210  1.00  0.00     0.065 A 
HETATM    5  C7  UNL     1     -21.230  40.529  96.046  1.00  0.00     0.037 A 
HETATM    6  C8  UNL     1     -20.083  39.864  95.640  1.00  0.00     0.010 A 
ENDROOT
BRANCH   1   7
HETATM    7  C2  UNL     1     -18.827  38.484  93.928  1.00  0.00     0.065 C 
BRANCH   7   8
HETATM    8  C1  UNL     1     -17.526  39.200  94.304  1.00  0.00     0.234 C 
BRANCH   8   9
HETATM    9  N1  UNL     1     -16.451  38.254  94.526  1.00  0.00    -0.079 N 
ATOM     10  H13 UNL     1     -16.401  37.561  93.780  1.00  0.00     0.274 HD
ATOM     11  H12 UNL     1     -15.537  38.689  94.398  1.00  0.00     0.274 HD
ATOM     12  H11 UNL     1     -16.529  37.813  95.443  1.00  0.00     0.274 HD
ENDBRANCH   8   9
ENDBRANCH   7   8
ENDBRANCH   1   7
BRANCH   4  13
HETATM   13  O1  UNL     1     -23.514  41.214  95.623  1.00  0.00    -0.361 OA
ATOM     14  H1  UNL     1     -24.250  40.742  95.995  1.00  0.00     0.217 HD
ENDBRANCH   4  13
TORSDOF 4
ENDMDL
