MODEL 2
REMARK VINA RESULT: -4.961979620      0.074      1.503
REMARK  4 active torsions:
REMARK  status: ('A' for Active; 'I' for Inactive)
REMARK    1  A    between atoms: N1_1  and  C1_5 
REMARK    2  A    between atoms: C1_5  and  C2_6 
REMARK    3  A    between atoms: C2_6  and  C3_7 
REMARK    4  A    between atoms: C6_10  and  O1_11 
ROOT
HETATM    1  C3  UNL     1     -14.324  34.956  96.784  1.00  0.00    -0.056 A 
HETATM    2  C4  UNL     1     -14.687  36.280  96.912  1.00  0.00     0.010 A 
HETATM    3  C5  UNL     1     -13.772  37.296  97.103  1.00  0.00     0.037 A 
HETATM    4  C6  UNL     1     -12.431  36.990  97.170  1.00  0.00     0.065 A 
HETATM    5  C7  UNL     1     -12.025  35.656  97.044  1.00  0.00     0.037 A 
HETATM    6  C8  UNL     1     -12.977  34.667  96.855  1.00  0.00     0.010 A 
ENDROOT
BRANCH   1   7
HETATM    7  C2  UNL     1     -15.393  33.958  96.585  1.00  0.00     0.065 C 
BRANCH   7   8
HETATM    8  C1  UNL     1     -16.256  34.292  95.364  1.00  0.00     0.234 C 
BRANCH   8   9
HETATM    9  N1  UNL     1     -15.851  33.519  94.207  1.00  0.00    -0.079 N 
ATOM     10  H13 UNL     1     -15.596  34.122  93.424  1.00  0.00     0.274 HD
ATOM     11  H12 UNL     1     -14.950  33.066  94.356  1.00  0.00     0.274 HD
ATOM     12  H11 UNL     1     -16.570  32.845  93.942  1.00  0.00     0.274 HD
ENDBRANCH   8   9
ENDBRANCH   7   8
ENDBRANCH   1   7
BRANCH   4  13
HETATM   13  O1  UNL     1     -11.465  37.990  97.362  1.00  0.00    -0.361 OA
ATOM     14  H1  UNL     1     -10.940  38.022  98.154  1.00  0.00     0.217 HD
ENDBRANCH   4  13
TORSDOF 4
ENDMDL
