MODEL 14
REMARK VINA RESULT: -4.387035140      8.381      9.540
REMARK  4 active torsions:
REMARK  status: ('A' for Active; 'I' for Inactive)
REMARK    1  A    between atoms: N1_1  and  C1_5 
REMARK    2  A    between atoms: C1_5  and  C2_6 
REMARK    3  A    between atoms: C2_6  and  C3_7 
REMARK    4  A    between atoms: C6_10  and  O1_11 
ROOT
HETATM    1  C3  UNL     1     -19.527  39.934  92.203  1.00  0.00    -0.056 A 
HETATM    2  C4  UNL     1     -20.034  39.057  93.138  1.00  0.00     0.010 A 
HETATM    3  C5  UNL     1     -21.329  39.129  93.613  1.00  0.00     0.037 A 
HETATM    4  C6  UNL     1     -22.165  40.116  93.139  1.00  0.00     0.065 A 
HETATM    5  C7  UNL     1     -21.685  41.025  92.188  1.00  0.00     0.037 A 
HETATM    6  C8  UNL     1     -20.377  40.917  91.740  1.00  0.00     0.010 A 
ENDROOT
BRANCH   1   7
HETATM    7  C2  UNL     1     -18.126  39.757  91.772  1.00  0.00     0.065 C 
BRANCH   7   8
HETATM    8  C1  UNL     1     -17.216  40.842  92.355  1.00  0.00     0.234 C 
BRANCH   8   9
HETATM    9  N1  UNL     1     -15.894  40.792  91.763  1.00  0.00    -0.079 N 
ATOM     10  H13 UNL     1     -15.171  40.665  92.471  1.00  0.00     0.274 HD
ATOM     11  H12 UNL     1     -15.751  39.930  91.237  1.00  0.00     0.274 HD
ATOM     12  H11 UNL     1     -15.715  41.616  91.188  1.00  0.00     0.274 HD
ENDBRANCH   8   9
ENDBRANCH   7   8
ENDBRANCH   1   7
BRANCH   4  13
HETATM   13  O1  UNL     1     -23.489  40.227  93.593  1.00  0.00    -0.361 OA
ATOM     14  H1  UNL     1     -23.685  40.543  94.467  1.00  0.00     0.217 HD
ENDBRANCH   4  13
TORSDOF 4
ENDMDL
