MODEL 1
REMARK VINA RESULT: -4.964878910      0.000      0.000
REMARK  4 active torsions:
REMARK  status: ('A' for Active; 'I' for Inactive)
REMARK    1  A    between atoms: N1_1  and  C1_5 
REMARK    2  A    between atoms: C1_5  and  C2_6 
REMARK    3  A    between atoms: C2_6  and  C3_7 
REMARK    4  A    between atoms: C6_10  and  O1_11 
ROOT
HETATM    1  C3  UNL     1     -14.393  35.000  96.770  1.00  0.00    -0.056 A 
HETATM    2  C4  UNL     1     -13.059  34.662  96.847  1.00  0.00     0.010 A 
HETATM    3  C5  UNL     1     -12.057  35.591  97.046  1.00  0.00     0.037 A 
HETATM    4  C6  UNL     1     -12.390  36.922  97.176  1.00  0.00     0.065 A 
HETATM    5  C7  UNL     1     -13.736  37.302  97.104  1.00  0.00     0.037 A 
HETATM    6  C8  UNL     1     -14.709  36.336  96.901  1.00  0.00     0.010 A 
ENDROOT
BRANCH   1   7
HETATM    7  C2  UNL     1     -15.373  33.917  96.553  1.00  0.00     0.065 C 
BRANCH   7   8
HETATM    8  C1  UNL     1     -16.285  34.212  95.359  1.00  0.00     0.234 C 
BRANCH   8   9
HETATM    9  N1  UNL     1     -15.867  33.475  94.184  1.00  0.00    -0.079 N 
ATOM     10  H13 UNL     1     -15.183  33.998  93.637  1.00  0.00     0.274 HD
ATOM     11  H12 UNL     1     -15.290  32.671  94.431  1.00  0.00     0.274 HD
ATOM     12  H11 UNL     1     -16.669  33.199  93.616  1.00  0.00     0.274 HD
ENDBRANCH   8   9
ENDBRANCH   7   8
ENDBRANCH   1   7
BRANCH   4  13
HETATM   13  O1  UNL     1     -11.406  37.901  97.381  1.00  0.00    -0.361 OA
ATOM     14  H1  UNL     1     -10.632  37.943  96.832  1.00  0.00     0.217 HD
ENDBRANCH   4  13
TORSDOF 4
ENDMDL
