MODEL 9
REMARK VINA RESULT: -4.426845478      8.383      9.622
REMARK  4 active torsions:
REMARK  status: ('A' for Active; 'I' for Inactive)
REMARK    1  A    between atoms: N1_1  and  C1_5 
REMARK    2  A    between atoms: C1_5  and  C2_6 
REMARK    3  A    between atoms: C2_6  and  C3_7 
REMARK    4  A    between atoms: C6_10  and  O1_11 
ROOT
HETATM    1  C3  UNL     1     -19.572  39.802  92.299  1.00  0.00    -0.056 A 
HETATM    2  C4  UNL     1     -20.361  40.804  91.774  1.00  0.00     0.010 A 
HETATM    3  C5  UNL     1     -21.674  41.004  92.155  1.00  0.00     0.037 A 
HETATM    4  C6  UNL     1     -22.234  40.174  93.101  1.00  0.00     0.065 A 
HETATM    5  C7  UNL     1     -21.461  39.147  93.656  1.00  0.00     0.037 A 
HETATM    6  C8  UNL     1     -20.148  38.980  93.245  1.00  0.00     0.010 A 
ENDROOT
BRANCH   1   7
HETATM    7  C2  UNL     1     -18.183  39.686  91.812  1.00  0.00     0.065 C 
BRANCH   7   8
HETATM    8  C1  UNL     1     -17.285  40.778  92.403  1.00  0.00     0.234 C 
BRANCH   8   9
HETATM    9  N1  UNL     1     -15.986  40.794  91.762  1.00  0.00    -0.079 N 
ATOM     10  H13 UNL     1     -15.936  40.119  90.998  1.00  0.00     0.274 HD
ATOM     11  H12 UNL     1     -15.844  41.649  91.225  1.00  0.00     0.274 HD
ATOM     12  H11 UNL     1     -15.237  40.649  92.439  1.00  0.00     0.274 HD
ENDBRANCH   8   9
ENDBRANCH   7   8
ENDBRANCH   1   7
BRANCH   4  13
HETATM   13  O1  UNL     1     -23.563  40.341  93.519  1.00  0.00    -0.361 OA
ATOM     14  H1  UNL     1     -24.266  39.826  93.141  1.00  0.00     0.217 HD
ENDBRANCH   4  13
TORSDOF 4
ENDMDL
