MODEL 7
REMARK VINA RESULT: -4.469551763      7.891      8.971
REMARK  4 active torsions:
REMARK  status: ('A' for Active; 'I' for Inactive)
REMARK    1  A    between atoms: N1_1  and  C1_5 
REMARK    2  A    between atoms: C1_5  and  C2_6 
REMARK    3  A    between atoms: C2_6  and  C3_7 
REMARK    4  A    between atoms: C6_10  and  O1_11 
ROOT
HETATM    1  C3  UNL     1     -20.079  39.314  94.441  1.00  0.00    -0.056 A 
HETATM    2  C4  UNL     1     -20.193  39.940  95.664  1.00  0.00     0.010 A 
HETATM    3  C5  UNL     1     -21.342  40.588  96.073  1.00  0.00     0.037 A 
HETATM    4  C6  UNL     1     -22.433  40.618  95.232  1.00  0.00     0.065 A 
HETATM    5  C7  UNL     1     -22.354  39.992  93.983  1.00  0.00     0.037 A 
HETATM    6  C8  UNL     1     -21.180  39.354  93.611  1.00  0.00     0.010 A 
ENDROOT
BRANCH   1   7
HETATM    7  C2  UNL     1     -18.799  38.655  94.114  1.00  0.00     0.065 C 
BRANCH   7   8
HETATM    8  C1  UNL     1     -17.838  39.611  93.402  1.00  0.00     0.234 C 
BRANCH   8   9
HETATM    9  N1  UNL     1     -17.955  39.498  91.962  1.00  0.00    -0.079 N 
ATOM     10  H13 UNL     1     -17.951  40.414  91.513  1.00  0.00     0.274 HD
ATOM     11  H12 UNL     1     -17.106  39.116  91.546  1.00  0.00     0.274 HD
ATOM     12  H11 UNL     1     -18.777  38.955  91.699  1.00  0.00     0.274 HD
ENDBRANCH   8   9
ENDBRANCH   7   8
ENDBRANCH   1   7
BRANCH   4  13
HETATM   13  O1  UNL     1     -23.622  41.263  95.607  1.00  0.00    -0.361 OA
ATOM     14  H1  UNL     1     -23.619  41.970  96.242  1.00  0.00     0.217 HD
ENDBRANCH   4  13
TORSDOF 4
ENDMDL
