MODEL 8
REMARK VINA RESULT: -7.140459591      1.651      2.052
REMARK  4 active torsions:
REMARK  status: ('A' for Active; 'I' for Inactive)
REMARK    1  A    between atoms: N1_1  and  C1_5 
REMARK    2  A    between atoms: C1_5  and  C2_6 
REMARK    3  A    between atoms: C2_6  and  C3_7 
REMARK    4  A    between atoms: C8_14  and  O1_15 
ROOT
HETATM    1  C3  UNL     1      -8.522  34.690 -10.229  1.00  0.00    -0.029 A 
HETATM    2  C4  UNL     1      -7.680  33.580 -10.318  1.00  0.00     0.096 A 
HETATM    3  N2  UNL     1      -8.221  32.698 -11.189  1.00  0.00    -0.365 N 
ATOM      4  H2  UNL     1      -7.820  31.797 -11.450  1.00  0.00     0.165 HD
HETATM    5  C5  UNL     1      -9.376  33.207 -11.655  1.00  0.00     0.043 A 
HETATM    6  C6  UNL     1     -10.317  32.747 -12.540  1.00  0.00     0.033 A 
HETATM    7  C7  UNL     1     -11.460  33.482 -12.863  1.00  0.00     0.039 A 
HETATM    8  C8  UNL     1     -11.661  34.708 -12.283  1.00  0.00     0.066 A 
HETATM    9  C9  UNL     1     -10.723  35.186 -11.391  1.00  0.00     0.050 A 
HETATM   10  C10 UNL     1      -9.582  34.441 -11.074  1.00  0.00     0.001 A 
ENDROOT
BRANCH   1  11
HETATM   11  C2  UNL     1      -8.301  35.890  -9.392  1.00  0.00     0.068 C 
BRANCH  11  12
HETATM   12  C1  UNL     1      -6.840  36.296  -9.493  1.00  0.00     0.234 C 
BRANCH  12  13
HETATM   13  N1  UNL     1      -6.142  36.162  -8.241  1.00  0.00    -0.079 N 
ATOM     14  H13 UNL     1      -5.215  36.583  -8.292  1.00  0.00     0.274 HD
ATOM     15  H12 UNL     1      -6.555  36.760  -7.525  1.00  0.00     0.274 HD
ATOM     16  H11 UNL     1      -6.088  35.194  -7.924  1.00  0.00     0.274 HD
ENDBRANCH  12  13
ENDBRANCH  11  12
ENDBRANCH   1  11
BRANCH   8  17
HETATM   17  O1  UNL     1     -12.798  35.418 -12.615  1.00  0.00    -0.361 OA
ATOM     18  H1  UNL     1     -13.411  35.642 -11.925  1.00  0.00     0.217 HD
ENDBRANCH   8  17
TORSDOF 4
ENDMDL
