MODEL 9
REMARK VINA RESULT: -7.097386502      1.753      2.228
REMARK  4 active torsions:
REMARK  status: ('A' for Active; 'I' for Inactive)
REMARK    1  A    between atoms: N1_1  and  C1_5 
REMARK    2  A    between atoms: C1_5  and  C2_6 
REMARK    3  A    between atoms: C2_6  and  C3_7 
REMARK    4  A    between atoms: C8_14  and  O1_15 
ROOT
HETATM    1  C3  UNL     1      -7.469  34.219 -10.441  1.00  0.00    -0.029 A 
HETATM    2  C4  UNL     1      -7.554  32.843 -10.223  1.00  0.00     0.096 A 
HETATM    3  N2  UNL     1      -8.748  32.407 -10.684  1.00  0.00    -0.365 N 
ATOM      4  H2  UNL     1      -9.081  31.443 -10.656  1.00  0.00     0.165 HD
HETATM    5  C5  UNL     1      -9.424  33.457 -11.185  1.00  0.00     0.043 A 
HETATM    6  C6  UNL     1     -10.660  33.589 -11.766  1.00  0.00     0.033 A 
HETATM    7  C7  UNL     1     -11.147  34.820 -12.212  1.00  0.00     0.039 A 
HETATM    8  C8  UNL     1     -10.374  35.943 -12.071  1.00  0.00     0.066 A 
HETATM    9  C9  UNL     1      -9.128  35.827 -11.489  1.00  0.00     0.050 A 
HETATM   10  C10 UNL     1      -8.650  34.590 -11.045  1.00  0.00     0.001 A 
ENDROOT
BRANCH   1  11
HETATM   11  C2  UNL     1      -6.325  35.090 -10.090  1.00  0.00     0.068 C 
BRANCH  11  12
HETATM   12  C1  UNL     1      -6.647  35.827  -8.800  1.00  0.00     0.234 C 
BRANCH  12  13
HETATM   13  N1  UNL     1      -6.691  37.254  -8.975  1.00  0.00    -0.079 N 
ATOM     14  H13 UNL     1      -6.834  37.499  -9.954  1.00  0.00     0.274 HD
ATOM     15  H12 UNL     1      -7.547  37.646  -8.581  1.00  0.00     0.274 HD
ATOM     16  H11 UNL     1      -5.867  37.721  -8.597  1.00  0.00     0.274 HD
ENDBRANCH  12  13
ENDBRANCH  11  12
ENDBRANCH   1  11
BRANCH   8  17
HETATM   17  O1  UNL     1     -10.875  37.150 -12.518  1.00  0.00    -0.361 OA
ATOM     18  H1  UNL     1     -10.628  37.451 -13.384  1.00  0.00     0.217 HD
ENDBRANCH   8  17
TORSDOF 4
ENDMDL
