MODEL 1
REMARK VINA RESULT: -7.493228366      0.000      0.000
REMARK  4 active torsions:
REMARK  status: ('A' for Active; 'I' for Inactive)
REMARK    1  A    between atoms: N1_1  and  C1_5 
REMARK    2  A    between atoms: C1_5  and  C2_6 
REMARK    3  A    between atoms: C2_6  and  C3_7 
REMARK    4  A    between atoms: C8_14  and  O1_15 
ROOT
HETATM    1  C3  UNL     1      -8.657  32.380 -11.148  1.00  0.00    -0.029 A 
HETATM    2  C4  UNL     1      -8.451  31.359 -12.078  1.00  0.00     0.096 A 
HETATM    3  N2  UNL     1      -9.396  31.457 -13.041  1.00  0.00    -0.365 N 
ATOM      4  H2  UNL     1      -9.487  30.841 -13.849  1.00  0.00     0.165 HD
HETATM    5  C5  UNL     1     -10.194  32.501 -12.756  1.00  0.00     0.043 A 
HETATM    6  C6  UNL     1     -11.290  33.044 -13.376  1.00  0.00     0.033 A 
HETATM    7  C7  UNL     1     -11.962  34.157 -12.864  1.00  0.00     0.039 A 
HETATM    8  C8  UNL     1     -11.521  34.737 -11.703  1.00  0.00     0.066 A 
HETATM    9  C9  UNL     1     -10.419  34.203 -11.067  1.00  0.00     0.050 A 
HETATM   10  C10 UNL     1      -9.754  33.088 -11.587  1.00  0.00     0.001 A 
ENDROOT
BRANCH   1  11
HETATM   11  C2  UNL     1      -7.843  32.637  -9.939  1.00  0.00     0.068 C 
BRANCH  11  12
HETATM   12  C1  UNL     1      -6.822  33.717 -10.256  1.00  0.00     0.234 C 
BRANCH  12  13
HETATM   13  N1  UNL     1      -7.130  34.972  -9.622  1.00  0.00    -0.079 N 
ATOM     14  H13 UNL     1      -8.010  35.352  -9.968  1.00  0.00     0.274 HD
ATOM     15  H12 UNL     1      -7.383  34.835  -8.643  1.00  0.00     0.274 HD
ATOM     16  H11 UNL     1      -6.375  35.652  -9.713  1.00  0.00     0.274 HD
ENDBRANCH  12  13
ENDBRANCH  11  12
ENDBRANCH   1  11
BRANCH   8  17
HETATM   17  O1  UNL     1     -12.200  35.835 -11.214  1.00  0.00    -0.361 OA
ATOM     18  H1  UNL     1     -11.709  36.626 -11.024  1.00  0.00     0.217 HD
ENDBRANCH   8  17
TORSDOF 4
ENDMDL
