MODEL 14
REMARK VINA RESULT: -3.911484217      2.240      4.367
REMARK  3 active torsions:
REMARK  status: ('A' for Active; 'I' for Inactive)
REMARK    1  A    between atoms: N1_1  and  C1_5 
REMARK    2  A    between atoms: C1_5  and  C2_6 
REMARK    3  A    between atoms: C2_6  and  C3_7 
ROOT
HETATM    1  C3  UNL     1      14.511  25.214  11.734  1.00  0.00     0.027 A 
HETATM    2  C4  UNL     1      14.556  25.515  10.398  1.00  0.00     0.114 A 
HETATM    3  N2  UNL     1      14.581  24.353   9.729  1.00  0.00    -0.360 N 
ATOM      4  H2  UNL     1      14.616  24.251   8.715  1.00  0.00     0.166 HD
HETATM    5  C5  UNL     1      14.551  23.346  10.616  1.00  0.00     0.180 A 
HETATM    6  N3  UNL     1      14.508  23.882  11.841  1.00  0.00    -0.355 N 
ATOM      7  H3  UNL     1      14.479  23.358  12.716  1.00  0.00     0.166 HD
ENDROOT
BRANCH   1   8
HETATM    8  C2  UNL     1      14.470  26.219  12.864  1.00  0.00     0.085 C 
BRANCH   8   9
HETATM    9  C1  UNL     1      13.171  27.016  12.782  1.00  0.00     0.235 C 
BRANCH   9  10
HETATM   10  N1  UNL     1      12.022  26.171  12.914  1.00  0.00    -0.079 N 
ATOM     11  H13 UNL     1      12.185  25.422  13.587  1.00  0.00     0.274 HD
ATOM     12  H12 UNL     1      11.260  26.652  13.392  1.00  0.00     0.274 HD
ATOM     13  H11 UNL     1      11.720  25.802  12.012  1.00  0.00     0.274 HD
ENDBRANCH   9  10
ENDBRANCH   8   9
ENDBRANCH   1   8
TORSDOF 3
ENDMDL
