MODEL 1
REMARK VINA RESULT: -4.996817386      0.000      0.000
REMARK  3 active torsions:
REMARK  status: ('A' for Active; 'I' for Inactive)
REMARK    1  A    between atoms: N1_1  and  C1_5 
REMARK    2  A    between atoms: C1_5  and  C2_6 
REMARK    3  A    between atoms: C2_6  and  C3_7 
ROOT
HETATM    1  C3  UNL     1      15.303  24.229   9.720  1.00  0.00     0.027 A 
HETATM    2  C4  UNL     1      14.284  23.398  10.102  1.00  0.00     0.114 A 
HETATM    3  N2  UNL     1      14.100  23.573  11.420  1.00  0.00    -0.360 N 
ATOM      4  H2  UNL     1      13.408  23.091  11.993  1.00  0.00     0.166 HD
HETATM    5  C5  UNL     1      14.979  24.489  11.857  1.00  0.00     0.180 A 
HETATM    6  N3  UNL     1      15.712  24.885  10.810  1.00  0.00    -0.355 N 
ATOM      7  H3  UNL     1      16.462  25.576  10.840  1.00  0.00     0.166 HD
ENDROOT
BRANCH   1   8
HETATM    8  C2  UNL     1      15.851  24.365   8.316  1.00  0.00     0.085 C 
BRANCH   8   9
HETATM    9  C1  UNL     1      17.353  24.089   8.334  1.00  0.00     0.235 C 
BRANCH   9  10
HETATM   10  N1  UNL     1      17.643  22.766   8.799  1.00  0.00    -0.079 N 
ATOM     11  H13 UNL     1      18.256  22.784   9.614  1.00  0.00     0.274 HD
ATOM     12  H12 UNL     1      16.825  22.333   9.225  1.00  0.00     0.274 HD
ATOM     13  H11 UNL     1      18.029  22.181   8.058  1.00  0.00     0.274 HD
ENDBRANCH   9  10
ENDBRANCH   8   9
ENDBRANCH   1   8
TORSDOF 3
ENDMDL
