MODEL 2
REMARK VINA RESULT: -4.703440943      1.306      1.520
REMARK  3 active torsions:
REMARK  status: ('A' for Active; 'I' for Inactive)
REMARK    1  A    between atoms: N1_1  and  C1_5 
REMARK    2  A    between atoms: C1_5  and  C2_6 
REMARK    3  A    between atoms: C2_6  and  C3_7 
ROOT
HETATM    1  C3  UNL     1      15.333  24.320   9.364  1.00  0.00     0.027 A 
HETATM    2  C4  UNL     1      14.778  25.378  10.034  1.00  0.00     0.114 A 
HETATM    3  N2  UNL     1      13.873  24.878  10.889  1.00  0.00    -0.360 N 
ATOM      4  H2  UNL     1      13.294  25.422  11.528  1.00  0.00     0.166 HD
HETATM    5  C5  UNL     1      13.857  23.542  10.762  1.00  0.00     0.180 A 
HETATM    6  N3  UNL     1      14.754  23.209   9.827  1.00  0.00    -0.355 N 
ATOM      7  H3  UNL     1      14.961  22.259   9.517  1.00  0.00     0.166 HD
ENDROOT
BRANCH   1   8
HETATM    8  C2  UNL     1      16.404  24.414   8.299  1.00  0.00     0.085 C 
BRANCH   8   9
HETATM    9  C1  UNL     1      17.546  23.465   8.650  1.00  0.00     0.235 C 
BRANCH   9  10
HETATM   10  N1  UNL     1      18.823  24.100   8.516  1.00  0.00    -0.079 N 
ATOM     11  H13 UNL     1      18.759  25.105   8.683  1.00  0.00     0.274 HD
ATOM     12  H12 UNL     1      19.445  23.851   9.285  1.00  0.00     0.274 HD
ATOM     13  H11 UNL     1      19.252  23.900   7.613  1.00  0.00     0.274 HD
ENDBRANCH   9  10
ENDBRANCH   8   9
ENDBRANCH   1   8
TORSDOF 3
ENDMDL
