MODEL 10
REMARK VINA RESULT: -4.278326062      1.621      1.912
REMARK  3 active torsions:
REMARK  status: ('A' for Active; 'I' for Inactive)
REMARK    1  A    between atoms: N1_1  and  C1_5 
REMARK    2  A    between atoms: C1_5  and  C2_6 
REMARK    3  A    between atoms: C2_6  and  C3_7 
ROOT
HETATM    1  C3  UNL     1      14.590  24.863  10.857  1.00  0.00     0.027 A 
HETATM    2  C4  UNL     1      13.349  24.920  11.435  1.00  0.00     0.114 A 
HETATM    3  N2  UNL     1      13.518  25.329  12.702  1.00  0.00    -0.360 N 
ATOM      4  H2  UNL     1      12.775  25.468  13.386  1.00  0.00     0.166 HD
HETATM    5  C5  UNL     1      14.828  25.524  12.918  1.00  0.00     0.180 A 
HETATM    6  N3  UNL     1      15.477  25.237  11.784  1.00  0.00    -0.355 N 
ATOM      7  H3  UNL     1      16.487  25.294  11.648  1.00  0.00     0.166 HD
ENDROOT
BRANCH   1   8
HETATM    8  C2  UNL     1      14.881  24.450   9.432  1.00  0.00     0.085 C 
BRANCH   8   9
HETATM    9  C1  UNL     1      14.824  22.929   9.326  1.00  0.00     0.235 C 
BRANCH   9  10
HETATM   10  N1  UNL     1      16.133  22.347   9.329  1.00  0.00    -0.079 N 
ATOM     11  H13 UNL     1      16.099  21.353   9.105  1.00  0.00     0.274 HD
ATOM     12  H12 UNL     1      16.685  22.670   8.535  1.00  0.00     0.274 HD
ATOM     13  H11 UNL     1      16.618  22.513  10.211  1.00  0.00     0.274 HD
ENDBRANCH   9  10
ENDBRANCH   8   9
ENDBRANCH   1   8
TORSDOF 3
ENDMDL
