MODEL 15
REMARK VINA RESULT: -3.832568423      4.021      5.476
REMARK  3 active torsions:
REMARK  status: ('A' for Active; 'I' for Inactive)
REMARK    1  A    between atoms: N1_1  and  C1_5 
REMARK    2  A    between atoms: C1_5  and  C2_6 
REMARK    3  A    between atoms: C2_6  and  C3_7 
ROOT
HETATM    1  C3  UNL     1      13.859  26.890  13.569  1.00  0.00     0.027 A 
HETATM    2  C4  UNL     1      13.156  27.025  14.737  1.00  0.00     0.114 A 
HETATM    3  N2  UNL     1      12.973  28.338  14.943  1.00  0.00    -0.360 N 
ATOM      4  H2  UNL     1      12.482  28.753  15.734  1.00  0.00     0.166 HD
HETATM    5  C5  UNL     1      13.544  29.013  13.933  1.00  0.00     0.180 A 
HETATM    6  N3  UNL     1      14.083  28.119  13.096  1.00  0.00    -0.355 N 
ATOM      7  H3  UNL     1      14.586  28.341  12.236  1.00  0.00     0.166 HD
ENDROOT
BRANCH   1   8
HETATM    8  C2  UNL     1      14.291  25.581  12.946  1.00  0.00     0.085 C 
BRANCH   8   9
HETATM    9  C1  UNL     1      13.474  25.332  11.681  1.00  0.00     0.235 C 
BRANCH   9  10
HETATM   10  N1  UNL     1      12.131  24.938  11.985  1.00  0.00    -0.079 N 
ATOM     11  H13 UNL     1      12.110  24.068  12.518  1.00  0.00     0.274 HD
ATOM     12  H12 UNL     1      11.709  25.558  12.676  1.00  0.00     0.274 HD
ATOM     13  H11 UNL     1      11.557  24.873  11.145  1.00  0.00     0.274 HD
ENDBRANCH   9  10
ENDBRANCH   8   9
ENDBRANCH   1   8
TORSDOF 3
ENDMDL
