MODEL 7
REMARK VINA RESULT: -4.481660763      1.539      1.834
REMARK  3 active torsions:
REMARK  status: ('A' for Active; 'I' for Inactive)
REMARK    1  A    between atoms: N1_1  and  C1_5 
REMARK    2  A    between atoms: C1_5  and  C2_6 
REMARK    3  A    between atoms: C2_6  and  C3_7 
ROOT
HETATM    1  C3  UNL     1      14.436  24.260  10.932  1.00  0.00     0.027 A 
HETATM    2  C4  UNL     1      13.244  24.535  11.549  1.00  0.00     0.114 A 
HETATM    3  N2  UNL     1      13.511  25.335  12.592  1.00  0.00    -0.360 N 
ATOM      4  H2  UNL     1      12.824  25.711  13.245  1.00  0.00     0.166 HD
HETATM    5  C5  UNL     1      14.834  25.559  12.633  1.00  0.00     0.180 A 
HETATM    6  N3  UNL     1      15.392  24.897  11.614  1.00  0.00    -0.355 N 
ATOM      7  H3  UNL     1      16.389  24.881  11.392  1.00  0.00     0.166 HD
ENDROOT
BRANCH   1   8
HETATM    8  C2  UNL     1      14.615  23.392   9.706  1.00  0.00     0.085 C 
BRANCH   8   9
HETATM    9  C1  UNL     1      16.017  23.601   9.142  1.00  0.00     0.235 C 
BRANCH   9  10
HETATM   10  N1  UNL     1      15.983  24.232   7.856  1.00  0.00    -0.079 N 
ATOM     11  H13 UNL     1      15.068  24.644   7.668  1.00  0.00     0.274 HD
ATOM     12  H12 UNL     1      16.545  25.082   7.844  1.00  0.00     0.274 HD
ATOM     13  H11 UNL     1      16.262  23.591   7.113  1.00  0.00     0.274 HD
ENDBRANCH   9  10
ENDBRANCH   8   9
ENDBRANCH   1   8
TORSDOF 3
ENDMDL
