MODEL 1
REMARK VINA RESULT: -4.798800093      0.000      0.000
REMARK  4 active torsions:
REMARK  status: ('A' for Active; 'I' for Inactive)
REMARK    1  A    between atoms: C2_2  and  N1_3 
REMARK    2  A    between atoms: C2_2  and  C3_7 
REMARK    3  A    between atoms: C3_7  and  C4_8 
REMARK    4  A    between atoms: C7_11  and  O1_12 
ROOT
HETATM    1  C4  UNL     1     -13.764  35.923  96.623  1.00  0.00    -0.056 A 
HETATM    2  C5  UNL     1     -13.860  34.559  96.728  1.00  0.00     0.010 A 
HETATM    3  C6  UNL     1     -14.924  33.853  96.162  1.00  0.00     0.037 A 
HETATM    4  C7  UNL     1     -15.906  34.541  95.479  1.00  0.00     0.065 A 
HETATM    5  C8  UNL     1     -15.824  35.907  95.365  1.00  0.00     0.037 A 
HETATM    6  C9  UNL     1     -14.760  36.585  95.935  1.00  0.00     0.010 A 
ENDROOT
BRANCH   1   7
HETATM    7  C3  UNL     1     -12.639  36.688  97.220  1.00  0.00     0.070 C 
BRANCH   7   8
HETATM    8  C2  UNL     1     -11.790  37.349  96.155  1.00  0.00     0.183 C 
HETATM    9  C1  UNL     1     -11.142  38.575  96.757  1.00  0.00     0.040 C 
BRANCH   8  10
HETATM   10  N1  UNL     1     -10.719  36.407  95.824  1.00  0.00    -0.075 N 
ATOM     11  H13 UNL     1      -9.806  36.702  96.172  1.00  0.00     0.274 HD
ATOM     12  H12 UNL     1     -10.782  35.532  96.344  1.00  0.00     0.274 HD
ATOM     13  H11 UNL     1     -10.735  36.272  94.813  1.00  0.00     0.274 HD
ENDBRANCH   8  10
ENDBRANCH   7   8
ENDBRANCH   1   7
BRANCH   4  14
HETATM   14  O1  UNL     1     -16.979  33.843  94.907  1.00  0.00    -0.361 OA
ATOM     15  H1  UNL     1     -17.301  34.091  94.048  1.00  0.00     0.217 HD
ENDBRANCH   4  14
TORSDOF 4
ENDMDL
