MODEL 5
REMARK VINA RESULT: -4.682407657      6.889      8.171
REMARK  4 active torsions:
REMARK  status: ('A' for Active; 'I' for Inactive)
REMARK    1  A    between atoms: C2_2  and  N1_3 
REMARK    2  A    between atoms: C2_2  and  C3_7 
REMARK    3  A    between atoms: C3_7  and  C4_8 
REMARK    4  A    between atoms: C7_11  and  O1_12 
ROOT
HETATM    1  C4  UNL     1     -20.206  39.166  94.018  1.00  0.00    -0.056 A 
HETATM    2  C5  UNL     1     -20.443  39.787  95.217  1.00  0.00     0.010 A 
HETATM    3  C6  UNL     1     -21.650  40.439  95.478  1.00  0.00     0.037 A 
HETATM    4  C7  UNL     1     -22.632  40.462  94.508  1.00  0.00     0.065 A 
HETATM    5  C8  UNL     1     -22.408  39.845  93.302  1.00  0.00     0.037 A 
HETATM    6  C9  UNL     1     -21.204  39.205  93.066  1.00  0.00     0.010 A 
ENDROOT
BRANCH   1   7
HETATM    7  C3  UNL     1     -18.927  38.468  93.724  1.00  0.00     0.070 C 
BRANCH   7   8
HETATM    8  C2  UNL     1     -17.836  39.446  93.345  1.00  0.00     0.183 C 
HETATM    9  C1  UNL     1     -16.551  39.005  94.011  1.00  0.00     0.040 C 
BRANCH   8  10
HETATM   10  N1  UNL     1     -17.642  39.322  91.899  1.00  0.00    -0.075 N 
ATOM     11  H13 UNL     1     -16.713  39.616  91.594  1.00  0.00     0.274 HD
ATOM     12  H12 UNL     1     -17.583  38.353  91.586  1.00  0.00     0.274 HD
ATOM     13  H11 UNL     1     -18.393  39.843  91.447  1.00  0.00     0.274 HD
ENDBRANCH   8  10
ENDBRANCH   7   8
ENDBRANCH   1   7
BRANCH   4  14
HETATM   14  O1  UNL     1     -23.847  41.114  94.759  1.00  0.00    -0.361 OA
ATOM     15  H1  UNL     1     -23.999  41.984  94.409  1.00  0.00     0.217 HD
ENDBRANCH   4  14
TORSDOF 4
ENDMDL
