MODEL 13
REMARK VINA RESULT: -4.552773100      7.301      8.641
REMARK  4 active torsions:
REMARK  status: ('A' for Active; 'I' for Inactive)
REMARK    1  A    between atoms: C2_2  and  N1_3 
REMARK    2  A    between atoms: C2_2  and  C3_7 
REMARK    3  A    between atoms: C3_7  and  C4_8 
REMARK    4  A    between atoms: C7_11  and  O1_12 
ROOT
HETATM    1  C4  UNL     1     -19.756  39.707  91.849  1.00  0.00    -0.056 A 
HETATM    2  C5  UNL     1     -20.449  40.820  91.448  1.00  0.00     0.010 A 
HETATM    3  C6  UNL     1     -21.773  41.037  91.835  1.00  0.00     0.037 A 
HETATM    4  C7  UNL     1     -22.405  40.111  92.641  1.00  0.00     0.065 A 
HETATM    5  C8  UNL     1     -21.723  38.991  93.050  1.00  0.00     0.037 A 
HETATM    6  C9  UNL     1     -20.411  38.798  92.653  1.00  0.00     0.010 A 
ENDROOT
BRANCH   1   7
HETATM    7  C3  UNL     1     -18.347  39.462  91.446  1.00  0.00     0.070 C 
BRANCH   7   8
HETATM    8  C2  UNL     1     -17.421  40.533  91.982  1.00  0.00     0.183 C 
HETATM    9  C1  UNL     1     -16.923  40.094  93.340  1.00  0.00     0.040 C 
BRANCH   8  10
HETATM   10  N1  UNL     1     -16.264  40.579  91.087  1.00  0.00    -0.075 N 
ATOM     11  H13 UNL     1     -16.101  41.505  90.691  1.00  0.00     0.274 HD
ATOM     12  H12 UNL     1     -15.375  40.487  91.579  1.00  0.00     0.274 HD
ATOM     13  H11 UNL     1     -16.402  39.860  90.376  1.00  0.00     0.274 HD
ENDBRANCH   8  10
ENDBRANCH   7   8
ENDBRANCH   1   7
BRANCH   4  14
HETATM   14  O1  UNL     1     -23.734  40.318  93.035  1.00  0.00    -0.361 OA
ATOM     15  H1  UNL     1     -24.040  39.975  93.866  1.00  0.00     0.217 HD
ENDBRANCH   4  14
TORSDOF 4
ENDMDL
