MODEL 2
REMARK VINA RESULT: -4.769574839      0.096      1.429
REMARK  4 active torsions:
REMARK  status: ('A' for Active; 'I' for Inactive)
REMARK    1  A    between atoms: C2_2  and  N1_3 
REMARK    2  A    between atoms: C2_2  and  C3_7 
REMARK    3  A    between atoms: C3_7  and  C4_8 
REMARK    4  A    between atoms: C7_11  and  O1_12 
ROOT
HETATM    1  C4  UNL     1     -13.750  35.947  96.543  1.00  0.00    -0.056 A 
HETATM    2  C5  UNL     1     -14.790  36.591  95.923  1.00  0.00     0.010 A 
HETATM    3  C6  UNL     1     -15.867  35.888  95.377  1.00  0.00     0.037 A 
HETATM    4  C7  UNL     1     -15.889  34.511  95.461  1.00  0.00     0.065 A 
HETATM    5  C8  UNL     1     -14.854  33.852  96.079  1.00  0.00     0.037 A 
HETATM    6  C9  UNL     1     -13.798  34.570  96.612  1.00  0.00     0.010 A 
ENDROOT
BRANCH   1   7
HETATM    7  C3  UNL     1     -12.598  36.680  97.128  1.00  0.00     0.070 C 
BRANCH   7   8
HETATM    8  C2  UNL     1     -11.732  37.301  96.054  1.00  0.00     0.183 C 
HETATM    9  C1  UNL     1     -11.102  38.555  96.618  1.00  0.00     0.040 C 
BRANCH   8  10
HETATM   10  N1  UNL     1     -10.649  36.354  95.784  1.00  0.00    -0.075 N 
ATOM     11  H13 UNL     1     -10.904  35.640  95.100  1.00  0.00     0.274 HD
ATOM     12  H12 UNL     1      -9.877  36.768  95.260  1.00  0.00     0.274 HD
ATOM     13  H11 UNL     1     -10.358  35.962  96.680  1.00  0.00     0.274 HD
ENDBRANCH   8  10
ENDBRANCH   7   8
ENDBRANCH   1   7
BRANCH   4  14
HETATM   14  O1  UNL     1     -16.964  33.795  94.916  1.00  0.00    -0.361 OA
ATOM     15  H1  UNL     1     -17.825  33.861  95.311  1.00  0.00     0.217 HD
ENDBRANCH   4  14
TORSDOF 4
ENDMDL
