MODEL 4
REMARK VINA RESULT: -4.682772071      6.894      8.215
REMARK  4 active torsions:
REMARK  status: ('A' for Active; 'I' for Inactive)
REMARK    1  A    between atoms: C2_2  and  N1_3 
REMARK    2  A    between atoms: C2_2  and  C3_7 
REMARK    3  A    between atoms: C3_7  and  C4_8 
REMARK    4  A    between atoms: C7_11  and  O1_12 
ROOT
HETATM    1  C4  UNL     1     -20.242  39.121  93.948  1.00  0.00    -0.056 A 
HETATM    2  C5  UNL     1     -21.241  39.195  93.011  1.00  0.00     0.010 A 
HETATM    3  C6  UNL     1     -22.445  39.852  93.274  1.00  0.00     0.037 A 
HETATM    4  C7  UNL     1     -22.640  40.441  94.507  1.00  0.00     0.065 A 
HETATM    5  C8  UNL     1     -21.649  40.374  95.455  1.00  0.00     0.037 A 
HETATM    6  C9  UNL     1     -20.464  39.718  95.172  1.00  0.00     0.010 A 
ENDROOT
BRANCH   1   7
HETATM    7  C3  UNL     1     -18.955  38.426  93.684  1.00  0.00     0.070 C 
BRANCH   7   8
HETATM    8  C2  UNL     1     -17.862  39.405  93.313  1.00  0.00     0.183 C 
HETATM    9  C1  UNL     1     -16.575  38.948  93.964  1.00  0.00     0.040 C 
BRANCH   8  10
HETATM   10  N1  UNL     1     -17.677  39.303  91.864  1.00  0.00    -0.075 N 
ATOM     11  H13 UNL     1     -16.696  39.232  91.591  1.00  0.00     0.274 HD
ATOM     12  H12 UNL     1     -17.985  38.408  91.485  1.00  0.00     0.274 HD
ATOM     13  H11 UNL     1     -18.153  40.100  91.441  1.00  0.00     0.274 HD
ENDBRANCH   8  10
ENDBRANCH   7   8
ENDBRANCH   1   7
BRANCH   4  14
HETATM   14  O1  UNL     1     -23.845  41.103  94.782  1.00  0.00    -0.361 OA
ATOM     15  H1  UNL     1     -23.842  42.034  94.968  1.00  0.00     0.217 HD
ENDBRANCH   4  14
TORSDOF 4
ENDMDL
