MODEL 3
REMARK VINA RESULT: -4.720742138      2.753      3.253
REMARK  4 active torsions:
REMARK  status: ('A' for Active; 'I' for Inactive)
REMARK    1  A    between atoms: C2_2  and  N1_3 
REMARK    2  A    between atoms: C2_2  and  C3_7 
REMARK    3  A    between atoms: C3_7  and  C4_8 
REMARK    4  A    between atoms: C7_11  and  O1_12 
ROOT
HETATM    1  C4  UNL     1     -13.816  36.691  96.684  1.00  0.00    -0.056 A 
HETATM    2  C5  UNL     1     -14.503  35.515  96.515  1.00  0.00     0.010 A 
HETATM    3  C6  UNL     1     -13.866  34.350  96.084  1.00  0.00     0.037 A 
HETATM    4  C7  UNL     1     -12.512  34.376  95.820  1.00  0.00     0.065 A 
HETATM    5  C8  UNL     1     -11.811  35.546  95.984  1.00  0.00     0.037 A 
HETATM    6  C9  UNL     1     -12.464  36.689  96.413  1.00  0.00     0.010 A 
ENDROOT
BRANCH   1   7
HETATM    7  C3  UNL     1     -14.480  37.939  97.142  1.00  0.00     0.070 C 
BRANCH   7   8
HETATM    8  C2  UNL     1     -13.559  38.772  98.008  1.00  0.00     0.183 C 
HETATM    9  C1  UNL     1     -13.493  40.166  97.426  1.00  0.00     0.040 C 
BRANCH   8  10
HETATM   10  N1  UNL     1     -14.195  38.877  99.322  1.00  0.00    -0.075 N 
ATOM     11  H13 UNL     1     -15.112  39.324  99.287  1.00  0.00     0.274 HD
ATOM     12  H12 UNL     1     -14.501  37.977  99.691  1.00  0.00     0.274 HD
ATOM     13  H11 UNL     1     -13.540  39.359  99.939  1.00  0.00     0.274 HD
ENDBRANCH   8  10
ENDBRANCH   7   8
ENDBRANCH   1   7
BRANCH   4  14
HETATM   14  O1  UNL     1     -11.861  33.213  95.386  1.00  0.00    -0.361 OA
ATOM     15  H1  UNL     1     -10.914  33.157  95.425  1.00  0.00     0.217 HD
ENDBRANCH   4  14
TORSDOF 4
ENDMDL
