MODEL 4
REMARK VINA RESULT: -5.100900120      2.933      4.548
REMARK  5 active torsions:
REMARK  status: ('A' for Active; 'I' for Inactive)
REMARK    1  A    between atoms: C2_2  and  C3_3 
REMARK    2  A    between atoms: C5_5  and  C6_6 
REMARK    3  A    between atoms: C6_6  and  C7_7 
REMARK    4  A    between atoms: C7_7  and  N1_8 
REMARK    5  A    between atoms: C10_14  and  O1_15 
ROOT
HETATM    1  C3  UNL     1     -12.857  35.592  95.758  1.00  0.00    -0.025 A 
HETATM    2  C4  UNL     1     -13.096  36.921  96.033  1.00  0.00     0.017 A 
HETATM    3  C5  UNL     1     -12.068  37.855  95.866  1.00  0.00    -0.056 A 
HETATM    4  C8  UNL     1     -10.814  37.498  95.433  1.00  0.00     0.010 A 
HETATM    5  C9  UNL     1     -10.582  36.165  95.159  1.00  0.00     0.037 A 
HETATM    6  C10 UNL     1     -11.604  35.220  95.322  1.00  0.00     0.071 A 
ENDROOT
BRANCH   3   7
HETATM    7  C6  UNL     1     -12.335  39.264  96.161  1.00  0.00     0.066 C 
BRANCH   7   8
HETATM    8  C7  UNL     1     -11.614  40.169  95.190  1.00  0.00     0.234 C 
BRANCH   8   9
HETATM    9  N1  UNL     1     -10.722  41.031  95.941  1.00  0.00    -0.079 N 
ATOM     10  H13 UNL     1      -9.756  40.702  95.928  1.00  0.00     0.274 HD
ATOM     11  H12 UNL     1     -10.570  41.930  95.485  1.00  0.00     0.274 HD
ATOM     12  H11 UNL     1     -11.089  41.128  96.888  1.00  0.00     0.274 HD
ENDBRANCH   8   9
ENDBRANCH   7   8
ENDBRANCH   3   7
BRANCH   1  13
HETATM   13  C2  UNL     1     -13.934  34.596  95.932  1.00  0.00     0.037 C 
HETATM   14  C1  UNL     1     -15.038  34.735  94.944  1.00  0.00     0.010 C 
ENDBRANCH   1  13
BRANCH   6  15
HETATM   15  O1  UNL     1     -11.386  33.889  95.053  1.00  0.00    -0.360 OA
ATOM     16  H1  UNL     1     -10.601  33.656  94.571  1.00  0.00     0.217 HD
ENDBRANCH   6  15
TORSDOF 5
ENDMDL
