MODEL 3
REMARK VINA RESULT: -5.133478341      8.004      9.576
REMARK  5 active torsions:
REMARK  status: ('A' for Active; 'I' for Inactive)
REMARK    1  A    between atoms: C2_2  and  C3_3 
REMARK    2  A    between atoms: C5_5  and  C6_6 
REMARK    3  A    between atoms: C6_6  and  C7_7 
REMARK    4  A    between atoms: C7_7  and  N1_8 
REMARK    5  A    between atoms: C10_14  and  O1_15 
ROOT
HETATM    1  C3  UNL     1     -21.311  40.870  92.272  1.00  0.00    -0.025 A 
HETATM    2  C4  UNL     1     -20.149  40.403  91.698  1.00  0.00     0.017 A 
HETATM    3  C5  UNL     1     -19.024  40.186  92.500  1.00  0.00    -0.056 A 
HETATM    4  C8  UNL     1     -19.030  40.422  93.854  1.00  0.00     0.010 A 
HETATM    5  C9  UNL     1     -20.198  40.889  94.421  1.00  0.00     0.037 A 
HETATM    6  C10 UNL     1     -21.332  41.110  93.628  1.00  0.00     0.071 A 
ENDROOT
BRANCH   3   7
HETATM    7  C6  UNL     1     -17.794  39.688  91.879  1.00  0.00     0.066 C 
BRANCH   7   8
HETATM    8  C7  UNL     1     -16.586  40.021  92.723  1.00  0.00     0.234 C 
BRANCH   8   9
HETATM    9  N1  UNL     1     -15.769  38.829  92.844  1.00  0.00    -0.079 N 
ATOM     10  H13 UNL     1     -16.319  37.998  93.063  1.00  0.00     0.274 HD
ATOM     11  H12 UNL     1     -15.395  38.518  91.948  1.00  0.00     0.274 HD
ATOM     12  H11 UNL     1     -15.039  39.008  93.533  1.00  0.00     0.274 HD
ENDBRANCH   8   9
ENDBRANCH   7   8
ENDBRANCH   3   7
BRANCH   1  13
HETATM   13  C2  UNL     1     -22.506  41.104  91.434  1.00  0.00     0.037 C 
HETATM   14  C1  UNL     1     -22.184  41.481  90.032  1.00  0.00     0.010 C 
ENDBRANCH   1  13
BRANCH   6  15
HETATM   15  O1  UNL     1     -22.502  41.576  94.180  1.00  0.00    -0.360 OA
ATOM     16  H1  UNL     1     -22.774  41.214  95.016  1.00  0.00     0.217 HD
ENDBRANCH   6  15
TORSDOF 5
ENDMDL
