MODEL 9
REMARK VINA RESULT: -4.873923823      8.564     10.305
REMARK  5 active torsions:
REMARK  status: ('A' for Active; 'I' for Inactive)
REMARK    1  A    between atoms: C2_2  and  C3_3 
REMARK    2  A    between atoms: C5_5  and  C6_6 
REMARK    3  A    between atoms: C6_6  and  C7_7 
REMARK    4  A    between atoms: C7_7  and  N1_8 
REMARK    5  A    between atoms: C10_14  and  O1_15 
ROOT
HETATM    1  C3  UNL     1     -21.291  41.039  90.454  1.00  0.00    -0.025 A 
HETATM    2  C4  UNL     1     -19.938  40.801  90.351  1.00  0.00     0.017 A 
HETATM    3  C5  UNL     1     -19.243  40.291  91.454  1.00  0.00    -0.056 A 
HETATM    4  C8  UNL     1     -19.862  40.014  92.649  1.00  0.00     0.010 A 
HETATM    5  C9  UNL     1     -21.217  40.255  92.743  1.00  0.00     0.037 A 
HETATM    6  C10 UNL     1     -21.925  40.766  91.646  1.00  0.00     0.071 A 
ENDROOT
BRANCH   3   7
HETATM    7  C6  UNL     1     -17.805  40.041  91.332  1.00  0.00     0.066 C 
BRANCH   7   8
HETATM    8  C7  UNL     1     -17.137  40.046  92.687  1.00  0.00     0.234 C 
BRANCH   8   9
HETATM    9  N1  UNL     1     -16.141  38.992  92.711  1.00  0.00    -0.079 N 
ATOM     10  H13 UNL     1     -16.358  38.264  93.392  1.00  0.00     0.274 HD
ATOM     11  H12 UNL     1     -16.166  38.411  91.873  1.00  0.00     0.274 HD
ATOM     12  H11 UNL     1     -15.227  39.415  92.868  1.00  0.00     0.274 HD
ENDBRANCH   8   9
ENDBRANCH   7   8
ENDBRANCH   3   7
BRANCH   1  13
HETATM   13  C2  UNL     1     -22.036  41.580  89.297  1.00  0.00     0.037 C 
HETATM   14  C1  UNL     1     -21.229  41.648  88.050  1.00  0.00     0.010 C 
ENDBRANCH   1  13
BRANCH   6  15
HETATM   15  O1  UNL     1     -23.275  41.011  91.727  1.00  0.00    -0.360 OA
ATOM     16  H1  UNL     1     -23.602  41.827  91.367  1.00  0.00     0.217 HD
ENDBRANCH   6  15
TORSDOF 5
ENDMDL
