MODEL 2
REMARK VINA RESULT: -5.189185956      2.656      4.441
REMARK  5 active torsions:
REMARK  status: ('A' for Active; 'I' for Inactive)
REMARK    1  A    between atoms: C2_2  and  C3_3 
REMARK    2  A    between atoms: C5_5  and  C6_6 
REMARK    3  A    between atoms: C6_6  and  C7_7 
REMARK    4  A    between atoms: C7_7  and  N1_8 
REMARK    5  A    between atoms: C10_14  and  O1_15 
ROOT
HETATM    1  C3  UNL     1     -12.978  35.566  95.754  1.00  0.00    -0.025 A 
HETATM    2  C4  UNL     1     -13.271  36.867  96.100  1.00  0.00     0.017 A 
HETATM    3  C5  UNL     1     -12.265  37.838  96.042  1.00  0.00    -0.056 A 
HETATM    4  C8  UNL     1     -10.981  37.543  95.649  1.00  0.00     0.010 A 
HETATM    5  C9  UNL     1     -10.697  36.238  95.303  1.00  0.00     0.037 A 
HETATM    6  C10 UNL     1     -11.696  35.256  95.357  1.00  0.00     0.071 A 
ENDROOT
BRANCH   3   7
HETATM    7  C6  UNL     1     -12.588  39.217  96.412  1.00  0.00     0.066 C 
BRANCH   7   8
HETATM    8  C7  UNL     1     -12.130  39.525  97.818  1.00  0.00     0.234 C 
BRANCH   8   9
HETATM    9  N1  UNL     1     -13.261  39.375  98.712  1.00  0.00    -0.079 N 
ATOM     10  H13 UNL     1     -14.124  39.149  98.217  1.00  0.00     0.274 HD
ATOM     11  H12 UNL     1     -13.201  38.530  99.282  1.00  0.00     0.274 HD
ATOM     12  H11 UNL     1     -13.342  40.222  99.275  1.00  0.00     0.274 HD
ENDBRANCH   8   9
ENDBRANCH   7   8
ENDBRANCH   3   7
BRANCH   1  13
HETATM   13  C2  UNL     1     -14.032  34.531  95.813  1.00  0.00     0.037 C 
HETATM   14  C1  UNL     1     -15.123  34.736  94.822  1.00  0.00     0.010 C 
ENDBRANCH   1  13
BRANCH   6  15
HETATM   15  O1  UNL     1     -11.425  33.952  95.016  1.00  0.00    -0.360 OA
ATOM     16  H1  UNL     1     -10.762  33.794  94.354  1.00  0.00     0.217 HD
ENDBRANCH   6  15
TORSDOF 5
ENDMDL
