MODEL 6
REMARK VINA RESULT: -5.068618189      8.064      9.636
REMARK  5 active torsions:
REMARK  status: ('A' for Active; 'I' for Inactive)
REMARK    1  A    between atoms: C2_2  and  C3_3 
REMARK    2  A    between atoms: C5_5  and  C6_6 
REMARK    3  A    between atoms: C6_6  and  C7_7 
REMARK    4  A    between atoms: C7_7  and  N1_8 
REMARK    5  A    between atoms: C10_14  and  O1_15 
ROOT
HETATM    1  C3  UNL     1     -20.638  40.757  91.462  1.00  0.00    -0.025 A 
HETATM    2  C4  UNL     1     -19.475  40.743  90.723  1.00  0.00     0.017 A 
HETATM    3  C5  UNL     1     -18.262  40.445  91.353  1.00  0.00    -0.056 A 
HETATM    4  C8  UNL     1     -18.182  40.163  92.696  1.00  0.00     0.010 A 
HETATM    5  C9  UNL     1     -19.351  40.179  93.428  1.00  0.00     0.037 A 
HETATM    6  C10 UNL     1     -20.572  40.475  92.809  1.00  0.00     0.071 A 
ENDROOT
BRANCH   3   7
HETATM    7  C6  UNL     1     -17.033  40.432  90.557  1.00  0.00     0.066 C 
BRANCH   7   8
HETATM    8  C7  UNL     1     -16.075  41.505  91.019  1.00  0.00     0.234 C 
BRANCH   8   9
HETATM    9  N1  UNL     1     -14.868  41.416  90.222  1.00  0.00    -0.079 N 
ATOM     10  H13 UNL     1     -14.658  40.460  89.933  1.00  0.00     0.274 HD
ATOM     11  H12 UNL     1     -14.981  41.821  89.292  1.00  0.00     0.274 HD
ATOM     12  H11 UNL     1     -14.103  41.844  90.745  1.00  0.00     0.274 HD
ENDBRANCH   8   9
ENDBRANCH   7   8
ENDBRANCH   3   7
BRANCH   1  13
HETATM   13  C2  UNL     1     -21.925  41.071  90.807  1.00  0.00     0.037 C 
HETATM   14  C1  UNL     1     -21.805  41.315  89.345  1.00  0.00     0.010 C 
ENDBRANCH   1  13
BRANCH   6  15
HETATM   15  O1  UNL     1     -21.744  40.495  93.527  1.00  0.00    -0.360 OA
ATOM     16  H1  UNL     1     -21.709  40.800  94.427  1.00  0.00     0.217 HD
ENDBRANCH   6  15
TORSDOF 5
ENDMDL
