MODEL 1
REMARK VINA RESULT: -5.306099670      0.000      0.000
REMARK  5 active torsions:
REMARK  status: ('A' for Active; 'I' for Inactive)
REMARK    1  A    between atoms: C2_2  and  C3_3 
REMARK    2  A    between atoms: C5_5  and  C6_6 
REMARK    3  A    between atoms: C6_6  and  C7_7 
REMARK    4  A    between atoms: C7_7  and  N1_8 
REMARK    5  A    between atoms: C10_14  and  O1_15 
ROOT
HETATM    1  C3  UNL     1     -12.585  37.245  96.022  1.00  0.00    -0.025 A 
HETATM    2  C4  UNL     1     -13.807  36.643  95.815  1.00  0.00     0.017 A 
HETATM    3  C5  UNL     1     -13.862  35.271  95.550  1.00  0.00    -0.056 A 
HETATM    4  C8  UNL     1     -12.734  34.488  95.488  1.00  0.00     0.010 A 
HETATM    5  C9  UNL     1     -11.515  35.099  95.697  1.00  0.00     0.037 A 
HETATM    6  C10 UNL     1     -11.446  36.473  95.963  1.00  0.00     0.071 A 
ENDROOT
BRANCH   3   7
HETATM    7  C6  UNL     1     -15.167  34.642  95.333  1.00  0.00     0.066 C 
BRANCH   7   8
HETATM    8  C7  UNL     1     -15.735  35.021  93.986  1.00  0.00     0.234 C 
BRANCH   8   9
HETATM    9  N1  UNL     1     -15.362  34.000  93.026  1.00  0.00    -0.079 N 
ATOM     10  H13 UNL     1     -15.822  33.107  93.206  1.00  0.00     0.274 HD
ATOM     11  H12 UNL     1     -15.750  34.173  92.099  1.00  0.00     0.274 HD
ATOM     12  H11 UNL     1     -14.345  33.922  93.017  1.00  0.00     0.274 HD
ENDBRANCH   8   9
ENDBRANCH   7   8
ENDBRANCH   3   7
BRANCH   1  13
HETATM   13  C2  UNL     1     -12.514  38.695  96.301  1.00  0.00     0.037 C 
HETATM   14  C1  UNL     1     -12.766  39.039  97.726  1.00  0.00     0.010 C 
ENDBRANCH   1  13
BRANCH   6  15
HETATM   15  O1  UNL     1     -10.237  37.094  96.173  1.00  0.00    -0.360 OA
ATOM     16  H1  UNL     1     -10.207  38.041  96.110  1.00  0.00     0.217 HD
ENDBRANCH   6  15
TORSDOF 5
ENDMDL
