MODEL 2
REMARK VINA RESULT: -5.989762877      2.230      4.958
REMARK  5 active torsions:
REMARK  status: ('A' for Active; 'I' for Inactive)
REMARK    1  A    between atoms: N1_1  and  C1_5 
REMARK    2  A    between atoms: C1_5  and  C2_6 
REMARK    3  A    between atoms: C2_6  and  C3_7 
REMARK    4  A    between atoms: C6_10  and  O1_11 
REMARK    5  A    between atoms: C7_13  and  C8_14 
ROOT
HETATM    1  C3  UNL     1     -12.878  39.546  95.684  1.00  0.00    -0.056 A 
HETATM    2  C4  UNL     1     -11.897  40.036  96.512  1.00  0.00     0.010 A 
HETATM    3  C5  UNL     1     -11.414  39.322  97.571  1.00  0.00     0.038 A 
HETATM    4  C6  UNL     1     -11.911  38.024  97.870  1.00  0.00     0.076 A 
HETATM    5  C7  UNL     1     -12.899  37.515  97.050  1.00  0.00    -0.000 A 
HETATM    6  C14 UNL     1     -13.358  38.292  95.975  1.00  0.00     0.021 A 
ENDROOT
BRANCH   1   7
HETATM    7  C2  UNL     1     -13.416  40.314  94.525  1.00  0.00     0.066 C 
BRANCH   7   8
HETATM    8  C1  UNL     1     -14.293  39.443  93.694  1.00  0.00     0.234 C 
BRANCH   8   9
HETATM    9  N1  UNL     1     -14.183  39.826  92.303  1.00  0.00    -0.079 N 
ATOM     10  H13 UNL     1     -13.277  40.244  92.090  1.00  0.00     0.274 HD
ATOM     11  H12 UNL     1     -14.121  39.018  91.685  1.00  0.00     0.274 HD
ATOM     12  H11 UNL     1     -14.957  40.442  92.054  1.00  0.00     0.274 HD
ENDBRANCH   8   9
ENDBRANCH   7   8
ENDBRANCH   1   7
BRANCH   5  13
HETATM   13  C8  UNL     1     -13.607  36.240  97.218  1.00  0.00    -0.067 C 
HETATM   14  C9  UNL     1     -14.990  36.331  96.614  1.00  0.00     0.035 C 
HETATM   15  C10 UNL     1     -15.308  35.088  95.774  1.00  0.00     0.004 C 
HETATM   16  C11 UNL     1     -15.138  33.890  96.623  1.00  0.00     0.001 C 
HETATM   17  C12 UNL     1     -13.878  33.827  97.380  1.00  0.00     0.004 C 
HETATM   18  C13 UNL     1     -12.912  34.976  97.036  1.00  0.00     0.035 C 
ENDBRANCH   5  13
BRANCH   4  19
HETATM   19  O1  UNL     1     -11.440  37.335  98.888  1.00  0.00    -0.360 OA
ATOM     20  H1  UNL     1     -10.688  37.642  99.381  1.00  0.00     0.217 HD
ENDBRANCH   4  19
TORSDOF 5
ENDMDL
