MODEL 3
REMARK VINA RESULT: -5.970522472      5.738      7.787
REMARK  5 active torsions:
REMARK  status: ('A' for Active; 'I' for Inactive)
REMARK    1  A    between atoms: N1_1  and  C1_5 
REMARK    2  A    between atoms: C1_5  and  C2_6 
REMARK    3  A    between atoms: C2_6  and  C3_7 
REMARK    4  A    between atoms: C6_10  and  O1_11 
REMARK    5  A    between atoms: C7_13  and  C8_14 
ROOT
HETATM    1  C3  UNL     1     -15.889  40.297  94.641  1.00  0.00    -0.056 A 
HETATM    2  C4  UNL     1     -15.596  41.409  95.393  1.00  0.00     0.010 A 
HETATM    3  C5  UNL     1     -16.568  42.222  95.902  1.00  0.00     0.038 A 
HETATM    4  C6  UNL     1     -17.945  41.953  95.672  1.00  0.00     0.076 A 
HETATM    5  C7  UNL     1     -18.259  40.840  94.917  1.00  0.00    -0.000 A 
HETATM    6  C14 UNL     1     -17.220  40.039  94.419  1.00  0.00     0.021 A 
ENDROOT
BRANCH   1   7
HETATM    7  C2  UNL     1     -14.838  39.401  94.078  1.00  0.00     0.066 C 
BRANCH   7   8
HETATM    8  C1  UNL     1     -13.996  40.148  93.101  1.00  0.00     0.234 C 
BRANCH   8   9
HETATM    9  N1  UNL     1     -14.653  40.175  91.813  1.00  0.00    -0.079 N 
ATOM     10  H13 UNL     1     -14.642  39.263  91.357  1.00  0.00     0.274 HD
ATOM     11  H12 UNL     1     -15.663  40.285  91.899  1.00  0.00     0.274 HD
ATOM     12  H11 UNL     1     -14.236  40.901  91.230  1.00  0.00     0.274 HD
ENDBRANCH   8   9
ENDBRANCH   7   8
ENDBRANCH   1   7
BRANCH   5  13
HETATM   13  C8  UNL     1     -19.601  40.419  94.492  1.00  0.00    -0.067 C 
HETATM   14  C9  UNL     1     -19.528  39.732  93.148  1.00  0.00     0.035 C 
HETATM   15  C10 UNL     1     -20.367  38.448  93.138  1.00  0.00     0.004 C 
HETATM   16  C11 UNL     1     -21.752  38.788  93.526  1.00  0.00     0.001 C 
HETATM   17  C12 UNL     1     -21.883  39.611  94.739  1.00  0.00     0.004 C 
HETATM   18  C13 UNL     1     -20.538  39.854  95.449  1.00  0.00     0.035 C 
ENDBRANCH   5  13
BRANCH   4  19
HETATM   19  O1  UNL     1     -18.881  42.734  96.168  1.00  0.00    -0.360 OA
ATOM     20  H1  UNL     1     -19.709  42.852  95.719  1.00  0.00     0.217 HD
ENDBRANCH   4  19
TORSDOF 5
ENDMDL
