MODEL 1
REMARK VINA RESULT: -6.336198626      0.000      0.000
REMARK  5 active torsions:
REMARK  status: ('A' for Active; 'I' for Inactive)
REMARK    1  A    between atoms: N1_1  and  C1_5 
REMARK    2  A    between atoms: C1_5  and  C2_6 
REMARK    3  A    between atoms: C2_6  and  C3_7 
REMARK    4  A    between atoms: C6_10  and  O1_11 
REMARK    5  A    between atoms: C7_13  and  C8_14 
ROOT
HETATM    1  C3  UNL     1     -14.792  34.895  96.193  1.00  0.00    -0.056 A 
HETATM    2  C4  UNL     1     -13.797  33.951  96.278  1.00  0.00     0.010 A 
HETATM    3  C5  UNL     1     -12.548  34.250  96.742  1.00  0.00     0.038 A 
HETATM    4  C6  UNL     1     -12.215  35.566  97.164  1.00  0.00     0.076 A 
HETATM    5  C7  UNL     1     -13.203  36.528  97.085  1.00  0.00    -0.000 A 
HETATM    6  C14 UNL     1     -14.469  36.167  96.600  1.00  0.00     0.021 A 
ENDROOT
BRANCH   1   7
HETATM    7  C2  UNL     1     -16.160  34.584  95.687  1.00  0.00     0.066 C 
BRANCH   7   8
HETATM    8  C1  UNL     1     -16.213  33.184  95.179  1.00  0.00     0.234 C 
BRANCH   8   9
HETATM    9  N1  UNL     1     -15.912  33.168  93.764  1.00  0.00    -0.079 N 
ATOM     10  H13 UNL     1     -16.752  33.248  93.191  1.00  0.00     0.274 HD
ATOM     11  H12 UNL     1     -15.444  34.022  93.461  1.00  0.00     0.274 HD
ATOM     12  H11 UNL     1     -15.371  32.333  93.538  1.00  0.00     0.274 HD
ENDBRANCH   8   9
ENDBRANCH   7   8
ENDBRANCH   1   7
BRANCH   5  13
HETATM   13  C8  UNL     1     -13.060  37.958  97.390  1.00  0.00    -0.067 C 
HETATM   14  C9  UNL     1     -13.142  38.770  96.117  1.00  0.00     0.035 C 
HETATM   15  C10 UNL     1     -14.053  39.990  96.299  1.00  0.00     0.004 C 
HETATM   16  C11 UNL     1     -13.557  40.781  97.445  1.00  0.00     0.001 C 
HETATM   17  C12 UNL     1     -13.288  40.014  98.671  1.00  0.00     0.004 C 
HETATM   18  C13 UNL     1     -13.704  38.535  98.559  1.00  0.00     0.035 C 
ENDBRANCH   5  13
BRANCH   4  19
HETATM   19  O1  UNL     1     -11.013  35.850  97.617  1.00  0.00    -0.360 OA
ATOM     20  H1  UNL     1     -10.835  36.678  98.047  1.00  0.00     0.217 HD
ENDBRANCH   4  19
TORSDOF 5
ENDMDL
