MODEL 5
REMARK VINA RESULT: -5.840408812      8.431      9.859
REMARK  5 active torsions:
REMARK  status: ('A' for Active; 'I' for Inactive)
REMARK    1  A    between atoms: N1_1  and  C1_5 
REMARK    2  A    between atoms: C1_5  and  C2_6 
REMARK    3  A    between atoms: C2_6  and  C3_7 
REMARK    4  A    between atoms: C6_10  and  O1_11 
REMARK    5  A    between atoms: C7_13  and  C8_14 
ROOT
HETATM    1  C3  UNL     1     -18.656  39.604  93.293  1.00  0.00    -0.056 A 
HETATM    2  C4  UNL     1     -18.975  39.362  94.608  1.00  0.00     0.010 A 
HETATM    3  C5  UNL     1     -20.238  39.540  95.095  1.00  0.00     0.038 A 
HETATM    4  C6  UNL     1     -21.294  39.990  94.256  1.00  0.00     0.076 A 
HETATM    5  C7  UNL     1     -20.991  40.241  92.931  1.00  0.00    -0.000 A 
HETATM    6  C14 UNL     1     -19.676  40.041  92.483  1.00  0.00     0.021 A 
ENDROOT
BRANCH   1   7
HETATM    7  C2  UNL     1     -17.281  39.416  92.748  1.00  0.00     0.066 C 
BRANCH   7   8
HETATM    8  C1  UNL     1     -16.756  40.708  92.221  1.00  0.00     0.234 C 
BRANCH   8   9
HETATM    9  N1  UNL     1     -15.503  40.481  91.535  1.00  0.00    -0.079 N 
ATOM     10  H13 UNL     1     -14.700  40.606  92.151  1.00  0.00     0.274 HD
ATOM     11  H12 UNL     1     -15.362  39.497  91.308  1.00  0.00     0.274 HD
ATOM     12  H11 UNL     1     -15.451  41.077  90.710  1.00  0.00     0.274 HD
ENDBRANCH   8   9
ENDBRANCH   7   8
ENDBRANCH   1   7
BRANCH   5  13
HETATM   13  C8  UNL     1     -21.899  40.784  91.913  1.00  0.00    -0.067 C 
HETATM   14  C9  UNL     1     -22.047  42.277  92.093  1.00  0.00     0.035 C 
HETATM   15  C10 UNL     1     -21.940  43.008  90.749  1.00  0.00     0.004 C 
HETATM   16  C11 UNL     1     -22.948  42.446  89.826  1.00  0.00     0.001 C 
HETATM   17  C12 UNL     1     -22.974  40.978  89.738  1.00  0.00     0.004 C 
HETATM   18  C13 UNL     1     -21.842  40.308  90.540  1.00  0.00     0.035 C 
ENDBRANCH   5  13
BRANCH   4  19
HETATM   19  O1  UNL     1     -22.512  40.155  94.726  1.00  0.00    -0.360 OA
ATOM     20  H1  UNL     1     -23.048  40.888  94.449  1.00  0.00     0.217 HD
ENDBRANCH   4  19
TORSDOF 5
ENDMDL
