MODEL 4
REMARK VINA RESULT: -5.852294544      8.740     10.115
REMARK  5 active torsions:
REMARK  status: ('A' for Active; 'I' for Inactive)
REMARK    1  A    between atoms: N1_1  and  C1_5 
REMARK    2  A    between atoms: C1_5  and  C2_6 
REMARK    3  A    between atoms: C2_6  and  C3_7 
REMARK    4  A    between atoms: C6_10  and  O1_11 
REMARK    5  A    between atoms: C7_13  and  C8_14 
ROOT
HETATM    1  C3  UNL     1     -19.702  39.753  94.577  1.00  0.00    -0.056 A 
HETATM    2  C4  UNL     1     -20.273  39.866  95.822  1.00  0.00     0.010 A 
HETATM    3  C5  UNL     1     -21.550  40.316  96.000  1.00  0.00     0.038 A 
HETATM    4  C6  UNL     1     -22.357  40.695  94.893  1.00  0.00     0.076 A 
HETATM    5  C7  UNL     1     -21.800  40.590  93.633  1.00  0.00    -0.000 A 
HETATM    6  C14 UNL     1     -20.483  40.121  93.508  1.00  0.00     0.021 A 
ENDROOT
BRANCH   1   7
HETATM    7  C2  UNL     1     -18.309  39.265  94.367  1.00  0.00     0.066 C 
BRANCH   7   8
HETATM    8  C1  UNL     1     -18.084  38.959  92.927  1.00  0.00     0.234 C 
BRANCH   8   9
HETATM    9  N1  UNL     1     -16.894  39.640  92.465  1.00  0.00    -0.079 N 
ATOM     10  H13 UNL     1     -16.750  40.529  92.943  1.00  0.00     0.274 HD
ATOM     11  H12 UNL     1     -16.041  39.170  92.767  1.00  0.00     0.274 HD
ATOM     12  H11 UNL     1     -16.933  39.751  91.452  1.00  0.00     0.274 HD
ENDBRANCH   8   9
ENDBRANCH   7   8
ENDBRANCH   1   7
BRANCH   5  13
HETATM   13  C8  UNL     1     -22.418  40.998  92.365  1.00  0.00    -0.067 C 
HETATM   14  C9  UNL     1     -22.568  42.501  92.320  1.00  0.00     0.035 C 
HETATM   15  C10 UNL     1     -22.119  43.060  90.965  1.00  0.00     0.004 C 
HETATM   16  C11 UNL     1     -22.885  42.382  89.898  1.00  0.00     0.001 C 
HETATM   17  C12 UNL     1     -22.925  40.915  89.986  1.00  0.00     0.004 C 
HETATM   18  C13 UNL     1     -22.039  40.356  91.116  1.00  0.00     0.035 C 
ENDBRANCH   5  13
BRANCH   4  19
HETATM   19  O1  UNL     1     -23.589  41.123  95.066  1.00  0.00    -0.360 OA
ATOM     20  H1  UNL     1     -24.310  40.755  94.569  1.00  0.00     0.217 HD
ENDBRANCH   4  19
TORSDOF 5
ENDMDL
