MODEL 5
REMARK VINA RESULT: -9.713900770      2.336      6.787
REMARK  13 active torsions:
REMARK  status: ('A' for Active; 'I' for Inactive)
REMARK    1  A    between atoms: C2_2  and  C4_4 
REMARK    2  A    between atoms: C4_4  and  N1_5 
REMARK    3  A    between atoms: N1_5  and  C5_6 
REMARK    4  A    between atoms: N1_5  and  S1_31 
REMARK    5  A    between atoms: C5_6  and  C6_7 
REMARK    6  A    between atoms: C6_7  and  O1_8 
REMARK    7  A    between atoms: C6_7  and  C7_10 
REMARK    8  A    between atoms: C7_10  and  C8_11 
REMARK    9  A    between atoms: C7_10  and  N2_18 
REMARK   10  A    between atoms: C8_11  and  C9_12 
REMARK       I    between atoms: N2_18  and  C15_20 
REMARK   11  A    between atoms: C15_20  and  O3_22 
REMARK   12  A    between atoms: O3_22  and  C16_23 
REMARK   13  A    between atoms: S1_31  and  C22_34 
ROOT
HETATM    1  C7  UNL     1      12.545  62.003  17.051  1.00  0.00     0.029 C 
ENDROOT
BRANCH   1   2
HETATM    2  C6  UNL     1      13.299  62.087  18.353  1.00  0.00     0.203 C 
BRANCH   2   3
HETATM    3  C5  UNL     1      12.506  62.523  19.517  1.00  0.00     0.119 C 
BRANCH   3   4
HETATM    4  N1  UNL     1      12.007  63.832  19.514  1.00  0.00    -0.262 N 
BRANCH   4   5
HETATM    5  C4  UNL     1      12.794  64.924  19.146  1.00  0.00     0.085 C 
BRANCH   5   6
HETATM    6  C2  UNL     1      14.192  64.962  19.751  1.00  0.00     0.017 C 
HETATM    7  C1  UNL     1      15.283  65.106  18.727  1.00  0.00     0.015 C 
HETATM    8  C3  UNL     1      14.320  66.046  20.796  1.00  0.00     0.015 C 
ENDBRANCH   5   6
ENDBRANCH   4   5
BRANCH   4   9
HETATM    9  S1  UNL     1      10.327  63.959  19.384  1.00  0.00     0.267 S 
HETATM   10  O6  UNL     1       9.893  65.211  20.132  1.00  0.00    -0.200 OA
HETATM   11  O7  UNL     1       9.867  64.079  17.938  1.00  0.00    -0.200 OA
BRANCH   9  12
HETATM   12  C22 UNL     1       9.457  62.604  20.093  1.00  0.00     0.080 A 
HETATM   13  C23 UNL     1       8.918  61.578  19.346  1.00  0.00     0.027 A 
HETATM   14  C24 UNL     1       8.235  60.526  19.926  1.00  0.00     0.028 A 
HETATM   15  C25 UNL     1       8.065  60.462  21.292  1.00  0.00     0.046 A 
HETATM   16  N3  UNL     1       7.353  59.368  21.899  1.00  0.00    -0.102 NA
HETATM   17  C26 UNL     1       8.597  61.478  22.053  1.00  0.00     0.028 A 
HETATM   18  C27 UNL     1       9.277  62.524  21.471  1.00  0.00     0.027 A 
ENDBRANCH   9  12
ENDBRANCH   4   9
ENDBRANCH   3   4
ENDBRANCH   2   3
BRANCH   2  19
HETATM   19  O1  UNL     1      13.763  60.774  18.608  1.00  0.00    -0.385 OA
ATOM     20  H1  UNL     1      14.376  60.815  19.332  1.00  0.00     0.211 HD
ENDBRANCH   2  19
ENDBRANCH   1   2
BRANCH   1  21
HETATM   21  C8  UNL     1      11.699  60.765  16.939  1.00  0.00     0.094 C 
BRANCH  21  22
HETATM   22  C9  UNL     1      10.715  60.767  15.856  1.00  0.00    -0.053 A 
HETATM   23  C10 UNL     1       9.590  61.584  15.977  1.00  0.00     0.007 A 
HETATM   24  C11 UNL     1       8.589  61.647  15.045  1.00  0.00     0.001 A 
HETATM   25  C12 UNL     1       8.689  60.858  13.914  1.00  0.00     0.000 A 
HETATM   26  C13 UNL     1       9.778  60.037  13.751  1.00  0.00     0.001 A 
HETATM   27  C14 UNL     1      10.782  60.004  14.733  1.00  0.00     0.007 A 
ENDBRANCH  21  22
ENDBRANCH   1  21
BRANCH   1  28
HETATM   28  N2  UNL     1      13.247  62.443  15.911  1.00  0.00    -0.307 N 
HETATM   29  C15 UNL     1      12.993  63.649  15.213  1.00  0.00     0.365 C 
HETATM   30  O2  UNL     1      12.091  64.404  15.593  1.00  0.00    -0.238 OA
ATOM     31  H2  UNL     1      13.996  61.846  15.561  1.00  0.00     0.170 HD
BRANCH  29  32
HETATM   32  O3  UNL     1      13.750  64.005  14.092  1.00  0.00    -0.296 OA
BRANCH  32  33
HETATM   33  C16 UNL     1      14.522  65.195  14.071  1.00  0.00     0.166 C 
HETATM   34  C17 UNL     1      14.985  65.590  15.435  1.00  0.00     0.204 C 
HETATM   35  O4  UNL     1      16.299  65.970  15.373  1.00  0.00    -0.358 OA
HETATM   36  C18 UNL     1      16.749  65.860  14.067  1.00  0.00     0.266 C 
HETATM   37  O5  UNL     1      18.002  65.267  13.974  1.00  0.00    -0.361 OA
HETATM   38  C21 UNL     1      15.831  64.868  13.383  1.00  0.00     0.075 C 
HETATM   39  C19 UNL     1      17.865  63.912  14.154  1.00  0.00     0.171 C 
HETATM   40  C20 UNL     1      16.417  63.558  13.798  1.00  0.00     0.038 C 
ENDBRANCH  32  33
ENDBRANCH  29  32
ENDBRANCH   1  28
TORSDOF 13
ENDMDL
