MODEL 4
REMARK VINA RESULT: -9.737365730      3.069      8.031
REMARK  13 active torsions:
REMARK  status: ('A' for Active; 'I' for Inactive)
REMARK    1  A    between atoms: C2_2  and  C4_4 
REMARK    2  A    between atoms: C4_4  and  N1_5 
REMARK    3  A    between atoms: N1_5  and  C5_6 
REMARK    4  A    between atoms: N1_5  and  S1_31 
REMARK    5  A    between atoms: C5_6  and  C6_7 
REMARK    6  A    between atoms: C6_7  and  O1_8 
REMARK    7  A    between atoms: C6_7  and  C7_10 
REMARK    8  A    between atoms: C7_10  and  C8_11 
REMARK    9  A    between atoms: C7_10  and  N2_18 
REMARK   10  A    between atoms: C8_11  and  C9_12 
REMARK       I    between atoms: N2_18  and  C15_20 
REMARK   11  A    between atoms: C15_20  and  O3_22 
REMARK   12  A    between atoms: O3_22  and  C16_23 
REMARK   13  A    between atoms: S1_31  and  C22_34 
ROOT
HETATM    1  C7  UNL     1      13.138  62.912  17.515  1.00  0.00     0.029 C 
ENDROOT
BRANCH   1   2
HETATM    2  C6  UNL     1      12.574  61.698  18.208  1.00  0.00     0.203 C 
BRANCH   2   3
HETATM    3  C5  UNL     1      11.750  60.814  17.364  1.00  0.00     0.119 C 
BRANCH   3   4
HETATM    4  N1  UNL     1      10.379  61.091  17.272  1.00  0.00    -0.262 N 
BRANCH   4   5
HETATM    5  C4  UNL     1       9.728  61.918  18.188  1.00  0.00     0.085 C 
BRANCH   5   6
HETATM    6  C2  UNL     1       9.103  61.212  19.385  1.00  0.00     0.017 C 
HETATM    7  C1  UNL     1       9.692  61.634  20.701  1.00  0.00     0.015 C 
HETATM    8  C3  UNL     1       7.602  61.381  19.414  1.00  0.00     0.015 C 
ENDBRANCH   5   6
ENDBRANCH   4   5
BRANCH   4   9
HETATM    9  S1  UNL     1       9.710  60.894  15.733  1.00  0.00     0.267 S 
HETATM   10  O6  UNL     1       8.843  62.109  15.441  1.00  0.00    -0.200 OA
HETATM   11  O7  UNL     1      10.774  60.790  14.649  1.00  0.00    -0.200 OA
BRANCH   9  12
HETATM   12  C22 UNL     1       8.681  59.474  15.585  1.00  0.00     0.080 A 
HETATM   13  C23 UNL     1       8.094  58.851  16.665  1.00  0.00     0.027 A 
HETATM   14  C24 UNL     1       7.292  57.733  16.524  1.00  0.00     0.028 A 
HETATM   15  C25 UNL     1       7.047  57.194  15.280  1.00  0.00     0.046 A 
HETATM   16  N3  UNL     1       6.214  56.030  15.130  1.00  0.00    -0.102 NA
HETATM   17  C26 UNL     1       7.626  57.804  14.190  1.00  0.00     0.028 A 
HETATM   18  C27 UNL     1       8.423  58.916  14.337  1.00  0.00     0.027 A 
ENDBRANCH   9  12
ENDBRANCH   4   9
ENDBRANCH   3   4
ENDBRANCH   2   3
BRANCH   2  19
HETATM   19  O1  UNL     1      13.698  60.958  18.649  1.00  0.00    -0.385 OA
ATOM     20  H1  UNL     1      14.464  61.292  18.197  1.00  0.00     0.211 HD
ENDBRANCH   2  19
ENDBRANCH   1   2
BRANCH   1  21
HETATM   21  C8  UNL     1      13.337  62.708  16.038  1.00  0.00     0.094 C 
BRANCH  21  22
HETATM   22  C9  UNL     1      14.431  63.469  15.436  1.00  0.00    -0.053 A 
HETATM   23  C10 UNL     1      14.187  64.779  15.023  1.00  0.00     0.007 A 
HETATM   24  C11 UNL     1      15.123  65.576  14.420  1.00  0.00     0.001 A 
HETATM   25  C12 UNL     1      16.388  65.062  14.204  1.00  0.00     0.000 A 
HETATM   26  C13 UNL     1      16.676  63.778  14.594  1.00  0.00     0.001 A 
HETATM   27  C14 UNL     1      15.685  62.995  15.208  1.00  0.00     0.007 A 
ENDBRANCH  21  22
ENDBRANCH   1  21
BRANCH   1  28
HETATM   28  N2  UNL     1      14.120  63.623  18.233  1.00  0.00    -0.307 N 
HETATM   29  C15 UNL     1      13.914  64.862  18.888  1.00  0.00     0.365 C 
HETATM   30  O2  UNL     1      12.803  65.403  18.848  1.00  0.00    -0.238 OA
ATOM     31  H2  UNL     1      15.053  63.213  18.285  1.00  0.00     0.170 HD
BRANCH  29  32
HETATM   32  O3  UNL     1      14.951  65.489  19.584  1.00  0.00    -0.296 OA
BRANCH  32  33
HETATM   33  C16 UNL     1      15.109  66.899  19.561  1.00  0.00     0.166 C 
HETATM   34  C17 UNL     1      16.044  67.379  20.620  1.00  0.00     0.204 C 
HETATM   35  O4  UNL     1      16.887  68.318  20.086  1.00  0.00    -0.358 OA
HETATM   36  C18 UNL     1      16.581  68.502  18.747  1.00  0.00     0.266 C 
HETATM   37  O5  UNL     1      17.708  68.550  17.936  1.00  0.00    -0.361 OA
HETATM   38  C21 UNL     1      15.868  67.244  18.296  1.00  0.00     0.075 C 
HETATM   39  C19 UNL     1      18.182  67.273  17.762  1.00  0.00     0.171 C 
HETATM   40  C20 UNL     1      17.007  66.321  18.010  1.00  0.00     0.038 C 
ENDBRANCH  32  33
ENDBRANCH  29  32
ENDBRANCH   1  28
TORSDOF 13
ENDMDL
