MODEL 3
REMARK VINA RESULT: -9.825267846      2.810      7.663
REMARK  13 active torsions:
REMARK  status: ('A' for Active; 'I' for Inactive)
REMARK    1  A    between atoms: C2_2  and  C4_4 
REMARK    2  A    between atoms: C4_4  and  N1_5 
REMARK    3  A    between atoms: N1_5  and  C5_6 
REMARK    4  A    between atoms: N1_5  and  S1_31 
REMARK    5  A    between atoms: C5_6  and  C6_7 
REMARK    6  A    between atoms: C6_7  and  O1_8 
REMARK    7  A    between atoms: C6_7  and  C7_10 
REMARK    8  A    between atoms: C7_10  and  C8_11 
REMARK    9  A    between atoms: C7_10  and  N2_18 
REMARK   10  A    between atoms: C8_11  and  C9_12 
REMARK       I    between atoms: N2_18  and  C15_20 
REMARK   11  A    between atoms: C15_20  and  O3_22 
REMARK   12  A    between atoms: O3_22  and  C16_23 
REMARK   13  A    between atoms: S1_31  and  C22_34 
ROOT
HETATM    1  C7  UNL     1      13.647  63.137  17.214  1.00  0.00     0.029 C 
ENDROOT
BRANCH   1   2
HETATM    2  C6  UNL     1      13.193  62.103  18.213  1.00  0.00     0.203 C 
BRANCH   2   3
HETATM    3  C5  UNL     1      12.212  61.125  17.709  1.00  0.00     0.119 C 
BRANCH   3   4
HETATM    4  N1  UNL     1      10.867  61.516  17.658  1.00  0.00    -0.262 N 
BRANCH   4   5
HETATM    5  C4  UNL     1      10.295  62.331  18.637  1.00  0.00     0.085 C 
BRANCH   5   6
HETATM    6  C2  UNL     1       9.494  61.607  19.712  1.00  0.00     0.017 C 
HETATM    7  C1  UNL     1      10.062  61.771  21.093  1.00  0.00     0.015 C 
HETATM    8  C3  UNL     1       8.041  62.021  19.699  1.00  0.00     0.015 C 
ENDBRANCH   5   6
ENDBRANCH   4   5
BRANCH   4   9
HETATM    9  S1  UNL     1      10.166  61.474  16.121  1.00  0.00     0.267 S 
HETATM   10  O6  UNL     1       9.209  62.652  16.012  1.00  0.00    -0.200 OA
HETATM   11  O7  UNL     1      11.201  61.589  15.011  1.00  0.00    -0.200 OA
BRANCH   9  12
HETATM   12  C22 UNL     1       9.232  60.016  15.809  1.00  0.00     0.080 A 
HETATM   13  C23 UNL     1       9.050  59.491  14.547  1.00  0.00     0.027 A 
HETATM   14  C24 UNL     1       8.307  58.346  14.326  1.00  0.00     0.028 A 
HETATM   15  C25 UNL     1       7.712  57.678  15.375  1.00  0.00     0.046 A 
HETATM   16  N3  UNL     1       6.938  56.486  15.148  1.00  0.00    -0.102 NA
HETATM   17  C26 UNL     1       7.883  58.189  16.642  1.00  0.00     0.028 A 
HETATM   18  C27 UNL     1       8.624  59.329  16.856  1.00  0.00     0.027 A 
ENDBRANCH   9  12
ENDBRANCH   4   9
ENDBRANCH   3   4
ENDBRANCH   2   3
BRANCH   2  19
HETATM   19  O1  UNL     1      14.363  61.396  18.584  1.00  0.00    -0.385 OA
ATOM     20  H1  UNL     1      15.020  62.032  18.841  1.00  0.00     0.211 HD
ENDBRANCH   2  19
ENDBRANCH   1   2
BRANCH   1  21
HETATM   21  C8  UNL     1      14.418  62.548  16.065  1.00  0.00     0.094 C 
BRANCH  21  22
HETATM   22  C9  UNL     1      14.754  63.477  14.987  1.00  0.00    -0.053 A 
HETATM   23  C10 UNL     1      16.097  63.775  14.754  1.00  0.00     0.007 A 
HETATM   24  C11 UNL     1      16.530  64.651  13.796  1.00  0.00     0.001 A 
HETATM   25  C12 UNL     1      15.588  65.284  13.006  1.00  0.00     0.000 A 
HETATM   26  C13 UNL     1      14.254  65.024  13.197  1.00  0.00     0.001 A 
HETATM   27  C14 UNL     1      13.854  64.118  14.193  1.00  0.00     0.007 A 
ENDBRANCH  21  22
ENDBRANCH   1  21
BRANCH   1  28
HETATM   28  N2  UNL     1      14.085  64.360  17.760  1.00  0.00    -0.307 N 
HETATM   29  C15 UNL     1      13.270  65.503  17.955  1.00  0.00     0.365 C 
HETATM   30  O2  UNL     1      12.078  65.474  17.630  1.00  0.00    -0.238 OA
ATOM     31  H2  UNL     1      15.064  64.428  18.036  1.00  0.00     0.170 HD
BRANCH  29  32
HETATM   32  O3  UNL     1      13.794  66.673  18.513  1.00  0.00    -0.296 OA
BRANCH  32  33
HETATM   33  C16 UNL     1      15.102  67.120  18.196  1.00  0.00     0.166 C 
HETATM   34  C17 UNL     1      15.246  68.598  18.349  1.00  0.00     0.204 C 
HETATM   35  O4  UNL     1      16.427  68.873  18.984  1.00  0.00    -0.358 OA
HETATM   36  C18 UNL     1      17.086  67.687  19.264  1.00  0.00     0.266 C 
HETATM   37  O5  UNL     1      17.613  67.650  20.549  1.00  0.00    -0.361 OA
HETATM   38  C21 UNL     1      16.027  66.604  19.279  1.00  0.00     0.075 C 
HETATM   39  C19 UNL     1      16.592  67.416  21.438  1.00  0.00     0.171 C 
HETATM   40  C20 UNL     1      15.466  66.732  20.657  1.00  0.00     0.038 C 
ENDBRANCH  32  33
ENDBRANCH  29  32
ENDBRANCH   1  28
TORSDOF 13
ENDMDL
