MODEL 8
REMARK VINA RESULT: -9.638414422      3.225      7.955
REMARK  13 active torsions:
REMARK  status: ('A' for Active; 'I' for Inactive)
REMARK    1  A    between atoms: C2_2  and  C4_4 
REMARK    2  A    between atoms: C4_4  and  N1_5 
REMARK    3  A    between atoms: N1_5  and  C5_6 
REMARK    4  A    between atoms: N1_5  and  S1_31 
REMARK    5  A    between atoms: C5_6  and  C6_7 
REMARK    6  A    between atoms: C6_7  and  O1_8 
REMARK    7  A    between atoms: C6_7  and  C7_10 
REMARK    8  A    between atoms: C7_10  and  C8_11 
REMARK    9  A    between atoms: C7_10  and  N2_18 
REMARK   10  A    between atoms: C8_11  and  C9_12 
REMARK       I    between atoms: N2_18  and  C15_20 
REMARK   11  A    between atoms: C15_20  and  O3_22 
REMARK   12  A    between atoms: O3_22  and  C16_23 
REMARK   13  A    between atoms: S1_31  and  C22_34 
ROOT
HETATM    1  C7  UNL     1      13.864  63.187  17.246  1.00  0.00     0.029 C 
ENDROOT
BRANCH   1   2
HETATM    2  C6  UNL     1      13.354  62.158  18.223  1.00  0.00     0.203 C 
BRANCH   2   3
HETATM    3  C5  UNL     1      12.343  61.226  17.690  1.00  0.00     0.119 C 
BRANCH   3   4
HETATM    4  N1  UNL     1      11.004  61.639  17.699  1.00  0.00    -0.262 N 
BRANCH   4   5
HETATM    5  C4  UNL     1      10.495  62.478  18.692  1.00  0.00     0.085 C 
BRANCH   5   6
HETATM    6  C2  UNL     1       9.661  61.794  19.768  1.00  0.00     0.017 C 
HETATM    7  C1  UNL     1      10.330  61.762  21.113  1.00  0.00     0.015 C 
HETATM    8  C3  UNL     1       8.288  62.414  19.889  1.00  0.00     0.015 C 
ENDBRANCH   5   6
ENDBRANCH   4   5
BRANCH   4   9
HETATM    9  S1  UNL     1      10.227  61.587  16.200  1.00  0.00     0.267 S 
HETATM   10  O6  UNL     1       9.232  62.736  16.149  1.00  0.00    -0.200 OA
HETATM   11  O7  UNL     1      11.200  61.740  15.039  1.00  0.00    -0.200 OA
BRANCH   9  12
HETATM   12  C22 UNL     1       9.321  60.104  15.923  1.00  0.00     0.080 A 
HETATM   13  C23 UNL     1       9.132  59.556  14.672  1.00  0.00     0.027 A 
HETATM   14  C24 UNL     1       8.412  58.392  14.479  1.00  0.00     0.028 A 
HETATM   15  C25 UNL     1       7.848  57.726  15.547  1.00  0.00     0.046 A 
HETATM   16  N3  UNL     1       7.097  56.514  15.349  1.00  0.00    -0.102 NA
HETATM   17  C26 UNL     1       8.027  58.260  16.803  1.00  0.00     0.028 A 
HETATM   18  C27 UNL     1       8.745  59.419  16.989  1.00  0.00     0.027 A 
ENDBRANCH   9  12
ENDBRANCH   4   9
ENDBRANCH   3   4
ENDBRANCH   2   3
BRANCH   2  19
HETATM   19  O1  UNL     1      14.489  61.401  18.603  1.00  0.00    -0.385 OA
ATOM     20  H1  UNL     1      15.263  61.867  18.311  1.00  0.00     0.211 HD
ENDBRANCH   2  19
ENDBRANCH   1   2
BRANCH   1  21
HETATM   21  C8  UNL     1      14.145  62.617  15.883  1.00  0.00     0.094 C 
BRANCH  21  22
HETATM   22  C9  UNL     1      14.821  63.517  14.949  1.00  0.00    -0.053 A 
HETATM   23  C10 UNL     1      14.065  64.484  14.286  1.00  0.00     0.007 A 
HETATM   24  C11 UNL     1      14.580  65.359  13.368  1.00  0.00     0.001 A 
HETATM   25  C12 UNL     1      15.930  65.289  13.074  1.00  0.00     0.000 A 
HETATM   26  C13 UNL     1      16.715  64.353  13.701  1.00  0.00     0.001 A 
HETATM   27  C14 UNL     1      16.144  63.475  14.636  1.00  0.00     0.007 A 
ENDBRANCH  21  22
ENDBRANCH   1  21
BRANCH   1  28
HETATM   28  N2  UNL     1      14.760  64.137  17.775  1.00  0.00    -0.307 N 
HETATM   29  C15 UNL     1      14.445  65.491  18.047  1.00  0.00     0.365 C 
HETATM   30  O2  UNL     1      13.309  65.920  17.811  1.00  0.00    -0.238 OA
ATOM     31  H2  UNL     1      15.710  63.825  17.978  1.00  0.00     0.170 HD
BRANCH  29  32
HETATM   32  O3  UNL     1      15.402  66.360  18.581  1.00  0.00    -0.296 OA
BRANCH  32  33
HETATM   33  C16 UNL     1      16.773  66.251  18.231  1.00  0.00     0.166 C 
HETATM   34  C17 UNL     1      16.993  66.399  16.762  1.00  0.00     0.204 C 
HETATM   35  O4  UNL     1      18.074  67.212  16.547  1.00  0.00    -0.358 OA
HETATM   36  C18 UNL     1      18.594  67.618  17.766  1.00  0.00     0.266 C 
HETATM   37  O5  UNL     1      18.902  68.972  17.800  1.00  0.00    -0.361 OA
HETATM   38  C21 UNL     1      17.472  67.480  18.775  1.00  0.00     0.075 C 
HETATM   39  C19 UNL     1      17.738  69.687  17.938  1.00  0.00     0.171 C 
HETATM   40  C20 UNL     1      16.706  68.746  18.570  1.00  0.00     0.038 C 
ENDBRANCH  32  33
ENDBRANCH  29  32
ENDBRANCH   1  28
TORSDOF 13
ENDMDL
