MODEL 2
REMARK VINA RESULT: -9.903286182      2.300      6.097
REMARK  13 active torsions:
REMARK  status: ('A' for Active; 'I' for Inactive)
REMARK    1  A    between atoms: C2_2  and  C4_4 
REMARK    2  A    between atoms: C4_4  and  N1_5 
REMARK    3  A    between atoms: N1_5  and  C5_6 
REMARK    4  A    between atoms: N1_5  and  S1_31 
REMARK    5  A    between atoms: C5_6  and  C6_7 
REMARK    6  A    between atoms: C6_7  and  O1_8 
REMARK    7  A    between atoms: C6_7  and  C7_10 
REMARK    8  A    between atoms: C7_10  and  C8_11 
REMARK    9  A    between atoms: C7_10  and  N2_18 
REMARK   10  A    between atoms: C8_11  and  C9_12 
REMARK       I    between atoms: N2_18  and  C15_20 
REMARK   11  A    between atoms: C15_20  and  O3_22 
REMARK   12  A    between atoms: O3_22  and  C16_23 
REMARK   13  A    between atoms: S1_31  and  C22_34 
ROOT
HETATM    1  C7  UNL     1      11.606  61.812  16.009  1.00  0.00     0.029 C 
ENDROOT
BRANCH   1   2
HETATM    2  C6  UNL     1      11.790  61.485  17.469  1.00  0.00     0.203 C 
BRANCH   2   3
HETATM    3  C5  UNL     1      10.558  61.495  18.280  1.00  0.00     0.119 C 
BRANCH   3   4
HETATM    4  N1  UNL     1      10.474  62.420  19.329  1.00  0.00    -0.262 N 
BRANCH   4   5
HETATM    5  C4  UNL     1      10.765  62.071  20.649  1.00  0.00     0.085 C 
BRANCH   5   6
HETATM    6  C2  UNL     1       9.564  61.722  21.518  1.00  0.00     0.017 C 
HETATM    7  C1  UNL     1       8.901  62.922  22.132  1.00  0.00     0.015 C 
HETATM    8  C3  UNL     1       8.545  60.902  20.761  1.00  0.00     0.015 C 
ENDBRANCH   5   6
ENDBRANCH   4   5
BRANCH   4   9
HETATM    9  S1  UNL     1      10.602  64.041  18.868  1.00  0.00     0.267 S 
HETATM   10  O6  UNL     1      10.040  64.172  17.461  1.00  0.00    -0.200 OA
HETATM   11  O7  UNL     1       9.817  64.966  19.788  1.00  0.00    -0.200 OA
BRANCH   9  12
HETATM   12  C22 UNL     1      12.257  64.636  18.824  1.00  0.00     0.080 A 
HETATM   13  C23 UNL     1      13.291  64.047  19.521  1.00  0.00     0.027 A 
HETATM   14  C24 UNL     1      14.583  64.536  19.475  1.00  0.00     0.028 A 
HETATM   15  C25 UNL     1      14.890  65.646  18.718  1.00  0.00     0.046 A 
HETATM   16  N3  UNL     1      16.234  66.158  18.668  1.00  0.00    -0.102 NA
HETATM   17  C26 UNL     1      13.869  66.247  18.016  1.00  0.00     0.028 A 
HETATM   18  C27 UNL     1      12.585  65.756  18.066  1.00  0.00     0.027 A 
ENDBRANCH   9  12
ENDBRANCH   4   9
ENDBRANCH   3   4
ENDBRANCH   2   3
BRANCH   2  19
HETATM   19  O1  UNL     1      12.323  60.174  17.500  1.00  0.00    -0.385 OA
ATOM     20  H1  UNL     1      13.002  60.118  16.839  1.00  0.00     0.211 HD
ENDBRANCH   2  19
ENDBRANCH   1   2
BRANCH   1  21
HETATM   21  C8  UNL     1      11.395  60.592  15.155  1.00  0.00     0.094 C 
BRANCH  21  22
HETATM   22  C9  UNL     1      10.001  60.206  14.937  1.00  0.00    -0.053 A 
HETATM   23  C10 UNL     1       9.036  61.209  14.842  1.00  0.00     0.007 A 
HETATM   24  C11 UNL     1       7.699  60.969  14.671  1.00  0.00     0.001 A 
HETATM   25  C12 UNL     1       7.270  59.657  14.585  1.00  0.00     0.000 A 
HETATM   26  C13 UNL     1       8.183  58.635  14.673  1.00  0.00     0.001 A 
HETATM   27  C14 UNL     1       9.545  58.927  14.850  1.00  0.00     0.007 A 
ENDBRANCH  21  22
ENDBRANCH   1  21
BRANCH   1  28
HETATM   28  N2  UNL     1      12.419  62.849  15.510  1.00  0.00    -0.307 N 
HETATM   29  C15 UNL     1      13.791  63.028  15.815  1.00  0.00     0.365 C 
HETATM   30  O2  UNL     1      14.360  62.241  16.581  1.00  0.00    -0.238 OA
ATOM     31  H2  UNL     1      11.986  63.523  14.879  1.00  0.00     0.170 HD
BRANCH  29  32
HETATM   32  O3  UNL     1      14.519  64.086  15.264  1.00  0.00    -0.296 OA
BRANCH  32  33
HETATM   33  C16 UNL     1      15.928  64.168  15.410  1.00  0.00     0.166 C 
HETATM   34  C17 UNL     1      16.650  63.421  14.338  1.00  0.00     0.204 C 
HETATM   35  O4  UNL     1      17.695  64.180  13.884  1.00  0.00    -0.358 OA
HETATM   36  C18 UNL     1      17.726  65.380  14.576  1.00  0.00     0.266 C 
HETATM   37  O5  UNL     1      17.936  66.477  13.750  1.00  0.00    -0.361 OA
HETATM   38  C21 UNL     1      16.327  65.599  15.114  1.00  0.00     0.075 C 
HETATM   39  C19 UNL     1      16.765  66.765  13.092  1.00  0.00     0.171 C 
HETATM   40  C20 UNL     1      15.624  66.185  13.934  1.00  0.00     0.038 C 
ENDBRANCH  32  33
ENDBRANCH  29  32
ENDBRANCH   1  28
TORSDOF 13
ENDMDL
