MODEL 1
REMARK VINA RESULT: -7.953331163      0.000      0.000
REMARK  6 active torsions:
REMARK  status: ('A' for Active; 'I' for Inactive)
REMARK    1  A    between atoms: O1_1  and  C1_3 
REMARK    2  A    between atoms: C2_4  and  O2_5 
REMARK    3  A    between atoms: C3_7  and  O3_8 
REMARK    4  A    between atoms: C4_10  and  O4_11 
REMARK    5  A    between atoms: C5_13  and  O5_14 
REMARK    6  A    between atoms: C6_16  and  O6_17 
ROOT
HETATM    1  C1  UNL     1      34.272  21.081  32.590  1.00  0.00     0.180 C 
HETATM    2  C2  UNL     1      32.807  20.990  32.718  1.00  0.00     0.180 C 
HETATM    3  C3  UNL     1      32.010  21.730  31.704  1.00  0.00     0.180 C 
HETATM    4  C4  UNL     1      32.808  22.718  30.901  1.00  0.00     0.180 C 
HETATM    5  C5  UNL     1      34.057  22.142  30.317  1.00  0.00     0.180 C 
HETATM    6  C6  UNL     1      34.822  21.250  31.223  1.00  0.00     0.180 C 
ENDROOT
BRANCH   1   7
HETATM    7  O1  UNL     1      34.828  19.886  33.110  1.00  0.00    -0.390 OA
ATOM      8  H1  UNL     1      35.774  19.953  33.045  1.00  0.00     0.210 HD
ENDBRANCH   1   7
BRANCH   2   9
HETATM    9  O2  UNL     1      32.374  19.643  32.759  1.00  0.00    -0.390 OA
ATOM     10  H2  UNL     1      31.546  19.531  32.308  1.00  0.00     0.210 HD
ENDBRANCH   2   9
BRANCH   6  11
HETATM   11  O6  UNL     1      35.026  20.032  30.560  1.00  0.00    -0.390 OA
ATOM     12  H6  UNL     1      35.518  20.126  29.752  1.00  0.00     0.210 HD
ENDBRANCH   6  11
BRANCH   3  13
HETATM   13  O3  UNL     1      31.333  20.818  30.860  1.00  0.00    -0.390 OA
ATOM     14  H3  UNL     1      31.315  21.150  29.971  1.00  0.00     0.210 HD
ENDBRANCH   3  13
BRANCH   5  15
HETATM   15  O5  UNL     1      33.683  21.482  29.123  1.00  0.00    -0.390 OA
ATOM     16  H5  UNL     1      34.321  21.725  28.463  1.00  0.00     0.210 HD
ENDBRANCH   5  15
BRANCH   4  17
HETATM   17  O4  UNL     1      31.980  23.122  29.828  1.00  0.00    -0.390 OA
ATOM     18  H4  UNL     1      32.510  23.686  29.277  1.00  0.00     0.210 HD
ENDBRANCH   4  17
TORSDOF 6
ENDMDL
