MODEL 8
REMARK VINA RESULT: -7.627229003      1.957      3.181
REMARK  6 active torsions:
REMARK  status: ('A' for Active; 'I' for Inactive)
REMARK    1  A    between atoms: O1_1  and  C1_3 
REMARK    2  A    between atoms: C2_4  and  O2_5 
REMARK    3  A    between atoms: C3_7  and  O3_8 
REMARK    4  A    between atoms: C4_10  and  O4_11 
REMARK    5  A    between atoms: C5_13  and  O5_14 
REMARK    6  A    between atoms: C6_16  and  O6_17 
ROOT
HETATM    1  C1  UNL     1      33.994  21.983  33.155  1.00  0.00     0.180 C 
HETATM    2  C2  UNL     1      34.777  22.503  32.021  1.00  0.00     0.180 C 
HETATM    3  C3  UNL     1      34.371  22.034  30.669  1.00  0.00     0.180 C 
HETATM    4  C4  UNL     1      33.439  20.856  30.685  1.00  0.00     0.180 C 
HETATM    5  C5  UNL     1      32.262  21.037  31.589  1.00  0.00     0.180 C 
HETATM    6  C6  UNL     1      32.567  21.662  32.901  1.00  0.00     0.180 C 
ENDROOT
BRANCH   1   7
HETATM    7  O1  UNL     1      34.016  22.959  34.182  1.00  0.00    -0.390 OA
ATOM      8  H1  UNL     1      34.062  23.814  33.770  1.00  0.00     0.210 HD
ENDBRANCH   1   7
BRANCH   2   9
HETATM    9  O2  UNL     1      34.822  23.918  32.029  1.00  0.00    -0.390 OA
ATOM     10  H2  UNL     1      34.699  24.274  31.157  1.00  0.00     0.210 HD
ENDBRANCH   2   9
BRANCH   6  11
HETATM   11  O6  UNL     1      31.719  22.766  33.062  1.00  0.00    -0.390 OA
ATOM     12  H6  UNL     1      31.164  22.923  32.306  1.00  0.00     0.210 HD
ENDBRANCH   6  11
BRANCH   3  13
HETATM   13  O3  UNL     1      33.821  23.108  29.930  1.00  0.00    -0.390 OA
ATOM     14  H3  UNL     1      33.510  22.797  29.088  1.00  0.00     0.210 HD
ENDBRANCH   3  13
BRANCH   5  15
HETATM   15  O5  UNL     1      31.302  21.781  30.865  1.00  0.00    -0.390 OA
ATOM     16  H5  UNL     1      30.856  22.339  31.492  1.00  0.00     0.210 HD
ENDBRANCH   5  15
BRANCH   4  17
HETATM   17  O4  UNL     1      32.948  20.717  29.367  1.00  0.00    -0.390 OA
ATOM     18  H4  UNL     1      33.610  21.084  28.793  1.00  0.00     0.210 HD
ENDBRANCH   4  17
TORSDOF 6
ENDMDL
