MODEL 9
REMARK VINA RESULT: -7.599942634      1.000      3.776
REMARK  6 active torsions:
REMARK  status: ('A' for Active; 'I' for Inactive)
REMARK    1  A    between atoms: O1_1  and  C1_3 
REMARK    2  A    between atoms: C2_4  and  O2_5 
REMARK    3  A    between atoms: C3_7  and  O3_8 
REMARK    4  A    between atoms: C4_10  and  O4_11 
REMARK    5  A    between atoms: C5_13  and  O5_14 
REMARK    6  A    between atoms: C6_16  and  O6_17 
ROOT
HETATM    1  C1  UNL     1      32.504  22.703  31.086  1.00  0.00     0.180 C 
HETATM    2  C2  UNL     1      33.542  21.967  30.344  1.00  0.00     0.180 C 
HETATM    3  C3  UNL     1      34.611  21.332  31.160  1.00  0.00     0.180 C 
HETATM    4  C4  UNL     1      34.655  21.806  32.585  1.00  0.00     0.180 C 
HETATM    5  C5  UNL     1      33.327  21.759  33.271  1.00  0.00     0.180 C 
HETATM    6  C6  UNL     1      32.179  22.221  32.451  1.00  0.00     0.180 C 
ENDROOT
BRANCH   1   7
HETATM    7  O1  UNL     1      31.305  22.639  30.334  1.00  0.00    -0.390 OA
ATOM      8  H1  UNL     1      30.852  23.468  30.438  1.00  0.00     0.210 HD
ENDBRANCH   1   7
BRANCH   2   9
HETATM    9  O2  UNL     1      32.973  20.997  29.484  1.00  0.00    -0.390 OA
ATOM     10  H2  UNL     1      32.515  21.403  28.758  1.00  0.00     0.210 HD
ENDBRANCH   2   9
BRANCH   6  11
HETATM   11  O6  UNL     1      31.207  21.212  32.460  1.00  0.00    -0.390 OA
ATOM     12  H6  UNL     1      30.701  21.190  33.264  1.00  0.00     0.210 HD
ENDBRANCH   6  11
BRANCH   3  13
HETATM   13  O3  UNL     1      34.497  19.923  31.095  1.00  0.00    -0.390 OA
ATOM     14  H3  UNL     1      35.360  19.529  31.054  1.00  0.00     0.210 HD
ENDBRANCH   3  13
BRANCH   5  15
HETATM   15  O5  UNL     1      33.148  20.431  33.723  1.00  0.00    -0.390 OA
ATOM     16  H5  UNL     1      32.529  20.467  34.442  1.00  0.00     0.210 HD
ENDBRANCH   5  15
BRANCH   4  17
HETATM   17  O4  UNL     1      35.522  20.926  33.272  1.00  0.00    -0.390 OA
ATOM     18  H4  UNL     1      35.084  20.693  34.082  1.00  0.00     0.210 HD
ENDBRANCH   4  17
TORSDOF 6
ENDMDL
