MODEL 6
REMARK VINA RESULT: -7.672510747      1.187      3.689
REMARK  6 active torsions:
REMARK  status: ('A' for Active; 'I' for Inactive)
REMARK    1  A    between atoms: O1_1  and  C1_3 
REMARK    2  A    between atoms: C2_4  and  O2_5 
REMARK    3  A    between atoms: C3_7  and  O3_8 
REMARK    4  A    between atoms: C4_10  and  O4_11 
REMARK    5  A    between atoms: C5_13  and  O5_14 
REMARK    6  A    between atoms: C6_16  and  O6_17 
ROOT
HETATM    1  C1  UNL     1      33.215  21.439  30.689  1.00  0.00     0.180 C 
HETATM    2  C2  UNL     1      34.615  21.211  31.085  1.00  0.00     0.180 C 
HETATM    3  C3  UNL     1      34.920  21.350  32.534  1.00  0.00     0.180 C 
HETATM    4  C4  UNL     1      33.833  22.017  33.327  1.00  0.00     0.180 C 
HETATM    5  C5  UNL     1      32.479  21.428  33.097  1.00  0.00     0.180 C 
HETATM    6  C6  UNL     1      32.166  21.102  31.683  1.00  0.00     0.180 C 
ENDROOT
BRANCH   1   7
HETATM    7  O1  UNL     1      32.956  20.654  29.539  1.00  0.00    -0.390 OA
ATOM      8  H1  UNL     1      33.577  20.907  28.866  1.00  0.00     0.210 HD
ENDBRANCH   1   7
BRANCH   2   9
HETATM    9  O2  UNL     1      35.083  19.956  30.629  1.00  0.00    -0.390 OA
ATOM     10  H2  UNL     1      36.024  19.877  30.735  1.00  0.00     0.210 HD
ENDBRANCH   2   9
BRANCH   6  11
HETATM   11  O6  UNL     1      31.769  19.759  31.626  1.00  0.00    -0.390 OA
ATOM     12  H6  UNL     1      31.201  19.570  30.887  1.00  0.00     0.210 HD
ENDBRANCH   6  11
BRANCH   3  13
HETATM   13  O3  UNL     1      35.249  20.088  33.083  1.00  0.00    -0.390 OA
ATOM     14  H3  UNL     1      34.834  19.984  33.931  1.00  0.00     0.210 HD
ENDBRANCH   3  13
BRANCH   5  15
HETATM   15  O5  UNL     1      32.382  20.289  33.931  1.00  0.00    -0.390 OA
ATOM     16  H5  UNL     1      31.679  19.753  33.584  1.00  0.00     0.210 HD
ENDBRANCH   5  15
BRANCH   4  17
HETATM   17  O4  UNL     1      34.157  21.825  34.690  1.00  0.00    -0.390 OA
ATOM     18  H4  UNL     1      33.340  21.882  35.171  1.00  0.00     0.210 HD
ENDBRANCH   4  17
TORSDOF 6
ENDMDL
