MODEL 7
REMARK VINA RESULT: -7.649056421      1.927      2.945
REMARK  6 active torsions:
REMARK  status: ('A' for Active; 'I' for Inactive)
REMARK    1  A    between atoms: O1_1  and  C1_3 
REMARK    2  A    between atoms: C2_4  and  O2_5 
REMARK    3  A    between atoms: C3_7  and  O3_8 
REMARK    4  A    between atoms: C4_10  and  O4_11 
REMARK    5  A    between atoms: C5_13  and  O5_14 
REMARK    6  A    between atoms: C6_16  and  O6_17 
ROOT
HETATM    1  C1  UNL     1      33.475  20.857  30.700  1.00  0.00     0.180 C 
HETATM    2  C2  UNL     1      32.336  21.025  31.618  1.00  0.00     0.180 C 
HETATM    3  C3  UNL     1      32.606  21.777  32.872  1.00  0.00     0.180 C 
HETATM    4  C4  UNL     1      34.067  21.970  33.167  1.00  0.00     0.180 C 
HETATM    5  C5  UNL     1      34.842  22.516  32.011  1.00  0.00     0.180 C 
HETATM    6  C6  UNL     1      34.501  21.928  30.692  1.00  0.00     0.180 C 
ENDROOT
BRANCH   1   7
HETATM    7  O1  UNL     1      32.962  20.773  29.382  1.00  0.00    -0.390 OA
ATOM      8  H1  UNL     1      33.686  20.578  28.799  1.00  0.00     0.210 HD
ENDBRANCH   1   7
BRANCH   2   9
HETATM    9  O2  UNL     1      31.222  21.601  30.960  1.00  0.00    -0.390 OA
ATOM     10  H2  UNL     1      31.130  22.521  31.176  1.00  0.00     0.210 HD
ENDBRANCH   2   9
BRANCH   6  11
HETATM   11  O6  UNL     1      34.191  22.979  29.817  1.00  0.00    -0.390 OA
ATOM     12  H6  UNL     1      33.357  22.861  29.376  1.00  0.00     0.210 HD
ENDBRANCH   6  11
BRANCH   3  13
HETATM   13  O3  UNL     1      31.923  23.016  32.850  1.00  0.00    -0.390 OA
ATOM     14  H3  UNL     1      32.188  23.546  33.593  1.00  0.00     0.210 HD
ENDBRANCH   3  13
BRANCH   5  15
HETATM   15  O5  UNL     1      34.659  23.919  32.024  1.00  0.00    -0.390 OA
ATOM     16  H5  UNL     1      35.007  24.248  31.203  1.00  0.00     0.210 HD
ENDBRANCH   5  15
BRANCH   4  17
HETATM   17  O4  UNL     1      34.141  22.914  34.217  1.00  0.00    -0.390 OA
ATOM     18  H4  UNL     1      34.148  22.417  35.026  1.00  0.00     0.210 HD
ENDBRANCH   4  17
TORSDOF 6
ENDMDL
