MODEL 5
REMARK VINA RESULT: -5.859198326      1.854      2.369
REMARK  5 active torsions:
REMARK  status: ('A' for Active; 'I' for Inactive)
REMARK    1  A    between atoms: C1_2  and  C2_3 
REMARK    2  A    between atoms: C1_2  and  C3_6 
REMARK    3  A    between atoms: C2_3  and  O2_4 
REMARK    4  A    between atoms: C3_6  and  O3_7 
REMARK    5  A    between atoms: O3_7  and  P1_8 
ROOT
HETATM    1  C3  UNL     1     -41.642   0.854   4.997  1.00  0.00     0.263 C 
ENDROOT
BRANCH   1   2
HETATM    2  C1  UNL     1     -42.007  -0.163   6.054  1.00  0.00     0.174 C 
HETATM    3  O1  UNL     1     -43.022  -0.061   6.722  1.00  0.00    -0.293 OA
BRANCH   2   4
HETATM    4  C2  UNL     1     -41.138  -1.340   6.330  1.00  0.00     0.244 C 
BRANCH   4   5
HETATM    5  O2  UNL     1     -41.576  -2.478   5.683  1.00  0.00    -0.394 OA
ATOM      6  H2  UNL     1     -42.508  -2.619   5.793  1.00  0.00     0.209 HD
ENDBRANCH   4   5
ENDBRANCH   2   4
ENDBRANCH   1   2
BRANCH   1   7
HETATM    7  O3  UNL     1     -41.400   2.026   5.613  1.00  0.00    -0.275 OA
BRANCH   7   8
HETATM    8  P1  UNL     1     -42.455   3.268   5.456  1.00  0.00     0.422 P 
HETATM    9  O4  UNL     1     -41.983   4.798   5.144  1.00  0.00    -0.617 OA
HETATM   10  O5  UNL     1     -44.070   3.031   5.932  1.00  0.00    -0.617 OA
HETATM   11  O6  UNL     1     -42.872   2.845   4.056  1.00  0.00    -0.617 OA
ENDBRANCH   7   8
ENDBRANCH   1   7
TORSDOF 5
ENDMDL
