MODEL 4
REMARK VINA RESULT: -5.864047182      1.687      2.031
REMARK  5 active torsions:
REMARK  status: ('A' for Active; 'I' for Inactive)
REMARK    1  A    between atoms: C1_2  and  C2_3 
REMARK    2  A    between atoms: C1_2  and  C3_6 
REMARK    3  A    between atoms: C2_3  and  O2_4 
REMARK    4  A    between atoms: C3_6  and  O3_7 
REMARK    5  A    between atoms: O3_7  and  P1_8 
ROOT
HETATM    1  C3  UNL     1     -41.668   0.920   4.991  1.00  0.00     0.263 C 
ENDROOT
BRANCH   1   2
HETATM    2  C1  UNL     1     -42.017  -0.110   6.041  1.00  0.00     0.174 C 
HETATM    3  O1  UNL     1     -43.031  -0.026   6.713  1.00  0.00    -0.293 OA
BRANCH   2   4
HETATM    4  C2  UNL     1     -41.133  -1.279   6.303  1.00  0.00     0.244 C 
BRANCH   4   5
HETATM    5  O2  UNL     1     -41.608  -2.437   5.719  1.00  0.00    -0.394 OA
ATOM      6  H2  UNL     1     -41.043  -3.182   5.885  1.00  0.00     0.209 HD
ENDBRANCH   4   5
ENDBRANCH   2   4
ENDBRANCH   1   2
BRANCH   1   7
HETATM    7  O3  UNL     1     -41.421   2.085   5.617  1.00  0.00    -0.275 OA
BRANCH   7   8
HETATM    8  P1  UNL     1     -42.503   3.311   5.526  1.00  0.00     0.422 P 
HETATM    9  O4  UNL     1     -44.115   3.079   5.613  1.00  0.00    -0.617 OA
HETATM   10  O5  UNL     1     -41.961   4.841   5.019  1.00  0.00    -0.617 OA
HETATM   11  O6  UNL     1     -42.238   3.761   6.954  1.00  0.00    -0.617 OA
ENDBRANCH   7   8
ENDBRANCH   1   7
TORSDOF 5
ENDMDL
