MODEL 13
REMARK VINA RESULT: -5.454989426      3.703      4.894
REMARK  5 active torsions:
REMARK  status: ('A' for Active; 'I' for Inactive)
REMARK    1  A    between atoms: C1_2  and  C2_3 
REMARK    2  A    between atoms: C1_2  and  C3_6 
REMARK    3  A    between atoms: C2_3  and  O2_4 
REMARK    4  A    between atoms: C3_6  and  O3_7 
REMARK    5  A    between atoms: O3_7  and  P1_8 
ROOT
HETATM    1  C3  UNL     1     -39.669  -2.318   3.949  1.00  0.00     0.263 C 
ENDROOT
BRANCH   1   2
HETATM    2  C1  UNL     1     -39.520  -1.884   2.509  1.00  0.00     0.174 C 
HETATM    3  O1  UNL     1     -39.977  -0.829   2.103  1.00  0.00    -0.293 OA
BRANCH   2   4
HETATM    4  C2  UNL     1     -38.807  -2.732   1.514  1.00  0.00     0.244 C 
BRANCH   4   5
HETATM    5  O2  UNL     1     -37.765  -2.061   0.904  1.00  0.00    -0.394 OA
ATOM      6  H2  UNL     1     -38.041  -1.607   0.117  1.00  0.00     0.209 HD
ENDBRANCH   4   5
ENDBRANCH   2   4
ENDBRANCH   1   2
BRANCH   1   7
HETATM    7  O3  UNL     1     -39.864  -1.216   4.697  1.00  0.00    -0.275 OA
BRANCH   7   8
HETATM    8  P1  UNL     1     -40.758  -1.301   6.065  1.00  0.00     0.422 P 
HETATM    9  O4  UNL     1     -42.155  -0.483   6.264  1.00  0.00    -0.617 OA
HETATM   10  O5  UNL     1     -40.070  -2.018   7.446  1.00  0.00    -0.617 OA
HETATM   11  O6  UNL     1     -41.319  -2.670   5.713  1.00  0.00    -0.617 OA
ENDBRANCH   7   8
ENDBRANCH   1   7
TORSDOF 5
ENDMDL
