MODEL 7
REMARK VINA RESULT: -5.747454776      1.402      2.262
REMARK  5 active torsions:
REMARK  status: ('A' for Active; 'I' for Inactive)
REMARK    1  A    between atoms: C1_2  and  C2_3 
REMARK    2  A    between atoms: C1_2  and  C3_6 
REMARK    3  A    between atoms: C2_3  and  O2_4 
REMARK    4  A    between atoms: C3_6  and  O3_7 
REMARK    5  A    between atoms: O3_7  and  P1_8 
ROOT
HETATM    1  C3  UNL     1     -41.819   0.654   5.860  1.00  0.00     0.263 C 
ENDROOT
BRANCH   1   2
HETATM    2  C1  UNL     1     -41.179  -0.312   4.889  1.00  0.00     0.174 C 
HETATM    3  O1  UNL     1     -41.144  -0.092   3.690  1.00  0.00    -0.293 OA
BRANCH   2   4
HETATM    4  C2  UNL     1     -40.559  -1.583   5.356  1.00  0.00     0.244 C 
BRANCH   4   5
HETATM    5  O2  UNL     1     -41.495  -2.577   5.564  1.00  0.00    -0.394 OA
ATOM      6  H2  UNL     1     -41.093  -3.414   5.763  1.00  0.00     0.209 HD
ENDBRANCH   4   5
ENDBRANCH   2   4
ENDBRANCH   1   2
BRANCH   1   7
HETATM    7  O3  UNL     1     -41.358   1.888   5.583  1.00  0.00    -0.275 OA
BRANCH   7   8
HETATM    8  P1  UNL     1     -42.394   3.154   5.513  1.00  0.00     0.422 P 
HETATM    9  O4  UNL     1     -41.906   4.684   5.232  1.00  0.00    -0.617 OA
HETATM   10  O5  UNL     1     -43.992   2.930   6.050  1.00  0.00    -0.617 OA
HETATM   11  O6  UNL     1     -42.879   2.787   4.119  1.00  0.00    -0.617 OA
ENDBRANCH   7   8
ENDBRANCH   1   7
TORSDOF 5
ENDMDL
