MODEL 3
REMARK VINA RESULT: -5.929302827      1.032      1.537
REMARK  5 active torsions:
REMARK  status: ('A' for Active; 'I' for Inactive)
REMARK    1  A    between atoms: C1_2  and  C2_3 
REMARK    2  A    between atoms: C1_2  and  C3_6 
REMARK    3  A    between atoms: C2_3  and  O2_4 
REMARK    4  A    between atoms: C3_6  and  O3_7 
REMARK    5  A    between atoms: O3_7  and  P1_8 
ROOT
HETATM    1  C3  UNL     1     -42.096   0.838   5.914  1.00  0.00     0.263 C 
ENDROOT
BRANCH   1   2
HETATM    2  C1  UNL     1     -41.348  -0.344   5.343  1.00  0.00     0.174 C 
HETATM    3  O1  UNL     1     -40.979  -0.373   4.181  1.00  0.00    -0.293 OA
BRANCH   2   4
HETATM    4  C2  UNL     1     -41.026  -1.535   6.178  1.00  0.00     0.244 C 
BRANCH   4   5
HETATM    5  O2  UNL     1     -41.464  -2.711   5.604  1.00  0.00    -0.394 OA
ATOM      6  H2  UNL     1     -40.971  -3.465   5.905  1.00  0.00     0.209 HD
ENDBRANCH   4   5
ENDBRANCH   2   4
ENDBRANCH   1   2
BRANCH   1   7
HETATM    7  O3  UNL     1     -41.649   1.949   5.299  1.00  0.00    -0.275 OA
BRANCH   7   8
HETATM    8  P1  UNL     1     -41.813   3.409   6.022  1.00  0.00     0.422 P 
HETATM    9  O4  UNL     1     -42.155   3.580   7.607  1.00  0.00    -0.617 OA
HETATM   10  O5  UNL     1     -41.935   4.794   5.043  1.00  0.00    -0.617 OA
HETATM   11  O6  UNL     1     -40.312   3.650   6.064  1.00  0.00    -0.617 OA
ENDBRANCH   7   8
ENDBRANCH   1   7
TORSDOF 5
ENDMDL
