MODEL 12
REMARK VINA RESULT: -5.471150062      2.421      4.532
REMARK  5 active torsions:
REMARK  status: ('A' for Active; 'I' for Inactive)
REMARK    1  A    between atoms: C1_2  and  C2_3 
REMARK    2  A    between atoms: C1_2  and  C3_6 
REMARK    3  A    between atoms: C2_3  and  O2_4 
REMARK    4  A    between atoms: C3_6  and  O3_7 
REMARK    5  A    between atoms: O3_7  and  P1_8 
ROOT
HETATM    1  C3  UNL     1     -42.549   0.591   6.241  1.00  0.00     0.263 C 
ENDROOT
BRANCH   1   2
HETATM    2  C1  UNL     1     -42.815   2.072   6.095  1.00  0.00     0.174 C 
HETATM    3  O1  UNL     1     -43.948   2.519   6.026  1.00  0.00    -0.293 OA
BRANCH   2   4
HETATM    4  C2  UNL     1     -41.700   3.057   6.028  1.00  0.00     0.244 C 
BRANCH   4   5
HETATM    5  O2  UNL     1     -40.463   2.446   5.985  1.00  0.00    -0.394 OA
ATOM      6  H2  UNL     1     -40.082   2.342   6.848  1.00  0.00     0.209 HD
ENDBRANCH   4   5
ENDBRANCH   2   4
ENDBRANCH   1   2
BRANCH   1   7
HETATM    7  O3  UNL     1     -41.900   0.175   5.137  1.00  0.00    -0.275 OA
BRANCH   7   8
HETATM    8  P1  UNL     1     -40.888  -1.109   5.215  1.00  0.00     0.422 P 
HETATM    9  O4  UNL     1     -39.711  -1.378   4.119  1.00  0.00    -0.617 OA
HETATM   10  O5  UNL     1     -41.257  -2.374   6.291  1.00  0.00    -0.617 OA
HETATM   11  O6  UNL     1     -40.056  -0.491   6.328  1.00  0.00    -0.617 OA
ENDBRANCH   7   8
ENDBRANCH   1   7
TORSDOF 5
ENDMDL
