MODEL 14
REMARK VINA RESULT: -5.403127718      2.544      4.766
REMARK  5 active torsions:
REMARK  status: ('A' for Active; 'I' for Inactive)
REMARK    1  A    between atoms: C1_2  and  C2_3 
REMARK    2  A    between atoms: C1_2  and  C3_6 
REMARK    3  A    between atoms: C2_3  and  O2_4 
REMARK    4  A    between atoms: C3_6  and  O3_7 
REMARK    5  A    between atoms: O3_7  and  P1_8 
ROOT
HETATM    1  C3  UNL     1     -42.476   0.220   6.187  1.00  0.00     0.263 C 
ENDROOT
BRANCH   1   2
HETATM    2  C1  UNL     1     -42.257   1.574   5.553  1.00  0.00     0.174 C 
HETATM    3  O1  UNL     1     -42.413   1.759   4.358  1.00  0.00    -0.293 OA
BRANCH   2   4
HETATM    4  C2  UNL     1     -41.836   2.751   6.363  1.00  0.00     0.244 C 
BRANCH   4   5
HETATM    5  O2  UNL     1     -42.732   3.039   7.374  1.00  0.00    -0.394 OA
ATOM      6  H2  UNL     1     -43.634   2.991   7.080  1.00  0.00     0.209 HD
ENDBRANCH   4   5
ENDBRANCH   2   4
ENDBRANCH   1   2
BRANCH   1   7
HETATM    7  O3  UNL     1     -42.002  -0.716   5.344  1.00  0.00    -0.275 OA
BRANCH   7   8
HETATM    8  P1  UNL     1     -40.594  -1.483   5.678  1.00  0.00     0.422 P 
HETATM    9  O4  UNL     1     -40.134  -1.871   7.193  1.00  0.00    -0.617 OA
HETATM   10  O5  UNL     1     -39.425  -1.612   4.449  1.00  0.00    -0.617 OA
HETATM   11  O6  UNL     1     -41.127  -2.833   5.225  1.00  0.00    -0.617 OA
ENDBRANCH   7   8
ENDBRANCH   1   7
TORSDOF 5
ENDMDL
