MODEL 4
REMARK VINA RESULT: -7.409118239      0.202      1.123
REMARK  9 active torsions:
REMARK  status: ('A' for Active; 'I' for Inactive)
REMARK    1  A    between atoms: O1_1  and  C1_3 
REMARK    2  A    between atoms: C2_4  and  O2_5 
REMARK    3  A    between atoms: C3_7  and  O3_8 
REMARK    4  A    between atoms: C3_7  and  C4_10 
REMARK    5  A    between atoms: C4_10  and  O4_11 
REMARK    6  A    between atoms: O4_11  and  P1_12 
REMARK    7  A    between atoms: C5_17  and  C6_18 
REMARK    8  A    between atoms: C6_18  and  O9_19 
REMARK    9  A    between atoms: O9_19  and  P2_20 
ROOT
HETATM    1  C1  UNL     1      11.287   0.798  -2.565  1.00  0.00     0.183 C 
HETATM    2  C2  UNL     1      10.183   0.851  -1.571  1.00  0.00     0.213 C 
HETATM    3  C3  UNL     1      10.894   1.567  -0.357  1.00  0.00     0.213 C 
HETATM    4  O8  UNL     1      11.688   2.456  -0.922  1.00  0.00    -0.341 OA
HETATM    5  C5  UNL     1      12.058   1.998  -2.173  1.00  0.00     0.181 C 
ENDROOT
BRANCH   3   6
HETATM    6  O3  UNL     1       9.794   2.069   0.341  1.00  0.00    -0.362 OA
ATOM      7  H3  UNL     1      10.017   2.991   0.397  1.00  0.00     0.213 HD
ENDBRANCH   3   6
BRANCH   3   8
HETATM    8  C4  UNL     1      11.526   0.494   0.490  1.00  0.00     0.253 C 
BRANCH   8   9
HETATM    9  O4  UNL     1      11.552   0.954   1.790  1.00  0.00    -0.277 OA
BRANCH   9  10
HETATM   10  P1  UNL     1      11.206   0.034   2.960  1.00  0.00     0.422 P 
HETATM   11  O5  UNL     1       9.673   0.615   3.014  1.00  0.00    -0.617 OA
HETATM   12  O6  UNL     1      11.504  -1.263   1.911  1.00  0.00    -0.617 OA
HETATM   13  O7  UNL     1      12.402   0.519   3.908  1.00  0.00    -0.617 OA
ENDBRANCH   9  10
ENDBRANCH   8   9
ENDBRANCH   3   8
BRANCH   2  14
HETATM   14  O2  UNL     1       9.116   1.661  -1.945  1.00  0.00    -0.387 OA
ATOM     15  H2  UNL     1       8.662   2.067  -1.217  1.00  0.00     0.210 HD
ENDBRANCH   2  14
BRANCH   1  16
HETATM   16  O1  UNL     1      11.995  -0.388  -2.587  1.00  0.00    -0.390 OA
ATOM     17  H1  UNL     1      11.529  -1.124  -2.964  1.00  0.00     0.210 HD
ENDBRANCH   1  16
BRANCH   5  18
HETATM   18  C6  UNL     1      11.677   3.130  -3.203  1.00  0.00     0.217 C 
BRANCH  18  19
HETATM   19  O9  UNL     1      10.958   3.990  -2.375  1.00  0.00    -0.280 OA
BRANCH  19  20
HETATM   20  P2  UNL     1       9.851   4.806  -2.960  1.00  0.00     0.422 P 
HETATM   21  O10 UNL     1       9.038   4.583  -1.508  1.00  0.00    -0.617 OA
HETATM   22  O11 UNL     1      10.778   6.107  -3.222  1.00  0.00    -0.617 OA
HETATM   23  O12 UNL     1       9.553   3.685  -4.111  1.00  0.00    -0.617 OA
ENDBRANCH  19  20
ENDBRANCH  18  19
ENDBRANCH   5  18
TORSDOF 9
ENDMDL
