MODEL 3
REMARK VINA RESULT: -7.415287054      0.299      1.469
REMARK  9 active torsions:
REMARK  status: ('A' for Active; 'I' for Inactive)
REMARK    1  A    between atoms: O1_1  and  C1_3 
REMARK    2  A    between atoms: C2_4  and  O2_5 
REMARK    3  A    between atoms: C3_7  and  O3_8 
REMARK    4  A    between atoms: C3_7  and  C4_10 
REMARK    5  A    between atoms: C4_10  and  O4_11 
REMARK    6  A    between atoms: O4_11  and  P1_12 
REMARK    7  A    between atoms: C5_17  and  C6_18 
REMARK    8  A    between atoms: C6_18  and  O9_19 
REMARK    9  A    between atoms: O9_19  and  P2_20 
ROOT
HETATM    1  C1  UNL     1      11.409   0.713  -2.475  1.00  0.00     0.183 C 
HETATM    2  C2  UNL     1      10.387   0.729  -1.395  1.00  0.00     0.213 C 
HETATM    3  C3  UNL     1      11.144   1.530  -0.266  1.00  0.00     0.213 C 
HETATM    4  O8  UNL     1      11.830   2.448  -0.920  1.00  0.00    -0.341 OA
HETATM    5  C5  UNL     1      12.127   1.972  -2.183  1.00  0.00     0.181 C 
ENDROOT
BRANCH   3   6
HETATM    6  O3  UNL     1      10.073   1.985   0.507  1.00  0.00    -0.362 OA
ATOM      7  H3  UNL     1      10.355   1.730   1.378  1.00  0.00     0.213 HD
ENDBRANCH   3   6
BRANCH   3   8
HETATM    8  C4  UNL     1      11.912   0.529   0.558  1.00  0.00     0.253 C 
BRANCH   8   9
HETATM    9  O4  UNL     1      11.759   0.878   1.883  1.00  0.00    -0.277 OA
BRANCH   9  10
HETATM   10  P1  UNL     1      11.340  -0.155   2.928  1.00  0.00     0.422 P 
HETATM   11  O5  UNL     1      11.655  -1.387   1.892  1.00  0.00    -0.617 OA
HETATM   12  O6  UNL     1      12.629   0.408   3.872  1.00  0.00    -0.617 OA
HETATM   13  O7  UNL     1       9.889   0.466   3.197  1.00  0.00    -0.617 OA
ENDBRANCH   9  10
ENDBRANCH   8   9
ENDBRANCH   3   8
BRANCH   2  14
HETATM   14  O2  UNL     1       9.242   1.456  -1.703  1.00  0.00    -0.387 OA
ATOM     15  H2  UNL     1       8.574   1.434  -1.029  1.00  0.00     0.210 HD
ENDBRANCH   2  14
BRANCH   1  16
HETATM   16  O1  UNL     1      12.189  -0.426  -2.521  1.00  0.00    -0.390 OA
ATOM     17  H1  UNL     1      13.089  -0.305  -2.241  1.00  0.00     0.210 HD
ENDBRANCH   1  16
BRANCH   5  18
HETATM   18  C6  UNL     1      11.590   3.041  -3.211  1.00  0.00     0.217 C 
BRANCH  18  19
HETATM   19  O9  UNL     1      11.039   3.975  -2.335  1.00  0.00    -0.280 OA
BRANCH  19  20
HETATM   20  P2  UNL     1       9.867   4.788  -2.782  1.00  0.00     0.422 P 
HETATM   21  O10 UNL     1      10.741   6.143  -2.314  1.00  0.00    -0.617 OA
HETATM   22  O11 UNL     1       9.906   4.237  -4.304  1.00  0.00    -0.617 OA
HETATM   23  O12 UNL     1       8.904   4.140  -1.630  1.00  0.00    -0.617 OA
ENDBRANCH  19  20
ENDBRANCH  18  19
ENDBRANCH   5  18
TORSDOF 9
ENDMDL
