MODEL 1
REMARK VINA RESULT: -7.437419215      0.000      0.000
REMARK  9 active torsions:
REMARK  status: ('A' for Active; 'I' for Inactive)
REMARK    1  A    between atoms: O1_1  and  C1_3 
REMARK    2  A    between atoms: C2_4  and  O2_5 
REMARK    3  A    between atoms: C3_7  and  O3_8 
REMARK    4  A    between atoms: C3_7  and  C4_10 
REMARK    5  A    between atoms: C4_10  and  O4_11 
REMARK    6  A    between atoms: O4_11  and  P1_12 
REMARK    7  A    between atoms: C5_17  and  C6_18 
REMARK    8  A    between atoms: C6_18  and  O9_19 
REMARK    9  A    between atoms: O9_19  and  P2_20 
ROOT
HETATM    1  C1  UNL     1      11.496   0.764  -2.510  1.00  0.00     0.183 C 
HETATM    2  C2  UNL     1      10.424   0.768  -1.478  1.00  0.00     0.213 C 
HETATM    3  C3  UNL     1      11.127   1.559  -0.307  1.00  0.00     0.213 C 
HETATM    4  O8  UNL     1      11.840   2.485  -0.920  1.00  0.00    -0.341 OA
HETATM    5  C5  UNL     1      12.197   2.022  -2.173  1.00  0.00     0.181 C 
ENDROOT
BRANCH   3   6
HETATM    6  O3  UNL     1      10.020   2.004   0.419  1.00  0.00    -0.362 OA
ATOM      7  H3  UNL     1      10.427   2.245   1.244  1.00  0.00     0.213 HD
ENDBRANCH   3   6
BRANCH   3   8
HETATM    8  C4  UNL     1      11.858   0.551   0.541  1.00  0.00     0.253 C 
BRANCH   8   9
HETATM    9  O4  UNL     1      11.663   0.901   1.861  1.00  0.00    -0.277 OA
BRANCH   9  10
HETATM   10  P1  UNL     1      11.385  -0.161   2.925  1.00  0.00     0.422 P 
HETATM   11  O5  UNL     1      12.543   0.463   3.905  1.00  0.00    -0.617 OA
HETATM   12  O6  UNL     1       9.830   0.501   3.050  1.00  0.00    -0.617 OA
HETATM   13  O7  UNL     1      11.586  -1.419   1.956  1.00  0.00    -0.617 OA
ENDBRANCH   9  10
ENDBRANCH   8   9
ENDBRANCH   3   8
BRANCH   2  14
HETATM   14  O2  UNL     1       9.294   1.496  -1.832  1.00  0.00    -0.387 OA
ATOM     15  H2  UNL     1       8.689   1.027  -2.394  1.00  0.00     0.210 HD
ENDBRANCH   2  14
BRANCH   1  16
HETATM   16  O1  UNL     1      12.280  -0.373  -2.531  1.00  0.00    -0.390 OA
ATOM     17  H1  UNL     1      12.971  -0.370  -3.182  1.00  0.00     0.210 HD
ENDBRANCH   1  16
BRANCH   5  18
HETATM   18  C6  UNL     1      11.706   3.100  -3.213  1.00  0.00     0.217 C 
BRANCH  18  19
HETATM   19  O9  UNL     1      10.981   3.945  -2.375  1.00  0.00    -0.280 OA
BRANCH  19  20
HETATM   20  P2  UNL     1       9.819   4.701  -2.932  1.00  0.00     0.422 P 
HETATM   21  O10 UNL     1       9.054   4.437  -1.461  1.00  0.00    -0.617 OA
HETATM   22  O11 UNL     1      10.671   6.049  -3.216  1.00  0.00    -0.617 OA
HETATM   23  O12 UNL     1       9.553   3.565  -4.077  1.00  0.00    -0.617 OA
ENDBRANCH  19  20
ENDBRANCH  18  19
ENDBRANCH   5  18
TORSDOF 9
ENDMDL
