MODEL 1
REMARK VINA RESULT: -7.554352412      0.000      0.000
REMARK  7 active torsions:
REMARK  status: ('A' for Active; 'I' for Inactive)
REMARK    1  A    between atoms: O1_1  and  C1_3 
REMARK    2  A    between atoms: C2_4  and  O2_5 
REMARK    3  A    between atoms: C3_7  and  O3_8 
REMARK    4  A    between atoms: C4_10  and  O4_11 
REMARK    5  A    between atoms: C5_14  and  C6_15 
REMARK    6  A    between atoms: C6_15  and  O6_16 
REMARK    7  A    between atoms: O6_16  and  P1_17 
ROOT
HETATM    1  C1  UNL     1      69.108  84.159  62.822  1.00  0.00     0.180 C 
HETATM    2  C2  UNL     1      68.620  85.536  62.418  1.00  0.00     0.183 C 
HETATM    3  C3  UNL     1      67.674  85.407  61.263  1.00  0.00     0.204 C 
HETATM    4  C4  UNL     1      68.368  84.611  60.177  1.00  0.00     0.288 C 
HETATM    5  O5  UNL     1      68.690  83.342  60.676  1.00  0.00    -0.349 OA
HETATM    6  C5  UNL     1      69.739  83.543  61.597  1.00  0.00     0.180 C 
ENDROOT
BRANCH   6   7
HETATM    7  C6  UNL     1      70.551  82.358  61.845  1.00  0.00     0.217 C 
BRANCH   7   8
HETATM    8  O6  UNL     1      70.088  81.199  61.179  1.00  0.00    -0.280 OA
BRANCH   8   9
HETATM    9  P1  UNL     1      70.102  79.960  62.077  1.00  0.00     0.422 P 
HETATM   10  O7  UNL     1      70.422  79.019  60.748  1.00  0.00    -0.617 OA
HETATM   11  O8  UNL     1      68.546  80.130  62.544  1.00  0.00    -0.617 OA
HETATM   12  O9  UNL     1      71.325  80.569  62.998  1.00  0.00    -0.617 OA
ENDBRANCH   8   9
ENDBRANCH   7   8
ENDBRANCH   6   7
BRANCH   1  13
HETATM   13  O1  UNL     1      70.071  84.327  63.800  1.00  0.00    -0.390 OA
ATOM     14  H1  UNL     1      70.061  83.552  64.349  1.00  0.00     0.210 HD
ENDBRANCH   1  13
BRANCH   2  15
HETATM   15  O2  UNL     1      68.067  86.224  63.493  1.00  0.00    -0.390 OA
ATOM     16  H2  UNL     1      68.378  87.121  63.536  1.00  0.00     0.210 HD
ENDBRANCH   2  15
BRANCH   4  17
HETATM   17  O4  UNL     1      67.583  84.549  59.051  1.00  0.00    -0.369 OA
ATOM     18  H4  UNL     1      68.102  84.285  58.301  1.00  0.00     0.212 HD
ENDBRANCH   4  17
BRANCH   3  19
HETATM   19  O3  UNL     1      67.336  86.663  60.760  1.00  0.00    -0.388 OA
ATOM     20  H3  UNL     1      66.638  87.052  61.273  1.00  0.00     0.210 HD
ENDBRANCH   3  19
TORSDOF 7
ENDMDL
