MODEL 6
REMARK VINA RESULT: -6.566674063      1.210      2.091
REMARK  7 active torsions:
REMARK  status: ('A' for Active; 'I' for Inactive)
REMARK    1  A    between atoms: O1_1  and  C1_3 
REMARK    2  A    between atoms: C2_4  and  O2_5 
REMARK    3  A    between atoms: C3_7  and  O3_8 
REMARK    4  A    between atoms: C4_10  and  O4_11 
REMARK    5  A    between atoms: C5_14  and  C6_15 
REMARK    6  A    between atoms: C6_15  and  O6_16 
REMARK    7  A    between atoms: O6_16  and  P1_17 
ROOT
HETATM    1  C1  UNL     1      69.813  83.091  63.122  1.00  0.00     0.180 C 
HETATM    2  C2  UNL     1      70.120  84.572  63.024  1.00  0.00     0.183 C 
HETATM    3  C3  UNL     1      68.871  85.313  62.653  1.00  0.00     0.204 C 
HETATM    4  C4  UNL     1      68.304  84.675  61.401  1.00  0.00     0.288 C 
HETATM    5  O5  UNL     1      68.002  83.333  61.669  1.00  0.00    -0.349 OA
HETATM    6  C5  UNL     1      69.243  82.674  61.788  1.00  0.00     0.180 C 
ENDROOT
BRANCH   6   7
HETATM    7  C6  UNL     1      69.179  81.235  61.562  1.00  0.00     0.217 C 
BRANCH   7   8
HETATM    8  O6  UNL     1      70.377  80.684  61.049  1.00  0.00    -0.280 OA
BRANCH   8   9
HETATM    9  P1  UNL     1      70.679  79.298  61.623  1.00  0.00     0.422 P 
HETATM   10  O7  UNL     1      69.230  79.334  62.432  1.00  0.00    -0.617 OA
HETATM   11  O8  UNL     1      72.018  79.787  62.421  1.00  0.00    -0.617 OA
HETATM   12  O9  UNL     1      70.794  78.636  60.119  1.00  0.00    -0.617 OA
ENDBRANCH   8   9
ENDBRANCH   7   8
ENDBRANCH   6   7
BRANCH   1  13
HETATM   13  O1  UNL     1      71.008  82.429  63.339  1.00  0.00    -0.390 OA
ATOM     14  H1  UNL     1      70.837  81.497  63.267  1.00  0.00     0.210 HD
ENDBRANCH   1  13
BRANCH   2  15
HETATM   15  O2  UNL     1      70.707  85.056  64.188  1.00  0.00    -0.390 OA
ATOM     16  H2  UNL     1      70.833  85.997  64.155  1.00  0.00     0.210 HD
ENDBRANCH   2  15
BRANCH   4  17
HETATM   17  O4  UNL     1      67.213  85.380  60.956  1.00  0.00    -0.369 OA
ATOM     18  H4  UNL     1      66.421  85.064  61.374  1.00  0.00     0.212 HD
ENDBRANCH   4  17
BRANCH   3  19
HETATM   19  O3  UNL     1      69.153  86.654  62.392  1.00  0.00    -0.388 OA
ATOM     20  H3  UNL     1      68.586  87.220  62.900  1.00  0.00     0.210 HD
ENDBRANCH   3  19
TORSDOF 7
ENDMDL
