MODEL 8
REMARK VINA RESULT: -6.408668780      2.509      5.339
REMARK  7 active torsions:
REMARK  status: ('A' for Active; 'I' for Inactive)
REMARK    1  A    between atoms: O1_1  and  C1_3 
REMARK    2  A    between atoms: C2_4  and  O2_5 
REMARK    3  A    between atoms: C3_7  and  O3_8 
REMARK    4  A    between atoms: C4_10  and  O4_11 
REMARK    5  A    between atoms: C5_14  and  C6_15 
REMARK    6  A    between atoms: C6_15  and  O6_16 
REMARK    7  A    between atoms: O6_16  and  P1_17 
ROOT
HETATM    1  C1  UNL     1      69.247  85.255  61.805  1.00  0.00     0.180 C 
HETATM    2  C2  UNL     1      69.514  84.417  63.039  1.00  0.00     0.183 C 
HETATM    3  C3  UNL     1      70.263  83.180  62.644  1.00  0.00     0.204 C 
HETATM    4  C4  UNL     1      69.485  82.495  61.540  1.00  0.00     0.288 C 
HETATM    5  O5  UNL     1      69.385  83.363  60.445  1.00  0.00    -0.349 OA
HETATM    6  C5  UNL     1      68.489  84.379  60.837  1.00  0.00     0.180 C 
ENDROOT
BRANCH   6   7
HETATM    7  C6  UNL     1      67.859  85.081  59.725  1.00  0.00     0.217 C 
BRANCH   7   8
HETATM    8  O6  UNL     1      66.551  85.540  60.009  1.00  0.00    -0.280 OA
BRANCH   8   9
HETATM    9  P1  UNL     1      66.115  86.678  59.084  1.00  0.00     0.422 P 
HETATM   10  O7  UNL     1      67.705  87.110  58.889  1.00  0.00    -0.617 OA
HETATM   11  O8  UNL     1      65.244  87.443  60.235  1.00  0.00    -0.617 OA
HETATM   12  O9  UNL     1      65.388  85.629  58.041  1.00  0.00    -0.617 OA
ENDBRANCH   8   9
ENDBRANCH   7   8
ENDBRANCH   6   7
BRANCH   1  13
HETATM   13  O1  UNL     1      68.449  86.318  62.185  1.00  0.00    -0.390 OA
ATOM     14  H1  UNL     1      68.297  86.243  63.120  1.00  0.00     0.210 HD
ENDBRANCH   1  13
BRANCH   2  15
HETATM   15  O2  UNL     1      70.163  85.147  64.029  1.00  0.00    -0.390 OA
ATOM     16  H2  UNL     1      70.780  84.612  64.515  1.00  0.00     0.210 HD
ENDBRANCH   2  15
BRANCH   4  17
HETATM   17  O4  UNL     1      70.073  81.298  61.210  1.00  0.00    -0.369 OA
ATOM     18  H4  UNL     1      70.133  81.208  60.267  1.00  0.00     0.212 HD
ENDBRANCH   4  17
BRANCH   3  19
HETATM   19  O3  UNL     1      70.379  82.309  63.727  1.00  0.00    -0.388 OA
ATOM     20  H3  UNL     1      71.238  82.382  64.125  1.00  0.00     0.210 HD
ENDBRANCH   3  19
TORSDOF 7
ENDMDL
