MODEL 5
REMARK VINA RESULT: -6.659455175      1.212      2.028
REMARK  7 active torsions:
REMARK  status: ('A' for Active; 'I' for Inactive)
REMARK    1  A    between atoms: O1_1  and  C1_3 
REMARK    2  A    between atoms: C2_4  and  O2_5 
REMARK    3  A    between atoms: C3_7  and  O3_8 
REMARK    4  A    between atoms: C4_10  and  O4_11 
REMARK    5  A    between atoms: C5_14  and  C6_15 
REMARK    6  A    between atoms: C6_15  and  O6_16 
REMARK    7  A    between atoms: O6_16  and  P1_17 
ROOT
HETATM    1  C1  UNL     1      69.782  83.120  63.158  1.00  0.00     0.180 C 
HETATM    2  C2  UNL     1      70.098  84.598  63.041  1.00  0.00     0.183 C 
HETATM    3  C3  UNL     1      68.860  85.338  62.636  1.00  0.00     0.204 C 
HETATM    4  C4  UNL     1      68.311  84.683  61.386  1.00  0.00     0.288 C 
HETATM    5  O5  UNL     1      67.998  83.347  61.670  1.00  0.00    -0.349 OA
HETATM    6  C5  UNL     1      69.233  82.684  61.821  1.00  0.00     0.180 C 
ENDROOT
BRANCH   6   7
HETATM    7  C6  UNL     1      69.166  81.242  61.617  1.00  0.00     0.217 C 
BRANCH   7   8
HETATM    8  O6  UNL     1      70.346  80.688  61.068  1.00  0.00    -0.280 OA
BRANCH   8   9
HETATM    9  P1  UNL     1      70.661  79.301  61.632  1.00  0.00     0.422 P 
HETATM   10  O7  UNL     1      72.008  79.924  62.374  1.00  0.00    -0.617 OA
HETATM   11  O8  UNL     1      70.841  78.610  60.163  1.00  0.00    -0.617 OA
HETATM   12  O9  UNL     1      69.217  79.228  62.421  1.00  0.00    -0.617 OA
ENDBRANCH   8   9
ENDBRANCH   7   8
ENDBRANCH   6   7
BRANCH   1  13
HETATM   13  O1  UNL     1      70.970  82.456  63.407  1.00  0.00    -0.390 OA
ATOM     14  H1  UNL     1      70.757  81.553  63.612  1.00  0.00     0.210 HD
ENDBRANCH   1  13
BRANCH   2  15
HETATM   15  O2  UNL     1      70.668  85.098  64.207  1.00  0.00    -0.390 OA
ATOM     16  H2  UNL     1      70.802  84.416  64.855  1.00  0.00     0.210 HD
ENDBRANCH   2  15
BRANCH   4  17
HETATM   17  O4  UNL     1      67.231  85.386  60.910  1.00  0.00    -0.369 OA
ATOM     18  H4  UNL     1      67.311  85.522  59.973  1.00  0.00     0.212 HD
ENDBRANCH   4  17
BRANCH   3  19
HETATM   19  O3  UNL     1      69.154  86.673  62.358  1.00  0.00    -0.388 OA
ATOM     20  H3  UNL     1      69.436  86.773  61.457  1.00  0.00     0.210 HD
ENDBRANCH   3  19
TORSDOF 7
ENDMDL
