MODEL 9
REMARK VINA RESULT: -6.197797518      2.385      5.261
REMARK  7 active torsions:
REMARK  status: ('A' for Active; 'I' for Inactive)
REMARK    1  A    between atoms: O1_1  and  C1_3 
REMARK    2  A    between atoms: C2_4  and  O2_5 
REMARK    3  A    between atoms: C3_7  and  O3_8 
REMARK    4  A    between atoms: C4_10  and  O4_11 
REMARK    5  A    between atoms: C5_14  and  C6_15 
REMARK    6  A    between atoms: C6_15  and  O6_16 
REMARK    7  A    between atoms: O6_16  and  P1_17 
ROOT
HETATM    1  C1  UNL     1      69.795  84.682  61.817  1.00  0.00     0.180 C 
HETATM    2  C2  UNL     1      70.091  83.882  63.070  1.00  0.00     0.183 C 
HETATM    3  C3  UNL     1      70.402  82.465  62.691  1.00  0.00     0.204 C 
HETATM    4  C4  UNL     1      69.263  81.950  61.837  1.00  0.00     0.288 C 
HETATM    5  O5  UNL     1      69.160  82.741  60.685  1.00  0.00    -0.349 OA
HETATM    6  C5  UNL     1      68.654  83.985  61.114  1.00  0.00     0.180 C 
ENDROOT
BRANCH   6   7
HETATM    7  C6  UNL     1      68.005  84.761  60.064  1.00  0.00     0.217 C 
BRANCH   7   8
HETATM    8  O6  UNL     1      66.806  85.388  60.477  1.00  0.00    -0.280 OA
BRANCH   8   9
HETATM    9  P1  UNL     1      66.741  86.860  60.063  1.00  0.00     0.422 P 
HETATM   10  O7  UNL     1      65.142  86.663  59.668  1.00  0.00    -0.617 OA
HETATM   11  O8  UNL     1      67.852  86.701  58.876  1.00  0.00    -0.617 OA
HETATM   12  O9  UNL     1      67.187  87.363  61.567  1.00  0.00    -0.617 OA
ENDBRANCH   8   9
ENDBRANCH   7   8
ENDBRANCH   6   7
BRANCH   1  13
HETATM   13  O1  UNL     1      69.390  85.944  62.212  1.00  0.00    -0.390 OA
ATOM     14  H1  UNL     1      68.567  86.131  61.775  1.00  0.00     0.210 HD
ENDBRANCH   1  13
BRANCH   2  15
HETATM   15  O2  UNL     1      71.096  84.469  63.831  1.00  0.00    -0.390 OA
ATOM     16  H2  UNL     1      71.484  83.851  64.440  1.00  0.00     0.210 HD
ENDBRANCH   2  15
BRANCH   4  17
HETATM   17  O4  UNL     1      69.445  80.620  61.546  1.00  0.00    -0.369 OA
ATOM     18  H4  UNL     1      70.356  80.377  61.663  1.00  0.00     0.212 HD
ENDBRANCH   4  17
BRANCH   3  19
HETATM   19  O3  UNL     1      70.516  81.666  63.828  1.00  0.00    -0.388 OA
ATOM     20  H3  UNL     1      70.959  80.852  63.621  1.00  0.00     0.210 HD
ENDBRANCH   3  19
TORSDOF 7
ENDMDL
