MODEL 2
REMARK VINA RESULT: -7.502542616      0.453      1.298
REMARK  7 active torsions:
REMARK  status: ('A' for Active; 'I' for Inactive)
REMARK    1  A    between atoms: O1_1  and  C1_3 
REMARK    2  A    between atoms: C2_4  and  O2_5 
REMARK    3  A    between atoms: C3_7  and  O3_8 
REMARK    4  A    between atoms: C4_10  and  O4_11 
REMARK    5  A    between atoms: C5_14  and  C6_15 
REMARK    6  A    between atoms: C6_15  and  O6_16 
REMARK    7  A    between atoms: O6_16  and  P1_17 
ROOT
HETATM    1  C1  UNL     1      69.322  83.953  62.846  1.00  0.00     0.180 C 
HETATM    2  C2  UNL     1      68.896  85.384  62.583  1.00  0.00     0.183 C 
HETATM    3  C3  UNL     1      67.859  85.402  61.502  1.00  0.00     0.204 C 
HETATM    4  C4  UNL     1      68.415  84.653  60.308  1.00  0.00     0.288 C 
HETATM    5  O5  UNL     1      68.690  83.332  60.686  1.00  0.00    -0.349 OA
HETATM    6  C5  UNL     1      69.816  83.397  61.532  1.00  0.00     0.180 C 
ENDROOT
BRANCH   6   7
HETATM    7  C6  UNL     1      70.565  82.150  61.628  1.00  0.00     0.217 C 
BRANCH   7   8
HETATM    8  O6  UNL     1      69.800  81.001  61.319  1.00  0.00    -0.280 OA
BRANCH   8   9
HETATM    9  P1  UNL     1      69.689  80.035  62.501  1.00  0.00     0.422 P 
HETATM   10  O7  UNL     1      70.934  80.834  63.253  1.00  0.00    -0.617 OA
HETATM   11  O8  UNL     1      70.049  78.713  61.612  1.00  0.00    -0.617 OA
HETATM   12  O9  UNL     1      68.122  80.459  62.776  1.00  0.00    -0.617 OA
ENDBRANCH   8   9
ENDBRANCH   7   8
ENDBRANCH   6   7
BRANCH   1  13
HETATM   13  O1  UNL     1      70.365  83.987  63.753  1.00  0.00    -0.390 OA
ATOM     14  H1  UNL     1      71.020  84.587  63.416  1.00  0.00     0.210 HD
ENDBRANCH   1  13
BRANCH   2  15
HETATM   15  O2  UNL     1      68.472  86.018  63.746  1.00  0.00    -0.390 OA
ATOM     16  H2  UNL     1      67.549  85.867  63.915  1.00  0.00     0.210 HD
ENDBRANCH   2  15
BRANCH   4  17
HETATM   17  O4  UNL     1      67.545  84.726  59.248  1.00  0.00    -0.369 OA
ATOM     18  H4  UNL     1      68.017  84.913  58.445  1.00  0.00     0.212 HD
ENDBRANCH   4  17
BRANCH   3  19
HETATM   19  O3  UNL     1      67.567  86.711  61.121  1.00  0.00    -0.388 OA
ATOM     20  H3  UNL     1      67.518  86.782  60.175  1.00  0.00     0.210 HD
ENDBRANCH   3  19
TORSDOF 7
ENDMDL
