MODEL 7
REMARK VINA RESULT: -6.510078828      2.506      5.333
REMARK  7 active torsions:
REMARK  status: ('A' for Active; 'I' for Inactive)
REMARK    1  A    between atoms: O1_1  and  C1_3 
REMARK    2  A    between atoms: C2_4  and  O2_5 
REMARK    3  A    between atoms: C3_7  and  O3_8 
REMARK    4  A    between atoms: C4_10  and  O4_11 
REMARK    5  A    between atoms: C5_14  and  C6_15 
REMARK    6  A    between atoms: C6_15  and  O6_16 
REMARK    7  A    between atoms: O6_16  and  P1_17 
ROOT
HETATM    1  C1  UNL     1      69.275  85.225  61.807  1.00  0.00     0.180 C 
HETATM    2  C2  UNL     1      69.534  84.389  63.045  1.00  0.00     0.183 C 
HETATM    3  C3  UNL     1      70.277  83.146  62.656  1.00  0.00     0.204 C 
HETATM    4  C4  UNL     1      69.497  82.462  61.552  1.00  0.00     0.288 C 
HETATM    5  O5  UNL     1      69.405  83.327  60.454  1.00  0.00    -0.349 OA
HETATM    6  C5  UNL     1      68.514  84.350  60.840  1.00  0.00     0.180 C 
ENDROOT
BRANCH   6   7
HETATM    7  C6  UNL     1      67.891  85.053  59.725  1.00  0.00     0.217 C 
BRANCH   7   8
HETATM    8  O6  UNL     1      66.594  85.540  60.012  1.00  0.00    -0.280 OA
BRANCH   8   9
HETATM    9  P1  UNL     1      66.177  86.680  59.080  1.00  0.00     0.422 P 
HETATM   10  O7  UNL     1      65.332  87.372  60.330  1.00  0.00    -0.617 OA
HETATM   11  O8  UNL     1      65.367  85.705  58.051  1.00  0.00    -0.617 OA
HETATM   12  O9  UNL     1      67.744  87.093  58.786  1.00  0.00    -0.617 OA
ENDBRANCH   8   9
ENDBRANCH   7   8
ENDBRANCH   6   7
BRANCH   1  13
HETATM   13  O1  UNL     1      68.482  86.294  62.183  1.00  0.00    -0.390 OA
ATOM     14  H1  UNL     1      67.759  86.344  61.569  1.00  0.00     0.210 HD
ENDBRANCH   1  13
BRANCH   2  15
HETATM   15  O2  UNL     1      70.185  85.118  64.034  1.00  0.00    -0.390 OA
ATOM     16  H2  UNL     1      69.875  84.890  64.902  1.00  0.00     0.210 HD
ENDBRANCH   2  15
BRANCH   4  17
HETATM   17  O4  UNL     1      70.079  81.261  61.227  1.00  0.00    -0.369 OA
ATOM     18  H4  UNL     1      69.968  81.079  60.301  1.00  0.00     0.212 HD
ENDBRANCH   4  17
BRANCH   3  19
HETATM   19  O3  UNL     1      70.384  82.277  63.742  1.00  0.00    -0.388 OA
ATOM     20  H3  UNL     1      71.296  82.133  63.965  1.00  0.00     0.210 HD
ENDBRANCH   3  19
TORSDOF 7
ENDMDL
