MODEL 1
REMARK VINA RESULT: -8.269671139      0.000      0.000
REMARK  8 active torsions:
REMARK  status: ('A' for Active; 'I' for Inactive)
REMARK    1  A    between atoms: O1_1  and  C1_3 
REMARK    2  A    between atoms: C1_3  and  C2_4 
REMARK    3  A    between atoms: C2_4  and  O2_5 
REMARK    4  A    between atoms: C3_8  and  C4_9 
REMARK    5  A    between atoms: C4_9  and  O4_10 
REMARK    6  A    between atoms: O4_10  and  P1_11 
REMARK    7  A    between atoms: C5_15  and  O8_16 
REMARK    8  A    between atoms: C6_18  and  O9_19 
ROOT
HETATM    1  C2  UNL     1      68.298  84.494  62.030  1.00  0.00     0.213 C 
HETATM    2  O3  UNL     1      68.880  83.542  61.243  1.00  0.00    -0.341 OA
HETATM    3  C3  UNL     1      69.976  83.020  61.895  1.00  0.00     0.181 C 
HETATM    4  C5  UNL     1      70.282  83.898  63.074  1.00  0.00     0.183 C 
HETATM    5  C6  UNL     1      69.471  85.136  62.739  1.00  0.00     0.213 C 
ENDROOT
BRANCH   3   6
HETATM    6  C4  UNL     1      69.844  81.580  62.243  1.00  0.00     0.217 C 
BRANCH   6   7
HETATM    7  O4  UNL     1      70.577  80.757  61.380  1.00  0.00    -0.280 OA
BRANCH   7   8
HETATM    8  P1  UNL     1      70.769  79.297  61.843  1.00  0.00     0.422 P 
HETATM    9  O5  UNL     1      71.081  77.950  62.521  1.00  0.00    -0.617 OA
HETATM   10  O6  UNL     1      69.423  79.456  62.802  1.00  0.00    -0.617 OA
HETATM   11  O7  UNL     1      70.596  78.740  60.332  1.00  0.00    -0.617 OA
ENDBRANCH   7   8
ENDBRANCH   6   7
ENDBRANCH   3   6
BRANCH   4  12
HETATM   12  O8  UNL     1      71.639  84.181  63.209  1.00  0.00    -0.390 OA
ATOM     13  H8  UNL     1      71.811  85.089  63.429  1.00  0.00     0.210 HD
ENDBRANCH   4  12
BRANCH   1  14
HETATM   14  C1  UNL     1      67.526  85.532  61.244  1.00  0.00     0.235 C 
BRANCH  14  15
HETATM   15  O1  UNL     1      67.888  86.816  61.576  1.00  0.00    -0.395 OA
ATOM     16  H1  UNL     1      68.389  87.240  60.890  1.00  0.00     0.209 HD
ENDBRANCH  14  15
ENDBRANCH   1  14
BRANCH   1  17
HETATM   17  O2  UNL     1      67.479  83.912  62.999  1.00  0.00    -0.362 OA
ATOM     18  H2  UNL     1      67.734  83.010  63.148  1.00  0.00     0.213 HD
ENDBRANCH   1  17
BRANCH   5  19
HETATM   19  O9  UNL     1      69.078  85.833  63.873  1.00  0.00    -0.387 OA
ATOM     20  H9  UNL     1      68.235  86.257  63.758  1.00  0.00     0.210 HD
ENDBRANCH   5  19
TORSDOF 8
ENDMDL
