MODEL 6
REMARK VINA RESULT: -7.551652555      2.308      5.721
REMARK  8 active torsions:
REMARK  status: ('A' for Active; 'I' for Inactive)
REMARK    1  A    between atoms: O1_1  and  C1_3 
REMARK    2  A    between atoms: C1_3  and  C2_4 
REMARK    3  A    between atoms: C2_4  and  O2_5 
REMARK    4  A    between atoms: C3_8  and  C4_9 
REMARK    5  A    between atoms: C4_9  and  O4_10 
REMARK    6  A    between atoms: O4_10  and  P1_11 
REMARK    7  A    between atoms: C5_15  and  O8_16 
REMARK    8  A    between atoms: C6_18  and  O9_19 
ROOT
HETATM    1  C2  UNL     1      70.783  80.595  62.344  1.00  0.00     0.213 C 
HETATM    2  O3  UNL     1      70.480  81.453  61.325  1.00  0.00    -0.341 OA
HETATM    3  C3  UNL     1      69.596  82.406  61.781  1.00  0.00     0.181 C 
HETATM    4  C5  UNL     1      69.079  81.966  63.119  1.00  0.00     0.183 C 
HETATM    5  C6  UNL     1      69.491  80.505  63.129  1.00  0.00     0.213 C 
ENDROOT
BRANCH   3   6
HETATM    6  C4  UNL     1      70.144  83.789  61.779  1.00  0.00     0.217 C 
BRANCH   6   7
HETATM    7  O4  UNL     1      69.728  84.526  62.894  1.00  0.00    -0.280 OA
BRANCH   7   8
HETATM    8  P1  UNL     1      68.759  85.693  62.607  1.00  0.00     0.422 P 
HETATM    9  O5  UNL     1      68.015  86.990  62.241  1.00  0.00    -0.617 OA
HETATM   10  O6  UNL     1      68.741  85.244  61.008  1.00  0.00    -0.617 OA
HETATM   11  O7  UNL     1      67.642  85.081  63.608  1.00  0.00    -0.617 OA
ENDBRANCH   7   8
ENDBRANCH   6   7
ENDBRANCH   3   6
BRANCH   4  12
HETATM   12  O8  UNL     1      67.702  82.122  63.254  1.00  0.00    -0.390 OA
ATOM     13  H8  UNL     1      67.367  81.791  64.079  1.00  0.00     0.210 HD
ENDBRANCH   4  12
BRANCH   1  14
HETATM   14  C1  UNL     1      71.204  79.222  61.867  1.00  0.00     0.235 C 
BRANCH  14  15
HETATM   15  O1  UNL     1      70.191  78.299  61.969  1.00  0.00    -0.395 OA
ATOM     16  H1  UNL     1      69.878  78.202  62.860  1.00  0.00     0.209 HD
ENDBRANCH  14  15
ENDBRANCH   1  14
BRANCH   1  17
HETATM   17  O2  UNL     1      71.757  81.137  63.183  1.00  0.00    -0.362 OA
ATOM     18  H2  UNL     1      72.417  80.485  63.387  1.00  0.00     0.213 HD
ENDBRANCH   1  17
BRANCH   5  19
HETATM   19  O9  UNL     1      69.695  80.023  64.415  1.00  0.00    -0.387 OA
ATOM     20  H9  UNL     1      68.938  79.551  64.744  1.00  0.00     0.210 HD
ENDBRANCH   5  19
TORSDOF 8
ENDMDL
