MODEL 8
REMARK VINA RESULT: -7.449398889      2.251      5.463
REMARK  8 active torsions:
REMARK  status: ('A' for Active; 'I' for Inactive)
REMARK    1  A    between atoms: O1_1  and  C1_3 
REMARK    2  A    between atoms: C1_3  and  C2_4 
REMARK    3  A    between atoms: C2_4  and  O2_5 
REMARK    4  A    between atoms: C3_8  and  C4_9 
REMARK    5  A    between atoms: C4_9  and  O4_10 
REMARK    6  A    between atoms: O4_10  and  P1_11 
REMARK    7  A    between atoms: C5_15  and  O8_16 
REMARK    8  A    between atoms: C6_18  and  O9_19 
ROOT
HETATM    1  C2  UNL     1      69.960  81.119  62.303  1.00  0.00     0.213 C 
HETATM    2  O3  UNL     1      68.953  82.036  62.199  1.00  0.00    -0.341 OA
HETATM    3  C3  UNL     1      69.492  83.303  62.169  1.00  0.00     0.181 C 
HETATM    4  C5  UNL     1      70.937  83.207  62.559  1.00  0.00     0.183 C 
HETATM    5  C6  UNL     1      70.988  81.817  63.167  1.00  0.00     0.213 C 
ENDROOT
BRANCH   3   6
HETATM    6  C4  UNL     1      69.267  84.026  60.888  1.00  0.00     0.217 C 
BRANCH   6   7
HETATM    7  O4  UNL     1      68.998  85.385  61.086  1.00  0.00    -0.280 OA
BRANCH   7   8
HETATM    8  P1  UNL     1      68.174  85.734  62.343  1.00  0.00     0.422 P 
HETATM    9  O5  UNL     1      67.585  86.043  63.732  1.00  0.00    -0.617 OA
HETATM   10  O6  UNL     1      68.754  87.287  62.254  1.00  0.00    -0.617 OA
HETATM   11  O7  UNL     1      66.783  85.370  61.598  1.00  0.00    -0.617 OA
ENDBRANCH   7   8
ENDBRANCH   6   7
ENDBRANCH   3   6
BRANCH   4  12
HETATM   12  O8  UNL     1      71.327  84.190  63.466  1.00  0.00    -0.390 OA
ATOM     13  H8  UNL     1      71.770  83.839  64.230  1.00  0.00     0.210 HD
ENDBRANCH   4  12
BRANCH   1  14
HETATM   14  C1  UNL     1      69.526  79.821  62.948  1.00  0.00     0.235 C 
BRANCH  14  15
HETATM   15  O1  UNL     1      69.761  78.732  62.143  1.00  0.00    -0.395 OA
ATOM     16  H1  UNL     1      70.384  78.127  62.527  1.00  0.00     0.209 HD
ENDBRANCH  14  15
ENDBRANCH   1  14
BRANCH   1  17
HETATM   17  O2  UNL     1      70.542  80.871  61.059  1.00  0.00    -0.362 OA
ATOM     18  H2  UNL     1      70.497  79.946  60.852  1.00  0.00     0.213 HD
ENDBRANCH   1  17
BRANCH   5  19
HETATM   19  O9  UNL     1      72.245  81.237  63.054  1.00  0.00    -0.387 OA
ATOM     20  H9  UNL     1      72.926  81.786  63.425  1.00  0.00     0.210 HD
ENDBRANCH   5  19
TORSDOF 8
ENDMDL
