MODEL 5
REMARK VINA RESULT: -7.578542387      3.149      5.827
REMARK  8 active torsions:
REMARK  status: ('A' for Active; 'I' for Inactive)
REMARK    1  A    between atoms: O1_1  and  C1_3 
REMARK    2  A    between atoms: C1_3  and  C2_4 
REMARK    3  A    between atoms: C2_4  and  O2_5 
REMARK    4  A    between atoms: C3_8  and  C4_9 
REMARK    5  A    between atoms: C4_9  and  O4_10 
REMARK    6  A    between atoms: O4_10  and  P1_11 
REMARK    7  A    between atoms: C5_15  and  O8_16 
REMARK    8  A    between atoms: C6_18  and  O9_19 
ROOT
HETATM    1  C2  UNL     1      69.939  84.013  62.217  1.00  0.00     0.213 C 
HETATM    2  O3  UNL     1      68.723  83.931  61.599  1.00  0.00    -0.341 OA
HETATM    3  C3  UNL     1      67.899  84.923  62.082  1.00  0.00     0.181 C 
HETATM    4  C5  UNL     1      68.543  85.515  63.301  1.00  0.00     0.183 C 
HETATM    5  C6  UNL     1      69.595  84.468  63.619  1.00  0.00     0.213 C 
ENDROOT
BRANCH   3   6
HETATM    6  C4  UNL     1      67.508  85.934  61.064  1.00  0.00     0.217 C 
BRANCH   6   7
HETATM    7  O4  UNL     1      66.820  85.364  59.987  1.00  0.00    -0.280 OA
BRANCH   7   8
HETATM    8  P1  UNL     1      66.399  86.336  58.865  1.00  0.00     0.422 P 
HETATM    9  O5  UNL     1      65.768  87.137  57.711  1.00  0.00    -0.617 OA
HETATM   10  O6  UNL     1      65.344  87.056  59.927  1.00  0.00    -0.617 OA
HETATM   11  O7  UNL     1      67.904  86.920  58.733  1.00  0.00    -0.617 OA
ENDBRANCH   7   8
ENDBRANCH   6   7
ENDBRANCH   3   6
BRANCH   4  12
HETATM   12  O8  UNL     1      67.654  85.701  64.357  1.00  0.00    -0.390 OA
ATOM     13  H8  UNL     1      67.077  84.959  64.495  1.00  0.00     0.210 HD
ENDBRANCH   4  12
BRANCH   1  14
HETATM   14  C1  UNL     1      70.680  82.694  62.259  1.00  0.00     0.235 C 
BRANCH  14  15
HETATM   15  O1  UNL     1      70.968  82.297  63.543  1.00  0.00    -0.395 OA
ATOM     16  H1  UNL     1      70.449  81.549  63.815  1.00  0.00     0.209 HD
ENDBRANCH  14  15
ENDBRANCH   1  14
BRANCH   1  17
HETATM   17  O2  UNL     1      70.734  84.997  61.629  1.00  0.00    -0.362 OA
ATOM     18  H2  UNL     1      71.597  84.652  61.434  1.00  0.00     0.213 HD
ENDBRANCH   1  17
BRANCH   5  19
HETATM   19  O9  UNL     1      70.693  85.005  64.277  1.00  0.00    -0.387 OA
ATOM     20  H9  UNL     1      70.894  85.884  63.979  1.00  0.00     0.210 HD
ENDBRANCH   5  19
TORSDOF 8
ENDMDL
