MODEL 2
REMARK VINA RESULT: -8.225091206      1.296      1.394
REMARK  8 active torsions:
REMARK  status: ('A' for Active; 'I' for Inactive)
REMARK    1  A    between atoms: O1_1  and  C1_3 
REMARK    2  A    between atoms: C1_3  and  C2_4 
REMARK    3  A    between atoms: C2_4  and  O2_5 
REMARK    4  A    between atoms: C3_8  and  C4_9 
REMARK    5  A    between atoms: C4_9  and  O4_10 
REMARK    6  A    between atoms: O4_10  and  P1_11 
REMARK    7  A    between atoms: C5_15  and  O8_16 
REMARK    8  A    between atoms: C6_18  and  O9_19 
ROOT
HETATM    1  C2  UNL     1      68.849  84.145  61.676  1.00  0.00     0.213 C 
HETATM    2  O3  UNL     1      70.111  83.760  61.319  1.00  0.00    -0.341 OA
HETATM    3  C3  UNL     1      70.874  83.592  62.453  1.00  0.00     0.181 C 
HETATM    4  C5  UNL     1      70.125  84.180  63.613  1.00  0.00     0.183 C 
HETATM    5  C6  UNL     1      69.075  85.009  62.898  1.00  0.00     0.213 C 
ENDROOT
BRANCH   3   6
HETATM    6  C4  UNL     1      71.321  82.192  62.680  1.00  0.00     0.217 C 
BRANCH   6   7
HETATM    7  O4  UNL     1      70.305  81.390  63.211  1.00  0.00    -0.280 OA
BRANCH   7   8
HETATM    8  P1  UNL     1      70.083  80.031  62.514  1.00  0.00     0.422 P 
HETATM    9  O5  UNL     1      69.860  78.574  62.070  1.00  0.00    -0.617 OA
HETATM   10  O6  UNL     1      68.456  80.179  62.811  1.00  0.00    -0.617 OA
HETATM   11  O7  UNL     1      70.681  80.591  61.117  1.00  0.00    -0.617 OA
ENDBRANCH   7   8
ENDBRANCH   6   7
ENDBRANCH   3   6
BRANCH   4  12
HETATM   12  O8  UNL     1      70.927  84.956  64.447  1.00  0.00    -0.390 OA
ATOM     13  H8  UNL     1      70.452  85.661  64.871  1.00  0.00     0.210 HD
ENDBRANCH   4  12
BRANCH   1  14
HETATM   14  C1  UNL     1      68.135  84.933  60.600  1.00  0.00     0.235 C 
BRANCH  14  15
HETATM   15  O1  UNL     1      66.868  85.307  60.979  1.00  0.00    -0.395 OA
ATOM     16  H1  UNL     1      66.577  86.096  60.538  1.00  0.00     0.209 HD
ENDBRANCH  14  15
ENDBRANCH   1  14
BRANCH   1  17
HETATM   17  O2  UNL     1      68.081  83.047  62.064  1.00  0.00    -0.362 OA
ATOM     18  H2  UNL     1      67.361  83.326  62.617  1.00  0.00     0.213 HD
ENDBRANCH   1  17
BRANCH   5  19
HETATM   19  O9  UNL     1      67.918  85.160  63.651  1.00  0.00    -0.387 OA
ATOM     20  H9  UNL     1      67.601  84.330  63.990  1.00  0.00     0.210 HD
ENDBRANCH   5  19
TORSDOF 8
ENDMDL
