MODEL 3
REMARK VINA RESULT: -10.182844403      4.898      8.490
REMARK  8 active torsions:
REMARK  status: ('A' for Active; 'I' for Inactive)
REMARK    1  A    between atoms: N1_1  and  C1_5 
REMARK    2  A    between atoms: N2_8  and  C4_9 
REMARK    3  A    between atoms: C4_9  and  C5_10 
REMARK    4  A    between atoms: C9_19  and  O1_20 
REMARK    5  A    between atoms: O1_20  and  C10_21 
REMARK    6  A    between atoms: C13_24  and  N6_25 
REMARK       I    between atoms: N6_25  and  C14_27 
REMARK       I    between atoms: C14_27  and  N7_29 
REMARK       I    between atoms: N7_29  and  C15_31 
REMARK    7  A    between atoms: C15_31  and  C16_33 
REMARK    8  A    between atoms: C16_33  and  C17_34 
ROOT
HETATM    1  C10 UNL     1       0.820   6.889  48.518  1.00  0.00     0.116 A 
HETATM    2  C11 UNL     1       1.785   6.879  49.377  1.00  0.00     0.043 A 
HETATM    3  C12 UNL     1       1.523   7.221  50.733  1.00  0.00     0.032 A 
HETATM    4  C13 UNL     1       0.310   7.536  51.124  1.00  0.00     0.039 A 
HETATM    5  C23 UNL     1      -0.761   7.528  50.157  1.00  0.00     0.074 A 
HETATM    6  C24 UNL     1      -0.493   7.208  48.878  1.00  0.00     0.152 A 
HETATM    7  F2  UNL     1      -1.494   7.103  47.950  1.00  0.00    -0.203 F 
ENDROOT
BRANCH   1   8
HETATM    8  O1  UNL     1       0.875   6.657  47.044  1.00  0.00    -0.288 OA
BRANCH   8   9
HETATM    9  C9  UNL     1       2.111   7.497  46.882  1.00  0.00     0.178 A 
HETATM   10  N5  UNL     1       2.006   8.780  47.027  1.00  0.00    -0.330 N 
HETATM   11  C8  UNL     1       3.223   9.481  47.006  1.00  0.00     0.200 A 
ATOM     12  H5  UNL     1       1.106   9.247  47.146  1.00  0.00     0.168 HD
HETATM   13  N4  UNL     1       4.324   8.835  46.844  1.00  0.00    -0.289 N 
HETATM   14  N3  UNL     1       4.445   7.493  46.674  1.00  0.00    -0.262 N 
ATOM     15  H4  UNL     1       5.186   9.381  46.843  1.00  0.00     0.188 HD
HETATM   16  C7  UNL     1       5.425   6.688  46.310  1.00  0.00     0.117 A 
HETATM   17  C25 UNL     1       3.243   6.787  46.687  1.00  0.00     0.115 A 
HETATM   18  C6  UNL     1       4.910   5.415  46.043  1.00  0.00     0.030 A 
HETATM   19  C5  UNL     1       3.547   5.557  46.295  1.00  0.00     0.004 A 
BRANCH  19  20
HETATM   20  C4  UNL     1       2.523   4.470  46.052  1.00  0.00     0.313 C 
BRANCH  20  21
HETATM   21  N2  UNL     1       3.071   3.464  47.016  1.00  0.00     0.092 N 
HETATM   22  C3  UNL     1       3.006   2.168  46.265  1.00  0.00     0.275 C 
HETATM   23  C2  UNL     1       3.235   0.969  47.034  1.00  0.00     0.063 C 
HETATM   24  C1  UNL     1       3.988   1.405  48.294  1.00  0.00     0.186 C 
HETATM   25  C27 UNL     1       2.978   2.178  49.070  1.00  0.00     0.063 C 
HETATM   26  C26 UNL     1       2.397   3.321  48.278  1.00  0.00     0.275 C 
BRANCH  24  27
HETATM   27  N1  UNL     1       4.399   0.207  48.956  1.00  0.00    -0.075 N 
ATOM     28  H13 UNL     1       3.631  -0.290  49.407  1.00  0.00     0.274 HD
ATOM     29  H12 UNL     1       4.670  -0.537  48.313  1.00  0.00     0.274 HD
ATOM     30  H11 UNL     1       5.142   0.474  49.602  1.00  0.00     0.274 HD
ENDBRANCH  24  27
ENDBRANCH  20  21
ENDBRANCH  19  20
ENDBRANCH   8   9
ENDBRANCH   1   8
BRANCH   4  31
HETATM   31  N6  UNL     1      -0.261   7.816  52.339  1.00  0.00    -0.309 N 
HETATM   32  C14 UNL     1      -0.079   9.501  52.752  1.00  0.00     0.327 C 
HETATM   33  O2  UNL     1       0.047   9.816  51.754  1.00  0.00    -0.247 OA
HETATM   34  N7  UNL     1      -0.236   9.160  54.126  1.00  0.00    -0.276 N 
HETATM   35  C15 UNL     1       0.030  10.788  54.525  1.00  0.00     0.249 C 
ATOM     36  H7  UNL     1      -0.427   8.304  54.646  1.00  0.00     0.173 HD
HETATM   37  O3  UNL     1      -0.345  11.451  53.545  1.00  0.00    -0.268 OA
ATOM     38  H6  UNL     1      -0.733   7.127  52.926  1.00  0.00     0.170 HD
BRANCH  35  39
HETATM   39  C16 UNL     1       0.611  11.145  55.732  1.00  0.00     0.085 C 
BRANCH  39  40
HETATM   40  C17 UNL     1       1.897  11.762  55.854  1.00  0.00    -0.031 A 
HETATM   41  C18 UNL     1       2.121  13.034  55.325  1.00  0.00     0.014 A 
HETATM   42  C19 UNL     1       3.353  13.615  55.413  1.00  0.00     0.043 A 
HETATM   43  C20 UNL     1       4.382  12.890  56.050  1.00  0.00     0.116 A 
HETATM   44  F1  UNL     1       5.583  13.436  56.136  1.00  0.00    -0.206 F 
HETATM   45  C21 UNL     1       4.178  11.639  56.584  1.00  0.00     0.043 A 
HETATM   46  C22 UNL     1       2.916  11.027  56.501  1.00  0.00     0.014 A 
ENDBRANCH  39  40
ENDBRANCH  35  39
ENDBRANCH   4  31
TORSDOF 8
ENDMDL
