MODEL 2
REMARK VINA RESULT: -10.271381990      5.395      8.645
REMARK  8 active torsions:
REMARK  status: ('A' for Active; 'I' for Inactive)
REMARK    1  A    between atoms: N1_1  and  C1_5 
REMARK    2  A    between atoms: N2_8  and  C4_9 
REMARK    3  A    between atoms: C4_9  and  C5_10 
REMARK    4  A    between atoms: C9_19  and  O1_20 
REMARK    5  A    between atoms: O1_20  and  C10_21 
REMARK    6  A    between atoms: C13_24  and  N6_25 
REMARK       I    between atoms: N6_25  and  C14_27 
REMARK       I    between atoms: C14_27  and  N7_29 
REMARK       I    between atoms: N7_29  and  C15_31 
REMARK    7  A    between atoms: C15_31  and  C16_33 
REMARK    8  A    between atoms: C16_33  and  C17_34 
ROOT
HETATM    1  C10 UNL     1       0.798   6.801  48.444  1.00  0.00     0.116 A 
HETATM    2  C11 UNL     1       1.725   6.718  49.339  1.00  0.00     0.043 A 
HETATM    3  C12 UNL     1       1.438   7.086  50.684  1.00  0.00     0.032 A 
HETATM    4  C13 UNL     1       0.240   7.498  51.027  1.00  0.00     0.039 A 
HETATM    5  C23 UNL     1      -0.790   7.570  50.019  1.00  0.00     0.074 A 
HETATM    6  C24 UNL     1      -0.499   7.224  48.752  1.00  0.00     0.152 A 
HETATM    7  F2  UNL     1      -1.469   7.195  47.786  1.00  0.00    -0.203 F 
ENDROOT
BRANCH   1   8
HETATM    8  O1  UNL     1       0.891   6.558  46.973  1.00  0.00    -0.288 OA
BRANCH   8   9
HETATM    9  C9  UNL     1       2.117   7.417  46.834  1.00  0.00     0.178 A 
HETATM   10  N5  UNL     1       1.989   8.699  46.976  1.00  0.00    -0.330 N 
HETATM   11  C8  UNL     1       3.196   9.418  46.978  1.00  0.00     0.200 A 
ATOM     12  H5  UNL     1       1.081   9.151  47.079  1.00  0.00     0.168 HD
HETATM   13  N4  UNL     1       4.310   8.788  46.836  1.00  0.00    -0.289 N 
HETATM   14  N3  UNL     1       4.454   7.449  46.669  1.00  0.00    -0.262 N 
ATOM     15  H4  UNL     1       5.163   9.348  46.850  1.00  0.00     0.188 HD
HETATM   16  C7  UNL     1       5.452   6.659  46.323  1.00  0.00     0.117 A 
HETATM   17  C25 UNL     1       3.263   6.724  46.660  1.00  0.00     0.115 A 
HETATM   18  C6  UNL     1       4.962   5.378  46.047  1.00  0.00     0.030 A 
HETATM   19  C5  UNL     1       3.592   5.499  46.274  1.00  0.00     0.004 A 
BRANCH  19  20
HETATM   20  C4  UNL     1       2.590   4.396  46.013  1.00  0.00     0.313 C 
BRANCH  20  21
HETATM   21  N2  UNL     1       3.141   3.396  46.980  1.00  0.00     0.092 N 
HETATM   22  C3  UNL     1       3.079   2.097  46.235  1.00  0.00     0.275 C 
HETATM   23  C2  UNL     1       3.311   0.902  47.010  1.00  0.00     0.063 C 
HETATM   24  C1  UNL     1       4.062   1.345  48.268  1.00  0.00     0.186 C 
HETATM   25  C27 UNL     1       3.051   2.118  49.040  1.00  0.00     0.063 C 
HETATM   26  C26 UNL     1       2.466   3.256  48.244  1.00  0.00     0.275 C 
BRANCH  24  27
HETATM   27  N1  UNL     1       4.477   0.150  48.935  1.00  0.00    -0.075 N 
ATOM     28  H13 UNL     1       4.179   0.108  49.909  1.00  0.00     0.274 HD
ATOM     29  H12 UNL     1       3.983  -0.683  48.615  1.00  0.00     0.274 HD
ATOM     30  H11 UNL     1       5.489   0.091  48.818  1.00  0.00     0.274 HD
ENDBRANCH  24  27
ENDBRANCH  20  21
ENDBRANCH  19  20
ENDBRANCH   8   9
ENDBRANCH   1   8
BRANCH   4  31
HETATM   31  N6  UNL     1      -0.354   7.827  52.219  1.00  0.00    -0.309 N 
HETATM   32  C14 UNL     1      -0.095   9.506  52.612  1.00  0.00     0.327 C 
HETATM   33  O2  UNL     1       0.078   9.798  51.614  1.00  0.00    -0.247 OA
HETATM   34  N7  UNL     1      -0.314   9.197  53.985  1.00  0.00    -0.276 N 
HETATM   35  C15 UNL     1       0.025  10.815  54.368  1.00  0.00     0.249 C 
ATOM     36  H7  UNL     1      -0.566   8.361  54.512  1.00  0.00     0.173 HD
HETATM   37  O3  UNL     1      -0.284  11.481  53.367  1.00  0.00    -0.268 OA
ATOM     38  H6  UNL     1      -0.879   7.173  52.800  1.00  0.00     0.170 HD
BRANCH  35  39
HETATM   39  C16 UNL     1       0.586  11.162  55.588  1.00  0.00     0.085 C 
BRANCH  39  40
HETATM   40  C17 UNL     1       0.366  12.412  56.248  1.00  0.00    -0.031 A 
HETATM   41  C18 UNL     1       1.443  13.243  56.561  1.00  0.00     0.014 A 
HETATM   42  C19 UNL     1       1.241  14.423  57.216  1.00  0.00     0.043 A 
HETATM   43  C20 UNL     1      -0.081  14.768  57.566  1.00  0.00     0.116 A 
HETATM   44  F1  UNL     1      -0.293  15.904  58.209  1.00  0.00    -0.206 F 
HETATM   45  C21 UNL     1      -1.156  13.965  57.260  1.00  0.00     0.043 A 
HETATM   46  C22 UNL     1      -0.966  12.748  56.586  1.00  0.00     0.014 A 
ENDBRANCH  39  40
ENDBRANCH  35  39
ENDBRANCH   4  31
TORSDOF 8
ENDMDL
