MODEL 1
REMARK VINA RESULT: -10.287313257      0.000      0.000
REMARK  8 active torsions:
REMARK  status: ('A' for Active; 'I' for Inactive)
REMARK    1  A    between atoms: N1_1  and  C1_5 
REMARK    2  A    between atoms: N2_8  and  C4_9 
REMARK    3  A    between atoms: C4_9  and  C5_10 
REMARK    4  A    between atoms: C9_19  and  O1_20 
REMARK    5  A    between atoms: O1_20  and  C10_21 
REMARK    6  A    between atoms: C13_24  and  N6_25 
REMARK       I    between atoms: N6_25  and  C14_27 
REMARK       I    between atoms: C14_27  and  N7_29 
REMARK       I    between atoms: N7_29  and  C15_31 
REMARK    7  A    between atoms: C15_31  and  C16_33 
REMARK    8  A    between atoms: C16_33  and  C17_34 
ROOT
HETATM    1  C10 UNL     1       4.449   5.480  47.203  1.00  0.00     0.116 A 
HETATM    2  C11 UNL     1       4.134   5.399  48.453  1.00  0.00     0.043 A 
HETATM    3  C12 UNL     1       3.811   4.132  49.016  1.00  0.00     0.032 A 
HETATM    4  C13 UNL     1       3.840   3.044  48.282  1.00  0.00     0.039 A 
HETATM    5  C23 UNL     1       4.208   3.149  46.890  1.00  0.00     0.074 A 
HETATM    6  C24 UNL     1       4.506   4.355  46.375  1.00  0.00     0.152 A 
HETATM    7  F2  UNL     1       4.944   4.485  45.085  1.00  0.00    -0.203 F 
ENDROOT
BRANCH   1   8
HETATM    8  O1  UNL     1       4.734   6.698  46.386  1.00  0.00    -0.288 OA
BRANCH   8   9
HETATM    9  C9  UNL     1       5.591   7.309  47.459  1.00  0.00     0.178 A 
HETATM   10  N5  UNL     1       6.663   6.679  47.823  1.00  0.00    -0.330 N 
HETATM   11  C8  UNL     1       7.486   7.379  48.722  1.00  0.00     0.200 A 
ATOM     12  H5  UNL     1       6.892   5.744  47.484  1.00  0.00     0.168 HD
HETATM   13  N4  UNL     1       7.137   8.553  49.119  1.00  0.00    -0.289 N 
HETATM   14  N3  UNL     1       6.008   9.215  48.757  1.00  0.00    -0.262 N 
ATOM     15  H4  UNL     1       7.766   9.029  49.765  1.00  0.00     0.188 HD
HETATM   16  C7  UNL     1       5.391  10.299  49.185  1.00  0.00     0.117 A 
HETATM   17  C25 UNL     1       5.180   8.528  47.870  1.00  0.00     0.115 A 
HETATM   18  C6  UNL     1       4.115  10.368  48.616  1.00  0.00     0.030 A 
HETATM   19  C5  UNL     1       4.056   9.228  47.815  1.00  0.00     0.004 A 
BRANCH  19  20
HETATM   20  C4  UNL     1       2.823   8.791  47.055  1.00  0.00     0.313 C 
BRANCH  20  21
HETATM   21  N2  UNL     1       2.225   7.933  48.127  1.00  0.00     0.092 N 
HETATM   22  C3  UNL     1       0.870   7.576  47.594  1.00  0.00     0.275 C 
HETATM   23  C2  UNL     1      -0.043   6.958  48.525  1.00  0.00     0.063 C 
HETATM   24  C1  UNL     1       0.819   6.379  49.650  1.00  0.00     0.186 C 
HETATM   25  C27 UNL     1       1.344   7.579  50.359  1.00  0.00     0.063 C 
HETATM   26  C26 UNL     1       2.087   8.511  49.437  1.00  0.00     0.275 C 
BRANCH  24  27
HETATM   27  N1  UNL     1      -0.053   5.590  50.464  1.00  0.00    -0.075 N 
ATOM     28  H13 UNL     1      -0.031   5.850  51.450  1.00  0.00     0.274 HD
ATOM     29  H12 UNL     1      -1.041   5.785  50.303  1.00  0.00     0.274 HD
ATOM     30  H11 UNL     1       0.199   4.616  50.297  1.00  0.00     0.274 HD
ENDBRANCH  24  27
ENDBRANCH  20  21
ENDBRANCH  19  20
ENDBRANCH   8   9
ENDBRANCH   1   8
BRANCH   4  31
HETATM   31  N6  UNL     1       3.673   1.708  48.544  1.00  0.00    -0.309 N 
HETATM   32  C14 UNL     1       1.998   1.326  48.844  1.00  0.00     0.327 C 
HETATM   33  O2  UNL     1       1.628   2.166  48.325  1.00  0.00    -0.247 OA
HETATM   34  N7  UNL     1       2.412   0.171  49.566  1.00  0.00    -0.276 N 
HETATM   35  C15 UNL     1       0.784  -0.145  49.928  1.00  0.00     0.249 C 
ATOM     36  H7  UNL     1       3.305  -0.276  49.776  1.00  0.00     0.173 HD
HETATM   37  O3  UNL     1       0.122   0.348  49.001  1.00  0.00    -0.268 OA
ATOM     38  H6  UNL     1       4.432   1.026  48.561  1.00  0.00     0.170 HD
BRANCH  35  39
HETATM   39  C16 UNL     1       0.422  -0.794  51.098  1.00  0.00     0.085 C 
BRANCH  39  40
HETATM   40  C17 UNL     1      -0.523  -0.282  52.043  1.00  0.00    -0.031 A 
HETATM   41  C18 UNL     1      -0.467  -0.677  53.380  1.00  0.00     0.014 A 
HETATM   42  C19 UNL     1      -1.383  -0.213  54.279  1.00  0.00     0.043 A 
HETATM   43  C20 UNL     1      -2.381   0.668  53.813  1.00  0.00     0.116 A 
HETATM   44  F1  UNL     1      -3.281   1.120  54.669  1.00  0.00    -0.206 F 
HETATM   45  C21 UNL     1      -2.447   1.074  52.499  1.00  0.00     0.043 A 
HETATM   46  C22 UNL     1      -1.512   0.607  51.562  1.00  0.00     0.014 A 
ENDBRANCH  39  40
ENDBRANCH  35  39
ENDBRANCH   4  31
TORSDOF 8
ENDMDL
