MODEL 6
REMARK VINA RESULT: -9.920750781      6.572      8.719
REMARK  8 active torsions:
REMARK  status: ('A' for Active; 'I' for Inactive)
REMARK    1  A    between atoms: N1_1  and  C1_5 
REMARK    2  A    between atoms: N2_8  and  C4_9 
REMARK    3  A    between atoms: C4_9  and  C5_10 
REMARK    4  A    between atoms: C9_19  and  O1_20 
REMARK    5  A    between atoms: O1_20  and  C10_21 
REMARK    6  A    between atoms: C13_24  and  N6_25 
REMARK       I    between atoms: N6_25  and  C14_27 
REMARK       I    between atoms: C14_27  and  N7_29 
REMARK       I    between atoms: N7_29  and  C15_31 
REMARK    7  A    between atoms: C15_31  and  C16_33 
REMARK    8  A    between atoms: C16_33  and  C17_34 
ROOT
HETATM    1  C10 UNL     1       0.163  10.159  53.536  1.00  0.00     0.116 A 
HETATM    2  C11 UNL     1       0.146   9.106  54.283  1.00  0.00     0.043 A 
HETATM    3  C12 UNL     1       0.024   7.821  53.684  1.00  0.00     0.032 A 
HETATM    4  C13 UNL     1      -0.058   7.692  52.379  1.00  0.00     0.039 A 
HETATM    5  C23 UNL     1      -0.022   8.878  51.557  1.00  0.00     0.074 A 
HETATM    6  C24 UNL     1       0.087  10.084  52.141  1.00  0.00     0.152 A 
HETATM    7  F2  UNL     1       0.214  11.224  51.393  1.00  0.00    -0.203 F 
ENDROOT
BRANCH   1   8
HETATM    8  O1  UNL     1       0.191  11.596  53.942  1.00  0.00    -0.288 OA
BRANCH   8   9
HETATM    9  C9  UNL     1      -1.091  11.479  54.719  1.00  0.00     0.178 A 
HETATM   10  N5  UNL     1      -1.993  10.651  54.294  1.00  0.00    -0.330 N 
HETATM   11  C8  UNL     1      -3.097  10.488  55.148  1.00  0.00     0.200 A 
ATOM     12  H5  UNL     1      -1.909  10.155  53.407  1.00  0.00     0.168 HD
HETATM   13  N4  UNL     1      -3.148  11.150  56.252  1.00  0.00    -0.289 N 
HETATM   14  N3  UNL     1      -2.217  12.032  56.697  1.00  0.00    -0.262 N 
ATOM     15  H4  UNL     1      -3.963  10.997  56.846  1.00  0.00     0.188 HD
HETATM   16  C7  UNL     1      -2.175  12.926  57.667  1.00  0.00     0.117 A 
HETATM   17  C25 UNL     1      -1.119  12.206  55.856  1.00  0.00     0.115 A 
HETATM   18  C6  UNL     1      -1.056  13.748  57.497  1.00  0.00     0.030 A 
HETATM   19  C5  UNL     1      -0.453  13.242  56.347  1.00  0.00     0.004 A 
BRANCH  19  20
HETATM   20  C4  UNL     1       0.757  13.861  55.683  1.00  0.00     0.313 C 
BRANCH  20  21
HETATM   21  N2  UNL     1       1.797  13.293  56.597  1.00  0.00     0.092 N 
HETATM   22  C3  UNL     1       2.597  14.488  57.025  1.00  0.00     0.275 C 
HETATM   23  C2  UNL     1       3.833  14.216  57.717  1.00  0.00     0.063 C 
HETATM   24  C1  UNL     1       3.715  12.792  58.265  1.00  0.00     0.186 C 
HETATM   25  C27 UNL     1       3.752  11.931  57.051  1.00  0.00     0.063 C 
HETATM   26  C26 UNL     1       2.680  12.295  56.056  1.00  0.00     0.275 C 
BRANCH  24  27
HETATM   27  N1  UNL     1       4.842  12.593  59.123  1.00  0.00    -0.075 N 
ATOM     28  H13 UNL     1       5.582  13.280  58.983  1.00  0.00     0.274 HD
ATOM     29  H12 UNL     1       4.649  12.811  60.101  1.00  0.00     0.274 HD
ATOM     30  H11 UNL     1       5.150  11.631  58.976  1.00  0.00     0.274 HD
ENDBRANCH  24  27
ENDBRANCH  20  21
ENDBRANCH  19  20
ENDBRANCH   8   9
ENDBRANCH   1   8
BRANCH   4  31
HETATM   31  N6  UNL     1      -0.092   6.621  51.524  1.00  0.00    -0.309 N 
HETATM   32  C14 UNL     1      -1.146   5.367  52.121  1.00  0.00     0.327 C 
HETATM   33  O2  UNL     1      -1.713   6.018  52.726  1.00  0.00    -0.247 OA
HETATM   34  N7  UNL     1      -0.430   4.420  51.334  1.00  0.00    -0.276 N 
HETATM   35  C15 UNL     1      -1.404   3.192  51.987  1.00  0.00     0.249 C 
ATOM     36  H7  UNL     1       0.338   4.461  50.665  1.00  0.00     0.173 HD
HETATM   37  O3  UNL     1      -2.484   3.728  52.283  1.00  0.00    -0.268 OA
ATOM     38  H6  UNL     1       0.433   6.566  50.650  1.00  0.00     0.170 HD
BRANCH  35  39
HETATM   39  C16 UNL     1      -0.924   1.902  52.142  1.00  0.00     0.085 C 
BRANCH  39  40
HETATM   40  C17 UNL     1      -1.403   0.978  53.125  1.00  0.00    -0.031 A 
HETATM   41  C18 UNL     1      -2.646   1.173  53.729  1.00  0.00     0.014 A 
HETATM   42  C19 UNL     1      -3.094   0.312  54.687  1.00  0.00     0.043 A 
HETATM   43  C20 UNL     1      -2.264  -0.771  55.045  1.00  0.00     0.116 A 
HETATM   44  F1  UNL     1      -2.680  -1.611  55.978  1.00  0.00    -0.206 F 
HETATM   45  C21 UNL     1      -1.039  -0.984  54.455  1.00  0.00     0.043 A 
HETATM   46  C22 UNL     1      -0.563  -0.106  53.467  1.00  0.00     0.014 A 
ENDBRANCH  39  40
ENDBRANCH  35  39
ENDBRANCH   4  31
TORSDOF 8
ENDMDL
