MODEL 3
REMARK VINA RESULT: -6.817095186      1.806      2.493
REMARK  9 active torsions:
REMARK  status: ('A' for Active; 'I' for Inactive)
REMARK    1  A    between atoms: O1_1  and  C1_3 
REMARK    2  A    between atoms: C2_4  and  C3_5 
REMARK    3  A    between atoms: C3_5  and  O2_6 
REMARK    4  A    between atoms: O2_6  and  P1_7 
REMARK    5  A    between atoms: C4_12  and  O7_13 
REMARK    6  A    between atoms: O7_13  and  P2_14 
REMARK    7  A    between atoms: P2_14  and  O10_17 
REMARK    8  A    between atoms: O10_17  and  P3_18 
REMARK    9  A    between atoms: C5_22  and  O14_23 
ROOT
HETATM    1  C1  UNL     1      26.472 -16.914  41.611  1.00  0.00     0.182 C 
HETATM    2  C2  UNL     1      25.929 -16.426  42.895  1.00  0.00     0.180 C 
HETATM    3  O6  UNL     1      25.111 -15.385  42.520  1.00  0.00    -0.348 OA
HETATM    4  C4  UNL     1      24.452 -15.792  41.337  1.00  0.00     0.304 C 
HETATM    5  C5  UNL     1      25.138 -17.030  40.847  1.00  0.00     0.205 C 
ENDROOT
BRANCH   4   6
HETATM    6  O7  UNL     1      23.137 -15.988  41.608  1.00  0.00    -0.255 OA
BRANCH   6   7
HETATM    7  P2  UNL     1      22.570 -15.851  43.126  1.00  0.00     0.420 P 
HETATM    8  O8  UNL     1      21.116 -16.166  42.837  1.00  0.00    -0.624 OA
HETATM    9  O9  UNL     1      22.021 -14.261  43.537  1.00  0.00    -0.624 OA
BRANCH   7  10
HETATM   10  O10 UNL     1      22.788 -16.898  44.291  1.00  0.00    -0.173 OA
BRANCH  10  11
HETATM   11  P3  UNL     1      22.093 -16.697  45.765  1.00  0.00     0.431 P 
HETATM   12  O11 UNL     1      20.511 -16.898  46.029  1.00  0.00    -0.616 OA
HETATM   13  O12 UNL     1      23.023 -16.057  47.003  1.00  0.00    -0.616 OA
HETATM   14  O13 UNL     1      22.490 -18.097  46.211  1.00  0.00    -0.616 OA
ENDBRANCH  10  11
ENDBRANCH   7  10
ENDBRANCH   6   7
ENDBRANCH   4   6
BRANCH   5  15
HETATM   15  O14 UNL     1      24.408 -18.115  41.351  1.00  0.00    -0.388 OA
ATOM     16  H14 UNL     1      24.014 -17.871  42.180  1.00  0.00     0.210 HD
ENDBRANCH   5  15
BRANCH   2  17
HETATM   17  C3  UNL     1      26.931 -15.945  43.913  1.00  0.00     0.217 C 
BRANCH  17  18
HETATM   18  O2  UNL     1      28.206 -16.076  43.495  1.00  0.00    -0.280 OA
BRANCH  18  19
HETATM   19  P1  UNL     1      29.413 -15.286  43.889  1.00  0.00     0.422 P 
HETATM   20  O3  UNL     1      28.458 -14.015  44.463  1.00  0.00    -0.617 OA
HETATM   21  O4  UNL     1      30.183 -15.157  42.529  1.00  0.00    -0.617 OA
HETATM   22  O5  UNL     1      29.757 -16.516  44.988  1.00  0.00    -0.617 OA
ENDBRANCH  18  19
ENDBRANCH  17  18
ENDBRANCH   2  17
BRANCH   1  23
HETATM   23  O1  UNL     1      27.145 -18.113  41.663  1.00  0.00    -0.390 OA
ATOM     24  H1  UNL     1      26.720 -18.845  41.231  1.00  0.00     0.210 HD
ENDBRANCH   1  23
TORSDOF 9
ENDMDL
