MODEL 4
REMARK VINA RESULT: -5.825137171      7.778      8.866
REMARK  2 active torsions:
REMARK  status: ('A' for Active; 'I' for Inactive)
REMARK    1  A    between atoms: C1_2  and  C2_4 
REMARK    2  A    between atoms: C6_10  and  C7_11 
ROOT
HETATM    1  C2  UNL     1     -23.908   6.714 -12.305  1.00  0.00     0.074 A 
HETATM    2  C3  UNL     1     -24.173   5.353 -12.091  1.00  0.00     0.022 A 
HETATM    3  C4  UNL     1     -23.254   4.383 -12.378  1.00  0.00     0.018 A 
HETATM    4  C5  UNL     1     -22.048   4.816 -12.890  1.00  0.00     0.088 A 
HETATM    5  N1  UNL     1     -21.789   6.093 -13.093  1.00  0.00    -0.360 N 
ATOM      6  H1  UNL     1     -20.880   6.354 -13.473  1.00  0.00     0.165 HD
HETATM    7  C6  UNL     1     -22.697   7.086 -12.813  1.00  0.00     0.126 A 
ENDROOT
BRANCH   1   8
HETATM    8  C1  UNL     1     -24.946   7.652 -11.969  1.00  0.00     0.211 C 
HETATM    9  O1  UNL     1     -25.273   8.040 -10.853  1.00  0.00    -0.644 OA
HETATM   10  O2  UNL     1     -25.696   8.214 -13.020  1.00  0.00    -0.644 OA
ENDBRANCH   1   8
BRANCH   7  11
HETATM   11  C7  UNL     1     -22.280   8.464 -13.087  1.00  0.00     0.228 C 
HETATM   12  O3  UNL     1     -21.691   9.215 -12.326  1.00  0.00    -0.643 OA
HETATM   13  O4  UNL     1     -22.566   9.028 -14.348  1.00  0.00    -0.643 OA
ENDBRANCH   7  11
TORSDOF 2
ENDMDL
