MODEL 9
REMARK VINA RESULT: -5.763483014      7.218      8.511
REMARK  2 active torsions:
REMARK  status: ('A' for Active; 'I' for Inactive)
REMARK    1  A    between atoms: C1_2  and  C2_4 
REMARK    2  A    between atoms: C6_10  and  C7_11 
ROOT
HETATM    1  C2  UNL     1     -23.058   7.346 -12.702  1.00  0.00     0.074 A 
HETATM    2  C3  UNL     1     -22.598   6.069 -13.061  1.00  0.00     0.022 A 
HETATM    3  C4  UNL     1     -23.259   4.932 -12.691  1.00  0.00     0.018 A 
HETATM    4  C5  UNL     1     -24.405   5.107 -11.943  1.00  0.00     0.088 A 
HETATM    5  N1  UNL     1     -24.845   6.302 -11.601  1.00  0.00    -0.360 N 
ATOM      6  H1  UNL     1     -25.699   6.370 -11.048  1.00  0.00     0.165 HD
HETATM    7  C6  UNL     1     -24.198   7.460 -11.961  1.00  0.00     0.126 A 
ENDROOT
BRANCH   1   8
HETATM    8  C1  UNL     1     -22.285   8.477 -13.143  1.00  0.00     0.211 C 
HETATM    9  O1  UNL     1     -22.312   9.018 -14.243  1.00  0.00    -0.644 OA
HETATM   10  O2  UNL     1     -21.383   9.059 -12.233  1.00  0.00    -0.644 OA
ENDBRANCH   1   8
BRANCH   7  11
HETATM   11  C7  UNL     1     -24.796   8.721 -11.514  1.00  0.00     0.228 C 
HETATM   12  O3  UNL     1     -24.964   9.083 -10.360  1.00  0.00    -0.643 OA
HETATM   13  O4  UNL     1     -25.239   9.649 -12.480  1.00  0.00    -0.643 OA
ENDBRANCH   7  11
TORSDOF 2
ENDMDL
