MODEL 1
REMARK VINA RESULT: -6.612413268      0.000      0.000
REMARK  2 active torsions:
REMARK  status: ('A' for Active; 'I' for Inactive)
REMARK    1  A    between atoms: C1_2  and  C2_4 
REMARK    2  A    between atoms: C6_10  and  C7_11 
ROOT
HETATM    1  C2  UNL     1     -25.698  12.360  -6.516  1.00  0.00     0.074 A 
HETATM    2  C3  UNL     1     -27.017  12.481  -6.049  1.00  0.00     0.022 A 
HETATM    3  C4  UNL     1     -27.782  13.578  -6.322  1.00  0.00     0.018 A 
HETATM    4  C5  UNL     1     -27.189  14.564  -7.083  1.00  0.00     0.088 A 
HETATM    5  N1  UNL     1     -25.951  14.459  -7.527  1.00  0.00    -0.360 N 
ATOM      6  H1  UNL     1     -25.565  15.219  -8.086  1.00  0.00     0.165 HD
HETATM    7  C6  UNL     1     -25.162  13.366  -7.265  1.00  0.00     0.126 A 
ENDROOT
BRANCH   1   8
HETATM    8  C1  UNL     1     -24.980  11.162  -6.169  1.00  0.00     0.211 C 
HETATM    9  O1  UNL     1     -24.521  10.317  -6.931  1.00  0.00    -0.644 OA
HETATM   10  O2  UNL     1     -24.757  10.895  -4.805  1.00  0.00    -0.644 OA
ENDBRANCH   1   8
BRANCH   7  11
HETATM   11  C7  UNL     1     -23.805  13.379  -7.818  1.00  0.00     0.228 C 
HETATM   12  O3  UNL     1     -22.802  13.833  -7.289  1.00  0.00    -0.643 OA
HETATM   13  O4  UNL     1     -23.580  12.819  -9.094  1.00  0.00    -0.643 OA
ENDBRANCH   7  11
TORSDOF 2
ENDMDL
