MODEL 17
REMARK VINA RESULT: -5.583973496      1.021      1.182
REMARK  2 active torsions:
REMARK  status: ('A' for Active; 'I' for Inactive)
REMARK    1  A    between atoms: C1_2  and  C2_4 
REMARK    2  A    between atoms: C6_10  and  C7_11 
ROOT
HETATM    1  C2  UNL     1     -25.588  12.231  -6.889  1.00  0.00     0.074 A 
HETATM    2  C3  UNL     1     -26.610  12.882  -6.180  1.00  0.00     0.022 A 
HETATM    3  C4  UNL     1     -27.245  13.985  -6.676  1.00  0.00     0.018 A 
HETATM    4  C5  UNL     1     -26.827  14.426  -7.914  1.00  0.00     0.088 A 
HETATM    5  N1  UNL     1     -25.868  13.821  -8.588  1.00  0.00    -0.360 N 
ATOM      6  H1  UNL     1     -25.602  14.192  -9.500  1.00  0.00     0.165 HD
HETATM    7  C6  UNL     1     -25.215  12.712  -8.111  1.00  0.00     0.126 A 
ENDROOT
BRANCH   1   8
HETATM    8  C1  UNL     1     -24.985  11.079  -6.274  1.00  0.00     0.211 C 
HETATM    9  O1  UNL     1     -24.539  10.081  -6.830  1.00  0.00    -0.644 OA
HETATM   10  O2  UNL     1     -24.875  11.058  -4.871  1.00  0.00    -0.644 OA
ENDBRANCH   1   8
BRANCH   7  11
HETATM   11  C7  UNL     1     -24.169  12.138  -8.962  1.00  0.00     0.228 C 
HETATM   12  O3  UNL     1     -22.972  12.376  -8.911  1.00  0.00    -0.643 OA
HETATM   13  O4  UNL     1     -24.531  11.210  -9.961  1.00  0.00    -0.643 OA
ENDBRANCH   7  11
TORSDOF 2
ENDMDL
