MODEL 7
REMARK VINA RESULT: -5.784341805      8.487      9.662
REMARK  2 active torsions:
REMARK  status: ('A' for Active; 'I' for Inactive)
REMARK    1  A    between atoms: C1_2  and  C2_4 
REMARK    2  A    between atoms: C6_10  and  C7_11 
ROOT
HETATM    1  C2  UNL     1     -23.555   6.000 -13.233  1.00  0.00     0.074 A 
HETATM    2  C3  UNL     1     -23.529   7.252 -13.868  1.00  0.00     0.022 A 
HETATM    3  C4  UNL     1     -24.242   8.317 -13.396  1.00  0.00     0.018 A 
HETATM    4  C5  UNL     1     -24.992   8.096 -12.259  1.00  0.00     0.088 A 
HETATM    5  N1  UNL     1     -25.022   6.923 -11.655  1.00  0.00    -0.360 N 
ATOM      6  H1  UNL     1     -25.594   6.818 -10.818  1.00  0.00     0.165 HD
HETATM    7  C6  UNL     1     -24.314   5.838 -12.111  1.00  0.00     0.126 A 
ENDROOT
BRANCH   1   8
HETATM    8  C1  UNL     1     -22.766   4.946 -13.814  1.00  0.00     0.211 C 
HETATM    9  O1  UNL     1     -23.095   4.170 -14.705  1.00  0.00    -0.644 OA
HETATM   10  O2  UNL     1     -21.459   4.754 -13.331  1.00  0.00    -0.644 OA
ENDBRANCH   1   8
BRANCH   7  11
HETATM   11  C7  UNL     1     -24.438   4.595 -11.345  1.00  0.00     0.228 C 
HETATM   12  O3  UNL     1     -23.540   3.991 -10.779  1.00  0.00    -0.643 OA
HETATM   13  O4  UNL     1     -25.707   3.991 -11.219  1.00  0.00    -0.643 OA
ENDBRANCH   7  11
TORSDOF 2
ENDMDL
