MODEL 2
REMARK VINA RESULT: -6.600433946      0.144      3.135
REMARK  2 active torsions:
REMARK  status: ('A' for Active; 'I' for Inactive)
REMARK    1  A    between atoms: C1_2  and  C2_4 
REMARK    2  A    between atoms: C7_9  and  C8_10 
ROOT
HETATM    1  C2  UNL     1     -23.002 -16.609  23.646  1.00  0.00     0.057 A 
HETATM    2  C3  UNL     1     -23.943 -17.626  23.876  1.00  0.00     0.019 A 
HETATM    3  C4  UNL     1     -25.191 -17.593  23.353  1.00  0.00     0.001 A 
HETATM    4  C5  UNL     1     -25.596 -16.553  22.564  1.00  0.00     0.001 A 
HETATM    5  C6  UNL     1     -24.699 -15.560  22.330  1.00  0.00     0.019 A 
HETATM    6  C7  UNL     1     -23.393 -15.560  22.857  1.00  0.00     0.057 A 
ENDROOT
BRANCH   1   7
HETATM    7  C1  UNL     1     -21.693 -16.732  24.242  1.00  0.00     0.210 C 
HETATM    8  O1  UNL     1     -20.717 -16.896  23.411  1.00  0.00    -0.644 OA
HETATM    9  O2  UNL     1     -21.332 -16.700  25.565  1.00  0.00    -0.644 OA
ENDBRANCH   1   7
BRANCH   6  10
HETATM   10  C8  UNL     1     -22.591 -14.425  22.506  1.00  0.00     0.210 C 
HETATM   11  O3  UNL     1     -22.743 -13.308  23.005  1.00  0.00    -0.644 OA
HETATM   12  O4  UNL     1     -21.556 -14.531  21.544  1.00  0.00    -0.644 OA
ENDBRANCH   6  10
TORSDOF 2
ENDMDL
