MODEL 13
REMARK VINA RESULT: -5.825614628      8.104      9.026
REMARK  2 active torsions:
REMARK  status: ('A' for Active; 'I' for Inactive)
REMARK    1  A    between atoms: C1_2  and  C2_4 
REMARK    2  A    between atoms: C7_9  and  C8_10 
ROOT
HETATM    1  C2  UNL     1     -16.419 -17.787  17.287  1.00  0.00     0.057 A 
HETATM    2  C3  UNL     1     -17.504 -17.048  16.789  1.00  0.00     0.019 A 
HETATM    3  C4  UNL     1     -18.731 -17.083  17.360  1.00  0.00     0.001 A 
HETATM    4  C5  UNL     1     -18.971 -17.852  18.463  1.00  0.00     0.001 A 
HETATM    5  C6  UNL     1     -17.933 -18.574  18.960  1.00  0.00     0.019 A 
HETATM    6  C7  UNL     1     -16.644 -18.562  18.393  1.00  0.00     0.057 A 
ENDROOT
BRANCH   1   7
HETATM    7  C1  UNL     1     -15.145 -17.683  16.616  1.00  0.00     0.210 C 
HETATM    8  O1  UNL     1     -14.418 -16.670  16.957  1.00  0.00    -0.644 OA
HETATM    9  O2  UNL     1     -14.592 -18.503  15.665  1.00  0.00    -0.644 OA
ENDBRANCH   1   7
BRANCH   6  10
HETATM   10  C8  UNL     1     -15.679 -19.392  19.052  1.00  0.00     0.210 C 
HETATM   11  O3  UNL     1     -15.932 -20.522  19.474  1.00  0.00    -0.644 OA
HETATM   12  O4  UNL     1     -14.349 -18.946  19.255  1.00  0.00    -0.644 OA
ENDBRANCH   6  10
TORSDOF 2
ENDMDL
