MODEL 1
REMARK VINA RESULT: -6.805442399      0.000      0.000
REMARK  2 active torsions:
REMARK  status: ('A' for Active; 'I' for Inactive)
REMARK    1  A    between atoms: C1_2  and  C2_4 
REMARK    2  A    between atoms: C7_9  and  C8_10 
ROOT
HETATM    1  C2  UNL     1     -23.380 -15.559  22.880  1.00  0.00     0.057 A 
HETATM    2  C3  UNL     1     -24.722 -15.574  22.466  1.00  0.00     0.019 A 
HETATM    3  C4  UNL     1     -25.585 -16.551  22.831  1.00  0.00     0.001 A 
HETATM    4  C5  UNL     1     -25.180 -17.582  23.631  1.00  0.00     0.001 A 
HETATM    5  C6  UNL     1     -23.886 -17.585  24.041  1.00  0.00     0.019 A 
HETATM    6  C7  UNL     1     -22.961 -16.586  23.682  1.00  0.00     0.057 A 
ENDROOT
BRANCH   1   7
HETATM    7  C1  UNL     1     -22.535 -14.472  22.445  1.00  0.00     0.210 C 
HETATM    8  O1  UNL     1     -22.778 -13.326  22.990  1.00  0.00    -0.644 OA
HETATM    9  O2  UNL     1     -21.509 -14.478  21.534  1.00  0.00    -0.644 OA
ENDBRANCH   1   7
BRANCH   6  10
HETATM   10  C8  UNL     1     -21.638 -16.760  24.206  1.00  0.00     0.210 C 
HETATM   11  O3  UNL     1     -20.641 -16.907  23.495  1.00  0.00    -0.644 OA
HETATM   12  O4  UNL     1     -21.400 -16.772  25.603  1.00  0.00    -0.644 OA
ENDBRANCH   6  10
TORSDOF 2
ENDMDL
