MODEL 20
REMARK VINA RESULT: -5.716512228      5.910      7.300
REMARK  2 active torsions:
REMARK  status: ('A' for Active; 'I' for Inactive)
REMARK    1  A    between atoms: C1_2  and  C2_4 
REMARK    2  A    between atoms: C7_9  and  C8_10 
ROOT
HETATM    1  C2  UNL     1     -19.692 -17.472  17.821  1.00  0.00     0.057 A 
HETATM    2  C3  UNL     1     -19.010 -18.141  16.792  1.00  0.00     0.019 A 
HETATM    3  C4  UNL     1     -19.253 -17.899  15.482  1.00  0.00     0.001 A 
HETATM    4  C5  UNL     1     -20.187 -16.979  15.099  1.00  0.00     0.001 A 
HETATM    5  C6  UNL     1     -20.857 -16.322  16.080  1.00  0.00     0.019 A 
HETATM    6  C7  UNL     1     -20.631 -16.546  17.452  1.00  0.00     0.057 A 
ENDROOT
BRANCH   1   7
HETATM    7  C1  UNL     1     -19.362 -17.791  19.190  1.00  0.00     0.210 C 
HETATM    8  O1  UNL     1     -18.177 -17.445  19.572  1.00  0.00    -0.644 OA
HETATM    9  O2  UNL     1     -20.125 -18.411  20.148  1.00  0.00    -0.644 OA
ENDBRANCH   1   7
BRANCH   6  10
HETATM   10  C8  UNL     1     -21.437 -15.763  18.341  1.00  0.00     0.210 C 
HETATM   11  O3  UNL     1     -21.051 -14.712  18.858  1.00  0.00    -0.644 OA
HETATM   12  O4  UNL     1     -22.753 -16.164  18.681  1.00  0.00    -0.644 OA
ENDBRANCH   6  10
TORSDOF 2
ENDMDL
