MODEL 19
REMARK VINA RESULT: -5.723906172      5.836      6.705
REMARK  2 active torsions:
REMARK  status: ('A' for Active; 'I' for Inactive)
REMARK    1  A    between atoms: C1_2  and  C2_4 
REMARK    2  A    between atoms: C7_9  and  C8_10 
ROOT
HETATM    1  C2  UNL     1     -20.693 -16.493  17.530  1.00  0.00     0.057 A 
HETATM    2  C3  UNL     1     -20.956 -16.303  16.163  1.00  0.00     0.019 A 
HETATM    3  C4  UNL     1     -20.330 -17.013  15.196  1.00  0.00     0.001 A 
HETATM    4  C5  UNL     1     -19.398 -17.960  15.512  1.00  0.00     0.001 A 
HETATM    5  C6  UNL     1     -19.129 -18.159  16.828  1.00  0.00     0.019 A 
HETATM    6  C7  UNL     1     -19.761 -17.440  17.861  1.00  0.00     0.057 A 
ENDROOT
BRANCH   1   7
HETATM    7  C1  UNL     1     -21.414 -15.693  18.491  1.00  0.00     0.210 C 
HETATM    8  O1  UNL     1     -22.560 -16.164  18.857  1.00  0.00    -0.644 OA
HETATM    9  O2  UNL     1     -21.061 -14.502  19.073  1.00  0.00    -0.644 OA
ENDBRANCH   1   7
BRANCH   6  10
HETATM   10  C8  UNL     1     -19.344 -17.783  19.189  1.00  0.00     0.210 C 
HETATM   11  O3  UNL     1     -20.045 -18.425  19.975  1.00  0.00    -0.644 OA
HETATM   12  O4  UNL     1     -18.074 -17.394  19.681  1.00  0.00    -0.644 OA
ENDBRANCH   6  10
TORSDOF 2
ENDMDL
