MODEL 3
REMARK VINA RESULT: -6.542726285      0.262      2.918
REMARK  2 active torsions:
REMARK  status: ('A' for Active; 'I' for Inactive)
REMARK    1  A    between atoms: C1_2  and  C2_4 
REMARK    2  A    between atoms: C7_9  and  C8_10 
ROOT
HETATM    1  C2  UNL     1     -23.018 -16.668  23.723  1.00  0.00     0.057 A 
HETATM    2  C3  UNL     1     -23.911 -17.661  24.155  1.00  0.00     0.019 A 
HETATM    3  C4  UNL     1     -25.220 -17.662  23.812  1.00  0.00     0.001 A 
HETATM    4  C5  UNL     1     -25.738 -16.679  23.017  1.00  0.00     0.001 A 
HETATM    5  C6  UNL     1     -24.890 -15.709  22.589  1.00  0.00     0.019 A 
HETATM    6  C7  UNL     1     -23.523 -15.676  22.925  1.00  0.00     0.057 A 
ENDROOT
BRANCH   1   7
HETATM    7  C1  UNL     1     -21.637 -16.752  24.135  1.00  0.00     0.210 C 
HETATM    8  O1  UNL     1     -21.436 -16.727  25.412  1.00  0.00    -0.644 OA
HETATM    9  O2  UNL     1     -20.503 -16.855  23.369  1.00  0.00    -0.644 OA
ENDBRANCH   1   7
BRANCH   6  10
HETATM   10  C8  UNL     1     -22.786 -14.572  22.385  1.00  0.00     0.210 C 
HETATM   11  O3  UNL     1     -22.107 -14.647  21.359  1.00  0.00    -0.644 OA
HETATM   12  O4  UNL     1     -22.801 -13.304  23.017  1.00  0.00    -0.644 OA
ENDBRANCH   6  10
TORSDOF 2
ENDMDL
