MODEL 5
REMARK VINA RESULT: -5.780565761      0.476      2.289
REMARK  18 active torsions:
REMARK  status: ('A' for Active; 'I' for Inactive)
REMARK    1  A    between atoms: O1_1  and  C1_3 
REMARK    2  A    between atoms: C1_3  and  C2_4 
REMARK    3  A    between atoms: C2_4  and  C3_5 
REMARK    4  A    between atoms: C2_4  and  C4_8 
REMARK    5  A    between atoms: C2_4  and  N1_11 
REMARK    6  A    between atoms: C3_5  and  O2_6 
REMARK    7  A    between atoms: C4_8  and  O3_9 
REMARK    8  A    between atoms: N1_11  and  C5_14 
REMARK    9  A    between atoms: C5_14  and  C6_15 
REMARK   10  A    between atoms: C6_15  and  C7_16 
REMARK   11  A    between atoms: C7_16  and  N2_17 
REMARK   12  A    between atoms: N2_17  and  C8_20 
REMARK   13  A    between atoms: C8_20  and  C9_21 
REMARK   14  A    between atoms: C8_20  and  C10_24 
REMARK   15  A    between atoms: C8_20  and  C11_27 
REMARK   16  A    between atoms: C9_21  and  O4_22 
REMARK   17  A    between atoms: C10_24  and  O5_25 
REMARK   18  A    between atoms: C11_27  and  O6_28 
ROOT
HETATM    1  C6  UNL     1      60.968  38.335  48.205  1.00  0.00     0.055 C 
ENDROOT
BRANCH   1   2
HETATM    2  C5  UNL     1      60.188  38.914  47.058  1.00  0.00     0.235 C 
BRANCH   2   3
HETATM    3  N1  UNL     1      59.422  37.868  46.416  1.00  0.00    -0.060 N 
ATOM      4  H12 UNL     1      58.427  38.096  46.400  1.00  0.00     0.278 HD
ATOM      5  H11 UNL     1      59.387  37.028  46.994  1.00  0.00     0.278 HD
BRANCH   3   6
HETATM    6  C2  UNL     1      59.910  37.569  45.090  1.00  0.00     0.188 C 
BRANCH   6   7
HETATM    7  C1  UNL     1      60.941  36.469  45.217  1.00  0.00     0.207 C 
BRANCH   7   8
HETATM    8  O1  UNL     1      60.423  35.454  46.014  1.00  0.00    -0.398 OA
ATOM      9  H1  UNL     1      60.801  35.520  46.882  1.00  0.00     0.209 HD
ENDBRANCH   7   8
ENDBRANCH   6   7
BRANCH   6  10
HETATM   10  C3  UNL     1      58.811  37.075  44.178  1.00  0.00     0.207 C 
BRANCH  10  11
HETATM   11  O2  UNL     1      59.359  36.382  43.124  1.00  0.00    -0.398 OA
ATOM     12  H2  UNL     1      59.416  36.949  42.364  1.00  0.00     0.209 HD
ENDBRANCH  10  11
ENDBRANCH   6  10
BRANCH   6  13
HETATM   13  C4  UNL     1      60.602  38.785  44.543  1.00  0.00     0.207 C 
BRANCH  13  14
HETATM   14  O3  UNL     1      59.987  39.290  43.412  1.00  0.00    -0.398 OA
ATOM     15  H3  UNL     1      59.564  40.127  43.563  1.00  0.00     0.209 HD
ENDBRANCH  13  14
ENDBRANCH   6  13
ENDBRANCH   3   6
ENDBRANCH   2   3
ENDBRANCH   1   2
BRANCH   1  16
HETATM   16  C7  UNL     1      60.094  37.362  48.994  1.00  0.00     0.235 C 
BRANCH  16  17
HETATM   17  N2  UNL     1      60.772  36.110  49.020  1.00  0.00    -0.060 N 
ATOM     18  H22 UNL     1      60.679  35.633  48.123  1.00  0.00     0.278 HD
ATOM     19  H21 UNL     1      61.783  36.249  49.036  1.00  0.00     0.278 HD
BRANCH  17  20
HETATM   20  C8  UNL     1      60.355  35.230  50.118  1.00  0.00     0.188 C 
BRANCH  20  21
HETATM   21  C9  UNL     1      60.328  33.838  49.571  1.00  0.00     0.207 C 
BRANCH  21  22
HETATM   22  O4  UNL     1      59.628  32.927  50.330  1.00  0.00    -0.398 OA
ATOM     23  H4  UNL     1      58.842  33.268  50.741  1.00  0.00     0.209 HD
ENDBRANCH  21  22
ENDBRANCH  20  21
BRANCH  20  24
HETATM   24  C10 UNL     1      58.986  35.693  50.530  1.00  0.00     0.207 C 
BRANCH  24  25
HETATM   25  O5  UNL     1      58.603  35.237  51.790  1.00  0.00    -0.398 OA
ATOM     26  H5  UNL     1      57.727  35.506  52.038  1.00  0.00     0.209 HD
ENDBRANCH  24  25
ENDBRANCH  20  24
BRANCH  20  27
HETATM   27  C11 UNL     1      61.378  35.426  51.198  1.00  0.00     0.207 C 
BRANCH  27  28
HETATM   28  O6  UNL     1      61.450  34.451  52.146  1.00  0.00    -0.398 OA
ATOM     29  H6  UNL     1      61.783  33.609  51.858  1.00  0.00     0.209 HD
ENDBRANCH  27  28
ENDBRANCH  20  27
ENDBRANCH  17  20
ENDBRANCH  16  17
ENDBRANCH   1  16
TORSDOF 18
ENDMDL
