MODEL 4
REMARK VINA RESULT: -5.806381145      0.775      6.202
REMARK  18 active torsions:
REMARK  status: ('A' for Active; 'I' for Inactive)
REMARK    1  A    between atoms: O1_1  and  C1_3 
REMARK    2  A    between atoms: C1_3  and  C2_4 
REMARK    3  A    between atoms: C2_4  and  C3_5 
REMARK    4  A    between atoms: C2_4  and  C4_8 
REMARK    5  A    between atoms: C2_4  and  N1_11 
REMARK    6  A    between atoms: C3_5  and  O2_6 
REMARK    7  A    between atoms: C4_8  and  O3_9 
REMARK    8  A    between atoms: N1_11  and  C5_14 
REMARK    9  A    between atoms: C5_14  and  C6_15 
REMARK   10  A    between atoms: C6_15  and  C7_16 
REMARK   11  A    between atoms: C7_16  and  N2_17 
REMARK   12  A    between atoms: N2_17  and  C8_20 
REMARK   13  A    between atoms: C8_20  and  C9_21 
REMARK   14  A    between atoms: C8_20  and  C10_24 
REMARK   15  A    between atoms: C8_20  and  C11_27 
REMARK   16  A    between atoms: C9_21  and  O4_22 
REMARK   17  A    between atoms: C10_24  and  O5_25 
REMARK   18  A    between atoms: C11_27  and  O6_28 
ROOT
HETATM    1  C6  UNL     1      61.219  38.562  48.016  1.00  0.00     0.055 C 
ENDROOT
BRANCH   1   2
HETATM    2  C5  UNL     1      60.357  37.605  48.793  1.00  0.00     0.235 C 
BRANCH   2   3
HETATM    3  N1  UNL     1      61.157  36.942  49.800  1.00  0.00    -0.060 N 
ATOM      4  H12 UNL     1      61.685  37.616  50.355  1.00  0.00     0.278 HD
ATOM      5  H11 UNL     1      61.935  36.434  49.378  1.00  0.00     0.278 HD
BRANCH   3   6
HETATM    6  C2  UNL     1      60.366  36.076  50.644  1.00  0.00     0.188 C 
BRANCH   6   7
HETATM    7  C1  UNL     1      60.026  34.839  49.842  1.00  0.00     0.207 C 
BRANCH   7   8
HETATM    8  O1  UNL     1      59.860  33.768  50.712  1.00  0.00    -0.398 OA
ATOM      9  H1  UNL     1      60.600  33.179  50.622  1.00  0.00     0.209 HD
ENDBRANCH   7   8
ENDBRANCH   6   7
BRANCH   6  10
HETATM   10  C3  UNL     1      61.122  35.640  51.877  1.00  0.00     0.207 C 
BRANCH  10  11
HETATM   11  O2  UNL     1      60.372  35.907  52.999  1.00  0.00    -0.398 OA
ATOM     12  H2  UNL     1      60.833  35.603  53.771  1.00  0.00     0.209 HD
ENDBRANCH  10  11
ENDBRANCH   6  10
BRANCH   6  13
HETATM   13  C4  UNL     1      59.078  36.773  50.980  1.00  0.00     0.207 C 
BRANCH  13  14
HETATM   14  O3  UNL     1      58.062  35.895  51.308  1.00  0.00    -0.398 OA
ATOM     15  H3  UNL     1      57.214  36.173  50.984  1.00  0.00     0.209 HD
ENDBRANCH  13  14
ENDBRANCH   6  13
ENDBRANCH   3   6
ENDBRANCH   2   3
ENDBRANCH   1   2
BRANCH   1  16
HETATM   16  C7  UNL     1      60.553  38.903  46.685  1.00  0.00     0.235 C 
BRANCH  16  17
HETATM   17  N2  UNL     1      59.512  37.954  46.477  1.00  0.00    -0.060 N 
ATOM     18  H22 UNL     1      59.490  37.274  47.237  1.00  0.00     0.278 HD
ATOM     19  H21 UNL     1      58.599  38.388  46.610  1.00  0.00     0.278 HD
BRANCH  17  20
HETATM   20  C8  UNL     1      59.577  37.275  45.177  1.00  0.00     0.188 C 
BRANCH  20  21
HETATM   21  C9  UNL     1      59.957  38.311  44.167  1.00  0.00     0.207 C 
BRANCH  21  22
HETATM   22  O4  UNL     1      59.241  38.267  42.991  1.00  0.00    -0.398 OA
ATOM     23  H4  UNL     1      59.036  39.115  42.614  1.00  0.00     0.209 HD
ENDBRANCH  21  22
ENDBRANCH  20  21
BRANCH  20  24
HETATM   24  C10 UNL     1      58.202  36.726  44.922  1.00  0.00     0.207 C 
BRANCH  24  25
HETATM   25  O5  UNL     1      58.193  35.637  44.052  1.00  0.00    -0.398 OA
ATOM     26  H5  UNL     1      58.849  35.694  43.369  1.00  0.00     0.209 HD
ENDBRANCH  24  25
ENDBRANCH  20  24
BRANCH  20  27
HETATM   27  C11 UNL     1      60.606  36.196  45.341  1.00  0.00     0.207 C 
BRANCH  27  28
HETATM   28  O6  UNL     1      60.317  35.218  46.243  1.00  0.00    -0.398 OA
ATOM     29  H6  UNL     1      61.053  34.710  46.563  1.00  0.00     0.209 HD
ENDBRANCH  27  28
ENDBRANCH  20  27
ENDBRANCH  17  20
ENDBRANCH  16  17
ENDBRANCH   1  16
TORSDOF 18
ENDMDL
