MODEL 2
REMARK VINA RESULT: -5.860290510      0.083      1.716
REMARK  18 active torsions:
REMARK  status: ('A' for Active; 'I' for Inactive)
REMARK    1  A    between atoms: O1_1  and  C1_3 
REMARK    2  A    between atoms: C1_3  and  C2_4 
REMARK    3  A    between atoms: C2_4  and  C3_5 
REMARK    4  A    between atoms: C2_4  and  C4_8 
REMARK    5  A    between atoms: C2_4  and  N1_11 
REMARK    6  A    between atoms: C3_5  and  O2_6 
REMARK    7  A    between atoms: C4_8  and  O3_9 
REMARK    8  A    between atoms: N1_11  and  C5_14 
REMARK    9  A    between atoms: C5_14  and  C6_15 
REMARK   10  A    between atoms: C6_15  and  C7_16 
REMARK   11  A    between atoms: C7_16  and  N2_17 
REMARK   12  A    between atoms: N2_17  and  C8_20 
REMARK   13  A    between atoms: C8_20  and  C9_21 
REMARK   14  A    between atoms: C8_20  and  C10_24 
REMARK   15  A    between atoms: C8_20  and  C11_27 
REMARK   16  A    between atoms: C9_21  and  O4_22 
REMARK   17  A    between atoms: C10_24  and  O5_25 
REMARK   18  A    between atoms: C11_27  and  O6_28 
ROOT
HETATM    1  C6  UNL     1      61.147  38.341  48.283  1.00  0.00     0.055 C 
ENDROOT
BRANCH   1   2
HETATM    2  C5  UNL     1      60.604  38.813  46.962  1.00  0.00     0.235 C 
BRANCH   2   3
HETATM    3  N1  UNL     1      59.509  37.958  46.556  1.00  0.00    -0.060 N 
ATOM      4  H12 UNL     1      58.619  38.455  46.595  1.00  0.00     0.278 HD
ATOM      5  H11 UNL     1      59.324  37.239  47.255  1.00  0.00     0.278 HD
BRANCH   3   6
HETATM    6  C2  UNL     1      59.726  37.376  45.252  1.00  0.00     0.188 C 
BRANCH   6   7
HETATM    7  C1  UNL     1      60.238  38.469  44.340  1.00  0.00     0.207 C 
BRANCH   7   8
HETATM    8  O1  UNL     1      59.409  38.555  43.228  1.00  0.00    -0.398 OA
ATOM      9  H1  UNL     1      59.721  39.252  42.663  1.00  0.00     0.209 HD
ENDBRANCH   7   8
ENDBRANCH   6   7
BRANCH   6  10
HETATM   10  C3  UNL     1      60.759  36.274  45.287  1.00  0.00     0.207 C 
BRANCH  10  11
HETATM   11  O2  UNL     1      60.346  35.277  46.138  1.00  0.00    -0.398 OA
ATOM     12  H2  UNL     1      60.749  34.454  45.888  1.00  0.00     0.209 HD
ENDBRANCH  10  11
ENDBRANCH   6  10
BRANCH   6  13
HETATM   13  C4  UNL     1      58.407  36.905  44.708  1.00  0.00     0.207 C 
BRANCH  13  14
HETATM   14  O3  UNL     1      58.522  35.766  43.932  1.00  0.00    -0.398 OA
ATOM     15  H3  UNL     1      57.763  35.616  43.380  1.00  0.00     0.209 HD
ENDBRANCH  13  14
ENDBRANCH   6  13
ENDBRANCH   3   6
ENDBRANCH   2   3
ENDBRANCH   1   2
BRANCH   1  16
HETATM   16  C7  UNL     1      60.163  37.374  48.938  1.00  0.00     0.235 C 
BRANCH  16  17
HETATM   17  N2  UNL     1      60.790  36.096  48.980  1.00  0.00    -0.060 N 
ATOM     18  H22 UNL     1      60.652  35.600  48.100  1.00  0.00     0.278 HD
ATOM     19  H21 UNL     1      61.806  36.194  48.964  1.00  0.00     0.278 HD
BRANCH  17  20
HETATM   20  C8  UNL     1      60.370  35.264  50.113  1.00  0.00     0.188 C 
BRANCH  20  21
HETATM   21  C9  UNL     1      59.001  35.725  50.504  1.00  0.00     0.207 C 
BRANCH  21  22
HETATM   22  O4  UNL     1      58.536  35.221  51.698  1.00  0.00    -0.398 OA
ATOM     23  H4  UNL     1      57.940  35.791  52.169  1.00  0.00     0.209 HD
ENDBRANCH  21  22
ENDBRANCH  20  21
BRANCH  20  24
HETATM   24  C10 UNL     1      61.372  35.504  51.206  1.00  0.00     0.207 C 
BRANCH  24  25
HETATM   25  O5  UNL     1      61.340  34.539  52.210  1.00  0.00    -0.398 OA
ATOM     26  H5  UNL     1      62.188  34.150  52.386  1.00  0.00     0.209 HD
ENDBRANCH  24  25
ENDBRANCH  20  24
BRANCH  20  27
HETATM   27  C11 UNL     1      60.400  33.853  49.605  1.00  0.00     0.207 C 
BRANCH  27  28
HETATM   28  O6  UNL     1      59.651  32.947  50.293  1.00  0.00    -0.398 OA
ATOM     29  H6  UNL     1      58.709  33.013  50.186  1.00  0.00     0.209 HD
ENDBRANCH  27  28
ENDBRANCH  20  27
ENDBRANCH  17  20
ENDBRANCH  16  17
ENDBRANCH   1  16
TORSDOF 18
ENDMDL
