MODEL 1
REMARK VINA RESULT: -5.868338802      0.000      0.000
REMARK  18 active torsions:
REMARK  status: ('A' for Active; 'I' for Inactive)
REMARK    1  A    between atoms: O1_1  and  C1_3 
REMARK    2  A    between atoms: C1_3  and  C2_4 
REMARK    3  A    between atoms: C2_4  and  C3_5 
REMARK    4  A    between atoms: C2_4  and  C4_8 
REMARK    5  A    between atoms: C2_4  and  N1_11 
REMARK    6  A    between atoms: C3_5  and  O2_6 
REMARK    7  A    between atoms: C4_8  and  O3_9 
REMARK    8  A    between atoms: N1_11  and  C5_14 
REMARK    9  A    between atoms: C5_14  and  C6_15 
REMARK   10  A    between atoms: C6_15  and  C7_16 
REMARK   11  A    between atoms: C7_16  and  N2_17 
REMARK   12  A    between atoms: N2_17  and  C8_20 
REMARK   13  A    between atoms: C8_20  and  C9_21 
REMARK   14  A    between atoms: C8_20  and  C10_24 
REMARK   15  A    between atoms: C8_20  and  C11_27 
REMARK   16  A    between atoms: C9_21  and  O4_22 
REMARK   17  A    between atoms: C10_24  and  O5_25 
REMARK   18  A    between atoms: C11_27  and  O6_28 
ROOT
HETATM    1  C6  UNL     1      61.149  38.314  48.275  1.00  0.00     0.055 C 
ENDROOT
BRANCH   1   2
HETATM    2  C5  UNL     1      60.530  38.819  47.000  1.00  0.00     0.235 C 
BRANCH   2   3
HETATM    3  N1  UNL     1      59.472  37.924  46.588  1.00  0.00    -0.060 N 
ATOM      4  H12 UNL     1      58.557  38.364  46.688  1.00  0.00     0.278 HD
ATOM      5  H11 UNL     1      59.357  37.157  47.251  1.00  0.00     0.278 HD
BRANCH   3   6
HETATM    6  C2  UNL     1      59.668  37.427  45.246  1.00  0.00     0.188 C 
BRANCH   6   7
HETATM    7  C1  UNL     1      58.331  36.927  44.741  1.00  0.00     0.207 C 
BRANCH   7   8
HETATM    8  O1  UNL     1      58.534  35.778  43.986  1.00  0.00    -0.398 OA
ATOM      9  H1  UNL     1      58.434  35.991  43.066  1.00  0.00     0.209 HD
ENDBRANCH   7   8
ENDBRANCH   6   7
BRANCH   6  10
HETATM   10  C3  UNL     1      60.148  38.507  44.304  1.00  0.00     0.207 C 
BRANCH  10  11
HETATM   11  O2  UNL     1      59.330  38.556  43.200  1.00  0.00    -0.398 OA
ATOM     12  H2  UNL     1      59.771  39.016  42.496  1.00  0.00     0.209 HD
ENDBRANCH  10  11
ENDBRANCH   6  10
BRANCH   6  13
HETATM   13  C4  UNL     1      60.606  36.255  45.296  1.00  0.00     0.207 C 
BRANCH  13  14
HETATM   14  O3  UNL     1      60.216  35.293  46.210  1.00  0.00    -0.398 OA
ATOM     15  H3  UNL     1      60.751  34.508  46.171  1.00  0.00     0.209 HD
ENDBRANCH  13  14
ENDBRANCH   6  13
ENDBRANCH   3   6
ENDBRANCH   2   3
ENDBRANCH   1   2
BRANCH   1  16
HETATM   16  C7  UNL     1      60.180  37.376  48.991  1.00  0.00     0.235 C 
BRANCH  16  17
HETATM   17  N2  UNL     1      60.774  36.082  49.001  1.00  0.00    -0.060 N 
ATOM     18  H22 UNL     1      60.592  35.597  48.123  1.00  0.00     0.278 HD
ATOM     19  H21 UNL     1      61.790  36.153  48.951  1.00  0.00     0.278 HD
BRANCH  17  20
HETATM   20  C8  UNL     1      60.370  35.251  50.143  1.00  0.00     0.188 C 
BRANCH  20  21
HETATM   21  C9  UNL     1      59.021  35.735  50.574  1.00  0.00     0.207 C 
BRANCH  21  22
HETATM   22  O4  UNL     1      58.581  35.232  51.777  1.00  0.00    -0.398 OA
ATOM     23  H4  UNL     1      57.657  35.011  51.806  1.00  0.00     0.209 HD
ENDBRANCH  21  22
ENDBRANCH  20  21
BRANCH  20  24
HETATM   24  C10 UNL     1      61.407  35.469  51.207  1.00  0.00     0.207 C 
BRANCH  24  25
HETATM   25  O5  UNL     1      61.428  34.466  52.174  1.00  0.00    -0.398 OA
ATOM     26  H5  UNL     1      60.676  34.484  52.754  1.00  0.00     0.209 HD
ENDBRANCH  24  25
ENDBRANCH  20  24
BRANCH  20  27
HETATM   27  C11 UNL     1      60.361  33.842  49.628  1.00  0.00     0.207 C 
BRANCH  27  28
HETATM   28  O6  UNL     1      59.625  32.945  50.339  1.00  0.00    -0.398 OA
ATOM     29  H6  UNL     1      60.112  32.280  50.811  1.00  0.00     0.209 HD
ENDBRANCH  27  28
ENDBRANCH  20  27
ENDBRANCH  17  20
ENDBRANCH  16  17
ENDBRANCH   1  16
TORSDOF 18
ENDMDL
