MODEL 3
REMARK VINA RESULT: -5.832956274      0.293      1.563
REMARK  18 active torsions:
REMARK  status: ('A' for Active; 'I' for Inactive)
REMARK    1  A    between atoms: O1_1  and  C1_3 
REMARK    2  A    between atoms: C1_3  and  C2_4 
REMARK    3  A    between atoms: C2_4  and  C3_5 
REMARK    4  A    between atoms: C2_4  and  C4_8 
REMARK    5  A    between atoms: C2_4  and  N1_11 
REMARK    6  A    between atoms: C3_5  and  O2_6 
REMARK    7  A    between atoms: C4_8  and  O3_9 
REMARK    8  A    between atoms: N1_11  and  C5_14 
REMARK    9  A    between atoms: C5_14  and  C6_15 
REMARK   10  A    between atoms: C6_15  and  C7_16 
REMARK   11  A    between atoms: C7_16  and  N2_17 
REMARK   12  A    between atoms: N2_17  and  C8_20 
REMARK   13  A    between atoms: C8_20  and  C9_21 
REMARK   14  A    between atoms: C8_20  and  C10_24 
REMARK   15  A    between atoms: C8_20  and  C11_27 
REMARK   16  A    between atoms: C9_21  and  O4_22 
REMARK   17  A    between atoms: C10_24  and  O5_25 
REMARK   18  A    between atoms: C11_27  and  O6_28 
ROOT
HETATM    1  C6  UNL     1      60.901  38.321  48.165  1.00  0.00     0.055 C 
ENDROOT
BRANCH   1   2
HETATM    2  C5  UNL     1      60.049  38.840  47.038  1.00  0.00     0.235 C 
BRANCH   2   3
HETATM    3  N1  UNL     1      59.322  37.743  46.437  1.00  0.00    -0.060 N 
ATOM      4  H12 UNL     1      58.316  37.913  46.457  1.00  0.00     0.278 HD
ATOM      5  H11 UNL     1      59.358  36.910  47.024  1.00  0.00     0.278 HD
BRANCH   3   6
HETATM    6  C2  UNL     1      59.776  37.457  45.096  1.00  0.00     0.188 C 
BRANCH   6   7
HETATM    7  C1  UNL     1      58.558  37.141  44.256  1.00  0.00     0.207 C 
BRANCH   7   8
HETATM    8  O1  UNL     1      58.335  35.769  44.280  1.00  0.00    -0.398 OA
ATOM      9  H1  UNL     1      57.870  35.518  43.492  1.00  0.00     0.209 HD
ENDBRANCH   7   8
ENDBRANCH   6   7
BRANCH   6  10
HETATM   10  C3  UNL     1      60.481  38.638  44.470  1.00  0.00     0.207 C 
BRANCH  10  11
HETATM   11  O2  UNL     1      59.751  39.100  43.401  1.00  0.00    -0.398 OA
ATOM     12  H2  UNL     1      59.785  38.468  42.693  1.00  0.00     0.209 HD
ENDBRANCH  10  11
ENDBRANCH   6  10
BRANCH   6  13
HETATM   13  C4  UNL     1      60.641  36.228  45.130  1.00  0.00     0.207 C 
BRANCH  13  14
HETATM   14  O3  UNL     1      60.326  35.379  46.175  1.00  0.00    -0.398 OA
ATOM     15  H3  UNL     1      61.012  34.746  46.355  1.00  0.00     0.209 HD
ENDBRANCH  13  14
ENDBRANCH   6  13
ENDBRANCH   3   6
ENDBRANCH   2   3
ENDBRANCH   1   2
BRANCH   1  16
HETATM   16  C7  UNL     1      60.089  37.367  49.037  1.00  0.00     0.235 C 
BRANCH  16  17
HETATM   17  N2  UNL     1      60.790  36.128  49.075  1.00  0.00    -0.060 N 
ATOM     18  H22 UNL     1      60.725  35.652  48.176  1.00  0.00     0.278 HD
ATOM     19  H21 UNL     1      61.798  36.287  49.112  1.00  0.00     0.278 HD
BRANCH  17  20
HETATM   20  C8  UNL     1      60.367  35.237  50.163  1.00  0.00     0.188 C 
BRANCH  20  21
HETATM   21  C9  UNL     1      60.347  33.850  49.602  1.00  0.00     0.207 C 
BRANCH  21  22
HETATM   22  O4  UNL     1      59.620  32.938  50.334  1.00  0.00    -0.398 OA
ATOM     23  H4  UNL     1      59.958  32.050  50.318  1.00  0.00     0.209 HD
ENDBRANCH  21  22
ENDBRANCH  20  21
BRANCH  20  24
HETATM   24  C10 UNL     1      58.995  35.694  50.569  1.00  0.00     0.207 C 
BRANCH  24  25
HETATM   25  O5  UNL     1      58.599  35.215  51.816  1.00  0.00    -0.398 OA
ATOM     26  H5  UNL     1      58.556  35.890  52.483  1.00  0.00     0.209 HD
ENDBRANCH  24  25
ENDBRANCH  20  24
BRANCH  20  27
HETATM   27  C11 UNL     1      61.382  35.426  51.251  1.00  0.00     0.207 C 
BRANCH  27  28
HETATM   28  O6  UNL     1      61.455  34.439  52.186  1.00  0.00    -0.398 OA
ATOM     29  H6  UNL     1      62.231  34.435  52.734  1.00  0.00     0.209 HD
ENDBRANCH  27  28
ENDBRANCH  20  27
ENDBRANCH  17  20
ENDBRANCH  16  17
ENDBRANCH   1  16
TORSDOF 18
ENDMDL
