MODEL 6
REMARK VINA RESULT: -5.877475460      1.119      1.386
REMARK  5 active torsions:
REMARK  status: ('A' for Active; 'I' for Inactive)
REMARK    1  A    between atoms: C1_2  and  C2_4 
REMARK    2  A    between atoms: C2_4  and  O3_5 
REMARK    3  A    between atoms: C2_4  and  C3_7 
REMARK    4  A    between atoms: C3_7  and  O4_8 
REMARK    5  A    between atoms: O4_8  and  P1_9 
ROOT
HETATM    1  C2  UNL     1       6.630   7.278  22.158  1.00  0.00     0.243 C 
ENDROOT
BRANCH   1   2
HETATM    2  C1  UNL     1       6.347   5.917  22.721  1.00  0.00     0.205 C 
HETATM    3  O1  UNL     1       5.382   5.678  23.469  1.00  0.00    -0.646 OA
HETATM    4  O2  UNL     1       7.196   4.862  22.400  1.00  0.00    -0.646 OA
ENDBRANCH   1   2
BRANCH   1   5
HETATM    5  O3  UNL     1       7.826   7.700  22.729  1.00  0.00    -0.383 OA
ATOM      6  H3  UNL     1       8.304   8.158  22.047  1.00  0.00     0.210 HD
ENDBRANCH   1   5
BRANCH   1   7
HETATM    7  C3  UNL     1       5.509   8.176  22.550  1.00  0.00     0.225 C 
BRANCH   7   8
HETATM    8  O4  UNL     1       5.900   9.318  23.202  1.00  0.00    -0.280 OA
BRANCH   8   9
HETATM    9  P1  UNL     1       5.376   9.649  24.662  1.00  0.00     0.422 P 
HETATM   10  O5  UNL     1       3.831  10.363  24.898  1.00  0.00    -0.617 OA
HETATM   11  O6  UNL     1       5.970  11.062  24.767  1.00  0.00    -0.617 OA
HETATM   12  O7  UNL     1       6.202   9.204  26.028  1.00  0.00    -0.617 OA
ENDBRANCH   8   9
ENDBRANCH   7   8
ENDBRANCH   1   7
TORSDOF 5
ENDMDL
