MODEL 16
REMARK VINA RESULT: -5.652224505      2.171      4.904
REMARK  5 active torsions:
REMARK  status: ('A' for Active; 'I' for Inactive)
REMARK    1  A    between atoms: C1_2  and  C2_4 
REMARK    2  A    between atoms: C2_4  and  O3_5 
REMARK    3  A    between atoms: C2_4  and  C3_7 
REMARK    4  A    between atoms: C3_7  and  O4_8 
REMARK    5  A    between atoms: O4_8  and  P1_9 
ROOT
HETATM    1  C2  UNL     1       4.689   8.684  23.610  1.00  0.00     0.243 C 
ENDROOT
BRANCH   1   2
HETATM    2  C1  UNL     1       4.263   9.766  24.557  1.00  0.00     0.205 C 
HETATM    3  O1  UNL     1       5.042  10.318  25.354  1.00  0.00    -0.646 OA
HETATM    4  O2  UNL     1       2.934  10.180  24.556  1.00  0.00    -0.646 OA
ENDBRANCH   1   2
BRANCH   1   5
HETATM    5  O3  UNL     1       3.795   7.633  23.782  1.00  0.00    -0.383 OA
ATOM      6  H3  UNL     1       2.951   7.945  23.479  1.00  0.00     0.210 HD
ENDBRANCH   1   5
BRANCH   1   7
HETATM    7  C3  UNL     1       6.070   8.272  23.981  1.00  0.00     0.225 C 
BRANCH   7   8
HETATM    8  O4  UNL     1       6.231   6.921  24.154  1.00  0.00    -0.280 OA
BRANCH   8   9
HETATM    9  P1  UNL     1       7.345   6.119  23.359  1.00  0.00     0.422 P 
HETATM   10  O5  UNL     1       9.011   6.459  23.602  1.00  0.00    -0.617 OA
HETATM   11  O6  UNL     1       7.407   7.038  22.129  1.00  0.00    -0.617 OA
HETATM   12  O7  UNL     1       6.988   4.834  22.376  1.00  0.00    -0.617 OA
ENDBRANCH   8   9
ENDBRANCH   7   8
ENDBRANCH   1   7
TORSDOF 5
ENDMDL
