MODEL 5
REMARK VINA RESULT: -5.899890108      1.322      1.934
REMARK  5 active torsions:
REMARK  status: ('A' for Active; 'I' for Inactive)
REMARK    1  A    between atoms: C1_2  and  C2_4 
REMARK    2  A    between atoms: C2_4  and  O3_5 
REMARK    3  A    between atoms: C2_4  and  C3_7 
REMARK    4  A    between atoms: C3_7  and  O4_8 
REMARK    5  A    between atoms: O4_8  and  P1_9 
ROOT
HETATM    1  C2  UNL     1       6.393   8.049  21.611  1.00  0.00     0.243 C 
ENDROOT
BRANCH   1   2
HETATM    2  C1  UNL     1       6.950   7.193  22.709  1.00  0.00     0.205 C 
HETATM    3  O1  UNL     1       6.309   6.271  23.243  1.00  0.00    -0.646 OA
HETATM    4  O2  UNL     1       8.244   7.431  23.163  1.00  0.00    -0.646 OA
ENDBRANCH   1   2
BRANCH   1   5
HETATM    5  O3  UNL     1       7.364   9.004  21.324  1.00  0.00    -0.383 OA
ATOM      6  H3  UNL     1       7.134   9.779  21.821  1.00  0.00     0.210 HD
ENDBRANCH   1   5
BRANCH   1   7
HETATM    7  C3  UNL     1       5.151   8.693  22.120  1.00  0.00     0.225 C 
BRANCH   7   8
HETATM    8  O4  UNL     1       5.362   9.650  23.080  1.00  0.00    -0.280 OA
BRANCH   8   9
HETATM    9  P1  UNL     1       4.769   9.488  24.543  1.00  0.00     0.422 P 
HETATM   10  O5  UNL     1       3.242  10.161  24.949  1.00  0.00    -0.617 OA
HETATM   11  O6  UNL     1       5.410  10.744  25.154  1.00  0.00    -0.617 OA
HETATM   12  O7  UNL     1       5.499   8.556  25.702  1.00  0.00    -0.617 OA
ENDBRANCH   8   9
ENDBRANCH   7   8
ENDBRANCH   1   7
TORSDOF 5
ENDMDL
