MODEL 17
REMARK VINA RESULT: -5.603417932      2.052      4.821
REMARK  5 active torsions:
REMARK  status: ('A' for Active; 'I' for Inactive)
REMARK    1  A    between atoms: C1_2  and  C2_4 
REMARK    2  A    between atoms: C2_4  and  O3_5 
REMARK    3  A    between atoms: C2_4  and  C3_7 
REMARK    4  A    between atoms: C3_7  and  O4_8 
REMARK    5  A    between atoms: O4_8  and  P1_9 
ROOT
HETATM    1  C2  UNL     1       5.410   9.612  24.594  1.00  0.00     0.243 C 
ENDROOT
BRANCH   1   2
HETATM    2  C1  UNL     1       3.947   9.760  24.298  1.00  0.00     0.205 C 
HETATM    3  O1  UNL     1       3.132  10.231  25.112  1.00  0.00    -0.646 OA
HETATM    4  O2  UNL     1       3.463   9.354  23.057  1.00  0.00    -0.646 OA
ENDBRANCH   1   2
BRANCH   1   5
HETATM    5  O3  UNL     1       5.963  10.885  24.495  1.00  0.00    -0.383 OA
ATOM      6  H3  UNL     1       5.762  11.330  25.310  1.00  0.00     0.210 HD
ENDBRANCH   1   5
BRANCH   1   7
HETATM    7  C3  UNL     1       5.991   8.701  23.571  1.00  0.00     0.225 C 
BRANCH   7   8
HETATM    8  O4  UNL     1       6.149   7.404  23.992  1.00  0.00    -0.280 OA
BRANCH   8   9
HETATM    9  P1  UNL     1       7.195   6.437  23.293  1.00  0.00     0.422 P 
HETATM   10  O5  UNL     1       8.881   6.637  23.548  1.00  0.00    -0.617 OA
HETATM   11  O6  UNL     1       7.365   7.240  21.993  1.00  0.00    -0.617 OA
HETATM   12  O7  UNL     1       6.732   5.114  22.410  1.00  0.00    -0.617 OA
ENDBRANCH   8   9
ENDBRANCH   7   8
ENDBRANCH   1   7
TORSDOF 5
ENDMDL
