MODEL 15
REMARK VINA RESULT: -5.655323443      2.066      4.911
REMARK  5 active torsions:
REMARK  status: ('A' for Active; 'I' for Inactive)
REMARK    1  A    between atoms: C1_2  and  C2_4 
REMARK    2  A    between atoms: C2_4  and  O3_5 
REMARK    3  A    between atoms: C2_4  and  C3_7 
REMARK    4  A    between atoms: C3_7  and  O4_8 
REMARK    5  A    between atoms: O4_8  and  P1_9 
ROOT
HETATM    1  C2  UNL     1       4.494   8.616  23.218  1.00  0.00     0.243 C 
ENDROOT
BRANCH   1   2
HETATM    2  C1  UNL     1       4.630   9.781  24.152  1.00  0.00     0.205 C 
HETATM    3  O1  UNL     1       3.741  10.117  24.955  1.00  0.00    -0.646 OA
HETATM    4  O2  UNL     1       5.802  10.532  24.131  1.00  0.00    -0.646 OA
ENDBRANCH   1   2
BRANCH   1   5
HETATM    5  O3  UNL     1       3.824   7.621  23.923  1.00  0.00    -0.383 OA
ATOM      6  H3  UNL     1       4.493   7.084  24.331  1.00  0.00     0.210 HD
ENDBRANCH   1   5
BRANCH   1   7
HETATM    7  C3  UNL     1       5.863   8.171  22.843  1.00  0.00     0.225 C 
BRANCH   7   8
HETATM    8  O4  UNL     1       5.978   6.823  22.615  1.00  0.00    -0.280 OA
BRANCH   8   9
HETATM    9  P1  UNL     1       6.982   5.931  23.459  1.00  0.00     0.422 P 
HETATM   10  O5  UNL     1       8.675   6.215  23.394  1.00  0.00    -0.617 OA
HETATM   11  O6  UNL     1       7.194   4.829  22.410  1.00  0.00    -0.617 OA
HETATM   12  O7  UNL     1       6.464   4.791  24.545  1.00  0.00    -0.617 OA
ENDBRANCH   8   9
ENDBRANCH   7   8
ENDBRANCH   1   7
TORSDOF 5
ENDMDL
