MODEL 1
REMARK VINA RESULT: -6.074795805      0.000      0.000
REMARK  5 active torsions:
REMARK  status: ('A' for Active; 'I' for Inactive)
REMARK    1  A    between atoms: C1_2  and  C2_4 
REMARK    2  A    between atoms: C2_4  and  O3_5 
REMARK    3  A    between atoms: C2_4  and  C3_7 
REMARK    4  A    between atoms: C3_7  and  O4_8 
REMARK    5  A    between atoms: O4_8  and  P1_9 
ROOT
HETATM    1  C2  UNL     1       6.261   7.024  22.485  1.00  0.00     0.243 C 
ENDROOT
BRANCH   1   2
HETATM    2  C1  UNL     1       6.573   5.608  22.869  1.00  0.00     0.205 C 
HETATM    3  O1  UNL     1       6.456   5.176  24.030  1.00  0.00    -0.646 OA
HETATM    4  O2  UNL     1       7.016   4.723  21.890  1.00  0.00    -0.646 OA
ENDBRANCH   1   2
BRANCH   1   5
HETATM    5  O3  UNL     1       7.128   7.351  21.447  1.00  0.00    -0.383 OA
ATOM      6  H3  UNL     1       7.969   7.536  21.847  1.00  0.00     0.210 HD
ENDBRANCH   1   5
BRANCH   1   7
HETATM    7  C3  UNL     1       6.510   7.883  23.675  1.00  0.00     0.225 C 
BRANCH   7   8
HETATM    8  O4  UNL     1       5.377   8.245  24.358  1.00  0.00    -0.280 OA
BRANCH   8   9
HETATM    9  P1  UNL     1       5.006   9.772  24.579  1.00  0.00     0.422 P 
HETATM   10  O5  UNL     1       3.414  10.231  25.034  1.00  0.00    -0.617 OA
HETATM   11  O6  UNL     1       4.610  10.089  23.129  1.00  0.00    -0.617 OA
HETATM   12  O7  UNL     1       6.139  10.980  24.530  1.00  0.00    -0.617 OA
ENDBRANCH   8   9
ENDBRANCH   7   8
ENDBRANCH   1   7
TORSDOF 5
ENDMDL
