MODEL 5
REMARK VINA RESULT: -5.814805840      1.909      3.114
REMARK  0 active torsions:
REMARK  status: ('A' for Active; 'I' for Inactive)
ROOT
HETATM    1  C1  UNL     1      16.335 -10.126  10.672  1.00  0.00     0.089 C 
HETATM    2  C2  UNL     1      17.751  -9.969  11.143  1.00  0.00     0.080 A 
HETATM    3  N1  UNL     1      18.542 -11.049  11.326  1.00  0.00    -0.349 N 
ATOM      4  H1  UNL     1      18.167 -11.980  11.141  1.00  0.00     0.167 HD
HETATM    5  C3  UNL     1      19.814 -10.921  11.747  1.00  0.00     0.023 A 
HETATM    6  C4  UNL     1      20.340  -9.672  12.004  1.00  0.00     0.042 A 
HETATM    7  C5  UNL     1      19.539  -8.574  11.820  1.00  0.00     0.255 A 
HETATM    8  O1  UNL     1      20.022  -7.436  12.055  1.00  0.00    -0.268 OA
HETATM    9  N2  UNL     1      18.282  -8.778  11.398  1.00  0.00    -0.313 N 
ATOM     10  H2  UNL     1      17.690  -7.958  11.261  1.00  0.00     0.170 HD
HETATM   11  C6  UNL     1      21.764  -9.545  12.476  1.00  0.00     0.120 C 
HETATM   12  S1  UNL     1      21.909 -10.663  13.913  1.00  0.00    -0.164 SA
HETATM   13  C7  UNL     1      20.958 -12.165  13.466  1.00  0.00     0.080 C 
HETATM   14  C8  UNL     1      20.706 -12.091  11.956  1.00  0.00     0.068 C 
ENDROOT
TORSDOF 0
ENDMDL
