MODEL 1
REMARK VINA RESULT: -6.051159049      0.000      0.000
REMARK  0 active torsions:
REMARK  status: ('A' for Active; 'I' for Inactive)
ROOT
HETATM    1  C1  UNL     1      16.053  -9.977  10.345  1.00  0.00     0.089 C 
HETATM    2  C2  UNL     1      17.411  -9.775  10.952  1.00  0.00     0.080 A 
HETATM    3  N1  UNL     1      17.838  -8.541  11.297  1.00  0.00    -0.349 N 
ATOM      4  H1  UNL     1      17.227  -7.739  11.140  1.00  0.00     0.167 HD
HETATM    5  C3  UNL     1      19.053  -8.348  11.844  1.00  0.00     0.023 A 
HETATM    6  C4  UNL     1      19.896  -9.418  12.064  1.00  0.00     0.042 A 
HETATM    7  C5  UNL     1      19.465 -10.672  11.714  1.00  0.00     0.255 A 
HETATM    8  O1  UNL     1      20.236 -11.646  11.917  1.00  0.00    -0.268 OA
HETATM    9  N2  UNL     1      18.241 -10.789  11.175  1.00  0.00    -0.313 N 
ATOM     10  H2  UNL     1      17.925 -11.724  10.918  1.00  0.00     0.170 HD
HETATM   11  C6  UNL     1      21.251  -9.186  12.675  1.00  0.00     0.120 C 
HETATM   12  S1  UNL     1      22.036  -7.889  11.656  1.00  0.00    -0.164 SA
HETATM   13  C7  UNL     1      20.705  -6.686  11.280  1.00  0.00     0.080 C 
HETATM   14  C8  UNL     1      19.547  -7.001  12.232  1.00  0.00     0.068 C 
ENDROOT
TORSDOF 0
ENDMDL
