MODEL 4
REMARK VINA RESULT: -5.965038297      3.733      5.252
REMARK  0 active torsions:
REMARK  status: ('A' for Active; 'I' for Inactive)
ROOT
HETATM    1  C1  UNL     1      19.657  -5.356  12.100  1.00  0.00     0.089 C 
HETATM    2  C2  UNL     1      18.423  -6.162  11.819  1.00  0.00     0.080 A 
HETATM    3  N1  UNL     1      18.496  -7.498  11.634  1.00  0.00    -0.349 N 
ATOM      4  H1  UNL     1      19.404  -7.960  11.685  1.00  0.00     0.167 HD
HETATM    5  C3  UNL     1      17.395  -8.232  11.383  1.00  0.00     0.023 A 
HETATM    6  C4  UNL     1      16.158  -7.627  11.308  1.00  0.00     0.042 A 
HETATM    7  C5  UNL     1      16.080  -6.270  11.495  1.00  0.00     0.255 A 
HETATM    8  O1  UNL     1      14.949  -5.722  11.426  1.00  0.00    -0.268 OA
HETATM    9  N2  UNL     1      17.219  -5.604  11.742  1.00  0.00    -0.313 N 
ATOM     10  H2  UNL     1      17.156  -4.596  11.881  1.00  0.00     0.170 HD
HETATM   11  C6  UNL     1      14.937  -8.460  11.025  1.00  0.00     0.120 C 
HETATM   12  S1  UNL     1      15.330  -9.416   9.519  1.00  0.00    -0.164 SA
HETATM   13  C7  UNL     1      17.077  -9.935   9.707  1.00  0.00     0.080 C 
HETATM   14  C8  UNL     1      17.448  -9.702  11.175  1.00  0.00     0.068 C 
ENDROOT
TORSDOF 0
ENDMDL
