MODEL 2
REMARK VINA RESULT: -5.993079949      1.284      1.400
REMARK  0 active torsions:
REMARK  status: ('A' for Active; 'I' for Inactive)
ROOT
HETATM    1  C1  UNL     1      15.085  -8.456  10.190  1.00  0.00     0.089 C 
HETATM    2  C2  UNL     1      16.467  -8.465  10.775  1.00  0.00     0.080 A 
HETATM    3  N1  UNL     1      17.035  -7.325  11.224  1.00  0.00    -0.349 N 
ATOM      4  H1  UNL     1      16.516  -6.449  11.161  1.00  0.00     0.167 HD
HETATM    5  C3  UNL     1      18.274  -7.322  11.752  1.00  0.00     0.023 A 
HETATM    6  C4  UNL     1      18.995  -8.494  11.844  1.00  0.00     0.042 A 
HETATM    7  C5  UNL     1      18.420  -9.653  11.388  1.00  0.00     0.255 A 
HETATM    8  O1  UNL     1      19.081 -10.721  11.475  1.00  0.00    -0.268 OA
HETATM    9  N2  UNL     1      17.182  -9.581  10.876  1.00  0.00    -0.313 N 
ATOM     10  H2  UNL     1      16.759 -10.445  10.539  1.00  0.00     0.170 HD
HETATM   11  C6  UNL     1      20.378  -8.474  12.436  1.00  0.00     0.120 C 
HETATM   12  S1  UNL     1      21.285  -7.177  11.524  1.00  0.00    -0.164 SA
HETATM   13  C7  UNL     1      20.092  -5.804  11.303  1.00  0.00     0.080 C 
HETATM   14  C8  UNL     1      18.923  -6.082  12.253  1.00  0.00     0.068 C 
ENDROOT
TORSDOF 0
ENDMDL
