MODEL 3
REMARK VINA RESULT: -6.670751563      0.788      1.321
REMARK  4 active torsions:
REMARK  status: ('A' for Active; 'I' for Inactive)
REMARK    1  A    between atoms: C1_2  and  C2_3 
REMARK       I    between atoms: C1_2  and  N1_9 
REMARK    2  A    between atoms: C2_3  and  O2_4 
REMARK    3  A    between atoms: O2_4  and  P1_5 
REMARK    4  A    between atoms: N1_9  and  O6_11 
ROOT
HETATM    1  O1  UNL     1       2.677   1.702   4.297  1.00  0.00    -0.269 OA
HETATM    2  C1  UNL     1       3.052   1.641   5.519  1.00  0.00     0.265 C 
HETATM    3  N1  UNL     1       3.642   0.434   5.946  1.00  0.00    -0.236 N 
ATOM      4  H1  UNL     1       3.958   0.334   6.911  1.00  0.00     0.197 HD
ENDROOT
BRANCH   2   5
HETATM    5  C2  UNL     1       2.831   2.819   6.340  1.00  0.00     0.287 C 
BRANCH   5   6
HETATM    6  O2  UNL     1       1.492   3.214   6.328  1.00  0.00    -0.273 OA
BRANCH   6   7
HETATM    7  P1  UNL     1       1.239   4.726   6.213  1.00  0.00     0.422 P 
HETATM    8  O3  UNL     1       1.008   6.244   6.184  1.00  0.00    -0.617 OA
HETATM    9  O4  UNL     1       2.594   4.857   5.287  1.00  0.00    -0.617 OA
HETATM   10  O5  UNL     1      -0.190   4.455   5.435  1.00  0.00    -0.617 OA
ENDBRANCH   6   7
ENDBRANCH   5   6
ENDBRANCH   2   5
BRANCH   3  11
HETATM   11  O6  UNL     1       3.790  -0.585   5.083  1.00  0.00    -0.287 OA
ATOM     12  H6  UNL     1       3.727  -1.482   5.391  1.00  0.00     0.244 HD
ENDBRANCH   3  11
TORSDOF 4
ENDMDL
