MODEL 5
REMARK VINA RESULT: -6.541040426      1.534      1.535
REMARK  4 active torsions:
REMARK  status: ('A' for Active; 'I' for Inactive)
REMARK    1  A    between atoms: C1_2  and  C2_3 
REMARK       I    between atoms: C1_2  and  N1_9 
REMARK    2  A    between atoms: C2_3  and  O2_4 
REMARK    3  A    between atoms: O2_4  and  P1_5 
REMARK    4  A    between atoms: N1_9  and  O6_11 
ROOT
HETATM    1  O1  UNL     1       4.455   1.451   5.581  1.00  0.00    -0.269 OA
HETATM    2  C1  UNL     1       3.371   1.680   6.222  1.00  0.00     0.265 C 
HETATM    3  N1  UNL     1       3.363   1.364   7.596  1.00  0.00    -0.236 N 
ATOM      4  H1  UNL     1       2.523   1.527   8.152  1.00  0.00     0.197 HD
ENDROOT
BRANCH   2   5
HETATM    5  C2  UNL     1       2.262   2.240   5.470  1.00  0.00     0.287 C 
BRANCH   5   6
HETATM    6  O2  UNL     1       1.507   3.124   6.242  1.00  0.00    -0.273 OA
BRANCH   6   7
HETATM    7  P1  UNL     1       1.631   4.612   5.875  1.00  0.00     0.422 P 
HETATM    8  O3  UNL     1       1.800   6.074   5.435  1.00  0.00    -0.617 OA
HETATM    9  O4  UNL     1       0.018   4.641   5.549  1.00  0.00    -0.617 OA
HETATM   10  O5  UNL     1       2.103   4.980   7.412  1.00  0.00    -0.617 OA
ENDBRANCH   6   7
ENDBRANCH   5   6
ENDBRANCH   2   5
BRANCH   3  11
HETATM   11  O6  UNL     1       4.460   0.849   8.175  1.00  0.00    -0.287 OA
ATOM     12  H6  UNL     1       5.297   1.290   8.086  1.00  0.00     0.244 HD
ENDBRANCH   3  11
TORSDOF 4
ENDMDL
