MODEL 6
REMARK VINA RESULT: -6.501446869      2.453      4.835
REMARK  4 active torsions:
REMARK  status: ('A' for Active; 'I' for Inactive)
REMARK    1  A    between atoms: C1_2  and  C2_3 
REMARK       I    between atoms: C1_2  and  N1_9 
REMARK    2  A    between atoms: C2_3  and  O2_4 
REMARK    3  A    between atoms: O2_4  and  P1_5 
REMARK    4  A    between atoms: N1_9  and  O6_11 
ROOT
HETATM    1  O1  UNL     1      -0.013   4.562   5.571  1.00  0.00    -0.269 OA
HETATM    2  C1  UNL     1       1.182   4.282   5.931  1.00  0.00     0.265 C 
HETATM    3  N1  UNL     1       2.070   5.366   6.094  1.00  0.00    -0.236 N 
ATOM      4  H1  UNL     1       3.034   5.195   6.380  1.00  0.00     0.197 HD
ENDROOT
BRANCH   2   5
HETATM    5  C2  UNL     1       1.502   2.880   6.135  1.00  0.00     0.287 C 
BRANCH   5   6
HETATM    6  O2  UNL     1       2.865   2.632   5.970  1.00  0.00    -0.273 OA
BRANCH   6   7
HETATM    7  P1  UNL     1       3.242   1.200   5.555  1.00  0.00     0.422 P 
HETATM    8  O3  UNL     1       3.696  -0.219   5.180  1.00  0.00    -0.617 OA
HETATM    9  O4  UNL     1       2.152   0.623   6.645  1.00  0.00    -0.617 OA
HETATM   10  O5  UNL     1       2.708   1.476   4.019  1.00  0.00    -0.617 OA
ENDBRANCH   6   7
ENDBRANCH   5   6
ENDBRANCH   2   5
BRANCH   3  11
HETATM   11  O6  UNL     1       1.647   6.621   5.874  1.00  0.00    -0.287 OA
ATOM     12  H6  UNL     1       2.265   7.292   5.607  1.00  0.00     0.244 HD
ENDBRANCH   3  11
TORSDOF 4
ENDMDL
