MODEL 1
REMARK VINA RESULT: -7.059853078      0.000      0.000
REMARK  4 active torsions:
REMARK  status: ('A' for Active; 'I' for Inactive)
REMARK    1  A    between atoms: C1_2  and  C2_3 
REMARK       I    between atoms: C1_2  and  N1_9 
REMARK    2  A    between atoms: C2_3  and  O2_4 
REMARK    3  A    between atoms: O2_4  and  P1_5 
REMARK    4  A    between atoms: N1_9  and  O6_11 
ROOT
HETATM    1  O1  UNL     1       2.743   1.586   4.180  1.00  0.00    -0.269 OA
HETATM    2  C1  UNL     1       3.097   1.593   5.410  1.00  0.00     0.265 C 
HETATM    3  N1  UNL     1       3.677   0.410   5.913  1.00  0.00    -0.236 N 
ATOM      4  H1  UNL     1       3.976   0.364   6.887  1.00  0.00     0.197 HD
ENDROOT
BRANCH   2   5
HETATM    5  C2  UNL     1       2.864   2.814   6.160  1.00  0.00     0.287 C 
BRANCH   5   6
HETATM    6  O2  UNL     1       1.666   3.428   5.791  1.00  0.00    -0.273 OA
BRANCH   6   7
HETATM    7  P1  UNL     1       1.656   4.964   5.837  1.00  0.00     0.422 P 
HETATM    8  O3  UNL     1       1.693   6.500   5.807  1.00  0.00    -0.617 OA
HETATM    9  O4  UNL     1       0.048   4.940   5.491  1.00  0.00    -0.617 OA
HETATM   10  O5  UNL     1       2.093   4.947   7.427  1.00  0.00    -0.617 OA
ENDBRANCH   6   7
ENDBRANCH   5   6
ENDBRANCH   2   5
BRANCH   3  11
HETATM   11  O6  UNL     1       3.838  -0.655   5.111  1.00  0.00    -0.287 OA
ATOM     12  H6  UNL     1       4.621  -1.188   5.179  1.00  0.00     0.244 HD
ENDBRANCH   3  11
TORSDOF 4
ENDMDL
