MODEL 4
REMARK VINA RESULT: -6.639344054      2.435      4.769
REMARK  4 active torsions:
REMARK  status: ('A' for Active; 'I' for Inactive)
REMARK    1  A    between atoms: C1_2  and  C2_3 
REMARK       I    between atoms: C1_2  and  N1_9 
REMARK    2  A    between atoms: C2_3  and  O2_4 
REMARK    3  A    between atoms: O2_4  and  P1_5 
REMARK    4  A    between atoms: N1_9  and  O6_11 
ROOT
HETATM    1  O1  UNL     1       0.009   4.585   5.564  1.00  0.00    -0.269 OA
HETATM    2  C1  UNL     1       1.213   4.261   5.850  1.00  0.00     0.265 C 
HETATM    3  N1  UNL     1       2.136   5.315   6.012  1.00  0.00    -0.236 N 
ATOM      4  H1  UNL     1       3.109   5.109   6.239  1.00  0.00     0.197 HD
ENDROOT
BRANCH   2   5
HETATM    5  C2  UNL     1       1.506   2.844   5.978  1.00  0.00     0.287 C 
BRANCH   5   6
HETATM    6  O2  UNL     1       2.879   2.596   5.955  1.00  0.00    -0.273 OA
BRANCH   6   7
HETATM    7  P1  UNL     1       3.299   1.183   5.518  1.00  0.00     0.422 P 
HETATM    8  O3  UNL     1       3.654  -0.261   5.133  1.00  0.00    -0.617 OA
HETATM    9  O4  UNL     1       2.680   1.489   4.023  1.00  0.00    -0.617 OA
HETATM   10  O5  UNL     1       4.887   1.547   5.772  1.00  0.00    -0.617 OA
ENDBRANCH   6   7
ENDBRANCH   5   6
ENDBRANCH   2   5
BRANCH   3  11
HETATM   11  O6  UNL     1       1.736   6.588   5.866  1.00  0.00    -0.287 OA
ATOM     12  H6  UNL     1       1.823   7.200   6.588  1.00  0.00     0.244 HD
ENDBRANCH   3  11
TORSDOF 4
ENDMDL
