MODEL 2
REMARK VINA RESULT: -6.851511575      1.390      1.920
REMARK  4 active torsions:
REMARK  status: ('A' for Active; 'I' for Inactive)
REMARK    1  A    between atoms: C1_2  and  C2_3 
REMARK       I    between atoms: C1_2  and  N1_9 
REMARK    2  A    between atoms: C2_3  and  O2_4 
REMARK    3  A    between atoms: O2_4  and  P1_5 
REMARK    4  A    between atoms: N1_9  and  O6_11 
ROOT
HETATM    1  O1  UNL     1       5.441   1.626   5.666  1.00  0.00    -0.269 OA
HETATM    2  C1  UNL     1       4.258   1.767   6.134  1.00  0.00     0.265 C 
HETATM    3  N1  UNL     1       3.346   0.721   5.887  1.00  0.00    -0.236 N 
ATOM      4  H1  UNL     1       2.390   0.785   6.238  1.00  0.00     0.197 HD
ENDROOT
BRANCH   2   5
HETATM    5  C2  UNL     1       3.977   2.988   6.868  1.00  0.00     0.287 C 
BRANCH   5   6
HETATM    6  O2  UNL     1       3.423   3.970   6.045  1.00  0.00    -0.273 OA
BRANCH   6   7
HETATM    7  P1  UNL     1       1.980   4.385   6.373  1.00  0.00     0.422 P 
HETATM    8  O3  UNL     1       0.557   4.793   6.787  1.00  0.00    -0.617 OA
HETATM    9  O4  UNL     1       2.323   5.906   5.846  1.00  0.00    -0.617 OA
HETATM   10  O5  UNL     1       1.391   3.311   5.268  1.00  0.00    -0.617 OA
ENDBRANCH   6   7
ENDBRANCH   5   6
ENDBRANCH   2   5
BRANCH   3  11
HETATM   11  O6  UNL     1       3.734  -0.361   5.192  1.00  0.00    -0.287 OA
ATOM     12  H6  UNL     1       3.547  -0.421   4.262  1.00  0.00     0.244 HD
ENDBRANCH   3  11
TORSDOF 4
ENDMDL
