MODEL 7
REMARK VINA RESULT: -6.437877248      2.414      4.671
REMARK  4 active torsions:
REMARK  status: ('A' for Active; 'I' for Inactive)
REMARK    1  A    between atoms: C1_2  and  C2_3 
REMARK       I    between atoms: C1_2  and  N1_9 
REMARK    2  A    between atoms: C2_3  and  O2_4 
REMARK    3  A    between atoms: O2_4  and  P1_5 
REMARK    4  A    between atoms: N1_9  and  O6_11 
ROOT
HETATM    1  O1  UNL     1       1.677   5.205   7.092  1.00  0.00    -0.269 OA
HETATM    2  C1  UNL     1       1.901   4.235   6.288  1.00  0.00     0.265 C 
HETATM    3  N1  UNL     1       0.786   3.696   5.613  1.00  0.00    -0.236 N 
ATOM      4  H1  UNL     1       0.911   2.920   4.961  1.00  0.00     0.197 HD
ENDROOT
BRANCH   2   5
HETATM    5  C2  UNL     1       3.277   3.790   6.153  1.00  0.00     0.287 C 
BRANCH   5   6
HETATM    6  O2  UNL     1       3.471   2.530   6.722  1.00  0.00    -0.273 OA
BRANCH   6   7
HETATM    7  P1  UNL     1       3.381   1.336   5.758  1.00  0.00     0.422 P 
HETATM    8  O3  UNL     1       3.263   0.199   4.731  1.00  0.00    -0.617 OA
HETATM    9  O4  UNL     1       5.025   1.265   5.731  1.00  0.00    -0.617 OA
HETATM   10  O5  UNL     1       2.599   0.438   6.900  1.00  0.00    -0.617 OA
ENDBRANCH   6   7
ENDBRANCH   5   6
ENDBRANCH   2   5
BRANCH   3  11
HETATM   11  O6  UNL     1      -0.439   4.201   5.827  1.00  0.00    -0.287 OA
ATOM     12  H6  UNL     1      -1.021   3.790   6.456  1.00  0.00     0.244 HD
ENDBRANCH   3  11
TORSDOF 4
ENDMDL
