MODEL 9
REMARK VINA RESULT: -6.325298881      1.711      2.114
REMARK  4 active torsions:
REMARK  status: ('A' for Active; 'I' for Inactive)
REMARK    1  A    between atoms: C1_2  and  C2_3 
REMARK       I    between atoms: C1_2  and  N1_9 
REMARK    2  A    between atoms: C2_3  and  O2_4 
REMARK    3  A    between atoms: O2_4  and  P1_5 
REMARK    4  A    between atoms: N1_9  and  O6_11 
ROOT
HETATM    1  O1  UNL     1       4.471   1.513   5.589  1.00  0.00    -0.269 OA
HETATM    2  C1  UNL     1       3.383   1.637   6.251  1.00  0.00     0.265 C 
HETATM    3  N1  UNL     1       3.448   1.393   7.638  1.00  0.00    -0.236 N 
ATOM      4  H1  UNL     1       2.608   1.478   8.210  1.00  0.00     0.197 HD
ENDROOT
BRANCH   2   5
HETATM    5  C2  UNL     1       2.195   2.017   5.507  1.00  0.00     0.287 C 
BRANCH   5   6
HETATM    6  O2  UNL     1       2.231   3.358   5.123  1.00  0.00    -0.273 OA
BRANCH   6   7
HETATM    7  P1  UNL     1       1.521   4.346   6.063  1.00  0.00     0.422 P 
HETATM    8  O3  UNL     1       0.854   5.295   7.070  1.00  0.00    -0.617 OA
HETATM    9  O4  UNL     1       2.429   5.564   5.431  1.00  0.00    -0.617 OA
HETATM   10  O5  UNL     1       0.070   4.027   5.345  1.00  0.00    -0.617 OA
ENDBRANCH   6   7
ENDBRANCH   5   6
ENDBRANCH   2   5
BRANCH   3  11
HETATM   11  O6  UNL     1       4.614   1.048   8.207  1.00  0.00    -0.287 OA
ATOM     12  H6  UNL     1       4.698   0.213   8.653  1.00  0.00     0.244 HD
ENDBRANCH   3  11
TORSDOF 4
ENDMDL
