MODEL 7
REMARK VINA RESULT: -6.822222635      1.224      1.616
REMARK  9 active torsions:
REMARK  status: ('A' for Active; 'I' for Inactive)
REMARK    1  A    between atoms: C1_2  and  C2_3 
REMARK       I    between atoms: C1_2  and  N1_9 
REMARK    2  A    between atoms: C2_3  and  O2_4 
REMARK    3  A    between atoms: O2_4  and  P1_5 
REMARK    4  A    between atoms: N1_9  and  O6_10 
REMARK    5  A    between atoms: N1_9  and  C3_12 
REMARK    6  A    between atoms: C3_12  and  C4_13 
REMARK    7  A    between atoms: C4_13  and  C5_14 
REMARK    8  A    between atoms: C5_14  and  O7_15 
REMARK    9  A    between atoms: O7_15  and  P2_16 
ROOT
HETATM    1  O1  UNL     1      -4.162  -2.891  -8.492  1.00  0.00    -0.269 OA
HETATM    2  C1  UNL     1      -3.534  -3.566  -7.639  1.00  0.00     0.267 C 
HETATM    3  N1  UNL     1      -3.897  -4.843  -7.187  1.00  0.00    -0.227 N 
ENDROOT
BRANCH   3   4
HETATM    4  O6  UNL     1      -3.123  -5.471  -6.281  1.00  0.00    -0.285 OA
ATOM      5  H6  UNL     1      -2.178  -5.401  -6.344  1.00  0.00     0.245 HD
ENDBRANCH   3   4
BRANCH   3   6
HETATM    6  C3  UNL     1      -5.087  -5.484  -7.663  1.00  0.00     0.161 C 
BRANCH   6   7
HETATM    7  C4  UNL     1      -6.345  -4.884  -7.146  1.00  0.00     0.049 C 
BRANCH   7   8
HETATM    8  C5  UNL     1      -7.511  -4.843  -8.056  1.00  0.00     0.184 C 
BRANCH   8   9
HETATM    9  O7  UNL     1      -8.198  -6.031  -7.997  1.00  0.00    -0.283 OA
BRANCH   9  10
HETATM   10  P2  UNL     1      -8.636  -6.400  -9.573  1.00  0.00     0.422 P 
HETATM   11  O8  UNL     1      -8.151  -5.336 -10.764  1.00  0.00    -0.617 OA
HETATM   12  O9  UNL     1      -9.627  -7.627  -9.881  1.00  0.00    -0.617 OA
HETATM   13  O10 UNL     1      -7.326  -7.172  -9.744  1.00  0.00    -0.617 OA
ENDBRANCH   9  10
ENDBRANCH   8   9
ENDBRANCH   7   8
ENDBRANCH   6   7
ENDBRANCH   3   6
BRANCH   2  14
HETATM   14  C2  UNL     1      -2.312  -2.907  -7.096  1.00  0.00     0.287 C 
BRANCH  14  15
HETATM   15  O2  UNL     1      -2.131  -1.652  -7.561  1.00  0.00    -0.273 OA
BRANCH  15  16
HETATM   16  P1  UNL     1      -0.930  -1.430  -8.662  1.00  0.00     0.422 P 
HETATM   17  O3  UNL     1      -0.168  -2.618  -8.026  1.00  0.00    -0.617 OA
HETATM   18  O4  UNL     1       0.201  -0.295  -8.330  1.00  0.00    -0.617 OA
HETATM   19  O5  UNL     1      -1.783  -0.436  -9.449  1.00  0.00    -0.617 OA
ENDBRANCH  15  16
ENDBRANCH  14  15
ENDBRANCH   2  14
TORSDOF 9
ENDMDL
