MODEL 2
REMARK VINA RESULT: -7.166781126      1.414      7.031
REMARK  9 active torsions:
REMARK  status: ('A' for Active; 'I' for Inactive)
REMARK    1  A    between atoms: C1_2  and  C2_3 
REMARK       I    between atoms: C1_2  and  N1_9 
REMARK    2  A    between atoms: C2_3  and  O2_4 
REMARK    3  A    between atoms: O2_4  and  P1_5 
REMARK    4  A    between atoms: N1_9  and  O6_10 
REMARK    5  A    between atoms: N1_9  and  C3_12 
REMARK    6  A    between atoms: C3_12  and  C4_13 
REMARK    7  A    between atoms: C4_13  and  C5_14 
REMARK    8  A    between atoms: C5_14  and  O7_15 
REMARK    9  A    between atoms: O7_15  and  P2_16 
ROOT
HETATM    1  O1  UNL     1      -4.138  -3.627  -9.266  1.00  0.00    -0.269 OA
HETATM    2  C1  UNL     1      -4.923  -4.244  -8.505  1.00  0.00     0.267 C 
HETATM    3  N1  UNL     1      -4.567  -4.854  -7.293  1.00  0.00    -0.227 N 
ENDROOT
BRANCH   3   4
HETATM    4  O6  UNL     1      -5.513  -5.469  -6.557  1.00  0.00    -0.285 OA
ATOM      5  H6  UNL     1      -6.162  -4.948  -6.100  1.00  0.00     0.245 HD
ENDBRANCH   3   4
BRANCH   3   6
HETATM    6  C3  UNL     1      -3.210  -4.848  -6.834  1.00  0.00     0.161 C 
BRANCH   6   7
HETATM    7  C4  UNL     1      -2.810  -3.594  -6.145  1.00  0.00     0.049 C 
BRANCH   7   8
HETATM    8  C5  UNL     1      -1.751  -2.773  -6.771  1.00  0.00     0.184 C 
BRANCH   8   9
HETATM    9  O7  UNL     1      -2.311  -1.841  -7.611  1.00  0.00    -0.283 OA
BRANCH   9  10
HETATM   10  P2  UNL     1      -1.036  -1.118  -8.426  1.00  0.00     0.422 P 
HETATM   11  O8  UNL     1       0.505  -1.464  -7.886  1.00  0.00    -0.617 OA
HETATM   12  O9  UNL     1      -1.312  -0.008  -9.557  1.00  0.00    -0.617 OA
HETATM   13  O10 UNL     1      -0.966  -2.325  -9.365  1.00  0.00    -0.617 OA
ENDBRANCH   9  10
ENDBRANCH   8   9
ENDBRANCH   7   8
ENDBRANCH   6   7
ENDBRANCH   3   6
BRANCH   2  14
HETATM   14  C2  UNL     1      -6.336  -4.303  -8.977  1.00  0.00     0.287 C 
BRANCH  14  15
HETATM   15  O2  UNL     1      -6.701  -5.526  -9.418  1.00  0.00    -0.273 OA
BRANCH  15  16
HETATM   16  P1  UNL     1      -8.312  -5.853  -9.463  1.00  0.00     0.422 P 
HETATM   17  O3  UNL     1      -8.301  -5.967  -7.919  1.00  0.00    -0.617 OA
HETATM   18  O4  UNL     1      -8.762  -7.400  -9.753  1.00  0.00    -0.617 OA
HETATM   19  O5  UNL     1      -8.383  -5.491 -10.946  1.00  0.00    -0.617 OA
ENDBRANCH  15  16
ENDBRANCH  14  15
ENDBRANCH   2  14
TORSDOF 9
ENDMDL
