MODEL 3
REMARK VINA RESULT: -7.116373357      0.729      1.249
REMARK  9 active torsions:
REMARK  status: ('A' for Active; 'I' for Inactive)
REMARK    1  A    between atoms: C1_2  and  C2_3 
REMARK       I    between atoms: C1_2  and  N1_9 
REMARK    2  A    between atoms: C2_3  and  O2_4 
REMARK    3  A    between atoms: O2_4  and  P1_5 
REMARK    4  A    between atoms: N1_9  and  O6_10 
REMARK    5  A    between atoms: N1_9  and  C3_12 
REMARK    6  A    between atoms: C3_12  and  C4_13 
REMARK    7  A    between atoms: C4_13  and  C5_14 
REMARK    8  A    between atoms: C5_14  and  O7_15 
REMARK    9  A    between atoms: O7_15  and  P2_16 
ROOT
HETATM    1  O1  UNL     1      -2.748  -3.537  -4.715  1.00  0.00    -0.269 OA
HETATM    2  C1  UNL     1      -2.849  -3.542  -5.966  1.00  0.00     0.267 C 
HETATM    3  N1  UNL     1      -4.003  -3.887  -6.686  1.00  0.00    -0.227 N 
ENDROOT
BRANCH   3   4
HETATM    4  O6  UNL     1      -3.987  -3.830  -8.032  1.00  0.00    -0.285 OA
ATOM      5  H6  UNL     1      -4.748  -3.501  -8.495  1.00  0.00     0.245 HD
ENDBRANCH   3   4
BRANCH   3   6
HETATM    6  C3  UNL     1      -5.193  -4.314  -6.012  1.00  0.00     0.161 C 
BRANCH   6   7
HETATM    7  C4  UNL     1      -6.446  -3.752  -6.581  1.00  0.00     0.049 C 
BRANCH   7   8
HETATM    8  C5  UNL     1      -7.527  -4.699  -6.932  1.00  0.00     0.184 C 
BRANCH   8   9
HETATM    9  O7  UNL     1      -6.991  -5.898  -7.335  1.00  0.00    -0.283 OA
BRANCH   9  10
HETATM   10  P2  UNL     1      -6.969  -5.861  -9.012  1.00  0.00     0.422 P 
HETATM   11  O8  UNL     1      -7.313  -7.287  -9.807  1.00  0.00    -0.617 OA
HETATM   12  O9  UNL     1      -6.463  -4.551  -9.795  1.00  0.00    -0.617 OA
HETATM   13  O10 UNL     1      -8.459  -5.513  -9.013  1.00  0.00    -0.617 OA
ENDBRANCH   9  10
ENDBRANCH   8   9
ENDBRANCH   7   8
ENDBRANCH   6   7
ENDBRANCH   3   6
BRANCH   2  14
HETATM   14  C2  UNL     1      -1.613  -3.140  -6.696  1.00  0.00     0.287 C 
BRANCH  14  15
HETATM   15  O2  UNL     1      -1.673  -1.889  -7.200  1.00  0.00    -0.273 OA
BRANCH  15  16
HETATM   16  P1  UNL     1      -0.920  -1.626  -8.638  1.00  0.00     0.422 P 
HETATM   17  O3  UNL     1       0.381  -1.304  -7.864  1.00  0.00    -0.617 OA
HETATM   18  O4  UNL     1      -1.090  -0.150  -9.323  1.00  0.00    -0.617 OA
HETATM   19  O5  UNL     1      -2.114  -2.188  -9.410  1.00  0.00    -0.617 OA
ENDBRANCH  15  16
ENDBRANCH  14  15
ENDBRANCH   2  14
TORSDOF 9
ENDMDL
