MODEL 4
REMARK VINA RESULT: -7.114077396      1.270      6.523
REMARK  9 active torsions:
REMARK  status: ('A' for Active; 'I' for Inactive)
REMARK    1  A    between atoms: C1_2  and  C2_3 
REMARK       I    between atoms: C1_2  and  N1_9 
REMARK    2  A    between atoms: C2_3  and  O2_4 
REMARK    3  A    between atoms: O2_4  and  P1_5 
REMARK    4  A    between atoms: N1_9  and  O6_10 
REMARK    5  A    between atoms: N1_9  and  C3_12 
REMARK    6  A    between atoms: C3_12  and  C4_13 
REMARK    7  A    between atoms: C4_13  and  C5_14 
REMARK    8  A    between atoms: C5_14  and  O7_15 
REMARK    9  A    between atoms: O7_15  and  P2_16 
ROOT
HETATM    1  O1  UNL     1      -6.026  -3.602  -5.797  1.00  0.00    -0.269 OA
HETATM    2  C1  UNL     1      -5.491  -4.566  -6.397  1.00  0.00     0.267 C 
HETATM    3  N1  UNL     1      -4.110  -4.772  -6.532  1.00  0.00    -0.227 N 
ENDROOT
BRANCH   3   4
HETATM    4  O6  UNL     1      -3.662  -5.863  -7.185  1.00  0.00    -0.285 OA
ATOM      5  H6  UNL     1      -2.744  -5.924  -7.418  1.00  0.00     0.245 HD
ENDBRANCH   3   4
BRANCH   3   6
HETATM    6  C3  UNL     1      -3.168  -3.833  -6.001  1.00  0.00     0.161 C 
BRANCH   6   7
HETATM    7  C4  UNL     1      -1.769  -4.057  -6.452  1.00  0.00     0.049 C 
BRANCH   7   8
HETATM    8  C5  UNL     1      -1.059  -2.922  -7.081  1.00  0.00     0.184 C 
BRANCH   8   9
HETATM    9  O7  UNL     1      -1.934  -1.889  -7.314  1.00  0.00    -0.283 OA
BRANCH   9  10
HETATM   10  P2  UNL     1      -1.838  -1.554  -8.954  1.00  0.00     0.422 P 
HETATM   11  O8  UNL     1      -1.187  -0.081  -9.392  1.00  0.00    -0.617 OA
HETATM   12  O9  UNL     1      -2.510  -2.541 -10.031  1.00  0.00    -0.617 OA
HETATM   13  O10 UNL     1      -0.438  -2.171  -8.987  1.00  0.00    -0.617 OA
ENDBRANCH   9  10
ENDBRANCH   8   9
ENDBRANCH   7   8
ENDBRANCH   6   7
ENDBRANCH   3   6
BRANCH   2  14
HETATM   14  C2  UNL     1      -6.447  -5.540  -6.996  1.00  0.00     0.287 C 
BRANCH  14  15
HETATM   15  O2  UNL     1      -6.345  -5.631  -8.340  1.00  0.00    -0.273 OA
BRANCH  15  16
HETATM   16  P1  UNL     1      -7.692  -6.095  -9.162  1.00  0.00     0.422 P 
HETATM   17  O3  UNL     1      -6.884  -7.273  -9.758  1.00  0.00    -0.617 OA
HETATM   18  O4  UNL     1      -8.002  -5.352 -10.586  1.00  0.00    -0.617 OA
HETATM   19  O5  UNL     1      -8.555  -5.100  -8.385  1.00  0.00    -0.617 OA
ENDBRANCH  15  16
ENDBRANCH  14  15
ENDBRANCH   2  14
TORSDOF 9
ENDMDL
