MODEL 1
REMARK VINA RESULT: -7.304549064      0.000      0.000
REMARK  9 active torsions:
REMARK  status: ('A' for Active; 'I' for Inactive)
REMARK    1  A    between atoms: C1_2  and  C2_3 
REMARK       I    between atoms: C1_2  and  N1_9 
REMARK    2  A    between atoms: C2_3  and  O2_4 
REMARK    3  A    between atoms: O2_4  and  P1_5 
REMARK    4  A    between atoms: N1_9  and  O6_10 
REMARK    5  A    between atoms: N1_9  and  C3_12 
REMARK    6  A    between atoms: C3_12  and  C4_13 
REMARK    7  A    between atoms: C4_13  and  C5_14 
REMARK    8  A    between atoms: C5_14  and  O7_15 
REMARK    9  A    between atoms: O7_15  and  P2_16 
ROOT
HETATM    1  O1  UNL     1      -2.791  -3.531  -4.785  1.00  0.00    -0.269 OA
HETATM    2  C1  UNL     1      -2.889  -3.537  -6.037  1.00  0.00     0.267 C 
HETATM    3  N1  UNL     1      -4.051  -3.847  -6.758  1.00  0.00    -0.227 N 
ENDROOT
BRANCH   3   4
HETATM    4  O6  UNL     1      -4.031  -3.796  -8.105  1.00  0.00    -0.285 OA
ATOM      5  H6  UNL     1      -4.754  -3.392  -8.569  1.00  0.00     0.245 HD
ENDBRANCH   3   4
BRANCH   3   6
HETATM    6  C3  UNL     1      -5.256  -4.234  -6.087  1.00  0.00     0.161 C 
BRANCH   6   7
HETATM    7  C4  UNL     1      -6.500  -3.850  -6.805  1.00  0.00     0.049 C 
BRANCH   7   8
HETATM    8  C5  UNL     1      -7.370  -4.938  -7.302  1.00  0.00     0.184 C 
BRANCH   8   9
HETATM    9  O7  UNL     1      -6.810  -5.519  -8.414  1.00  0.00    -0.283 OA
BRANCH   9  10
HETATM   10  P2  UNL     1      -8.089  -6.022  -9.375  1.00  0.00     0.422 P 
HETATM   11  O8  UNL     1      -8.139  -5.438 -10.938  1.00  0.00    -0.617 OA
HETATM   12  O9  UNL     1      -9.295  -6.882  -8.749  1.00  0.00    -0.617 OA
HETATM   13  O10 UNL     1      -7.248  -7.206  -9.856  1.00  0.00    -0.617 OA
ENDBRANCH   9  10
ENDBRANCH   8   9
ENDBRANCH   7   8
ENDBRANCH   6   7
ENDBRANCH   3   6
BRANCH   2  14
HETATM   14  C2  UNL     1      -1.639  -3.178  -6.765  1.00  0.00     0.287 C 
BRANCH  14  15
HETATM   15  O2  UNL     1      -1.629  -1.904  -7.213  1.00  0.00    -0.273 OA
BRANCH  15  16
HETATM   16  P1  UNL     1      -0.884  -1.624  -8.652  1.00  0.00     0.422 P 
HETATM   17  O3  UNL     1       0.414  -1.287  -7.881  1.00  0.00    -0.617 OA
HETATM   18  O4  UNL     1      -1.078  -0.148  -9.330  1.00  0.00    -0.617 OA
HETATM   19  O5  UNL     1      -2.073  -2.200  -9.422  1.00  0.00    -0.617 OA
ENDBRANCH  15  16
ENDBRANCH  14  15
ENDBRANCH   2  14
TORSDOF 9
ENDMDL
