MODEL 6
REMARK VINA RESULT: -7.018289321      1.119      6.558
REMARK  9 active torsions:
REMARK  status: ('A' for Active; 'I' for Inactive)
REMARK    1  A    between atoms: C1_2  and  C2_3 
REMARK       I    between atoms: C1_2  and  N1_9 
REMARK    2  A    between atoms: C2_3  and  O2_4 
REMARK    3  A    between atoms: O2_4  and  P1_5 
REMARK    4  A    between atoms: N1_9  and  O6_10 
REMARK    5  A    between atoms: N1_9  and  C3_12 
REMARK    6  A    between atoms: C3_12  and  C4_13 
REMARK    7  A    between atoms: C4_13  and  C5_14 
REMARK    8  A    between atoms: C5_14  and  O7_15 
REMARK    9  A    between atoms: O7_15  and  P2_16 
ROOT
HETATM    1  O1  UNL     1      -6.076  -3.577  -5.353  1.00  0.00    -0.269 OA
HETATM    2  C1  UNL     1      -5.738  -3.941  -6.506  1.00  0.00     0.267 C 
HETATM    3  N1  UNL     1      -4.420  -4.153  -6.937  1.00  0.00    -0.227 N 
ENDROOT
BRANCH   3   4
HETATM    4  O6  UNL     1      -4.193  -4.566  -8.199  1.00  0.00    -0.285 OA
ATOM      5  H6  UNL     1      -3.997  -5.480  -8.364  1.00  0.00     0.245 HD
ENDBRANCH   3   4
BRANCH   3   6
HETATM    6  C3  UNL     1      -3.311  -3.924  -6.060  1.00  0.00     0.161 C 
BRANCH   6   7
HETATM    7  C4  UNL     1      -1.991  -4.265  -6.651  1.00  0.00     0.049 C 
BRANCH   7   8
HETATM    8  C5  UNL     1      -1.083  -3.150  -6.997  1.00  0.00     0.184 C 
BRANCH   8   9
HETATM    9  O7  UNL     1      -1.795  -1.980  -7.109  1.00  0.00    -0.283 OA
BRANCH   9  10
HETATM   10  P2  UNL     1      -1.827  -1.605  -8.743  1.00  0.00     0.422 P 
HETATM   11  O8  UNL     1      -1.340  -0.070  -9.180  1.00  0.00    -0.617 OA
HETATM   12  O9  UNL     1      -2.468  -2.628  -9.805  1.00  0.00    -0.617 OA
HETATM   13  O10 UNL     1      -0.380  -2.089  -8.871  1.00  0.00    -0.617 OA
ENDBRANCH   9  10
ENDBRANCH   8   9
ENDBRANCH   7   8
ENDBRANCH   6   7
ENDBRANCH   3   6
BRANCH   2  14
HETATM   14  C2  UNL     1      -6.870  -4.148  -7.454  1.00  0.00     0.287 C 
BRANCH  14  15
HETATM   15  O2  UNL     1      -7.157  -5.451  -7.665  1.00  0.00    -0.273 OA
BRANCH  15  16
HETATM   16  P1  UNL     1      -7.768  -5.852  -9.138  1.00  0.00     0.422 P 
HETATM   17  O3  UNL     1      -8.931  -6.582  -8.424  1.00  0.00    -0.617 OA
HETATM   18  O4  UNL     1      -7.153  -7.175  -9.878  1.00  0.00    -0.617 OA
HETATM   19  O5  UNL     1      -6.779  -4.924  -9.843  1.00  0.00    -0.617 OA
ENDBRANCH  15  16
ENDBRANCH  14  15
ENDBRANCH   2  14
TORSDOF 9
ENDMDL
