MODEL 10
REMARK VINA RESULT: -6.679550429      1.220      1.931
REMARK  9 active torsions:
REMARK  status: ('A' for Active; 'I' for Inactive)
REMARK    1  A    between atoms: C1_2  and  C2_3 
REMARK       I    between atoms: C1_2  and  N1_9 
REMARK    2  A    between atoms: C2_3  and  O2_4 
REMARK    3  A    between atoms: O2_4  and  P1_5 
REMARK    4  A    between atoms: N1_9  and  O6_10 
REMARK    5  A    between atoms: N1_9  and  C3_12 
REMARK    6  A    between atoms: C3_12  and  C4_13 
REMARK    7  A    between atoms: C4_13  and  C5_14 
REMARK    8  A    between atoms: C5_14  and  O7_15 
REMARK    9  A    between atoms: O7_15  and  P2_16 
ROOT
HETATM    1  O1  UNL     1      -4.500  -3.919  -8.882  1.00  0.00    -0.269 OA
HETATM    2  C1  UNL     1      -4.202  -3.778  -7.670  1.00  0.00     0.267 C 
HETATM    3  N1  UNL     1      -4.965  -4.241  -6.588  1.00  0.00    -0.227 N 
ENDROOT
BRANCH   3   4
HETATM    4  O6  UNL     1      -4.521  -4.043  -5.331  1.00  0.00    -0.285 OA
ATOM      5  H6  UNL     1      -3.820  -3.422  -5.175  1.00  0.00     0.245 HD
ENDBRANCH   3   4
BRANCH   3   6
HETATM    6  C3  UNL     1      -6.215  -4.908  -6.797  1.00  0.00     0.161 C 
BRANCH   6   7
HETATM    7  C4  UNL     1      -7.327  -4.002  -7.188  1.00  0.00     0.049 C 
BRANCH   7   8
HETATM    8  C5  UNL     1      -8.349  -4.530  -8.118  1.00  0.00     0.184 C 
BRANCH   8   9
HETATM    9  O7  UNL     1      -8.356  -5.903  -8.081  1.00  0.00    -0.283 OA
BRANCH   9  10
HETATM   10  P2  UNL     1      -8.753  -6.412  -9.629  1.00  0.00     0.422 P 
HETATM   11  O8  UNL     1      -8.342  -5.399 -10.889  1.00  0.00    -0.617 OA
HETATM   12  O9  UNL     1      -9.644  -7.731  -9.853  1.00  0.00    -0.617 OA
HETATM   13  O10 UNL     1      -7.386  -7.091  -9.743  1.00  0.00    -0.617 OA
ENDBRANCH   9  10
ENDBRANCH   8   9
ENDBRANCH   7   8
ENDBRANCH   6   7
ENDBRANCH   3   6
BRANCH   2  14
HETATM   14  C2  UNL     1      -2.925  -3.051  -7.420  1.00  0.00     0.287 C 
BRANCH  14  15
HETATM   15  O2  UNL     1      -2.744  -1.993  -8.239  1.00  0.00    -0.273 OA
BRANCH  15  16
HETATM   16  P1  UNL     1      -1.233  -1.346  -8.301  1.00  0.00     0.422 P 
HETATM   17  O3  UNL     1      -1.759  -0.289  -9.302  1.00  0.00    -0.617 OA
HETATM   18  O4  UNL     1      -0.155  -2.037  -9.321  1.00  0.00    -0.617 OA
HETATM   19  O5  UNL     1      -0.772  -2.214  -7.130  1.00  0.00    -0.617 OA
ENDBRANCH  15  16
ENDBRANCH  14  15
ENDBRANCH   2  14
TORSDOF 9
ENDMDL
