MODEL 1
REMARK VINA RESULT: -5.879881247      0.000      0.000
REMARK  5 active torsions:
REMARK  status: ('A' for Active; 'I' for Inactive)
REMARK    1  A    between atoms: S1_2  and  C2_3 
REMARK    2  A    between atoms: C2_3  and  C3_4 
REMARK    3  A    between atoms: C4_6  and  N1_7 
REMARK    4  A    between atoms: C10_20  and  O2_21 
REMARK    5  A    between atoms: C11_23  and  O3_24 
ROOT
HETATM    1  N1  UNL     1       9.032  55.931   3.784  1.00  0.00    -0.297 N 
HETATM    2  C5  UNL     1       9.970  56.735   4.299  1.00  0.00     0.188 A 
HETATM    3  N2  UNL     1      11.172  56.095   4.353  1.00  0.00    -0.346 N 
ATOM      4  H2  UNL     1      12.047  56.484   4.702  1.00  0.00     0.167 HD
HETATM    5  C6  UNL     1      10.997  54.876   3.870  1.00  0.00     0.119 A 
HETATM    6  C7  UNL     1      11.870  53.826   3.697  1.00  0.00     0.148 A 
HETATM    7  N3  UNL     1      13.248  53.863   4.037  1.00  0.00    -0.080 NA
HETATM    8  N4  UNL     1      11.384  52.691   3.170  1.00  0.00    -0.339 N 
ATOM      9  H4  UNL     1      12.019  51.905   3.036  1.00  0.00     0.167 HD
HETATM   10  C8  UNL     1      10.091  52.547   2.809  1.00  0.00     0.183 A 
HETATM   11  N5  UNL     1       9.265  53.593   2.992  1.00  0.00    -0.336 N 
ATOM     12  H5  UNL     1       8.288  53.487   2.720  1.00  0.00     0.168 HD
HETATM   13  C9  UNL     1       9.654  54.768   3.511  1.00  0.00     0.142 A 
ENDROOT
BRANCH   1  14
HETATM   14  C4  UNL     1       7.624  56.154   3.530  1.00  0.00     0.262 C 
HETATM   15  O1  UNL     1       7.407  57.123   2.562  1.00  0.00    -0.355 OA
HETATM   16  C3  UNL     1       6.130  57.551   2.824  1.00  0.00     0.165 C 
HETATM   17  C11 UNL     1       6.205  57.864   4.310  1.00  0.00     0.180 C 
HETATM   18  C10 UNL     1       6.962  56.648   4.807  1.00  0.00     0.198 C 
BRANCH  16  19
HETATM   19  C2  UNL     1       5.717  58.756   2.019  1.00  0.00     0.108 C 
BRANCH  19  20
HETATM   20  S1  UNL     1       3.956  58.516   1.586  1.00  0.00    -0.171 SA
HETATM   21  C1  UNL     1       3.249  60.057   0.951  1.00  0.00     0.089 C 
ENDBRANCH  19  20
ENDBRANCH  16  19
BRANCH  17  22
HETATM   22  O3  UNL     1       4.940  57.932   4.878  1.00  0.00    -0.390 OA
ATOM     23  H3  UNL     1       4.888  57.414   5.673  1.00  0.00     0.210 HD
ENDBRANCH  17  22
BRANCH  18  24
HETATM   24  O2  UNL     1       6.025  55.717   5.234  1.00  0.00    -0.388 OA
ATOM     25  H2  UNL     1       5.907  55.793   6.173  1.00  0.00     0.210 HD
ENDBRANCH  18  24
ENDBRANCH   1  14
TORSDOF 5
ENDMDL
