MODEL 4
REMARK VINA RESULT: -5.314198800      8.942     11.161
REMARK  5 active torsions:
REMARK  status: ('A' for Active; 'I' for Inactive)
REMARK    1  A    between atoms: S1_2  and  C2_3 
REMARK    2  A    between atoms: C2_3  and  C3_4 
REMARK    3  A    between atoms: C4_6  and  N1_7 
REMARK    4  A    between atoms: C10_20  and  O2_21 
REMARK    5  A    between atoms: C11_23  and  O3_24 
ROOT
HETATM    1  N1  UNL     1      10.792  61.038   9.884  1.00  0.00    -0.297 N 
HETATM    2  C5  UNL     1      10.044  60.606   8.861  1.00  0.00     0.188 A 
HETATM    3  N2  UNL     1       9.652  61.650   8.079  1.00  0.00    -0.346 N 
ATOM      4  H2  UNL     1       9.077  61.592   7.239  1.00  0.00     0.167 HD
HETATM    5  C6  UNL     1      10.153  62.755   8.609  1.00  0.00     0.119 A 
HETATM    6  C7  UNL     1      10.065  64.074   8.226  1.00  0.00     0.148 A 
HETATM    7  N3  UNL     1       9.357  64.535   7.085  1.00  0.00    -0.080 NA
HETATM    8  N4  UNL     1      10.696  64.985   8.983  1.00  0.00    -0.339 N 
ATOM      9  H4  UNL     1      10.641  65.967   8.712  1.00  0.00     0.167 HD
HETATM   10  C8  UNL     1      11.401  64.658  10.088  1.00  0.00     0.183 A 
HETATM   11  N5  UNL     1      11.465  63.360  10.433  1.00  0.00    -0.336 N 
ATOM     12  H5  UNL     1      11.996  63.110  11.267  1.00  0.00     0.168 HD
HETATM   13  C9  UNL     1      10.870  62.375   9.742  1.00  0.00     0.142 A 
ENDROOT
BRANCH   1  14
HETATM   14  C4  UNL     1      11.429  60.318  10.966  1.00  0.00     0.262 C 
HETATM   15  O1  UNL     1      12.739  60.722  11.173  1.00  0.00    -0.355 OA
HETATM   16  C3  UNL     1      13.305  59.649  11.813  1.00  0.00     0.165 C 
HETATM   17  C11 UNL     1      12.926  58.501  10.891  1.00  0.00     0.180 C 
HETATM   18  C10 UNL     1      11.474  58.838  10.618  1.00  0.00     0.198 C 
BRANCH  16  19
HETATM   19  C2  UNL     1      14.798  59.762  11.982  1.00  0.00     0.108 C 
BRANCH  19  20
HETATM   20  S1  UNL     1      15.539  59.364  10.358  1.00  0.00    -0.171 SA
HETATM   21  C1  UNL     1      17.347  59.386  10.469  1.00  0.00     0.089 C 
ENDBRANCH  19  20
ENDBRANCH  16  19
BRANCH  17  22
HETATM   22  O3  UNL     1      13.045  57.275  11.532  1.00  0.00    -0.390 OA
ATOM     23  H3  UNL     1      12.809  56.558  10.955  1.00  0.00     0.210 HD
ENDBRANCH  17  22
BRANCH  18  24
HETATM   24  O2  UNL     1      10.702  58.124  11.526  1.00  0.00    -0.388 OA
ATOM     25  H2  UNL     1      10.978  57.216  11.532  1.00  0.00     0.210 HD
ENDBRANCH  18  24
ENDBRANCH   1  14
TORSDOF 5
ENDMDL
