MODEL 2
REMARK VINA RESULT: -5.423168483      4.358      7.521
REMARK  5 active torsions:
REMARK  status: ('A' for Active; 'I' for Inactive)
REMARK    1  A    between atoms: S1_2  and  C2_3 
REMARK    2  A    between atoms: C2_3  and  C3_4 
REMARK    3  A    between atoms: C4_6  and  N1_7 
REMARK    4  A    between atoms: C10_20  and  O2_21 
REMARK    5  A    between atoms: C11_23  and  O3_24 
ROOT
HETATM    1  N1  UNL     1       5.176  59.029   1.686  1.00  0.00    -0.297 N 
HETATM    2  C5  UNL     1       3.931  58.632   1.398  1.00  0.00     0.188 A 
HETATM    3  N2  UNL     1       3.432  59.341   0.347  1.00  0.00    -0.346 N 
ATOM      4  H2  UNL     1       2.508  59.232  -0.068  1.00  0.00     0.167 HD
HETATM    5  C6  UNL     1       4.366  60.196  -0.036  1.00  0.00     0.119 A 
HETATM    6  C7  UNL     1       4.388  61.138  -1.039  1.00  0.00     0.148 A 
HETATM    7  N3  UNL     1       3.312  61.388  -1.930  1.00  0.00    -0.080 NA
HETATM    8  N4  UNL     1       5.505  61.869  -1.183  1.00  0.00    -0.339 N 
ATOM      9  H4  UNL     1       5.536  62.571  -1.922  1.00  0.00     0.167 HD
HETATM   10  C8  UNL     1       6.589  61.713  -0.393  1.00  0.00     0.183 A 
HETATM   11  N5  UNL     1       6.533  60.784   0.577  1.00  0.00    -0.336 N 
ATOM     12  H5  UNL     1       7.350  60.664   1.176  1.00  0.00     0.168 HD
HETATM   13  C9  UNL     1       5.464  60.004   0.802  1.00  0.00     0.142 A 
ENDROOT
BRANCH   1  14
HETATM   14  C4  UNL     1       6.106  58.583   2.702  1.00  0.00     0.262 C 
HETATM   15  O1  UNL     1       7.215  57.948   2.164  1.00  0.00    -0.355 OA
HETATM   16  C3  UNL     1       7.675  57.179   3.204  1.00  0.00     0.165 C 
HETATM   17  C11 UNL     1       6.416  56.437   3.623  1.00  0.00     0.180 C 
HETATM   18  C10 UNL     1       5.410  57.572   3.601  1.00  0.00     0.198 C 
BRANCH  16  19
HETATM   19  C2  UNL     1       8.779  56.231   2.814  1.00  0.00     0.108 C 
BRANCH  19  20
HETATM   20  S1  UNL     1       9.966  56.213   4.205  1.00  0.00    -0.171 SA
HETATM   21  C1  UNL     1      10.860  54.639   4.249  1.00  0.00     0.089 C 
ENDBRANCH  19  20
ENDBRANCH  16  19
BRANCH  17  22
HETATM   22  O3  UNL     1       6.542  55.906   4.899  1.00  0.00    -0.390 OA
ATOM     23  H3  UNL     1       6.087  56.436   5.543  1.00  0.00     0.210 HD
ENDBRANCH  17  22
BRANCH  18  24
HETATM   24  O2  UNL     1       5.324  58.080   4.891  1.00  0.00    -0.388 OA
ATOM     25  H2  UNL     1       4.416  58.087   5.168  1.00  0.00     0.210 HD
ENDBRANCH  18  24
ENDBRANCH   1  14
TORSDOF 5
ENDMDL
