MODEL 5
REMARK VINA RESULT: -5.178903360      4.720      7.108
REMARK  5 active torsions:
REMARK  status: ('A' for Active; 'I' for Inactive)
REMARK    1  A    between atoms: S1_2  and  C2_3 
REMARK    2  A    between atoms: C2_3  and  C3_4 
REMARK    3  A    between atoms: C4_6  and  N1_7 
REMARK    4  A    between atoms: C10_20  and  O2_21 
REMARK    5  A    between atoms: C11_23  and  O3_24 
ROOT
HETATM    1  N1  UNL     1       4.645  59.512   0.699  1.00  0.00    -0.297 N 
HETATM    2  C5  UNL     1       3.412  59.414   1.211  1.00  0.00     0.188 A 
HETATM    3  N2  UNL     1       3.401  58.562   2.274  1.00  0.00    -0.346 N 
ATOM      4  H2  UNL     1       2.589  58.314   2.839  1.00  0.00     0.167 HD
HETATM    5  C6  UNL     1       4.634  58.114   2.439  1.00  0.00     0.119 A 
HETATM    6  C7  UNL     1       5.175  57.240   3.355  1.00  0.00     0.148 A 
HETATM    7  N3  UNL     1       4.439  56.600   4.387  1.00  0.00    -0.080 NA
HETATM    8  N4  UNL     1       6.488  56.978   3.266  1.00  0.00    -0.339 N 
ATOM      9  H4  UNL     1       6.903  56.332   3.937  1.00  0.00     0.167 HD
HETATM   10  C8  UNL     1       7.283  57.533   2.326  1.00  0.00     0.183 A 
HETATM   11  N5  UNL     1       6.722  58.382   1.447  1.00  0.00    -0.336 N 
ATOM     12  H5  UNL     1       7.320  58.802   0.736  1.00  0.00     0.168 HD
HETATM   13  C9  UNL     1       5.420  58.708   1.453  1.00  0.00     0.142 A 
ENDROOT
BRANCH   1  14
HETATM   14  C4  UNL     1       5.153  60.280  -0.417  1.00  0.00     0.262 C 
HETATM   15  O1  UNL     1       6.304  60.984  -0.097  1.00  0.00    -0.355 OA
HETATM   16  C3  UNL     1       6.329  61.992  -1.028  1.00  0.00     0.165 C 
HETATM   17  C11 UNL     1       4.932  62.577  -0.890  1.00  0.00     0.180 C 
HETATM   18  C10 UNL     1       4.108  61.306  -0.829  1.00  0.00     0.198 C 
BRANCH  16  19
HETATM   19  C2  UNL     1       7.396  63.025  -0.775  1.00  0.00     0.108 C 
BRANCH  19  20
HETATM   20  S1  UNL     1       6.529  64.605  -0.461  1.00  0.00    -0.171 SA
HETATM   21  C1  UNL     1       7.451  65.600   0.738  1.00  0.00     0.089 C 
ENDBRANCH  19  20
ENDBRANCH  16  19
BRANCH  17  22
HETATM   22  O3  UNL     1       4.592  63.342  -1.997  1.00  0.00    -0.390 OA
ATOM     23  H3  UNL     1       3.712  63.693  -1.919  1.00  0.00     0.210 HD
ENDBRANCH  17  22
BRANCH  18  24
HETATM   24  O2  UNL     1       3.670  61.030  -2.118  1.00  0.00    -0.388 OA
ATOM     25  H2  UNL     1       2.760  61.288  -2.205  1.00  0.00     0.210 HD
ENDBRANCH  18  24
ENDBRANCH   1  14
TORSDOF 5
ENDMDL
