MODEL 3
REMARK VINA RESULT: -5.319024276      1.375      1.509
REMARK  5 active torsions:
REMARK  status: ('A' for Active; 'I' for Inactive)
REMARK    1  A    between atoms: S1_2  and  C2_3 
REMARK    2  A    between atoms: C2_3  and  C3_4 
REMARK    3  A    between atoms: C4_6  and  N1_7 
REMARK    4  A    between atoms: C10_20  and  O2_21 
REMARK    5  A    between atoms: C11_23  and  O3_24 
ROOT
HETATM    1  N1  UNL     1       8.169  56.426   3.397  1.00  0.00    -0.297 N 
HETATM    2  C5  UNL     1       8.851  57.120   4.317  1.00  0.00     0.188 A 
HETATM    3  N2  UNL     1       9.934  56.413   4.745  1.00  0.00    -0.346 N 
ATOM      4  H2  UNL     1      10.614  56.716   5.441  1.00  0.00     0.167 HD
HETATM    5  C6  UNL     1       9.941  55.261   4.094  1.00  0.00     0.119 A 
HETATM    6  C7  UNL     1      10.802  54.189   4.144  1.00  0.00     0.148 A 
HETATM    7  N3  UNL     1      11.947  54.114   4.979  1.00  0.00    -0.080 NA
HETATM    8  N4  UNL     1      10.539  53.142   3.345  1.00  0.00    -0.339 N 
ATOM      9  H4  UNL     1      11.168  52.339   3.370  1.00  0.00     0.167 HD
HETATM   10  C8  UNL     1       9.479  53.107   2.509  1.00  0.00     0.183 A 
HETATM   11  N5  UNL     1       8.659  54.172   2.486  1.00  0.00    -0.336 N 
ATOM     12  H5  UNL     1       7.857  54.148   1.857  1.00  0.00     0.168 HD
HETATM   13  C9  UNL     1       8.835  55.265   3.246  1.00  0.00     0.142 A 
ENDROOT
BRANCH   1  14
HETATM   14  C4  UNL     1       6.967  56.751   2.658  1.00  0.00     0.262 C 
HETATM   15  O1  UNL     1       7.180  57.733   1.703  1.00  0.00    -0.355 OA
HETATM   16  C3  UNL     1       5.927  58.253   1.499  1.00  0.00     0.165 C 
HETATM   17  C11 UNL     1       5.481  58.559   2.920  1.00  0.00     0.180 C 
HETATM   18  C10 UNL     1       5.924  57.292   3.624  1.00  0.00     0.198 C 
BRANCH  16  19
HETATM   19  C2  UNL     1       5.916  59.485   0.631  1.00  0.00     0.108 C 
BRANCH  19  20
HETATM   20  S1  UNL     1       4.266  59.554  -0.155  1.00  0.00    -0.171 SA
HETATM   21  C1  UNL     1       3.997  61.178  -0.911  1.00  0.00     0.089 C 
ENDBRANCH  19  20
ENDBRANCH  16  19
BRANCH  17  22
HETATM   22  O3  UNL     1       4.104  58.720   2.995  1.00  0.00    -0.390 OA
ATOM     23  H3  UNL     1       3.843  59.088   3.831  1.00  0.00     0.210 HD
ENDBRANCH  17  22
BRANCH  18  24
HETATM   24  O2  UNL     1       4.834  56.431   3.660  1.00  0.00    -0.388 OA
ATOM     25  H2  UNL     1       4.788  56.014   4.511  1.00  0.00     0.210 HD
ENDBRANCH  18  24
ENDBRANCH   1  14
TORSDOF 5
ENDMDL
