MODEL 4
REMARK VINA RESULT: -7.256896435      3.598      5.041
REMARK  4 active torsions:
REMARK  status: ('A' for Active; 'I' for Inactive)
REMARK    1  A    between atoms: N1_2  and  N2_4 
REMARK    2  A    between atoms: N2_4  and  C1_6 
REMARK    3  A    between atoms: N4_11  and  C4_12 
REMARK    4  A    between atoms: C4_12  and  C5_13 
ROOT
HETATM    1  C1  UNL     1      54.732 -21.385  -2.168  1.00  0.00     0.703 A 
HETATM    2  N3  UNL     1      54.525 -20.804  -0.949  1.00  0.00    -0.199 N 
ATOM      3  H3  UNL     1      53.958 -21.199  -0.198  1.00  0.00     0.183 HD
HETATM    4  C2  UNL     1      55.180 -19.635  -0.889  1.00  0.00     0.124 A 
HETATM    5  C3  UNL     1      55.823 -19.460  -2.096  1.00  0.00     0.127 A 
HETATM    6  N4  UNL     1      55.523 -20.556  -2.854  1.00  0.00    -0.186 N 
ENDROOT
BRANCH   6   7
HETATM    7  C4  UNL     1      56.018 -20.729  -4.207  1.00  0.00     0.186 C 
BRANCH   7   8
HETATM    8  C5  UNL     1      55.042 -20.296  -5.239  1.00  0.00    -0.024 A 
HETATM    9  C6  UNL     1      55.130 -20.848  -6.501  1.00  0.00     0.013 A 
HETATM   10  C7  UNL     1      54.226 -20.454  -7.469  1.00  0.00     0.043 A 
HETATM   11  C8  UNL     1      53.238 -19.527  -7.212  1.00  0.00     0.103 A 
HETATM   12 CL1  UNL     1      52.096 -19.031  -8.438  1.00  0.00    -0.065 Cl
HETATM   13  N5  UNL     1      53.191 -19.021  -5.976  1.00  0.00    -0.356 N 
HETATM   14  C9  UNL     1      54.054 -19.376  -4.997  1.00  0.00     0.098 A 
ATOM     15  H5  UNL     1      52.470 -18.333  -5.760  1.00  0.00     0.166 HD
ENDBRANCH   7   8
ENDBRANCH   6   7
BRANCH   1  16
HETATM   16  N2  UNL     1      54.205 -22.631  -2.607  1.00  0.00    -0.071 N 
ATOM     17  H2  UNL     1      53.702 -22.693  -3.492  1.00  0.00     0.212 HD
BRANCH  16  18
HETATM   18  N1  UNL     1      54.379 -23.767  -1.821  1.00  0.00    -0.024 N 
HETATM   19  O1  UNL     1      54.662 -23.699  -0.601  1.00  0.00    -0.516 OA
HETATM   20  O2  UNL     1      54.249 -25.034  -2.339  1.00  0.00    -0.516 OA
ENDBRANCH  16  18
ENDBRANCH   1  16
TORSDOF 4
ENDMDL
