MODEL 2
REMARK VINA RESULT: -7.404284652      5.451      6.479
REMARK  4 active torsions:
REMARK  status: ('A' for Active; 'I' for Inactive)
REMARK    1  A    between atoms: N1_2  and  N2_4 
REMARK    2  A    between atoms: N2_4  and  C1_6 
REMARK    3  A    between atoms: N4_11  and  C4_12 
REMARK    4  A    between atoms: C4_12  and  C5_13 
ROOT
HETATM    1  C1  UNL     1      53.745 -19.583  -6.737  1.00  0.00     0.703 A 
HETATM    2  N3  UNL     1      54.195 -19.351  -8.006  1.00  0.00    -0.199 N 
ATOM      3  H3  UNL     1      53.879 -18.594  -8.612  1.00  0.00     0.183 HD
HETATM    4  C2  UNL     1      55.116 -20.270  -8.333  1.00  0.00     0.124 A 
HETATM    5  C3  UNL     1      55.263 -21.112  -7.251  1.00  0.00     0.127 A 
HETATM    6  N4  UNL     1      54.403 -20.657  -6.291  1.00  0.00    -0.186 N 
ENDROOT
BRANCH   6   7
HETATM    7  C4  UNL     1      54.267 -21.299  -4.997  1.00  0.00     0.186 C 
BRANCH   7   8
HETATM    8  C5  UNL     1      54.841 -20.493  -3.890  1.00  0.00    -0.024 A 
HETATM    9  C6  UNL     1      54.057 -20.245  -2.782  1.00  0.00     0.013 A 
HETATM   10  C7  UNL     1      54.581 -19.497  -1.744  1.00  0.00     0.043 A 
HETATM   11  C8  UNL     1      55.863 -18.992  -1.783  1.00  0.00     0.103 A 
HETATM   12 CL1  UNL     1      56.523 -18.046  -0.470  1.00  0.00    -0.065 Cl
HETATM   13  N5  UNL     1      56.585 -19.257  -2.876  1.00  0.00    -0.356 N 
HETATM   14  C9  UNL     1      56.115 -19.984  -3.915  1.00  0.00     0.098 A 
ATOM     15  H5  UNL     1      57.537 -18.895  -2.929  1.00  0.00     0.166 HD
ENDBRANCH   7   8
ENDBRANCH   6   7
BRANCH   1  16
HETATM   16  N2  UNL     1      52.769 -18.821  -6.038  1.00  0.00    -0.071 N 
ATOM     17  H2  UNL     1      52.946 -18.515  -5.081  1.00  0.00     0.212 HD
BRANCH  16  18
HETATM   18  N1  UNL     1      51.571 -18.493  -6.667  1.00  0.00    -0.024 N 
HETATM   19  O1  UNL     1      50.734 -17.717  -6.147  1.00  0.00    -0.516 OA
HETATM   20  O2  UNL     1      51.236 -19.004  -7.899  1.00  0.00    -0.516 OA
ENDBRANCH  16  18
ENDBRANCH   1  16
TORSDOF 4
ENDMDL
