MODEL 13
REMARK VINA RESULT: -6.204196201      3.756      5.061
REMARK  4 active torsions:
REMARK  status: ('A' for Active; 'I' for Inactive)
REMARK    1  A    between atoms: N1_2  and  N2_4 
REMARK    2  A    between atoms: N2_4  and  C1_6 
REMARK    3  A    between atoms: N4_11  and  C4_12 
REMARK    4  A    between atoms: C4_12  and  C5_13 
ROOT
HETATM    1  C1  UNL     1      54.159 -21.280  -2.694  1.00  0.00     0.703 A 
HETATM    2  N3  UNL     1      54.887 -21.293  -1.538  1.00  0.00    -0.199 N 
ATOM      3  H3  UNL     1      55.070 -22.118  -0.968  1.00  0.00     0.183 HD
HETATM    4  C2  UNL     1      55.323 -20.053  -1.266  1.00  0.00     0.124 A 
HETATM    5  C3  UNL     1      54.866 -19.225  -2.268  1.00  0.00     0.127 A 
HETATM    6  N4  UNL     1      54.156 -20.016  -3.127  1.00  0.00    -0.186 N 
ENDROOT
BRANCH   6   7
HETATM    7  C4  UNL     1      53.507 -19.494  -4.315  1.00  0.00     0.186 C 
BRANCH   7   8
HETATM    8  C5  UNL     1      54.096 -20.020  -5.572  1.00  0.00    -0.024 A 
HETATM    9  C6  UNL     1      53.302 -20.071  -6.700  1.00  0.00     0.013 A 
HETATM   10  C7  UNL     1      53.840 -20.558  -7.876  1.00  0.00     0.043 A 
HETATM   11  C8  UNL     1      55.145 -20.994  -7.958  1.00  0.00     0.103 A 
HETATM   12 CL1  UNL     1      55.822 -21.609  -9.446  1.00  0.00    -0.065 Cl
HETATM   13  N5  UNL     1      55.876 -20.926  -6.840  1.00  0.00    -0.356 N 
HETATM   14  C9  UNL     1      55.393 -20.457  -5.668  1.00  0.00     0.098 A 
ATOM     15  H5  UNL     1      56.845 -21.242  -6.874  1.00  0.00     0.166 HD
ENDBRANCH   7   8
ENDBRANCH   6   7
BRANCH   1  16
HETATM   16  N2  UNL     1      53.536 -22.401  -3.308  1.00  0.00    -0.071 N 
ATOM     17  H2  UNL     1      53.161 -22.326  -4.254  1.00  0.00     0.212 HD
BRANCH  16  18
HETATM   18  N1  UNL     1      53.440 -23.603  -2.611  1.00  0.00    -0.024 N 
HETATM   19  O1  UNL     1      52.335 -24.132  -2.340  1.00  0.00    -0.516 OA
HETATM   20  O2  UNL     1      54.555 -24.282  -2.180  1.00  0.00    -0.516 OA
ENDBRANCH  16  18
ENDBRANCH   1  16
TORSDOF 4
ENDMDL
