MODEL 5
REMARK VINA RESULT: -7.253756341      3.602      4.920
REMARK  4 active torsions:
REMARK  status: ('A' for Active; 'I' for Inactive)
REMARK    1  A    between atoms: N1_2  and  N2_4 
REMARK    2  A    between atoms: N2_4  and  C1_6 
REMARK    3  A    between atoms: N4_11  and  C4_12 
REMARK    4  A    between atoms: C4_12  and  C5_13 
ROOT
HETATM    1  C1  UNL     1      54.713 -21.348  -2.163  1.00  0.00     0.703 A 
HETATM    2  N3  UNL     1      54.476 -20.759  -0.953  1.00  0.00    -0.199 N 
ATOM      3  H3  UNL     1      53.888 -21.147  -0.216  1.00  0.00     0.183 HD
HETATM    4  C2  UNL     1      55.134 -19.592  -0.883  1.00  0.00     0.124 A 
HETATM    5  C3  UNL     1      55.810 -19.426  -2.073  1.00  0.00     0.127 A 
HETATM    6  N4  UNL     1      55.526 -20.526  -2.832  1.00  0.00    -0.186 N 
ENDROOT
BRANCH   6   7
HETATM    7  C4  UNL     1      56.057 -20.710  -4.171  1.00  0.00     0.186 C 
BRANCH   7   8
HETATM    8  C5  UNL     1      55.095 -20.318  -5.231  1.00  0.00    -0.024 A 
HETATM    9  C6  UNL     1      54.035 -19.502  -4.890  1.00  0.00     0.013 A 
HETATM   10  C7  UNL     1      53.134 -19.130  -5.869  1.00  0.00     0.043 A 
HETATM   11  C8  UNL     1      53.261 -19.548  -7.176  1.00  0.00     0.103 A 
HETATM   12 CL1  UNL     1      52.120 -19.076  -8.413  1.00  0.00    -0.065 Cl
HETATM   13  N5  UNL     1      54.303 -20.336  -7.460  1.00  0.00    -0.356 N 
HETATM   14  C9  UNL     1      55.209 -20.726  -6.536  1.00  0.00     0.098 A 
ATOM     15  H5  UNL     1      54.420 -20.660  -8.421  1.00  0.00     0.166 HD
ENDBRANCH   7   8
ENDBRANCH   6   7
BRANCH   1  16
HETATM   16  N2  UNL     1      54.193 -22.595  -2.608  1.00  0.00    -0.071 N 
ATOM     17  H2  UNL     1      53.695 -22.656  -3.496  1.00  0.00     0.212 HD
BRANCH  16  18
HETATM   18  N1  UNL     1      54.368 -23.732  -1.825  1.00  0.00    -0.024 N 
HETATM   19  O1  UNL     1      54.654 -23.667  -0.606  1.00  0.00    -0.516 OA
HETATM   20  O2  UNL     1      54.234 -24.998  -2.345  1.00  0.00    -0.516 OA
ENDBRANCH  16  18
ENDBRANCH   1  16
TORSDOF 4
ENDMDL
