MODEL 5
REMARK VINA RESULT: -5.925213667     10.339     11.289
REMARK  2 active torsions:
REMARK  status: ('A' for Active; 'I' for Inactive)
REMARK    1  A    between atoms: N3_9  and  C5_10 
REMARK    2  A    between atoms: C5_10  and  C6_11 
ROOT
HETATM    1  N1  UNL     1      -8.298  25.848  53.043  1.00  0.00    -0.172 NA
HETATM    2  C1  UNL     1      -9.458  25.731  52.974  1.00  0.00     0.183 C 
HETATM    3  N2  UNL     1     -10.856  25.610  52.878  1.00  0.00    -0.274 N 
ATOM      4  H2  UNL     1     -11.247  25.023  52.141  1.00  0.00     0.180 HD
HETATM    5  C2  UNL     1     -11.661  26.210  53.680  1.00  0.00     0.151 C 
HETATM    6  S1  UNL     1     -11.142  27.278  55.023  1.00  0.00    -0.092 SA
HETATM    7  C3  UNL     1     -12.832  27.686  55.632  1.00  0.00     0.102 C 
HETATM    8  C4  UNL     1     -13.586  26.503  55.046  1.00  0.00     0.136 C 
HETATM    9  N3  UNL     1     -13.080  26.218  53.749  1.00  0.00    -0.356 N 
ENDROOT
BRANCH   9  10
HETATM   10  C5  UNL     1     -13.921  25.947  52.567  1.00  0.00     0.165 C 
BRANCH  10  11
HETATM   11  C6  UNL     1     -14.880  24.837  52.877  1.00  0.00    -0.025 A 
HETATM   12  C7  UNL     1     -14.455  23.609  53.341  1.00  0.00     0.013 A 
HETATM   13  C8  UNL     1     -15.347  22.590  53.625  1.00  0.00     0.043 A 
HETATM   14  C9  UNL     1     -16.690  22.784  53.447  1.00  0.00     0.103 A 
HETATM   15 CL1  UNL     1     -17.877  21.521  53.791  1.00  0.00    -0.065 Cl
HETATM   16  N4  UNL     1     -17.090  23.989  52.992  1.00  0.00    -0.356 N 
HETATM   17  C10 UNL     1     -16.246  24.991  52.711  1.00  0.00     0.098 A 
ATOM     18  H4  UNL     1     -18.089  24.146  52.855  1.00  0.00     0.166 HD
ENDBRANCH  10  11
ENDBRANCH   9  10
TORSDOF 2
ENDMDL
