MODEL 4
REMARK VINA RESULT: -5.943876904      3.423      5.992
REMARK  2 active torsions:
REMARK  status: ('A' for Active; 'I' for Inactive)
REMARK    1  A    between atoms: N3_9  and  C5_10 
REMARK    2  A    between atoms: C5_10  and  C6_11 
ROOT
HETATM    1  N1  UNL     1     -13.562  21.047  56.510  1.00  0.00    -0.172 NA
HETATM    2  C1  UNL     1     -13.296  20.899  57.638  1.00  0.00     0.183 C 
HETATM    3  N2  UNL     1     -12.961  20.742  58.996  1.00  0.00    -0.274 N 
ATOM      4  H2  UNL     1     -13.602  21.104  59.702  1.00  0.00     0.180 HD
HETATM    5  C2  UNL     1     -11.882  20.163  59.382  1.00  0.00     0.151 C 
HETATM    6  S1  UNL     1     -10.651  19.476  58.275  1.00  0.00    -0.092 SA
HETATM    7  C3  UNL     1      -9.507  18.868  59.585  1.00  0.00     0.102 C 
HETATM    8  C4  UNL     1     -10.491  18.794  60.741  1.00  0.00     0.136 C 
HETATM    9  N3  UNL     1     -11.370  19.909  60.683  1.00  0.00    -0.356 N 
ENDROOT
BRANCH   9  10
HETATM   10  C5  UNL     1     -11.741  20.740  61.844  1.00  0.00     0.165 C 
BRANCH  10  11
HETATM   11  C6  UNL     1     -12.256  19.864  62.946  1.00  0.00    -0.025 A 
HETATM   12  C7  UNL     1     -11.710  19.881  64.212  1.00  0.00     0.013 A 
HETATM   13  C8  UNL     1     -12.191  19.069  65.223  1.00  0.00     0.043 A 
HETATM   14  C9  UNL     1     -13.236  18.219  64.983  1.00  0.00     0.103 A 
HETATM   15 CL1  UNL     1     -13.893  17.158  66.233  1.00  0.00    -0.065 Cl
HETATM   16  N4  UNL     1     -13.760  18.213  63.740  1.00  0.00    -0.356 N 
HETATM   17  C10 UNL     1     -13.311  18.990  62.744  1.00  0.00     0.098 A 
ATOM     18  H4  UNL     1     -14.539  17.583  63.547  1.00  0.00     0.166 HD
ENDBRANCH  10  11
ENDBRANCH   9  10
TORSDOF 2
ENDMDL
