MODEL 2
REMARK VINA RESULT: -6.709253773      1.668      3.145
REMARK  2 active torsions:
REMARK  status: ('A' for Active; 'I' for Inactive)
REMARK    1  A    between atoms: N3_9  and  C5_10 
REMARK    2  A    between atoms: C5_10  and  C6_11 
ROOT
HETATM    1  N1  UNL     1     -10.875  24.224  65.000  1.00  0.00    -0.172 NA
HETATM    2  C1  UNL     1     -11.230  23.381  64.274  1.00  0.00     0.183 C 
HETATM    3  N2  UNL     1     -11.681  22.371  63.404  1.00  0.00    -0.274 N 
ATOM      4  H2  UNL     1     -11.739  22.575  62.406  1.00  0.00     0.180 HD
HETATM    5  C2  UNL     1     -12.024  21.203  63.815  1.00  0.00     0.151 C 
HETATM    6  S1  UNL     1     -11.985  20.682  65.530  1.00  0.00    -0.092 SA
HETATM    7  C3  UNL     1     -12.592  18.966  65.242  1.00  0.00     0.102 C 
HETATM    8  C4  UNL     1     -12.235  18.834  63.770  1.00  0.00     0.136 C 
HETATM    9  N3  UNL     1     -12.499  20.065  63.109  1.00  0.00    -0.356 N 
ENDROOT
BRANCH   9  10
HETATM   10  C5  UNL     1     -13.192  20.183  61.812  1.00  0.00     0.165 C 
BRANCH  10  11
HETATM   11  C6  UNL     1     -12.244  19.837  60.703  1.00  0.00    -0.025 A 
HETATM   12  C7  UNL     1     -10.971  19.366  60.947  1.00  0.00     0.013 A 
HETATM   13  C8  UNL     1     -10.103  19.049  59.918  1.00  0.00     0.043 A 
HETATM   14  C9  UNL     1     -10.497  19.200  58.615  1.00  0.00     0.103 A 
HETATM   15 CL1  UNL     1      -9.433  18.813  57.259  1.00  0.00    -0.065 Cl
HETATM   16  N4  UNL     1     -11.744  19.662  58.393  1.00  0.00    -0.356 N 
HETATM   17  C10 UNL     1     -12.603  19.976  59.373  1.00  0.00     0.098 A 
ATOM     18  H4  UNL     1     -12.050  19.780  57.426  1.00  0.00     0.166 HD
ENDBRANCH  10  11
ENDBRANCH   9  10
TORSDOF 2
ENDMDL
