MODEL 6
REMARK VINA RESULT: -5.417667710     10.050     11.211
REMARK  2 active torsions:
REMARK  status: ('A' for Active; 'I' for Inactive)
REMARK    1  A    between atoms: N3_9  and  C5_10 
REMARK    2  A    between atoms: C5_10  and  C6_11 
ROOT
HETATM    1  N1  UNL     1     -15.472  22.139  53.467  1.00  0.00    -0.172 NA
HETATM    2  C1  UNL     1     -14.653  22.945  53.675  1.00  0.00     0.183 C 
HETATM    3  N2  UNL     1     -13.681  23.927  53.943  1.00  0.00    -0.274 N 
ATOM      4  H2  UNL     1     -12.946  23.716  54.618  1.00  0.00     0.180 HD
HETATM    5  C2  UNL     1     -13.683  25.078  53.374  1.00  0.00     0.151 C 
HETATM    6  S1  UNL     1     -14.901  25.611  52.171  1.00  0.00    -0.092 SA
HETATM    7  C3  UNL     1     -14.192  27.286  51.882  1.00  0.00     0.102 C 
HETATM    8  C4  UNL     1     -12.772  27.027  52.358  1.00  0.00     0.136 C 
HETATM    9  N3  UNL     1     -12.806  26.189  53.506  1.00  0.00    -0.356 N 
ENDROOT
BRANCH   9  10
HETATM   10  C5  UNL     1     -12.016  26.419  54.731  1.00  0.00     0.165 C 
BRANCH  10  11
HETATM   11  C6  UNL     1     -10.608  26.778  54.360  1.00  0.00    -0.025 A 
HETATM   12  C7  UNL     1     -10.004  27.933  54.811  1.00  0.00     0.013 A 
HETATM   13  C8  UNL     1      -8.704  28.257  54.464  1.00  0.00     0.043 A 
HETATM   14  C9  UNL     1      -7.981  27.423  53.654  1.00  0.00     0.103 A 
HETATM   15 CL1  UNL     1      -6.319  27.784  53.177  1.00  0.00    -0.065 Cl
HETATM   16  N4  UNL     1      -8.586  26.298  53.221  1.00  0.00    -0.356 N 
HETATM   17  C10 UNL     1      -9.843  25.963  53.543  1.00  0.00     0.098 A 
ATOM     18  H4  UNL     1      -8.058  25.669  52.616  1.00  0.00     0.166 HD
ENDBRANCH  10  11
ENDBRANCH   9  10
TORSDOF 2
ENDMDL
