MODEL 8
REMARK VINA RESULT: -8.563826291      3.194      4.177
REMARK  10 active torsions:
REMARK  status: ('A' for Active; 'I' for Inactive)
REMARK    1  A    between atoms: N5_13  and  C6_14 
REMARK    2  A    between atoms: C7_16  and  C8_17 
REMARK    3  A    between atoms: C8_17  and  O2_18 
REMARK    4  A    between atoms: O2_18  and  S1_19 
REMARK    5  A    between atoms: S1_19  and  N6_22 
REMARK       I    between atoms: N6_22  and  C9_24 
REMARK    6  A    between atoms: C9_24  and  C10_26 
REMARK    7  A    between atoms: C10_26  and  N7_27 
REMARK    8  A    between atoms: C10_26  and  C11_31 
REMARK    9  A    between atoms: C12_33  and  O6_34 
REMARK   10  A    between atoms: C13_36  and  O7_37 
ROOT
HETATM    1  C6  UNL     1      33.726  13.830 -35.041  1.00  0.00     0.262 C 
HETATM    2  O1  UNL     1      33.108  14.816 -35.850  1.00  0.00    -0.353 OA
HETATM    3  C7  UNL     1      31.998  14.088 -36.264  1.00  0.00     0.180 C 
HETATM    4  C12 UNL     1      31.404  13.571 -34.964  1.00  0.00     0.182 C 
HETATM    5  C13 UNL     1      32.646  13.528 -34.063  1.00  0.00     0.198 C 
ENDROOT
BRANCH   3   6
HETATM    6  C8  UNL     1      31.031  14.820 -37.114  1.00  0.00     0.226 C 
BRANCH   6   7
HETATM    7  O2  UNL     1      30.029  15.498 -36.432  1.00  0.00    -0.257 OA
BRANCH   7   8
HETATM    8  S1  UNL     1      30.312  17.123 -36.330  1.00  0.00     0.364 S 
HETATM    9  O3  UNL     1      30.244  17.552 -34.868  1.00  0.00    -0.175 OA
HETATM   10  O4  UNL     1      29.222  17.839 -37.089  1.00  0.00    -0.175 OA
BRANCH   8  11
HETATM   11  N6  UNL     1      31.810  17.650 -36.941  1.00  0.00    -0.230 N 
HETATM   12  C9  UNL     1      32.182  18.988 -37.214  1.00  0.00     0.264 C 
HETATM   13  O5  UNL     1      31.299  19.872 -36.978  1.00  0.00    -0.270 OA
ATOM     14  H6  UNL     1      32.509  16.931 -37.130  1.00  0.00     0.183 HD
BRANCH  12  15
HETATM   15  C10 UNL     1      33.519  19.340 -37.745  1.00  0.00     0.285 C 
BRANCH  15  16
HETATM   16  N7  UNL     1      33.397  19.592 -39.197  1.00  0.00    -0.066 N 
ATOM     17  H73 UNL     1      33.604  18.763 -39.756  1.00  0.00     0.275 HD
ATOM     18  H72 UNL     1      32.430  19.722 -39.492  1.00  0.00     0.275 HD
ATOM     19  H71 UNL     1      33.991  20.386 -39.441  1.00  0.00     0.275 HD
ENDBRANCH  15  16
BRANCH  15  20
HETATM   20  C11 UNL     1      34.012  20.603 -37.071  1.00  0.00     0.129 C 
HETATM   21  S2  UNL     1      35.155  21.494 -38.134  1.00  0.00    -0.095 SA
ENDBRANCH  15  20
ENDBRANCH  12  15
ENDBRANCH   8  11
ENDBRANCH   7   8
ENDBRANCH   6   7
ENDBRANCH   3   6
BRANCH   4  22
HETATM   22  O6  UNL     1      30.981  12.248 -35.232  1.00  0.00    -0.390 OA
ATOM     23  H6  UNL     1      31.775  11.744 -35.366  1.00  0.00     0.210 HD
ENDBRANCH   4  22
BRANCH   1  24
HETATM   24  N5  UNL     1      34.961  14.272 -34.466  1.00  0.00    -0.297 N 
HETATM   25  C3  UNL     1      35.417  15.505 -34.250  1.00  0.00     0.142 A 
HETATM   26  N3  UNL     1      34.821  16.679 -34.525  1.00  0.00    -0.336 N 
HETATM   27  C4  UNL     1      36.665  15.432 -33.671  1.00  0.00     0.119 A 
HETATM   28  C2  UNL     1      35.495  17.812 -34.208  1.00  0.00     0.183 A 
ATOM     29  H3  UNL     1      33.897  16.716 -34.956  1.00  0.00     0.168 HD
HETATM   30  N2  UNL     1      36.726  17.743 -33.636  1.00  0.00    -0.339 N 
HETATM   31  C1  UNL     1      37.338  16.601 -33.355  1.00  0.00     0.148 A 
ATOM     32  H2  UNL     1      37.204  18.616 -33.412  1.00  0.00     0.167 HD
HETATM   33  N1  UNL     1      38.621  16.468 -32.762  1.00  0.00    -0.080 NA
HETATM   34  N4  UNL     1      36.945  14.142 -33.545  1.00  0.00    -0.346 N 
HETATM   35  C5  UNL     1      35.909  13.428 -34.028  1.00  0.00     0.188 A 
ATOM     36  H4  UNL     1      37.801  13.755 -33.147  1.00  0.00     0.167 HD
ENDBRANCH   1  24
BRANCH   5  37
HETATM   37  O7  UNL     1      32.713  12.246 -33.516  1.00  0.00    -0.388 OA
ATOM     38  H7  UNL     1      33.470  12.099 -32.961  1.00  0.00     0.210 HD
ENDBRANCH   5  37
TORSDOF 10
ENDMDL
