MODEL 4
REMARK VINA RESULT: -8.676186054      3.280      9.077
REMARK  10 active torsions:
REMARK  status: ('A' for Active; 'I' for Inactive)
REMARK    1  A    between atoms: N5_13  and  C6_14 
REMARK    2  A    between atoms: C7_16  and  C8_17 
REMARK    3  A    between atoms: C8_17  and  O2_18 
REMARK    4  A    between atoms: O2_18  and  S1_19 
REMARK    5  A    between atoms: S1_19  and  N6_22 
REMARK       I    between atoms: N6_22  and  C9_24 
REMARK    6  A    between atoms: C9_24  and  C10_26 
REMARK    7  A    between atoms: C10_26  and  N7_27 
REMARK    8  A    between atoms: C10_26  and  C11_31 
REMARK    9  A    between atoms: C12_33  and  O6_34 
REMARK   10  A    between atoms: C13_36  and  O7_37 
ROOT
HETATM    1  C6  UNL     1      29.610  15.992 -34.916  1.00  0.00     0.262 C 
HETATM    2  O1  UNL     1      30.858  16.177 -34.270  1.00  0.00    -0.353 OA
HETATM    3  C7  UNL     1      31.509  15.039 -34.735  1.00  0.00     0.180 C 
HETATM    4  C12 UNL     1      31.322  15.109 -36.241  1.00  0.00     0.182 C 
HETATM    5  C13 UNL     1      30.022  15.920 -36.344  1.00  0.00     0.198 C 
ENDROOT
BRANCH   3   6
HETATM    6  C8  UNL     1      32.922  14.892 -34.315  1.00  0.00     0.226 C 
BRANCH   6   7
HETATM    7  O2  UNL     1      33.739  14.195 -35.195  1.00  0.00    -0.257 OA
BRANCH   7   8
HETATM    8  S1  UNL     1      34.656  13.044 -34.441  1.00  0.00     0.364 S 
HETATM    9  O3  UNL     1      35.347  12.185 -35.495  1.00  0.00    -0.175 OA
HETATM   10  O4  UNL     1      33.734  12.163 -33.634  1.00  0.00    -0.175 OA
BRANCH   8  11
HETATM   11  N6  UNL     1      35.865  13.633 -33.398  1.00  0.00    -0.230 N 
HETATM   12  C9  UNL     1      36.735  14.721 -33.650  1.00  0.00     0.264 C 
HETATM   13  O5  UNL     1      36.590  15.303 -34.771  1.00  0.00    -0.270 OA
ATOM     14  H6  UNL     1      35.973  13.156 -32.503  1.00  0.00     0.183 HD
BRANCH  12  15
HETATM   15  C10 UNL     1      37.755  15.155 -32.669  1.00  0.00     0.285 C 
BRANCH  15  16
HETATM   16  N7  UNL     1      38.611  13.997 -32.334  1.00  0.00    -0.066 N 
ATOM     17  H73 UNL     1      38.517  13.234 -33.005  1.00  0.00     0.275 HD
ATOM     18  H72 UNL     1      39.602  14.188 -32.478  1.00  0.00     0.275 HD
ATOM     19  H71 UNL     1      38.403  13.704 -31.378  1.00  0.00     0.275 HD
ENDBRANCH  15  16
BRANCH  15  20
HETATM   20  C11 UNL     1      38.618  16.237 -33.285  1.00  0.00     0.129 C 
HETATM   21  S2  UNL     1      37.956  17.869 -32.924  1.00  0.00    -0.095 SA
ENDBRANCH  15  20
ENDBRANCH  12  15
ENDBRANCH   8  11
ENDBRANCH   7   8
ENDBRANCH   6   7
ENDBRANCH   3   6
BRANCH   4  22
HETATM   22  O6  UNL     1      31.073  13.782 -36.662  1.00  0.00    -0.390 OA
ATOM     23  H6  UNL     1      31.916  13.345 -36.654  1.00  0.00     0.210 HD
ENDBRANCH   4  22
BRANCH   1  24
HETATM   24  N5  UNL     1      28.663  17.022 -34.607  1.00  0.00    -0.297 N 
HETATM   25  C3  UNL     1      27.412  17.195 -35.031  1.00  0.00     0.142 A 
HETATM   26  N3  UNL     1      26.701  16.431 -35.880  1.00  0.00    -0.336 N 
HETATM   27  C4  UNL     1      26.894  18.335 -34.458  1.00  0.00     0.119 A 
HETATM   28  C2  UNL     1      25.433  16.821 -36.160  1.00  0.00     0.183 A 
ATOM     29  H3  UNL     1      27.101  15.591 -36.297  1.00  0.00     0.168 HD
HETATM   30  N2  UNL     1      24.919  17.945 -35.595  1.00  0.00    -0.339 N 
HETATM   31  C1  UNL     1      25.596  18.718 -34.757  1.00  0.00     0.148 A 
ATOM     32  H2  UNL     1      23.962  18.209 -35.829  1.00  0.00     0.167 HD
HETATM   33  N1  UNL     1      25.112  19.902 -34.140  1.00  0.00    -0.080 NA
HETATM   34  N4  UNL     1      27.850  18.836 -33.688  1.00  0.00    -0.346 N 
HETATM   35  C5  UNL     1      28.934  18.039 -33.774  1.00  0.00     0.188 A 
ATOM     36  H4  UNL     1      27.777  19.683 -33.124  1.00  0.00     0.167 HD
ENDBRANCH   1  24
BRANCH   5  37
HETATM   37  O7  UNL     1      29.148  15.194 -37.154  1.00  0.00    -0.388 OA
ATOM     38  H7  UNL     1      29.569  14.753 -37.883  1.00  0.00     0.210 HD
ENDBRANCH   5  37
TORSDOF 10
ENDMDL
