MODEL 6
REMARK VINA RESULT: -8.573938817      3.007      9.048
REMARK  10 active torsions:
REMARK  status: ('A' for Active; 'I' for Inactive)
REMARK    1  A    between atoms: N5_13  and  C6_14 
REMARK    2  A    between atoms: C7_16  and  C8_17 
REMARK    3  A    between atoms: C8_17  and  O2_18 
REMARK    4  A    between atoms: O2_18  and  S1_19 
REMARK    5  A    between atoms: S1_19  and  N6_22 
REMARK       I    between atoms: N6_22  and  C9_24 
REMARK    6  A    between atoms: C9_24  and  C10_26 
REMARK    7  A    between atoms: C10_26  and  N7_27 
REMARK    8  A    between atoms: C10_26  and  C11_31 
REMARK    9  A    between atoms: C12_33  and  O6_34 
REMARK   10  A    between atoms: C13_36  and  O7_37 
ROOT
HETATM    1  C6  UNL     1      28.476  17.331 -35.111  1.00  0.00     0.262 C 
HETATM    2  O1  UNL     1      28.826  16.527 -36.224  1.00  0.00    -0.353 OA
HETATM    3  C7  UNL     1      30.184  16.380 -35.962  1.00  0.00     0.180 C 
HETATM    4  C12 UNL     1      30.220  15.889 -34.525  1.00  0.00     0.182 C 
HETATM    5  C13 UNL     1      28.910  16.472 -33.976  1.00  0.00     0.198 C 
ENDROOT
BRANCH   3   6
HETATM    6  C8  UNL     1      30.930  15.516 -36.907  1.00  0.00     0.226 C 
BRANCH   6   7
HETATM    7  O2  UNL     1      30.884  14.155 -36.638  1.00  0.00    -0.257 OA
BRANCH   7   8
HETATM    8  S1  UNL     1      32.355  13.540 -36.200  1.00  0.00     0.364 S 
HETATM    9  O3  UNL     1      33.216  13.366 -37.447  1.00  0.00    -0.175 OA
HETATM   10  O4  UNL     1      32.132  12.183 -35.579  1.00  0.00    -0.175 OA
BRANCH   8  11
HETATM   11  N6  UNL     1      33.248  14.480 -35.097  1.00  0.00    -0.230 N 
HETATM   12  C9  UNL     1      34.566  14.225 -34.650  1.00  0.00     0.264 C 
HETATM   13  O5  UNL     1      35.125  13.186 -35.126  1.00  0.00    -0.270 OA
ATOM     14  H6  UNL     1      32.788  15.309 -34.720  1.00  0.00     0.183 HD
BRANCH  12  15
HETATM   15  C10 UNL     1      35.256  15.111 -33.685  1.00  0.00     0.285 C 
BRANCH  15  16
HETATM   16  N7  UNL     1      34.242  15.941 -33.000  1.00  0.00    -0.066 N 
ATOM     17  H73 UNL     1      33.296  15.576 -33.114  1.00  0.00     0.275 HD
ATOM     18  H72 UNL     1      34.299  15.868 -31.984  1.00  0.00     0.275 HD
ATOM     19  H71 UNL     1      34.333  16.903 -33.328  1.00  0.00     0.275 HD
ENDBRANCH  15  16
BRANCH  15  20
HETATM   20  C11 UNL     1      35.977  14.269 -32.654  1.00  0.00     0.129 C 
HETATM   21  S2  UNL     1      37.724  14.688 -32.590  1.00  0.00    -0.095 SA
ENDBRANCH  15  20
ENDBRANCH  12  15
ENDBRANCH   8  11
ENDBRANCH   7   8
ENDBRANCH   6   7
ENDBRANCH   3   6
BRANCH   4  22
HETATM   22  O6  UNL     1      31.311  16.553 -33.917  1.00  0.00    -0.390 OA
ATOM     23  H6  UNL     1      30.930  17.204 -33.340  1.00  0.00     0.210 HD
ENDBRANCH   4  22
BRANCH   1  24
HETATM   24  N5  UNL     1      27.091  17.698 -35.101  1.00  0.00    -0.297 N 
HETATM   25  C3  UNL     1      26.442  18.585 -34.348  1.00  0.00     0.142 A 
HETATM   26  N3  UNL     1      26.932  19.381 -33.380  1.00  0.00    -0.336 N 
HETATM   27  C4  UNL     1      25.111  18.591 -34.701  1.00  0.00     0.119 A 
HETATM   28  C2  UNL     1      26.061  20.208 -32.750  1.00  0.00     0.183 A 
ATOM     29  H3  UNL     1      27.920  19.362 -33.129  1.00  0.00     0.168 HD
HETATM   30  N2  UNL     1      24.747  20.216 -33.097  1.00  0.00    -0.339 N 
HETATM   31  C1  UNL     1      24.236  19.443 -34.046  1.00  0.00     0.148 A 
ATOM     32  H2  UNL     1      24.120  20.850 -32.601  1.00  0.00     0.167 HD
HETATM   33  N1  UNL     1      22.875  19.407 -34.448  1.00  0.00    -0.080 NA
HETATM   34  N4  UNL     1      24.976  17.699 -35.673  1.00  0.00    -0.346 N 
HETATM   35  C5  UNL     1      26.182  17.149 -35.922  1.00  0.00     0.188 A 
ATOM     36  H4  UNL     1      24.106  17.467 -36.152  1.00  0.00     0.167 HD
ENDBRANCH   1  24
BRANCH   5  37
HETATM   37  O7  UNL     1      29.229  17.178 -32.815  1.00  0.00    -0.388 OA
ATOM     38  H7  UNL     1      29.799  16.708 -32.218  1.00  0.00     0.210 HD
ENDBRANCH   5  37
TORSDOF 10
ENDMDL
