MODEL 5
REMARK VINA RESULT: -8.268272828      1.250      1.825
REMARK  10 active torsions:
REMARK  status: ('A' for Active; 'I' for Inactive)
REMARK    1  A    between atoms: N4_17  and  C9_18 
REMARK    2  A    between atoms: C9_18  and  C10_19 
REMARK    3  A    between atoms: C10_19  and  O3_20 
REMARK    4  A    between atoms: C10_19  and  C11_22 
REMARK    5  A    between atoms: C11_22  and  O4_23 
REMARK    6  A    between atoms: C11_22  and  C12_25 
REMARK    7  A    between atoms: C12_25  and  O5_26 
REMARK    8  A    between atoms: C12_25  and  C13_28 
REMARK    9  A    between atoms: C13_28  and  O6_29 
REMARK   10  A    between atoms: O6_29  and  P1_30 
ROOT
HETATM    1  C1  UNL     1       0.320  84.450  28.326  1.00  0.00     0.049 C 
HETATM    2  C2  UNL     1      -0.537  84.983  27.240  1.00  0.00    -0.054 A 
HETATM    3  C3  UNL     1      -0.285  84.671  25.922  1.00  0.00     0.039 A 
HETATM    4  C4  UNL     1      -1.070  85.156  24.886  1.00  0.00     0.060 A 
HETATM    5  N1  UNL     1      -0.780  84.813  23.619  1.00  0.00    -0.347 N 
ATOM      6  H1  UNL     1       0.017  84.204  23.431  1.00  0.00     0.166 HD
HETATM    7  C5  UNL     1      -1.524  85.262  22.601  1.00  0.00     0.146 A 
HETATM    8  C6  UNL     1      -1.264  84.935  21.265  1.00  0.00     0.280 A 
HETATM    9  O1  UNL     1      -0.294  84.192  21.029  1.00  0.00    -0.265 OA
HETATM   10  N2  UNL     1      -2.061  85.427  20.284  1.00  0.00    -0.273 N 
ATOM     11  H2  UNL     1      -1.875  85.191  19.309  1.00  0.00     0.173 HD
HETATM   12  C7  UNL     1      -3.097  86.226  20.596  1.00  0.00     0.328 A 
HETATM   13  O2  UNL     1      -3.797  86.648  19.639  1.00  0.00    -0.247 OA
HETATM   14  N3  UNL     1      -3.386  86.571  21.885  1.00  0.00    -0.292 N 
ATOM     15  H3  UNL     1      -4.183  87.180  22.073  1.00  0.00     0.172 HD
HETATM   16  C8  UNL     1      -2.645  86.124  22.910  1.00  0.00     0.145 A 
HETATM   17  N4  UNL     1      -2.902  86.447  24.215  1.00  0.00    -0.327 N 
HETATM   18  C14 UNL     1      -2.146  85.987  25.224  1.00  0.00     0.063 A 
HETATM   19  C15 UNL     1      -2.405  86.305  26.543  1.00  0.00     0.039 A 
HETATM   20  C16 UNL     1      -1.604  85.804  27.552  1.00  0.00    -0.054 A 
HETATM   21  C17 UNL     1      -1.868  86.135  28.974  1.00  0.00     0.049 C 
ENDROOT
BRANCH  17  22
HETATM   22  C9  UNL     1      -4.035  87.311  24.469  1.00  0.00     0.165 C 
BRANCH  22  23
HETATM   23  C10 UNL     1      -3.668  88.719  23.982  1.00  0.00     0.167 C 
BRANCH  23  24
HETATM   24  O3  UNL     1      -2.573  89.255  24.599  1.00  0.00    -0.391 OA
ATOM     25  H3  UNL     1      -2.549  90.204  24.589  1.00  0.00     0.210 HD
ENDBRANCH  23  24
BRANCH  23  26
HETATM   26  C11 UNL     1      -4.799  89.642  23.922  1.00  0.00     0.179 C 
BRANCH  26  27
HETATM   27  O4  UNL     1      -4.590  90.725  24.780  1.00  0.00    -0.390 OA
ATOM     28  H4  UNL     1      -5.393  90.945  25.238  1.00  0.00     0.210 HD
ENDBRANCH  26  27
BRANCH  26  29
HETATM   29  C12 UNL     1      -6.192  89.198  23.997  1.00  0.00     0.173 C 
BRANCH  29  30
HETATM   30  O5  UNL     1      -6.811  89.759  22.819  1.00  0.00    -0.391 OA
ATOM     31  H5  UNL     1      -6.324  89.382  22.095  1.00  0.00     0.210 HD
ENDBRANCH  29  30
BRANCH  29  32
HETATM   32  C13 UNL     1      -7.034  89.815  25.110  1.00  0.00     0.217 C 
BRANCH  32  33
HETATM   33  O6  UNL     1      -7.734  90.939  24.578  1.00  0.00    -0.280 OA
BRANCH  33  34
HETATM   34  P1  UNL     1      -7.583  92.252  25.619  1.00  0.00     0.422 P 
HETATM   35  O7  UNL     1      -8.898  92.487  26.285  1.00  0.00    -0.617 OA
HETATM   36  O8  UNL     1      -7.125  93.657  24.803  1.00  0.00    -0.617 OA
HETATM   37  O9  UNL     1      -6.429  91.956  26.830  1.00  0.00    -0.617 OA
ENDBRANCH  33  34
ENDBRANCH  32  33
ENDBRANCH  29  32
ENDBRANCH  26  29
ENDBRANCH  23  26
ENDBRANCH  22  23
ENDBRANCH  17  22
TORSDOF 10
ENDMDL
