MODEL 3
REMARK VINA RESULT: -8.409628386      2.267      4.611
REMARK  10 active torsions:
REMARK  status: ('A' for Active; 'I' for Inactive)
REMARK    1  A    between atoms: N4_17  and  C9_18 
REMARK    2  A    between atoms: C9_18  and  C10_19 
REMARK    3  A    between atoms: C10_19  and  O3_20 
REMARK    4  A    between atoms: C10_19  and  C11_22 
REMARK    5  A    between atoms: C11_22  and  O4_23 
REMARK    6  A    between atoms: C11_22  and  C12_25 
REMARK    7  A    between atoms: C12_25  and  O5_26 
REMARK    8  A    between atoms: C12_25  and  C13_28 
REMARK    9  A    between atoms: C13_28  and  O6_29 
REMARK   10  A    between atoms: O6_29  and  P1_30 
ROOT
HETATM    1  C1  UNL     1      -1.810  84.789  19.525  1.00  0.00     0.049 C 
HETATM    2  C2  UNL     1      -2.203  85.292  20.863  1.00  0.00    -0.054 A 
HETATM    3  C3  UNL     1      -1.501  84.927  21.991  1.00  0.00     0.039 A 
HETATM    4  C4  UNL     1      -1.848  85.383  23.255  1.00  0.00     0.060 A 
HETATM    5  N1  UNL     1      -1.122  84.997  24.319  1.00  0.00    -0.347 N 
ATOM      6  H1  UNL     1      -0.328  84.371  24.188  1.00  0.00     0.166 HD
HETATM    7  C5  UNL     1      -1.430  85.427  25.549  1.00  0.00     0.146 A 
HETATM    8  C6  UNL     1      -0.707  85.055  26.689  1.00  0.00     0.280 A 
HETATM    9  O1  UNL     1       0.263  84.291  26.536  1.00  0.00    -0.265 OA
HETATM   10  N2  UNL     1      -1.077  85.529  27.905  1.00  0.00    -0.273 N 
ATOM     11  H2  UNL     1      -0.554  85.260  28.738  1.00  0.00     0.173 HD
HETATM   12  C7  UNL     1      -2.135  86.353  28.012  1.00  0.00     0.328 A 
HETATM   13  O2  UNL     1      -2.425  86.757  29.169  1.00  0.00    -0.247 OA
HETATM   14  N3  UNL     1      -2.868  86.740  26.927  1.00  0.00    -0.292 N 
ATOM     15  H3  UNL     1      -3.662  87.367  27.059  1.00  0.00     0.172 HD
HETATM   16  C8  UNL     1      -2.565  86.315  25.692  1.00  0.00     0.145 A 
HETATM   17  N4  UNL     1      -3.274  86.680  24.580  1.00  0.00    -0.327 N 
HETATM   18  C14 UNL     1      -2.950  86.240  23.353  1.00  0.00     0.063 A 
HETATM   19  C15 UNL     1      -3.659  86.612  22.227  1.00  0.00     0.039 A 
HETATM   20  C16 UNL     1      -3.288  86.140  20.983  1.00  0.00    -0.054 A 
HETATM   21  C17 UNL     1      -4.038  86.528  19.762  1.00  0.00     0.049 C 
ENDROOT
BRANCH  17  22
HETATM   22  C9  UNL     1      -4.398  87.570  24.778  1.00  0.00     0.165 C 
BRANCH  22  23
HETATM   23  C10 UNL     1      -4.070  88.899  24.084  1.00  0.00     0.167 C 
BRANCH  23  24
HETATM   24  O3  UNL     1      -2.877  89.446  24.464  1.00  0.00    -0.391 OA
ATOM     25  H3  UNL     1      -2.875  90.396  24.482  1.00  0.00     0.210 HD
ENDBRANCH  23  24
BRANCH  23  26
HETATM   26  C11 UNL     1      -5.169  89.862  24.091  1.00  0.00     0.179 C 
BRANCH  26  27
HETATM   27  O4  UNL     1      -4.808  91.007  24.806  1.00  0.00    -0.390 OA
ATOM     28  H4  UNL     1      -5.584  91.472  25.099  1.00  0.00     0.210 HD
ENDBRANCH  26  27
BRANCH  26  29
HETATM   29  C12 UNL     1      -6.551  89.487  24.397  1.00  0.00     0.173 C 
BRANCH  29  30
HETATM   30  O5  UNL     1      -7.279  89.785  23.185  1.00  0.00    -0.391 OA
ATOM     31  H5  UNL     1      -8.142  89.414  23.332  1.00  0.00     0.210 HD
ENDBRANCH  29  30
BRANCH  29  32
HETATM   32  C13 UNL     1      -7.275  90.365  25.413  1.00  0.00     0.217 C 
BRANCH  32  33
HETATM   33  O6  UNL     1      -8.052  91.331  24.706  1.00  0.00    -0.280 OA
BRANCH  33  34
HETATM   34  P1  UNL     1      -7.843  92.850  25.397  1.00  0.00     0.422 P 
HETATM   35  O7  UNL     1      -6.705  93.534  24.714  1.00  0.00    -0.617 OA
HETATM   36  O8  UNL     1      -7.511  92.754  27.049  1.00  0.00    -0.617 OA
HETATM   37  O9  UNL     1      -9.227  93.817  25.202  1.00  0.00    -0.617 OA
ENDBRANCH  33  34
ENDBRANCH  32  33
ENDBRANCH  29  32
ENDBRANCH  26  29
ENDBRANCH  23  26
ENDBRANCH  22  23
ENDBRANCH  17  22
TORSDOF 10
ENDMDL
