MODEL 4
REMARK VINA RESULT: -8.339209324      2.757      4.536
REMARK  10 active torsions:
REMARK  status: ('A' for Active; 'I' for Inactive)
REMARK    1  A    between atoms: N4_17  and  C9_18 
REMARK    2  A    between atoms: C9_18  and  C10_19 
REMARK    3  A    between atoms: C10_19  and  O3_20 
REMARK    4  A    between atoms: C10_19  and  C11_22 
REMARK    5  A    between atoms: C11_22  and  O4_23 
REMARK    6  A    between atoms: C11_22  and  C12_25 
REMARK    7  A    between atoms: C12_25  and  O5_26 
REMARK    8  A    between atoms: C12_25  and  C13_28 
REMARK    9  A    between atoms: C13_28  and  O6_29 
REMARK   10  A    between atoms: O6_29  and  P1_30 
ROOT
HETATM    1  C1  UNL     1      -0.649  86.679  32.122  1.00  0.00     0.049 C 
HETATM    2  C2  UNL     1      -0.866  86.436  30.675  1.00  0.00    -0.054 A 
HETATM    3  C3  UNL     1       0.200  86.266  29.819  1.00  0.00     0.039 A 
HETATM    4  C4  UNL     1       0.026  86.037  28.462  1.00  0.00     0.060 A 
HETATM    5  N1  UNL     1       1.104  85.873  27.675  1.00  0.00    -0.347 N 
ATOM      6  H1  UNL     1       2.038  85.922  28.083  1.00  0.00     0.166 HD
HETATM    7  C5  UNL     1       0.966  85.645  26.363  1.00  0.00     0.146 A 
HETATM    8  C6  UNL     1       2.054  85.467  25.502  1.00  0.00     0.280 A 
HETATM    9  O1  UNL     1       3.197  85.525  25.992  1.00  0.00    -0.265 OA
HETATM   10  N2  UNL     1       1.838  85.240  24.182  1.00  0.00    -0.273 N 
ATOM     11  H2  UNL     1       2.629  85.110  23.550  1.00  0.00     0.173 HD
HETATM   12  C7  UNL     1       0.582  85.187  23.705  1.00  0.00     0.328 A 
HETATM   13  O2  UNL     1       0.452  84.973  22.471  1.00  0.00    -0.247 OA
HETATM   14  N3  UNL     1      -0.509  85.355  24.509  1.00  0.00    -0.292 N 
ATOM     15  H3  UNL     1      -1.442  85.306  24.102  1.00  0.00     0.172 HD
HETATM   16  C8  UNL     1      -0.377  85.583  25.825  1.00  0.00     0.145 A 
HETATM   17  N4  UNL     1      -1.444  85.757  26.664  1.00  0.00    -0.327 N 
HETATM   18  C14 UNL     1      -1.287  85.984  27.978  1.00  0.00     0.063 A 
HETATM   19  C15 UNL     1      -2.361  86.154  28.829  1.00  0.00     0.039 A 
HETATM   20  C16 UNL     1      -2.153  86.379  30.177  1.00  0.00    -0.054 A 
HETATM   21  C17 UNL     1      -3.296  86.564  31.107  1.00  0.00     0.049 C 
ENDROOT
BRANCH  17  22
HETATM   22  C9  UNL     1      -2.764  85.685  26.075  1.00  0.00     0.165 C 
BRANCH  22  23
HETATM   23  C10 UNL     1      -3.208  87.116  25.744  1.00  0.00     0.167 C 
BRANCH  23  24
HETATM   24  O3  UNL     1      -4.087  87.648  26.646  1.00  0.00    -0.391 OA
ATOM     25  H3  UNL     1      -4.729  88.234  26.262  1.00  0.00     0.210 HD
ENDBRANCH  23  24
BRANCH  23  26
HETATM   26  C11 UNL     1      -3.629  87.305  24.358  1.00  0.00     0.179 C 
BRANCH  26  27
HETATM   27  O4  UNL     1      -2.853  86.517  23.503  1.00  0.00    -0.390 OA
ATOM     28  H4  UNL     1      -2.370  87.065  22.895  1.00  0.00     0.210 HD
ENDBRANCH  26  27
BRANCH  26  29
HETATM   29  C12 UNL     1      -3.850  88.627  23.768  1.00  0.00     0.173 C 
BRANCH  29  30
HETATM   30  O5  UNL     1      -2.826  89.458  24.359  1.00  0.00    -0.391 OA
ATOM     31  H5  UNL     1      -2.010  89.052  24.090  1.00  0.00     0.210 HD
ENDBRANCH  29  30
BRANCH  29  32
HETATM   32  C13 UNL     1      -5.121  89.351  24.202  1.00  0.00     0.217 C 
BRANCH  32  33
HETATM   33  O6  UNL     1      -4.799  90.225  25.282  1.00  0.00    -0.280 OA
BRANCH  33  34
HETATM   34  P1  UNL     1      -5.877  91.516  25.316  1.00  0.00     0.422 P 
HETATM   35  O7  UNL     1      -6.300  91.749  26.728  1.00  0.00    -0.617 OA
HETATM   36  O8  UNL     1      -7.247  91.220  24.376  1.00  0.00    -0.617 OA
HETATM   37  O9  UNL     1      -5.155  92.944  24.743  1.00  0.00    -0.617 OA
ENDBRANCH  33  34
ENDBRANCH  32  33
ENDBRANCH  29  32
ENDBRANCH  26  29
ENDBRANCH  23  26
ENDBRANCH  22  23
ENDBRANCH  17  22
TORSDOF 10
ENDMDL
