MODEL 1
REMARK VINA RESULT: -9.184578621      0.000      0.000
REMARK  10 active torsions:
REMARK  status: ('A' for Active; 'I' for Inactive)
REMARK    1  A    between atoms: N4_17  and  C9_18 
REMARK    2  A    between atoms: C9_18  and  C10_19 
REMARK    3  A    between atoms: C10_19  and  O3_20 
REMARK    4  A    between atoms: C10_19  and  C11_22 
REMARK    5  A    between atoms: C11_22  and  O4_23 
REMARK    6  A    between atoms: C11_22  and  C12_25 
REMARK    7  A    between atoms: C12_25  and  O5_26 
REMARK    8  A    between atoms: C12_25  and  C13_28 
REMARK    9  A    between atoms: C13_28  and  O6_29 
REMARK   10  A    between atoms: O6_29  and  P1_30 
ROOT
HETATM    1  C1  UNL     1       2.312  84.915  26.157  1.00  0.00     0.049 C 
HETATM    2  C2  UNL     1       1.018  85.284  25.533  1.00  0.00    -0.054 A 
HETATM    3  C3  UNL     1       0.795  85.073  24.189  1.00  0.00     0.039 A 
HETATM    4  C4  UNL     1      -0.406  85.409  23.580  1.00  0.00     0.060 A 
HETATM    5  N1  UNL     1      -0.569  85.175  22.266  1.00  0.00    -0.347 N 
ATOM      6  H1  UNL     1       0.192  84.758  21.730  1.00  0.00     0.166 HD
HETATM    7  C5  UNL     1      -1.718  85.484  21.654  1.00  0.00     0.146 A 
HETATM    8  C6  UNL     1      -1.939  85.261  20.289  1.00  0.00     0.280 A 
HETATM    9  O1  UNL     1      -1.014  84.752  19.629  1.00  0.00    -0.265 OA
HETATM   10  N2  UNL     1      -3.130  85.599  19.736  1.00  0.00    -0.273 N 
ATOM     11  H2  UNL     1      -3.294  85.439  18.742  1.00  0.00     0.173 HD
HETATM   12  C7  UNL     1      -4.094  86.146  20.497  1.00  0.00     0.328 A 
HETATM   13  O2  UNL     1      -5.176  86.436  19.921  1.00  0.00    -0.247 OA
HETATM   14  N3  UNL     1      -3.922  86.381  21.831  1.00  0.00    -0.292 N 
ATOM     15  H3  UNL     1      -4.683  86.797  22.367  1.00  0.00     0.172 HD
HETATM   16  C8  UNL     1      -2.773  86.074  22.451  1.00  0.00     0.145 A 
HETATM   17  N4  UNL     1      -2.562  86.293  23.785  1.00  0.00    -0.327 N 
HETATM   18  C14 UNL     1      -1.402  85.977  24.384  1.00  0.00     0.063 A 
HETATM   19  C15 UNL     1      -1.187  86.191  25.731  1.00  0.00     0.039 A 
HETATM   20  C16 UNL     1       0.021  85.845  26.307  1.00  0.00    -0.054 A 
HETATM   21  C17 UNL     1       0.270  86.068  27.753  1.00  0.00     0.049 C 
ENDROOT
BRANCH  17  22
HETATM   22  C9  UNL     1      -3.648  86.884  24.536  1.00  0.00     0.165 C 
BRANCH  22  23
HETATM   23  C10 UNL     1      -3.858  88.311  24.012  1.00  0.00     0.167 C 
BRANCH  23  24
HETATM   24  O3  UNL     1      -2.884  89.192  24.392  1.00  0.00    -0.391 OA
ATOM     25  H3  UNL     1      -2.728  89.890  23.766  1.00  0.00     0.210 HD
ENDBRANCH  23  24
BRANCH  23  26
HETATM   26  C11 UNL     1      -5.208  88.830  24.217  1.00  0.00     0.179 C 
BRANCH  26  27
HETATM   27  O4  UNL     1      -6.124  88.129  23.427  1.00  0.00    -0.390 OA
ATOM     28  H4  UNL     1      -6.828  88.703  23.149  1.00  0.00     0.210 HD
ENDBRANCH  26  27
BRANCH  26  29
HETATM   29  C12 UNL     1      -5.520  90.260  24.207  1.00  0.00     0.173 C 
BRANCH  29  30
HETATM   30  O5  UNL     1      -4.835  90.784  25.366  1.00  0.00    -0.391 OA
ATOM     31  H5  UNL     1      -5.344  91.547  25.614  1.00  0.00     0.210 HD
ENDBRANCH  29  30
BRANCH  29  32
HETATM   32  C13 UNL     1      -6.967  90.634  24.510  1.00  0.00     0.217 C 
BRANCH  32  33
HETATM   33  O6  UNL     1      -7.000  91.360  25.738  1.00  0.00    -0.280 OA
BRANCH  33  34
HETATM   34  P1  UNL     1      -7.795  92.826  25.517  1.00  0.00     0.422 P 
HETATM   35  O7  UNL     1      -6.909  93.735  24.731  1.00  0.00    -0.617 OA
HETATM   36  O8  UNL     1      -8.176  93.567  26.985  1.00  0.00    -0.617 OA
HETATM   37  O9  UNL     1      -9.240  92.624  24.647  1.00  0.00    -0.617 OA
ENDBRANCH  33  34
ENDBRANCH  32  33
ENDBRANCH  29  32
ENDBRANCH  26  29
ENDBRANCH  23  26
ENDBRANCH  22  23
ENDBRANCH  17  22
TORSDOF 10
ENDMDL
