MODEL 2
REMARK VINA RESULT: -8.993174566      0.686      1.376
REMARK  10 active torsions:
REMARK  status: ('A' for Active; 'I' for Inactive)
REMARK    1  A    between atoms: N4_17  and  C9_18 
REMARK    2  A    between atoms: C9_18  and  C10_19 
REMARK    3  A    between atoms: C10_19  and  O3_20 
REMARK    4  A    between atoms: C10_19  and  C11_22 
REMARK    5  A    between atoms: C11_22  and  O4_23 
REMARK    6  A    between atoms: C11_22  and  C12_25 
REMARK    7  A    between atoms: C12_25  and  O5_26 
REMARK    8  A    between atoms: C12_25  and  C13_28 
REMARK    9  A    between atoms: C13_28  and  O6_29 
REMARK   10  A    between atoms: O6_29  and  P1_30 
ROOT
HETATM    1  C1  UNL     1       1.863  84.621  26.529  1.00  0.00     0.049 C 
HETATM    2  C2  UNL     1       0.665  85.102  25.800  1.00  0.00    -0.054 A 
HETATM    3  C3  UNL     1       0.507  84.849  24.454  1.00  0.00     0.039 A 
HETATM    4  C4  UNL     1      -0.603  85.288  23.748  1.00  0.00     0.060 A 
HETATM    5  N1  UNL     1      -0.707  85.006  22.437  1.00  0.00    -0.347 N 
ATOM      6  H1  UNL     1       0.033  84.478  21.975  1.00  0.00     0.166 HD
HETATM    7  C5  UNL     1      -1.770  85.412  21.732  1.00  0.00     0.146 A 
HETATM    8  C6  UNL     1      -1.925  85.145  20.366  1.00  0.00     0.280 A 
HETATM    9  O1  UNL     1      -1.026  84.501  19.796  1.00  0.00    -0.265 OA
HETATM   10  N2  UNL     1      -3.030  85.588  19.716  1.00  0.00    -0.273 N 
ATOM     11  H2  UNL     1      -3.147  85.396  18.720  1.00  0.00     0.173 HD
HETATM   12  C7  UNL     1      -3.971  86.280  20.381  1.00  0.00     0.328 A 
HETATM   13  O2  UNL     1      -4.971  86.661  19.719  1.00  0.00    -0.247 OA
HETATM   14  N3  UNL     1      -3.860  86.562  21.713  1.00  0.00    -0.292 N 
ATOM     15  H3  UNL     1      -4.600  87.090  22.175  1.00  0.00     0.172 HD
HETATM   16  C8  UNL     1      -2.798  86.159  22.426  1.00  0.00     0.145 A 
HETATM   17  N4  UNL     1      -2.650  86.422  23.761  1.00  0.00    -0.327 N 
HETATM   18  C14 UNL     1      -1.577  86.006  24.453  1.00  0.00     0.063 A 
HETATM   19  C15 UNL     1      -1.426  86.264  25.801  1.00  0.00     0.039 A 
HETATM   20  C16 UNL     1      -0.307  85.813  26.476  1.00  0.00    -0.054 A 
HETATM   21  C17 UNL     1      -0.129  86.080  27.925  1.00  0.00     0.049 C 
ENDROOT
BRANCH  17  22
HETATM   22  C9  UNL     1      -3.706  87.170  24.406  1.00  0.00     0.165 C 
BRANCH  22  23
HETATM   23  C10 UNL     1      -3.533  88.647  24.026  1.00  0.00     0.167 C 
BRANCH  23  24
HETATM   24  O3  UNL     1      -2.470  89.257  24.633  1.00  0.00    -0.391 OA
ATOM     25  H3  UNL     1      -2.505  89.239  25.582  1.00  0.00     0.210 HD
ENDBRANCH  23  24
BRANCH  23  26
HETATM   26  C11 UNL     1      -4.763  89.432  24.105  1.00  0.00     0.179 C 
BRANCH  26  27
HETATM   27  O4  UNL     1      -4.548  90.602  24.838  1.00  0.00    -0.390 OA
ATOM     28  H4  UNL     1      -4.407  90.396  25.756  1.00  0.00     0.210 HD
ENDBRANCH  26  27
BRANCH  26  29
HETATM   29  C12 UNL     1      -6.058  88.844  24.454  1.00  0.00     0.173 C 
BRANCH  29  30
HETATM   30  O5  UNL     1      -6.729  88.679  23.185  1.00  0.00    -0.391 OA
ATOM     31  H5  UNL     1      -7.348  87.974  23.337  1.00  0.00     0.210 HD
ENDBRANCH  29  30
BRANCH  29  32
HETATM   32  C13 UNL     1      -7.029  89.755  25.199  1.00  0.00     0.217 C 
BRANCH  32  33
HETATM   33  O6  UNL     1      -7.429  90.807  24.321  1.00  0.00    -0.280 OA
BRANCH  33  34
HETATM   34  P1  UNL     1      -7.274  92.291  25.097  1.00  0.00     0.422 P 
HETATM   35  O7  UNL     1      -8.609  92.959  25.120  1.00  0.00    -0.617 OA
HETATM   36  O8  UNL     1      -6.170  93.301  24.316  1.00  0.00    -0.617 OA
HETATM   37  O9  UNL     1      -6.757  92.101  26.704  1.00  0.00    -0.617 OA
ENDBRANCH  33  34
ENDBRANCH  32  33
ENDBRANCH  29  32
ENDBRANCH  26  29
ENDBRANCH  23  26
ENDBRANCH  22  23
ENDBRANCH  17  22
TORSDOF 10
ENDMDL
