MODEL 6
REMARK VINA RESULT: -8.013865943      3.215      5.444
REMARK  10 active torsions:
REMARK  status: ('A' for Active; 'I' for Inactive)
REMARK    1  A    between atoms: N4_17  and  C9_18 
REMARK    2  A    between atoms: C9_18  and  C10_19 
REMARK    3  A    between atoms: C10_19  and  O3_20 
REMARK    4  A    between atoms: C10_19  and  C11_22 
REMARK    5  A    between atoms: C11_22  and  O4_23 
REMARK    6  A    between atoms: C11_22  and  C12_25 
REMARK    7  A    between atoms: C12_25  and  O5_26 
REMARK    8  A    between atoms: C12_25  and  C13_28 
REMARK    9  A    between atoms: C13_28  and  O6_29 
REMARK   10  A    between atoms: O6_29  and  P1_30 
ROOT
HETATM    1  C1  UNL     1       3.025  85.329  25.651  1.00  0.00     0.049 C 
HETATM    2  C2  UNL     1       1.596  85.493  26.011  1.00  0.00    -0.054 A 
HETATM    3  C3  UNL     1       1.210  85.646  27.325  1.00  0.00     0.039 A 
HETATM    4  C4  UNL     1      -0.119  85.801  27.690  1.00  0.00     0.060 A 
HETATM    5  N1  UNL     1      -0.436  85.952  28.988  1.00  0.00    -0.347 N 
ATOM      6  H1  UNL     1       0.303  85.947  29.691  1.00  0.00     0.166 HD
HETATM    7  C5  UNL     1      -1.710  86.109  29.367  1.00  0.00     0.146 A 
HETATM    8  C6  UNL     1      -2.092  86.271  30.704  1.00  0.00     0.280 A 
HETATM    9  O1  UNL     1      -1.196  86.265  31.568  1.00  0.00    -0.265 OA
HETATM   10  N2  UNL     1      -3.403  86.425  31.016  1.00  0.00    -0.273 N 
ATOM     11  H2  UNL     1      -3.686  86.542  31.989  1.00  0.00     0.173 HD
HETATM   12  C7  UNL     1      -4.331  86.423  30.042  1.00  0.00     0.328 A 
HETATM   13  O2  UNL     1      -5.529  86.571  30.399  1.00  0.00    -0.247 OA
HETATM   14  N3  UNL     1      -4.003  86.269  28.725  1.00  0.00    -0.292 N 
ATOM     15  H3  UNL     1      -4.741  86.274  28.022  1.00  0.00     0.172 HD
HETATM   16  C8  UNL     1      -2.728  86.111  28.338  1.00  0.00     0.145 A 
HETATM   17  N4  UNL     1      -2.359  85.954  27.029  1.00  0.00    -0.327 N 
HETATM   18  C14 UNL     1      -1.075  85.798  26.667  1.00  0.00     0.063 A 
HETATM   19  C15 UNL     1      -0.697  85.646  25.347  1.00  0.00     0.039 A 
HETATM   20  C16 UNL     1       0.637  85.494  25.017  1.00  0.00    -0.054 A 
HETATM   21  C17 UNL     1       1.061  85.328  23.605  1.00  0.00     0.049 C 
ENDROOT
BRANCH  17  22
HETATM   22  C9  UNL     1      -3.415  85.964  26.041  1.00  0.00     0.165 C 
BRANCH  22  23
HETATM   23  C10 UNL     1      -3.679  87.426  25.654  1.00  0.00     0.167 C 
BRANCH  23  24
HETATM   24  O3  UNL     1      -4.594  88.056  26.452  1.00  0.00    -0.391 OA
ATOM     25  H3  UNL     1      -4.636  88.996  26.324  1.00  0.00     0.210 HD
ENDBRANCH  23  24
BRANCH  23  26
HETATM   26  C11 UNL     1      -3.928  87.630  24.229  1.00  0.00     0.179 C 
BRANCH  26  27
HETATM   27  O4  UNL     1      -3.076  86.827  23.466  1.00  0.00    -0.390 OA
ATOM     28  H4  UNL     1      -3.298  86.891  22.544  1.00  0.00     0.210 HD
ENDBRANCH  26  27
BRANCH  26  29
HETATM   29  C12 UNL     1      -4.046  88.959  23.626  1.00  0.00     0.173 C 
BRANCH  29  30
HETATM   30  O5  UNL     1      -3.036  89.747  24.295  1.00  0.00    -0.391 OA
ATOM     31  H5  UNL     1      -2.331  89.812  23.661  1.00  0.00     0.210 HD
ENDBRANCH  29  30
BRANCH  29  32
HETATM   32  C13 UNL     1      -5.314  89.738  23.962  1.00  0.00     0.217 C 
BRANCH  32  33
HETATM   33  O6  UNL     1      -4.994  90.726  24.941  1.00  0.00    -0.280 OA
BRANCH  33  34
HETATM   34  P1  UNL     1      -6.296  91.769  25.150  1.00  0.00     0.422 P 
HETATM   35  O7  UNL     1      -6.474  92.025  26.610  1.00  0.00    -0.617 OA
HETATM   36  O8  UNL     1      -7.728  91.125  24.530  1.00  0.00    -0.617 OA
HETATM   37  O9  UNL     1      -6.026  93.263  24.386  1.00  0.00    -0.617 OA
ENDBRANCH  33  34
ENDBRANCH  32  33
ENDBRANCH  29  32
ENDBRANCH  26  29
ENDBRANCH  23  26
ENDBRANCH  22  23
ENDBRANCH  17  22
TORSDOF 10
ENDMDL
