MODEL 7
REMARK VINA RESULT: -7.979927485      1.629      2.274
REMARK  10 active torsions:
REMARK  status: ('A' for Active; 'I' for Inactive)
REMARK    1  A    between atoms: N4_17  and  C9_18 
REMARK    2  A    between atoms: C9_18  and  C10_19 
REMARK    3  A    between atoms: C10_19  and  O3_20 
REMARK    4  A    between atoms: C10_19  and  C11_22 
REMARK    5  A    between atoms: C11_22  and  O4_23 
REMARK    6  A    between atoms: C11_22  and  C12_25 
REMARK    7  A    between atoms: C12_25  and  O5_26 
REMARK    8  A    between atoms: C12_25  and  C13_28 
REMARK    9  A    between atoms: C13_28  and  O6_29 
REMARK   10  A    between atoms: O6_29  and  P1_30 
ROOT
HETATM    1  C1  UNL     1       1.893  84.670  26.566  1.00  0.00     0.049 C 
HETATM    2  C2  UNL     1       0.696  85.132  25.822  1.00  0.00    -0.054 A 
HETATM    3  C3  UNL     1       0.552  84.867  24.478  1.00  0.00     0.039 A 
HETATM    4  C4  UNL     1      -0.557  85.289  23.758  1.00  0.00     0.060 A 
HETATM    5  N1  UNL     1      -0.646  84.996  22.449  1.00  0.00    -0.347 N 
ATOM      6  H1  UNL     1       0.104  84.472  21.997  1.00  0.00     0.166 HD
HETATM    7  C5  UNL     1      -1.707  85.384  21.732  1.00  0.00     0.146 A 
HETATM    8  C6  UNL     1      -1.848  85.105  20.367  1.00  0.00     0.280 A 
HETATM    9  O1  UNL     1      -0.937  84.466  19.809  1.00  0.00    -0.265 OA
HETATM   10  N2  UNL     1      -2.951  85.531  19.703  1.00  0.00    -0.273 N 
ATOM     11  H2  UNL     1      -3.058  85.330  18.709  1.00  0.00     0.173 HD
HETATM   12  C7  UNL     1      -3.905  86.219  20.355  1.00  0.00     0.328 A 
HETATM   13  O2  UNL     1      -4.904  86.584  19.681  1.00  0.00    -0.247 OA
HETATM   14  N3  UNL     1      -3.809  86.513  21.686  1.00  0.00    -0.292 N 
ATOM     15  H3  UNL     1      -4.558  87.037  22.137  1.00  0.00     0.172 HD
HETATM   16  C8  UNL     1      -2.748  86.126  22.411  1.00  0.00     0.145 A 
HETATM   17  N4  UNL     1      -2.614  86.401  23.745  1.00  0.00    -0.327 N 
HETATM   18  C14 UNL     1      -1.543  86.003  24.449  1.00  0.00     0.063 A 
HETATM   19  C15 UNL     1      -1.407  86.273  25.797  1.00  0.00     0.039 A 
HETATM   20  C16 UNL     1      -0.289  85.838  26.485  1.00  0.00    -0.054 A 
HETATM   21  C17 UNL     1      -0.126  86.119  27.933  1.00  0.00     0.049 C 
ENDROOT
BRANCH  17  22
HETATM   22  C9  UNL     1      -3.684  87.144  24.375  1.00  0.00     0.165 C 
BRANCH  22  23
HETATM   23  C10 UNL     1      -3.552  88.611  23.944  1.00  0.00     0.167 C 
BRANCH  23  24
HETATM   24  O3  UNL     1      -2.522  89.278  24.546  1.00  0.00    -0.391 OA
ATOM     25  H3  UNL     1      -2.176  89.999  24.034  1.00  0.00     0.210 HD
ENDBRANCH  23  24
BRANCH  23  26
HETATM   26  C11 UNL     1      -4.809  89.356  23.972  1.00  0.00     0.179 C 
BRANCH  26  27
HETATM   27  O4  UNL     1      -4.643  90.564  24.655  1.00  0.00    -0.390 OA
ATOM     28  H4  UNL     1      -4.571  91.285  24.039  1.00  0.00     0.210 HD
ENDBRANCH  26  27
BRANCH  26  29
HETATM   29  C12 UNL     1      -6.088  88.742  24.331  1.00  0.00     0.173 C 
BRANCH  29  30
HETATM   30  O5  UNL     1      -6.929  88.966  23.178  1.00  0.00    -0.391 OA
ATOM     31  H5  UNL     1      -7.780  89.179  23.545  1.00  0.00     0.210 HD
ENDBRANCH  29  30
BRANCH  29  32
HETATM   32  C13 UNL     1      -6.883  89.439  25.431  1.00  0.00     0.217 C 
BRANCH  32  33
HETATM   33  O6  UNL     1      -6.324  89.077  26.693  1.00  0.00    -0.280 OA
BRANCH  33  34
HETATM   34  P1  UNL     1      -7.549  88.897  27.832  1.00  0.00     0.422 P 
HETATM   35  O7  UNL     1      -7.993  87.472  27.835  1.00  0.00    -0.617 OA
HETATM   36  O8  UNL     1      -8.877  89.883  27.493  1.00  0.00    -0.617 OA
HETATM   37  O9  UNL     1      -7.005  89.279  29.396  1.00  0.00    -0.617 OA
ENDBRANCH  33  34
ENDBRANCH  32  33
ENDBRANCH  29  32
ENDBRANCH  26  29
ENDBRANCH  23  26
ENDBRANCH  22  23
ENDBRANCH  17  22
TORSDOF 10
ENDMDL
