MODEL 2
REMARK VINA RESULT: -9.450255129      0.668      1.021
REMARK  15 active torsions:
REMARK  status: ('A' for Active; 'I' for Inactive)
REMARK    1  A    between atoms: C2_2  and  C4_4 
REMARK    2  A    between atoms: C5_5  and  C6_6 
REMARK       I    between atoms: C6_6  and  N1_8 
REMARK    3  A    between atoms: N1_8  and  C7_10 
REMARK    4  A    between atoms: C12_15  and  O2_16 
REMARK    5  A    between atoms: C13_18  and  C14_19 
REMARK    6  A    between atoms: C20_25  and  C21_26 
REMARK    7  A    between atoms: N2_33  and  C27_34 
REMARK    8  A    between atoms: C27_34  and  C28_35 
REMARK    9  A    between atoms: C28_35  and  C29_36 
REMARK   10  A    between atoms: C29_36  and  O3_37 
REMARK   11  A    between atoms: C29_36  and  C30_39 
REMARK   12  A    between atoms: C30_39  and  C31_40 
REMARK   13  A    between atoms: C31_40  and  O4_41 
REMARK   14  A    between atoms: C31_40  and  C32_43 
REMARK   15  A    between atoms: C32_43  and  C33_44 
ROOT
HETATM    1  C4  UNL     1      34.154  -7.726 -12.587  1.00  0.00     0.032 A 
HETATM    2  C5  UNL     1      35.065  -7.006 -13.401  1.00  0.00     0.068 A 
HETATM    3  C13 UNL     1      34.554  -5.746 -13.538  1.00  0.00     0.020 A 
HETATM    4  C20 UNL     1      33.374  -5.708 -12.832  1.00  0.00     0.057 A 
HETATM    5  N2  UNL     1      33.148  -6.935 -12.257  1.00  0.00    -0.347 N 
ENDROOT
BRANCH   5   6
HETATM    6  C27 UNL     1      31.988  -7.155 -11.471  1.00  0.00     0.132 C 
BRANCH   6   7
HETATM    7  C28 UNL     1      32.177  -6.855  -9.998  1.00  0.00     0.052 C 
BRANCH   7   8
HETATM    8  C29 UNL     1      31.116  -7.618  -9.240  1.00  0.00     0.122 C 
BRANCH   8   9
HETATM    9  O3  UNL     1      31.343  -8.996  -9.293  1.00  0.00    -0.395 OA
ATOM     10  H3  UNL     1      30.585  -9.485  -8.993  1.00  0.00     0.210 HD
ENDBRANCH   8   9
BRANCH   8  11
HETATM   11  C30 UNL     1      31.050  -7.194  -7.787  1.00  0.00     0.064 C 
BRANCH  11  12
HETATM   12  C31 UNL     1      31.426  -5.733  -7.749  1.00  0.00     0.130 C 
BRANCH  12  13
HETATM   13  O4  UNL     1      30.255  -4.946  -7.758  1.00  0.00    -0.395 OA
ATOM     14  H4  UNL     1      29.650  -5.285  -8.408  1.00  0.00     0.210 HD
ENDBRANCH  12  13
BRANCH  12  15
HETATM   15  C32 UNL     1      32.256  -5.332  -6.580  1.00  0.00     0.144 C 
BRANCH  15  16
HETATM   16  C33 UNL     1      32.355  -3.875  -6.381  1.00  0.00     0.175 C 
HETATM   17  O5  UNL     1      33.275  -3.183  -6.859  1.00  0.00    -0.648 OA
HETATM   18  O6  UNL     1      31.397  -3.173  -5.628  1.00  0.00    -0.648 OA
ENDBRANCH  15  16
ENDBRANCH  12  15
ENDBRANCH  11  12
ENDBRANCH   8  11
ENDBRANCH   7   8
ENDBRANCH   6   7
ENDBRANCH   5   6
BRANCH   1  19
HETATM   19  C2  UNL     1      34.436  -9.101 -12.199  1.00  0.00     0.028 C 
HETATM   20  C1  UNL     1      33.329 -10.106 -12.342  1.00  0.00     0.016 C 
HETATM   21  C3  UNL     1      34.947  -9.205 -10.767  1.00  0.00     0.016 C 
ENDBRANCH   1  19
BRANCH   4  22
HETATM   22  C21 UNL     1      32.494  -4.560 -12.715  1.00  0.00    -0.008 A 
HETATM   23  C22 UNL     1      31.492  -4.260 -13.616  1.00  0.00     0.017 A 
HETATM   24  C23 UNL     1      30.682  -3.145 -13.468  1.00  0.00     0.043 A 
HETATM   25  C24 UNL     1      30.848  -2.282 -12.406  1.00  0.00     0.116 A 
HETATM   26  F1  UNL     1      30.055  -1.177 -12.252  1.00  0.00    -0.206 F 
HETATM   27  C25 UNL     1      31.848  -2.570 -11.496  1.00  0.00     0.043 A 
HETATM   28  C26 UNL     1      32.642  -3.676 -11.651  1.00  0.00     0.017 A 
ENDBRANCH   4  22
BRANCH   2  29
HETATM   29  C6  UNL     1      36.280  -7.566 -14.010  1.00  0.00     0.259 C 
HETATM   30  O1  UNL     1      37.286  -7.695 -13.277  1.00  0.00    -0.267 OA
HETATM   31  N1  UNL     1      36.378  -7.955 -15.342  1.00  0.00    -0.320 N 
ATOM     32  H1  UNL     1      35.539  -7.827 -15.907  1.00  0.00     0.169 HD
BRANCH  31  33
HETATM   33  C7  UNL     1      37.493  -8.506 -16.011  1.00  0.00     0.068 A 
HETATM   34  C8  UNL     1      38.491  -7.766 -16.584  1.00  0.00     0.032 A 
HETATM   35  C9  UNL     1      39.584  -8.353 -17.239  1.00  0.00     0.002 A 
HETATM   36  C10 UNL     1      39.705  -9.711 -17.335  1.00  0.00     0.003 A 
HETATM   37  C11 UNL     1      38.712 -10.462 -16.765  1.00  0.00     0.039 A 
HETATM   38  C12 UNL     1      37.637  -9.899 -16.122  1.00  0.00     0.092 A 
BRANCH  38  39
HETATM   39  O2  UNL     1      36.712 -10.751 -15.594  1.00  0.00    -0.358 OA
ATOM     40  H2  UNL     1      35.805 -10.490 -15.486  1.00  0.00     0.217 HD
ENDBRANCH  38  39
ENDBRANCH  31  33
ENDBRANCH   2  29
BRANCH   3  41
HETATM   41  C14 UNL     1      35.112  -4.631 -14.293  1.00  0.00    -0.023 A 
HETATM   42  C15 UNL     1      35.291  -4.638 -15.661  1.00  0.00     0.012 A 
HETATM   43  C16 UNL     1      35.814  -3.517 -16.250  1.00  0.00     0.001 A 
HETATM   44  C17 UNL     1      36.158  -2.404 -15.514  1.00  0.00     0.000 A 
HETATM   45  C18 UNL     1      35.982  -2.396 -14.160  1.00  0.00     0.001 A 
HETATM   46  C19 UNL     1      35.462  -3.501 -13.553  1.00  0.00     0.012 A 
ENDBRANCH   3  41
TORSDOF 15
ENDMDL
