MODEL 7
REMARK VINA RESULT: -8.057451961      3.699      7.249
REMARK  15 active torsions:
REMARK  status: ('A' for Active; 'I' for Inactive)
REMARK    1  A    between atoms: C2_2  and  C4_4 
REMARK    2  A    between atoms: C5_5  and  C6_6 
REMARK       I    between atoms: C6_6  and  N1_8 
REMARK    3  A    between atoms: N1_8  and  C7_10 
REMARK    4  A    between atoms: C12_15  and  O2_16 
REMARK    5  A    between atoms: C13_18  and  C14_19 
REMARK    6  A    between atoms: C20_25  and  C21_26 
REMARK    7  A    between atoms: N2_33  and  C27_34 
REMARK    8  A    between atoms: C27_34  and  C28_35 
REMARK    9  A    between atoms: C28_35  and  C29_36 
REMARK   10  A    between atoms: C29_36  and  O3_37 
REMARK   11  A    between atoms: C29_36  and  C30_39 
REMARK   12  A    between atoms: C30_39  and  C31_40 
REMARK   13  A    between atoms: C31_40  and  O4_41 
REMARK   14  A    between atoms: C31_40  and  C32_43 
REMARK   15  A    between atoms: C32_43  and  C33_44 
ROOT
HETATM    1  C4  UNL     1      30.264  -5.582 -13.303  1.00  0.00     0.032 A 
HETATM    2  C5  UNL     1      31.325  -4.764 -12.837  1.00  0.00     0.068 A 
HETATM    3  C13 UNL     1      32.167  -4.574 -13.898  1.00  0.00     0.020 A 
HETATM    4  C20 UNL     1      31.632  -5.257 -14.966  1.00  0.00     0.057 A 
HETATM    5  N2  UNL     1      30.464  -5.868 -14.578  1.00  0.00    -0.347 N 
ENDROOT
BRANCH   5   6
HETATM    6  C27 UNL     1      29.716  -6.638 -15.505  1.00  0.00     0.132 C 
BRANCH   6   7
HETATM    7  C28 UNL     1      30.338  -7.980 -15.833  1.00  0.00     0.052 C 
BRANCH   7   8
HETATM    8  C29 UNL     1      30.515  -8.727 -14.531  1.00  0.00     0.122 C 
BRANCH   8   9
HETATM    9  O3  UNL     1      29.912  -9.987 -14.580  1.00  0.00    -0.395 OA
ATOM     10  H3  UNL     1      30.204 -10.482 -15.337  1.00  0.00     0.210 HD
ENDBRANCH   8   9
BRANCH   8  11
HETATM   11  C30 UNL     1      31.979  -8.905 -14.182  1.00  0.00     0.064 C 
BRANCH  11  12
HETATM   12  C31 UNL     1      32.022  -9.428 -12.768  1.00  0.00     0.130 C 
BRANCH  12  13
HETATM   13  O4  UNL     1      32.533 -10.744 -12.768  1.00  0.00    -0.395 OA
ATOM     14  H4  UNL     1      32.541 -11.080 -13.656  1.00  0.00     0.210 HD
ENDBRANCH  12  13
BRANCH  12  15
HETATM   15  C32 UNL     1      32.828  -8.608 -11.823  1.00  0.00     0.144 C 
BRANCH  15  16
HETATM   16  C33 UNL     1      32.666  -8.985 -10.407  1.00  0.00     0.175 C 
HETATM   17  O5  UNL     1      32.032  -8.293  -9.585  1.00  0.00    -0.648 OA
HETATM   18  O6  UNL     1      33.229 -10.168  -9.895  1.00  0.00    -0.648 OA
ENDBRANCH  15  16
ENDBRANCH  12  15
ENDBRANCH  11  12
ENDBRANCH   8  11
ENDBRANCH   7   8
ENDBRANCH   6   7
ENDBRANCH   5   6
BRANCH   1  19
HETATM   19  C2  UNL     1      29.157  -5.929 -12.424  1.00  0.00     0.028 C 
HETATM   20  C1  UNL     1      28.688  -7.355 -12.423  1.00  0.00     0.016 C 
HETATM   21  C3  UNL     1      27.929  -5.059 -12.671  1.00  0.00     0.016 C 
ENDBRANCH   1  19
BRANCH   4  22
HETATM   22  C21 UNL     1      32.208  -5.332 -16.296  1.00  0.00    -0.008 A 
HETATM   23  C22 UNL     1      31.765  -4.590 -17.373  1.00  0.00     0.017 A 
HETATM   24  C23 UNL     1      32.341  -4.703 -18.628  1.00  0.00     0.043 A 
HETATM   25  C24 UNL     1      33.388  -5.571 -18.855  1.00  0.00     0.116 A 
HETATM   26  F1  UNL     1      33.962  -5.692 -20.091  1.00  0.00    -0.206 F 
HETATM   27  C25 UNL     1      33.842  -6.321 -17.786  1.00  0.00     0.043 A 
HETATM   28  C26 UNL     1      33.266  -6.201 -16.548  1.00  0.00     0.017 A 
ENDBRANCH   4  22
BRANCH   2  29
HETATM   29  C6  UNL     1      31.482  -4.289 -11.455  1.00  0.00     0.259 C 
HETATM   30  O1  UNL     1      31.122  -3.118 -11.204  1.00  0.00    -0.267 OA
HETATM   31  N1  UNL     1      32.006  -5.056 -10.420  1.00  0.00    -0.320 N 
ATOM     32  H1  UNL     1      32.294  -6.002 -10.668  1.00  0.00     0.169 HD
BRANCH  31  33
HETATM   33  C7  UNL     1      32.188  -4.691  -9.068  1.00  0.00     0.068 A 
HETATM   34  C8  UNL     1      33.158  -3.833  -8.626  1.00  0.00     0.032 A 
HETATM   35  C9  UNL     1      33.304  -3.494  -7.272  1.00  0.00     0.002 A 
HETATM   36  C10 UNL     1      32.473  -4.012  -6.320  1.00  0.00     0.003 A 
HETATM   37  C11 UNL     1      31.497  -4.872  -6.751  1.00  0.00     0.039 A 
HETATM   38  C12 UNL     1      31.345  -5.211  -8.073  1.00  0.00     0.092 A 
BRANCH  38  39
HETATM   39  O2  UNL     1      30.337  -6.077  -8.380  1.00  0.00    -0.358 OA
ATOM     40  H2  UNL     1      29.433  -5.879  -8.167  1.00  0.00     0.217 HD
ENDBRANCH  38  39
ENDBRANCH  31  33
ENDBRANCH   2  29
BRANCH   3  41
HETATM   41  C14 UNL     1      33.411  -3.817 -13.928  1.00  0.00    -0.023 A 
HETATM   42  C15 UNL     1      33.527  -2.544 -14.447  1.00  0.00     0.012 A 
HETATM   43  C16 UNL     1      34.754  -1.937 -14.403  1.00  0.00     0.001 A 
HETATM   44  C17 UNL     1      35.855  -2.564 -13.859  1.00  0.00     0.000 A 
HETATM   45  C18 UNL     1      35.742  -3.824 -13.345  1.00  0.00     0.001 A 
HETATM   46  C19 UNL     1      34.529  -4.447 -13.379  1.00  0.00     0.012 A 
ENDBRANCH   3  41
TORSDOF 15
ENDMDL
