MODEL 3
REMARK VINA RESULT: -9.434233742      1.105      1.372
REMARK  15 active torsions:
REMARK  status: ('A' for Active; 'I' for Inactive)
REMARK    1  A    between atoms: C2_2  and  C4_4 
REMARK    2  A    between atoms: C5_5  and  C6_6 
REMARK       I    between atoms: C6_6  and  N1_8 
REMARK    3  A    between atoms: N1_8  and  C7_10 
REMARK    4  A    between atoms: C12_15  and  O2_16 
REMARK    5  A    between atoms: C13_18  and  C14_19 
REMARK    6  A    between atoms: C20_25  and  C21_26 
REMARK    7  A    between atoms: N2_33  and  C27_34 
REMARK    8  A    between atoms: C27_34  and  C28_35 
REMARK    9  A    between atoms: C28_35  and  C29_36 
REMARK   10  A    between atoms: C29_36  and  O3_37 
REMARK   11  A    between atoms: C29_36  and  C30_39 
REMARK   12  A    between atoms: C30_39  and  C31_40 
REMARK   13  A    between atoms: C31_40  and  O4_41 
REMARK   14  A    between atoms: C31_40  and  C32_43 
REMARK   15  A    between atoms: C32_43  and  C33_44 
ROOT
HETATM    1  C4  UNL     1      33.601  -7.928 -12.566  1.00  0.00     0.032 A 
HETATM    2  C5  UNL     1      34.417  -7.291 -13.535  1.00  0.00     0.068 A 
HETATM    3  C13 UNL     1      34.176  -5.950 -13.428  1.00  0.00     0.020 A 
HETATM    4  C20 UNL     1      33.245  -5.785 -12.429  1.00  0.00     0.057 A 
HETATM    5  N2  UNL     1      32.905  -7.012 -11.914  1.00  0.00    -0.347 N 
ENDROOT
BRANCH   5   6
HETATM    6  C27 UNL     1      31.957  -7.112 -10.865  1.00  0.00     0.132 C 
BRANCH   6   7
HETATM    7  C28 UNL     1      32.575  -7.283  -9.492  1.00  0.00     0.052 C 
BRANCH   7   8
HETATM    8  C29 UNL     1      31.444  -7.327  -8.489  1.00  0.00     0.122 C 
BRANCH   8   9
HETATM    9  O3  UNL     1      30.721  -8.519  -8.589  1.00  0.00    -0.395 OA
ATOM     10  H3  UNL     1      31.208  -9.182  -9.065  1.00  0.00     0.210 HD
ENDBRANCH   8   9
BRANCH   8  11
HETATM   11  C30 UNL     1      31.950  -7.186  -7.068  1.00  0.00     0.064 C 
BRANCH  11  12
HETATM   12  C31 UNL     1      31.252  -5.983  -6.482  1.00  0.00     0.130 C 
BRANCH  12  13
HETATM   13  O4  UNL     1      31.483  -5.936  -5.091  1.00  0.00    -0.395 OA
ATOM     14  H4  UNL     1      30.809  -6.431  -4.641  1.00  0.00     0.210 HD
ENDBRANCH  12  13
BRANCH  12  15
HETATM   15  C32 UNL     1      31.656  -4.678  -7.073  1.00  0.00     0.144 C 
BRANCH  15  16
HETATM   16  C33 UNL     1      32.077  -3.671  -6.082  1.00  0.00     0.175 C 
HETATM   17  O5  UNL     1      33.269  -3.475  -5.774  1.00  0.00    -0.648 OA
HETATM   18  O6  UNL     1      31.139  -2.859  -5.419  1.00  0.00    -0.648 OA
ENDBRANCH  15  16
ENDBRANCH  12  15
ENDBRANCH  11  12
ENDBRANCH   8  11
ENDBRANCH   7   8
ENDBRANCH   6   7
ENDBRANCH   5   6
BRANCH   1  19
HETATM   19  C2  UNL     1      33.663  -9.371 -12.380  1.00  0.00     0.028 C 
HETATM   20  C1  UNL     1      32.367 -10.131 -12.394  1.00  0.00     0.016 C 
HETATM   21  C3  UNL     1      34.390  -9.759 -11.098  1.00  0.00     0.016 C 
ENDBRANCH   1  19
BRANCH   4  22
HETATM   22  C21 UNL     1      32.694  -4.517 -11.987  1.00  0.00    -0.008 A 
HETATM   23  C22 UNL     1      32.996  -3.922 -10.779  1.00  0.00     0.017 A 
HETATM   24  C23 UNL     1      32.436  -2.714 -10.395  1.00  0.00     0.043 A 
HETATM   25  C24 UNL     1      31.545  -2.052 -11.213  1.00  0.00     0.116 A 
HETATM   26  F1  UNL     1      30.985  -0.859 -10.842  1.00  0.00    -0.206 F 
HETATM   27  C25 UNL     1      31.232  -2.636 -12.426  1.00  0.00     0.043 A 
HETATM   28  C26 UNL     1      31.793  -3.831 -12.796  1.00  0.00     0.017 A 
ENDBRANCH   4  22
BRANCH   2  29
HETATM   29  C6  UNL     1      35.291  -7.985 -14.492  1.00  0.00     0.259 C 
HETATM   30  O1  UNL     1      34.824  -8.227 -15.628  1.00  0.00    -0.267 OA
HETATM   31  N1  UNL     1      36.592  -8.389 -14.213  1.00  0.00    -0.320 N 
ATOM     32  H1  UNL     1      36.931  -8.180 -13.274  1.00  0.00     0.169 HD
BRANCH  31  33
HETATM   33  C7  UNL     1      37.503  -9.051 -15.065  1.00  0.00     0.068 A 
HETATM   34  C8  UNL     1      37.137  -9.889 -16.083  1.00  0.00     0.032 A 
HETATM   35  C9  UNL     1      38.075 -10.527 -16.908  1.00  0.00     0.002 A 
HETATM   36  C10 UNL     1      39.417 -10.337 -16.732  1.00  0.00     0.003 A 
HETATM   37  C11 UNL     1      39.795  -9.500 -15.716  1.00  0.00     0.039 A 
HETATM   38  C12 UNL     1      38.886  -8.870 -14.901  1.00  0.00     0.092 A 
BRANCH  38  39
HETATM   39  O2  UNL     1      39.384  -8.061 -13.923  1.00  0.00    -0.358 OA
ATOM     40  H2  UNL     1      40.319  -7.931 -13.818  1.00  0.00     0.217 HD
ENDBRANCH  38  39
ENDBRANCH  31  33
ENDBRANCH   2  29
BRANCH   3  41
HETATM   41  C14 UNL     1      34.759  -4.870 -14.213  1.00  0.00    -0.023 A 
HETATM   42  C15 UNL     1      34.701  -4.798 -15.589  1.00  0.00     0.012 A 
HETATM   43  C16 UNL     1      35.280  -3.720 -16.206  1.00  0.00     0.001 A 
HETATM   44  C17 UNL     1      35.908  -2.725 -15.489  1.00  0.00     0.000 A 
HETATM   45  C18 UNL     1      35.966  -2.795 -14.126  1.00  0.00     0.001 A 
HETATM   46  C19 UNL     1      35.396  -3.859 -13.492  1.00  0.00     0.012 A 
ENDBRANCH   3  41
TORSDOF 15
ENDMDL
