MODEL 1
REMARK VINA RESULT: -9.483018191      0.000      0.000
REMARK  15 active torsions:
REMARK  status: ('A' for Active; 'I' for Inactive)
REMARK    1  A    between atoms: C2_2  and  C4_4 
REMARK    2  A    between atoms: C5_5  and  C6_6 
REMARK       I    between atoms: C6_6  and  N1_8 
REMARK    3  A    between atoms: N1_8  and  C7_10 
REMARK    4  A    between atoms: C12_15  and  O2_16 
REMARK    5  A    between atoms: C13_18  and  C14_19 
REMARK    6  A    between atoms: C20_25  and  C21_26 
REMARK    7  A    between atoms: N2_33  and  C27_34 
REMARK    8  A    between atoms: C27_34  and  C28_35 
REMARK    9  A    between atoms: C28_35  and  C29_36 
REMARK   10  A    between atoms: C29_36  and  O3_37 
REMARK   11  A    between atoms: C29_36  and  C30_39 
REMARK   12  A    between atoms: C30_39  and  C31_40 
REMARK   13  A    between atoms: C31_40  and  O4_41 
REMARK   14  A    between atoms: C31_40  and  C32_43 
REMARK   15  A    between atoms: C32_43  and  C33_44 
ROOT
HETATM    1  C4  UNL     1      34.060  -7.912 -12.509  1.00  0.00     0.032 A 
HETATM    2  C5  UNL     1      34.968  -7.243 -13.370  1.00  0.00     0.068 A 
HETATM    3  C13 UNL     1      34.506  -5.965 -13.508  1.00  0.00     0.020 A 
HETATM    4  C20 UNL     1      33.357  -5.866 -12.757  1.00  0.00     0.057 A 
HETATM    5  N2  UNL     1      33.102  -7.073 -12.153  1.00  0.00    -0.347 N 
ENDROOT
BRANCH   5   6
HETATM    6  C27 UNL     1      31.967  -7.231 -11.318  1.00  0.00     0.132 C 
BRANCH   6   7
HETATM    7  C28 UNL     1      32.253  -7.027  -9.845  1.00  0.00     0.052 C 
BRANCH   7   8
HETATM    8  C29 UNL     1      31.076  -7.579  -9.074  1.00  0.00     0.122 C 
BRANCH   8   9
HETATM    9  O3  UNL     1      31.043  -8.975  -9.124  1.00  0.00    -0.395 OA
ATOM     10  H3  UNL     1      30.901  -9.287 -10.010  1.00  0.00     0.210 HD
ENDBRANCH   8   9
BRANCH   8  11
HETATM   11  C30 UNL     1      31.105  -7.147  -7.622  1.00  0.00     0.064 C 
BRANCH  11  12
HETATM   12  C31 UNL     1      31.480  -5.686  -7.615  1.00  0.00     0.130 C 
BRANCH  12  13
HETATM   13  O4  UNL     1      30.317  -4.901  -7.761  1.00  0.00    -0.395 OA
ATOM     14  H4  UNL     1      30.324  -4.480  -8.612  1.00  0.00     0.210 HD
ENDBRANCH  12  13
BRANCH  12  15
HETATM   15  C32 UNL     1      32.207  -5.233  -6.398  1.00  0.00     0.144 C 
BRANCH  15  16
HETATM   16  C33 UNL     1      32.326  -3.769  -6.275  1.00  0.00     0.175 C 
HETATM   17  O5  UNL     1      33.256  -3.115  -6.786  1.00  0.00    -0.648 OA
HETATM   18  O6  UNL     1      31.377  -3.016  -5.560  1.00  0.00    -0.648 OA
ENDBRANCH  15  16
ENDBRANCH  12  15
ENDBRANCH  11  12
ENDBRANCH   8  11
ENDBRANCH   7   8
ENDBRANCH   6   7
ENDBRANCH   5   6
BRANCH   1  19
HETATM   19  C2  UNL     1      34.299  -9.291 -12.110  1.00  0.00     0.028 C 
HETATM   20  C1  UNL     1      33.121 -10.223 -12.084  1.00  0.00     0.016 C 
HETATM   21  C3  UNL     1      34.972  -9.391 -10.746  1.00  0.00     0.016 C 
ENDBRANCH   1  19
BRANCH   4  22
HETATM   22  C21 UNL     1      32.532  -4.679 -12.625  1.00  0.00    -0.008 A 
HETATM   23  C22 UNL     1      31.544  -4.321 -13.520  1.00  0.00     0.017 A 
HETATM   24  C23 UNL     1      30.788  -3.172 -13.357  1.00  0.00     0.043 A 
HETATM   25  C24 UNL     1      30.995  -2.330 -12.285  1.00  0.00     0.116 A 
HETATM   26  F1  UNL     1      30.255  -1.191 -12.116  1.00  0.00    -0.206 F 
HETATM   27  C25 UNL     1      31.981  -2.676 -11.380  1.00  0.00     0.043 A 
HETATM   28  C26 UNL     1      32.723  -3.816 -11.550  1.00  0.00     0.017 A 
ENDBRANCH   4  22
BRANCH   2  29
HETATM   29  C6  UNL     1      36.132  -7.865 -14.017  1.00  0.00     0.259 C 
HETATM   30  O1  UNL     1      37.225  -7.814 -13.410  1.00  0.00    -0.267 OA
HETATM   31  N1  UNL     1      36.093  -8.497 -15.255  1.00  0.00    -0.320 N 
ATOM     32  H1  UNL     1      35.186  -8.510 -15.721  1.00  0.00     0.169 HD
BRANCH  31  33
HETATM   33  C7  UNL     1      37.151  -9.124 -15.950  1.00  0.00     0.068 A 
HETATM   34  C8  UNL     1      37.245 -10.474 -16.155  1.00  0.00     0.032 A 
HETATM   35  C9  UNL     1      38.312 -11.057 -16.853  1.00  0.00     0.002 A 
HETATM   36  C10 UNL     1      39.322 -10.294 -17.369  1.00  0.00     0.003 A 
HETATM   37  C11 UNL     1      39.239  -8.941 -17.170  1.00  0.00     0.039 A 
HETATM   38  C12 UNL     1      38.198  -8.359 -16.488  1.00  0.00     0.092 A 
BRANCH  38  39
HETATM   39  O2  UNL     1      38.226  -7.002 -16.353  1.00  0.00    -0.358 OA
ATOM     40  H2  UNL     1      39.042  -6.517 -16.397  1.00  0.00     0.217 HD
ENDBRANCH  38  39
ENDBRANCH  31  33
ENDBRANCH   2  29
BRANCH   3  41
HETATM   41  C14 UNL     1      35.079  -4.886 -14.302  1.00  0.00    -0.023 A 
HETATM   42  C15 UNL     1      35.292  -4.959 -15.663  1.00  0.00     0.012 A 
HETATM   43  C16 UNL     1      35.827  -3.868 -16.294  1.00  0.00     0.001 A 
HETATM   44  C17 UNL     1      36.151  -2.718 -15.606  1.00  0.00     0.000 A 
HETATM   45  C18 UNL     1      35.941  -2.644 -14.258  1.00  0.00     0.001 A 
HETATM   46  C19 UNL     1      35.409  -3.720 -13.611  1.00  0.00     0.012 A 
ENDBRANCH   3  41
TORSDOF 15
ENDMDL
