MODEL 4
REMARK VINA RESULT: -8.761596958      1.138      1.477
REMARK  15 active torsions:
REMARK  status: ('A' for Active; 'I' for Inactive)
REMARK    1  A    between atoms: C2_2  and  C4_4 
REMARK    2  A    between atoms: C5_5  and  C6_6 
REMARK       I    between atoms: C6_6  and  N1_8 
REMARK    3  A    between atoms: N1_8  and  C7_10 
REMARK    4  A    between atoms: C12_15  and  O2_16 
REMARK    5  A    between atoms: C13_18  and  C14_19 
REMARK    6  A    between atoms: C20_25  and  C21_26 
REMARK    7  A    between atoms: N2_33  and  C27_34 
REMARK    8  A    between atoms: C27_34  and  C28_35 
REMARK    9  A    between atoms: C28_35  and  C29_36 
REMARK   10  A    between atoms: C29_36  and  O3_37 
REMARK   11  A    between atoms: C29_36  and  C30_39 
REMARK   12  A    between atoms: C30_39  and  C31_40 
REMARK   13  A    between atoms: C31_40  and  O4_41 
REMARK   14  A    between atoms: C31_40  and  C32_43 
REMARK   15  A    between atoms: C32_43  and  C33_44 
ROOT
HETATM    1  C4  UNL     1      34.117  -8.090 -12.025  1.00  0.00     0.032 A 
HETATM    2  C5  UNL     1      34.591  -7.743 -13.316  1.00  0.00     0.068 A 
HETATM    3  C13 UNL     1      34.095  -6.500 -13.593  1.00  0.00     0.020 A 
HETATM    4  C20 UNL     1      33.346  -6.111 -12.506  1.00  0.00     0.057 A 
HETATM    5  N2  UNL     1      33.373  -7.103 -11.556  1.00  0.00    -0.347 N 
ENDROOT
BRANCH   5   6
HETATM    6  C27 UNL     1      32.673  -6.944 -10.333  1.00  0.00     0.132 C 
BRANCH   6   7
HETATM    7  C28 UNL     1      31.230  -7.405 -10.385  1.00  0.00     0.052 C 
BRANCH   7   8
HETATM    8  C29 UNL     1      30.745  -7.536  -8.960  1.00  0.00     0.122 C 
BRANCH   8   9
HETATM    9  O3  UNL     1      30.399  -8.856  -8.659  1.00  0.00    -0.395 OA
ATOM     10  H3  UNL     1      29.458  -8.982  -8.685  1.00  0.00     0.210 HD
ENDBRANCH   8   9
BRANCH   8  11
HETATM   11  C30 UNL     1      31.791  -7.072  -7.967  1.00  0.00     0.064 C 
BRANCH  11  12
HETATM   12  C31 UNL     1      31.241  -5.828  -7.314  1.00  0.00     0.130 C 
BRANCH  12  13
HETATM   13  O4  UNL     1      31.109  -6.045  -5.926  1.00  0.00    -0.395 OA
ATOM     14  H4  UNL     1      30.913  -5.222  -5.494  1.00  0.00     0.210 HD
ENDBRANCH  12  13
BRANCH  12  15
HETATM   15  C32 UNL     1      32.055  -4.600  -7.525  1.00  0.00     0.144 C 
BRANCH  15  16
HETATM   16  C33 UNL     1      32.252  -3.789  -6.309  1.00  0.00     0.175 C 
HETATM   17  O5  UNL     1      33.364  -3.630  -5.768  1.00  0.00    -0.648 OA
HETATM   18  O6  UNL     1      31.174  -3.138  -5.681  1.00  0.00    -0.648 OA
ENDBRANCH  15  16
ENDBRANCH  12  15
ENDBRANCH  11  12
ENDBRANCH   8  11
ENDBRANCH   7   8
ENDBRANCH   6   7
ENDBRANCH   5   6
BRANCH   1  19
HETATM   19  C2  UNL     1      34.514  -9.345 -11.404  1.00  0.00     0.028 C 
HETATM   20  C1  UNL     1      33.456 -10.136 -10.690  1.00  0.00     0.016 C 
HETATM   21  C3  UNL     1      35.669  -9.166 -10.426  1.00  0.00     0.016 C 
ENDBRANCH   1  19
BRANCH   4  22
HETATM   22  C21 UNL     1      32.628  -4.856 -12.378  1.00  0.00    -0.008 A 
HETATM   23  C22 UNL     1      33.070  -3.787 -11.625  1.00  0.00     0.017 A 
HETATM   24  C23 UNL     1      32.345  -2.611 -11.524  1.00  0.00     0.043 A 
HETATM   25  C24 UNL     1      31.140  -2.461 -12.176  1.00  0.00     0.116 A 
HETATM   26  F1  UNL     1      30.414  -1.304 -12.082  1.00  0.00    -0.206 F 
HETATM   27  C25 UNL     1      30.684  -3.523 -12.934  1.00  0.00     0.043 A 
HETATM   28  C26 UNL     1      31.410  -4.682 -13.028  1.00  0.00     0.017 A 
ENDBRANCH   4  22
BRANCH   2  29
HETATM   29  C6  UNL     1      35.404  -8.611 -14.180  1.00  0.00     0.259 C 
HETATM   30  O1  UNL     1      34.913  -9.712 -14.515  1.00  0.00    -0.267 OA
HETATM   31  N1  UNL     1      36.676  -8.287 -14.639  1.00  0.00    -0.320 N 
ATOM     32  H1  UNL     1      37.042  -7.385 -14.336  1.00  0.00     0.169 HD
BRANCH  31  33
HETATM   33  C7  UNL     1      37.525  -9.049 -15.472  1.00  0.00     0.068 A 
HETATM   34  C8  UNL     1      37.101  -9.749 -16.569  1.00  0.00     0.032 A 
HETATM   35  C9  UNL     1      37.978 -10.493 -17.372  1.00  0.00     0.002 A 
HETATM   36  C10 UNL     1      39.315 -10.553 -17.094  1.00  0.00     0.003 A 
HETATM   37  C11 UNL     1      39.750  -9.855 -15.998  1.00  0.00     0.039 A 
HETATM   38  C12 UNL     1      38.901  -9.124 -15.204  1.00  0.00     0.092 A 
BRANCH  38  39
HETATM   39  O2  UNL     1      39.452  -8.472 -14.140  1.00  0.00    -0.358 OA
ATOM     40  H2  UNL     1      40.304  -8.716 -13.798  1.00  0.00     0.217 HD
ENDBRANCH  38  39
ENDBRANCH  31  33
ENDBRANCH   2  29
BRANCH   3  41
HETATM   41  C14 UNL     1      34.285  -5.709 -14.802  1.00  0.00    -0.023 A 
HETATM   42  C15 UNL     1      33.497  -5.820 -15.928  1.00  0.00     0.012 A 
HETATM   43  C16 UNL     1      33.775  -5.006 -16.995  1.00  0.00     0.001 A 
HETATM   44  C17 UNL     1      34.809  -4.095 -16.963  1.00  0.00     0.000 A 
HETATM   45  C18 UNL     1      35.590  -3.984 -15.848  1.00  0.00     0.001 A 
HETATM   46  C19 UNL     1      35.331  -4.785 -14.775  1.00  0.00     0.012 A 
ENDBRANCH   3  41
TORSDOF 15
ENDMDL
