MODEL 9
REMARK VINA RESULT: -7.966568209      2.262      8.623
REMARK  15 active torsions:
REMARK  status: ('A' for Active; 'I' for Inactive)
REMARK    1  A    between atoms: C2_2  and  C4_4 
REMARK    2  A    between atoms: C5_5  and  C6_6 
REMARK       I    between atoms: C6_6  and  N1_8 
REMARK    3  A    between atoms: N1_8  and  C7_10 
REMARK    4  A    between atoms: C12_15  and  O2_16 
REMARK    5  A    between atoms: C13_18  and  C14_19 
REMARK    6  A    between atoms: C20_25  and  C21_26 
REMARK    7  A    between atoms: N2_33  and  C27_34 
REMARK    8  A    between atoms: C27_34  and  C28_35 
REMARK    9  A    between atoms: C28_35  and  C29_36 
REMARK   10  A    between atoms: C29_36  and  O3_37 
REMARK   11  A    between atoms: C29_36  and  C30_39 
REMARK   12  A    between atoms: C30_39  and  C31_40 
REMARK   13  A    between atoms: C31_40  and  O4_41 
REMARK   14  A    between atoms: C31_40  and  C32_43 
REMARK   15  A    between atoms: C32_43  and  C33_44 
ROOT
HETATM    1  C4  UNL     1      33.671  -7.885 -12.210  1.00  0.00     0.032 A 
HETATM    2  C5  UNL     1      32.759  -6.866 -11.836  1.00  0.00     0.068 A 
HETATM    3  C13 UNL     1      32.661  -6.018 -12.904  1.00  0.00     0.020 A 
HETATM    4  C20 UNL     1      33.489  -6.509 -13.888  1.00  0.00     0.057 A 
HETATM    5  N2  UNL     1      34.099  -7.655 -13.439  1.00  0.00    -0.347 N 
ENDROOT
BRANCH   5   6
HETATM    6  C27 UNL     1      35.006  -8.358 -14.273  1.00  0.00     0.132 C 
BRANCH   6   7
HETATM    7  C28 UNL     1      36.418  -7.812 -14.244  1.00  0.00     0.052 C 
BRANCH   7   8
HETATM    8  C29 UNL     1      37.295  -8.782 -15.001  1.00  0.00     0.122 C 
BRANCH   8   9
HETATM    9  O3  UNL     1      36.536  -9.781 -15.616  1.00  0.00    -0.395 OA
ATOM     10  H3  UNL     1      36.789  -9.899 -16.525  1.00  0.00     0.210 HD
ENDBRANCH   8   9
BRANCH   8  11
HETATM   11  C30 UNL     1      38.121  -8.082 -16.061  1.00  0.00     0.064 C 
BRANCH  11  12
HETATM   12  C31 UNL     1      39.478  -8.741 -16.052  1.00  0.00     0.130 C 
BRANCH  12  13
HETATM   13  O4  UNL     1      39.655  -9.438 -14.838  1.00  0.00    -0.395 OA
ATOM     14  H4  UNL     1      40.461  -9.153 -14.424  1.00  0.00     0.210 HD
ENDBRANCH  12  13
BRANCH  12  15
HETATM   15  C32 UNL     1      39.721  -9.685 -17.178  1.00  0.00     0.144 C 
BRANCH  15  16
HETATM   16  C33 UNL     1      39.680 -11.107 -16.794  1.00  0.00     0.175 C 
HETATM   17  O5  UNL     1      40.704 -11.802 -16.639  1.00  0.00    -0.648 OA
HETATM   18  O6  UNL     1      38.460 -11.772 -16.575  1.00  0.00    -0.648 OA
ENDBRANCH  15  16
ENDBRANCH  12  15
ENDBRANCH  11  12
ENDBRANCH   8  11
ENDBRANCH   7   8
ENDBRANCH   6   7
ENDBRANCH   5   6
BRANCH   1  19
HETATM   19  C2  UNL     1      33.957  -8.989 -11.306  1.00  0.00     0.028 C 
HETATM   20  C1  UNL     1      35.379  -9.172 -10.856  1.00  0.00     0.016 C 
HETATM   21  C3  UNL     1      33.493 -10.329 -11.864  1.00  0.00     0.016 C 
ENDBRANCH   1  19
BRANCH   4  22
HETATM   22  C21 UNL     1      33.698  -5.912 -15.194  1.00  0.00    -0.008 A 
HETATM   23  C22 UNL     1      33.032  -6.303 -16.338  1.00  0.00     0.017 A 
HETATM   24  C23 UNL     1      33.273  -5.710 -17.566  1.00  0.00     0.043 A 
HETATM   25  C24 UNL     1      34.197  -4.695 -17.697  1.00  0.00     0.116 A 
HETATM   26  F1  UNL     1      34.444  -4.104 -18.906  1.00  0.00    -0.206 F 
HETATM   27  C25 UNL     1      34.872  -4.293 -16.560  1.00  0.00     0.043 A 
HETATM   28  C26 UNL     1      34.626  -4.886 -15.349  1.00  0.00     0.017 A 
ENDBRANCH   4  22
BRANCH   2  29
HETATM   29  C6  UNL     1      32.115  -6.748 -10.520  1.00  0.00     0.259 C 
HETATM   30  O1  UNL     1      30.950  -7.189 -10.406  1.00  0.00    -0.267 OA
HETATM   31  N1  UNL     1      32.717  -6.177  -9.404  1.00  0.00    -0.320 N 
ATOM     32  H1  UNL     1      33.664  -5.823  -9.540  1.00  0.00     0.169 HD
BRANCH  31  33
HETATM   33  C7  UNL     1      32.184  -6.027  -8.104  1.00  0.00     0.068 A 
HETATM   34  C8  UNL     1      31.902  -7.067  -7.262  1.00  0.00     0.032 A 
HETATM   35  C9  UNL     1      31.375  -6.874  -5.977  1.00  0.00     0.002 A 
HETATM   36  C10 UNL     1      31.116  -5.620  -5.499  1.00  0.00     0.003 A 
HETATM   37  C11 UNL     1      31.394  -4.570  -6.334  1.00  0.00     0.039 A 
HETATM   38  C12 UNL     1      31.910  -4.747  -7.595  1.00  0.00     0.092 A 
BRANCH  38  39
HETATM   39  O2  UNL     1      32.146  -3.625  -8.333  1.00  0.00    -0.358 OA
ATOM     40  H2  UNL     1      31.432  -3.090  -8.659  1.00  0.00     0.217 HD
ENDBRANCH  38  39
ENDBRANCH  31  33
ENDBRANCH   2  29
BRANCH   3  41
HETATM   41  C14 UNL     1      31.860  -4.806 -13.015  1.00  0.00    -0.023 A 
HETATM   42  C15 UNL     1      30.629  -4.749 -13.634  1.00  0.00     0.012 A 
HETATM   43  C16 UNL     1      29.972  -3.547 -13.657  1.00  0.00     0.001 A 
HETATM   44  C17 UNL     1      30.510  -2.414 -13.084  1.00  0.00     0.000 A 
HETATM   45  C18 UNL     1      31.729  -2.470 -12.470  1.00  0.00     0.001 A 
HETATM   46  C19 UNL     1      32.400  -3.657 -12.436  1.00  0.00     0.012 A 
ENDBRANCH   3  41
TORSDOF 15
ENDMDL
