MODEL 11
REMARK VINA RESULT: -7.927404528      2.485      5.428
REMARK  15 active torsions:
REMARK  status: ('A' for Active; 'I' for Inactive)
REMARK    1  A    between atoms: C2_2  and  C4_4 
REMARK    2  A    between atoms: C5_5  and  C6_6 
REMARK       I    between atoms: C6_6  and  N1_8 
REMARK    3  A    between atoms: N1_8  and  C7_10 
REMARK    4  A    between atoms: C12_15  and  O2_16 
REMARK    5  A    between atoms: C13_18  and  C14_19 
REMARK    6  A    between atoms: C20_25  and  C21_26 
REMARK    7  A    between atoms: N2_33  and  C27_34 
REMARK    8  A    between atoms: C27_34  and  C28_35 
REMARK    9  A    between atoms: C28_35  and  C29_36 
REMARK   10  A    between atoms: C29_36  and  O3_37 
REMARK   11  A    between atoms: C29_36  and  C30_39 
REMARK   12  A    between atoms: C30_39  and  C31_40 
REMARK   13  A    between atoms: C31_40  and  O4_41 
REMARK   14  A    between atoms: C31_40  and  C32_43 
REMARK   15  A    between atoms: C32_43  and  C33_44 
ROOT
HETATM    1  C4  UNL     1      34.394  -5.042 -14.072  1.00  0.00     0.032 A 
HETATM    2  C5  UNL     1      34.510  -6.444 -13.889  1.00  0.00     0.068 A 
HETATM    3  C13 UNL     1      33.825  -6.746 -12.745  1.00  0.00     0.020 A 
HETATM    4  C20 UNL     1      33.314  -5.566 -12.255  1.00  0.00     0.057 A 
HETATM    5  N2  UNL     1      33.676  -4.533 -13.085  1.00  0.00    -0.347 N 
ENDROOT
BRANCH   5   6
HETATM    6  C27 UNL     1      33.270  -3.206 -12.796  1.00  0.00     0.132 C 
BRANCH   6   7
HETATM    7  C28 UNL     1      32.166  -2.691 -13.697  1.00  0.00     0.052 C 
BRANCH   7   8
HETATM    8  C29 UNL     1      30.849  -3.041 -13.045  1.00  0.00     0.122 C 
BRANCH   8   9
HETATM    9  O3  UNL     1      30.286  -1.934 -12.405  1.00  0.00    -0.395 OA
ATOM     10  H3  UNL     1      29.577  -2.190 -11.827  1.00  0.00     0.210 HD
ENDBRANCH   8   9
BRANCH   8  11
HETATM   11  C30 UNL     1      29.850  -3.578 -14.051  1.00  0.00     0.064 C 
BRANCH  11  12
HETATM   12  C31 UNL     1      29.080  -4.670 -13.350  1.00  0.00     0.130 C 
BRANCH  12  13
HETATM   13  O4  UNL     1      27.697  -4.468 -13.541  1.00  0.00    -0.395 OA
ATOM     14  H4  UNL     1      27.327  -4.061 -12.767  1.00  0.00     0.210 HD
ENDBRANCH  12  13
BRANCH  12  15
HETATM   15  C32 UNL     1      29.420  -6.052 -13.786  1.00  0.00     0.144 C 
BRANCH  15  16
HETATM   16  C33 UNL     1      28.661  -7.108 -13.092  1.00  0.00     0.175 C 
HETATM   17  O5  UNL     1      28.637  -8.295 -13.475  1.00  0.00    -0.648 OA
HETATM   18  O6  UNL     1      27.909  -6.830 -11.936  1.00  0.00    -0.648 OA
ENDBRANCH  15  16
ENDBRANCH  12  15
ENDBRANCH  11  12
ENDBRANCH   8  11
ENDBRANCH   7   8
ENDBRANCH   6   7
ENDBRANCH   5   6
BRANCH   1  19
HETATM   19  C2  UNL     1      34.972  -4.399 -15.243  1.00  0.00     0.028 C 
HETATM   20  C1  UNL     1      35.701  -3.102 -15.038  1.00  0.00     0.016 C 
HETATM   21  C3  UNL     1      33.940  -4.158 -16.339  1.00  0.00     0.016 C 
ENDBRANCH   1  19
BRANCH   4  22
HETATM   22  C21 UNL     1      32.524  -5.424 -11.046  1.00  0.00    -0.008 A 
HETATM   23  C22 UNL     1      32.894  -4.645  -9.969  1.00  0.00     0.017 A 
HETATM   24  C23 UNL     1      32.110  -4.548  -8.830  1.00  0.00     0.043 A 
HETATM   25  C24 UNL     1      30.918  -5.234  -8.726  1.00  0.00     0.116 A 
HETATM   26  F1  UNL     1      30.138  -5.146  -7.606  1.00  0.00    -0.206 F 
HETATM   27  C25 UNL     1      30.535  -6.018  -9.798  1.00  0.00     0.043 A 
HETATM   28  C26 UNL     1      31.317  -6.106 -10.920  1.00  0.00     0.017 A 
ENDBRANCH   4  22
BRANCH   2  29
HETATM   29  C6  UNL     1      35.283  -7.348 -14.753  1.00  0.00     0.259 C 
HETATM   30  O1  UNL     1      34.769  -7.683 -15.843  1.00  0.00    -0.267 OA
HETATM   31  N1  UNL     1      36.538  -7.853 -14.431  1.00  0.00    -0.320 N 
ATOM     32  H1  UNL     1      36.918  -7.562 -13.530  1.00  0.00     0.169 HD
BRANCH  31  33
HETATM   33  C7  UNL     1      37.355  -8.716 -15.195  1.00  0.00     0.068 A 
HETATM   34  C8  UNL     1      36.895  -9.519 -16.203  1.00  0.00     0.032 A 
HETATM   35  C9  UNL     1      37.741 -10.362 -16.939  1.00  0.00     0.002 A 
HETATM   36  C10 UNL     1      39.081 -10.421 -16.680  1.00  0.00     0.003 A 
HETATM   37  C11 UNL     1      39.552  -9.622 -15.672  1.00  0.00     0.039 A 
HETATM   38  C12 UNL     1      38.734  -8.792 -14.944  1.00  0.00     0.092 A 
BRANCH  38  39
HETATM   39  O2  UNL     1      39.319  -8.045 -13.966  1.00  0.00    -0.358 OA
ATOM     40  H2  UNL     1      40.244  -7.828 -13.996  1.00  0.00     0.217 HD
ENDBRANCH  38  39
ENDBRANCH  31  33
ENDBRANCH   2  29
BRANCH   3  41
HETATM   41  C14 UNL     1      33.658  -8.052 -12.121  1.00  0.00    -0.023 A 
HETATM   42  C15 UNL     1      34.284  -8.435 -10.953  1.00  0.00     0.012 A 
HETATM   43  C16 UNL     1      34.030  -9.689 -10.464  1.00  0.00     0.001 A 
HETATM   44  C17 UNL     1      33.175 -10.560 -11.107  1.00  0.00     0.000 A 
HETATM   45  C18 UNL     1      32.554 -10.181 -12.263  1.00  0.00     0.001 A 
HETATM   46  C19 UNL     1      32.793  -8.937 -12.767  1.00  0.00     0.012 A 
ENDBRANCH   3  41
TORSDOF 15
ENDMDL
