MODEL 6
REMARK VINA RESULT: -8.132607705      1.490      1.893
REMARK  15 active torsions:
REMARK  status: ('A' for Active; 'I' for Inactive)
REMARK    1  A    between atoms: C2_2  and  C4_4 
REMARK    2  A    between atoms: C5_5  and  C6_6 
REMARK       I    between atoms: C6_6  and  N1_8 
REMARK    3  A    between atoms: N1_8  and  C7_10 
REMARK    4  A    between atoms: C12_15  and  O2_16 
REMARK    5  A    between atoms: C13_18  and  C14_19 
REMARK    6  A    between atoms: C20_25  and  C21_26 
REMARK    7  A    between atoms: N2_33  and  C27_34 
REMARK    8  A    between atoms: C27_34  and  C28_35 
REMARK    9  A    between atoms: C28_35  and  C29_36 
REMARK   10  A    between atoms: C29_36  and  O3_37 
REMARK   11  A    between atoms: C29_36  and  C30_39 
REMARK   12  A    between atoms: C30_39  and  C31_40 
REMARK   13  A    between atoms: C31_40  and  O4_41 
REMARK   14  A    between atoms: C31_40  and  C32_43 
REMARK   15  A    between atoms: C32_43  and  C33_44 
ROOT
HETATM    1  C4  UNL     1      34.373  -8.580 -12.293  1.00  0.00     0.032 A 
HETATM    2  C5  UNL     1      34.933  -7.873 -13.388  1.00  0.00     0.068 A 
HETATM    3  C13 UNL     1      34.015  -6.928 -13.753  1.00  0.00     0.020 A 
HETATM    4  C20 UNL     1      32.937  -7.063 -12.908  1.00  0.00     0.057 A 
HETATM    5  N2  UNL     1      33.179  -8.083 -12.020  1.00  0.00    -0.347 N 
ENDROOT
BRANCH   5   6
HETATM    6  C27 UNL     1      32.214  -8.422 -11.038  1.00  0.00     0.132 C 
BRANCH   6   7
HETATM    7  C28 UNL     1      32.224  -7.512  -9.827  1.00  0.00     0.052 C 
BRANCH   7   8
HETATM    8  C29 UNL     1      30.802  -7.412  -9.324  1.00  0.00     0.122 C 
BRANCH   8   9
HETATM    9  O3  UNL     1      30.589  -8.251  -8.228  1.00  0.00    -0.395 OA
ATOM     10  H3  UNL     1      30.869  -7.842  -7.417  1.00  0.00     0.210 HD
ENDBRANCH   8   9
BRANCH   8  11
HETATM   11  C30 UNL     1      30.448  -5.994  -8.923  1.00  0.00     0.064 C 
BRANCH  11  12
HETATM   12  C31 UNL     1      31.715  -5.367  -8.397  1.00  0.00     0.130 C 
BRANCH  12  13
HETATM   13  O4  UNL     1      31.828  -4.050  -8.890  1.00  0.00    -0.395 OA
ATOM     14  H4  UNL     1      32.484  -3.580  -8.389  1.00  0.00     0.210 HD
ENDBRANCH  12  13
BRANCH  12  15
HETATM   15  C32 UNL     1      31.823  -5.328  -6.913  1.00  0.00     0.144 C 
BRANCH  15  16
HETATM   16  C33 UNL     1      32.281  -4.034  -6.375  1.00  0.00     0.175 C 
HETATM   17  O5  UNL     1      31.524  -3.228  -5.799  1.00  0.00    -0.648 OA
HETATM   18  O6  UNL     1      33.625  -3.631  -6.483  1.00  0.00    -0.648 OA
ENDBRANCH  15  16
ENDBRANCH  12  15
ENDBRANCH  11  12
ENDBRANCH   8  11
ENDBRANCH   7   8
ENDBRANCH   6   7
ENDBRANCH   5   6
BRANCH   1  19
HETATM   19  C2  UNL     1      35.131  -9.628 -11.625  1.00  0.00     0.028 C 
HETATM   20  C1  UNL     1      34.401 -10.888 -11.256  1.00  0.00     0.016 C 
HETATM   21  C3  UNL     1      35.820  -9.129 -10.361  1.00  0.00     0.016 C 
ENDBRANCH   1  19
BRANCH   4  22
HETATM   22  C21 UNL     1      31.727  -6.263 -12.947  1.00  0.00    -0.008 A 
HETATM   23  C22 UNL     1      30.551  -6.670 -13.545  1.00  0.00     0.017 A 
HETATM   24  C23 UNL     1      29.423  -5.866 -13.566  1.00  0.00     0.043 A 
HETATM   25  C24 UNL     1      29.429  -4.616 -12.985  1.00  0.00     0.116 A 
HETATM   26  F1  UNL     1      28.320  -3.814 -13.001  1.00  0.00    -0.206 F 
HETATM   27  C25 UNL     1      30.600  -4.195 -12.381  1.00  0.00     0.043 A 
HETATM   28  C26 UNL     1      31.710  -4.998 -12.366  1.00  0.00     0.017 A 
ENDBRANCH   4  22
BRANCH   2  29
HETATM   29  C6  UNL     1      36.227  -8.175 -14.017  1.00  0.00     0.259 C 
HETATM   30  O1  UNL     1      37.261  -7.847 -13.394  1.00  0.00    -0.267 OA
HETATM   31  N1  UNL     1      36.369  -8.794 -15.254  1.00  0.00    -0.320 N 
ATOM     32  H1  UNL     1      35.502  -9.038 -15.732  1.00  0.00     0.169 HD
BRANCH  31  33
HETATM   33  C7  UNL     1      37.562  -9.129 -15.932  1.00  0.00     0.068 A 
HETATM   34  C8  UNL     1      38.508  -8.220 -16.321  1.00  0.00     0.032 A 
HETATM   35  C9  UNL     1      39.682  -8.594 -16.991  1.00  0.00     0.002 A 
HETATM   36  C10 UNL     1      39.940  -9.903 -17.289  1.00  0.00     0.003 A 
HETATM   37  C11 UNL     1      39.000 -10.822 -16.904  1.00  0.00     0.039 A 
HETATM   38  C12 UNL     1      37.846 -10.467 -16.247  1.00  0.00     0.092 A 
BRANCH  38  39
HETATM   39  O2  UNL     1      36.986 -11.472 -15.915  1.00  0.00    -0.358 OA
ATOM     40  H2  UNL     1      37.224 -12.384 -16.030  1.00  0.00     0.217 HD
ENDBRANCH  38  39
ENDBRANCH  31  33
ENDBRANCH   2  29
BRANCH   3  41
HETATM   41  C14 UNL     1      34.111  -5.958 -14.835  1.00  0.00    -0.023 A 
HETATM   42  C15 UNL     1      33.558  -6.138 -16.086  1.00  0.00     0.012 A 
HETATM   43  C16 UNL     1      33.710  -5.140 -17.011  1.00  0.00     0.001 A 
HETATM   44  C17 UNL     1      34.395  -3.979 -16.721  1.00  0.00     0.000 A 
HETATM   45  C18 UNL     1      34.943  -3.799 -15.482  1.00  0.00     0.001 A 
HETATM   46  C19 UNL     1      34.803  -4.780 -14.546  1.00  0.00     0.012 A 
ENDBRANCH   3  41
TORSDOF 15
ENDMDL
