MODEL 2
REMARK VINA RESULT: -8.640647468      0.134      1.118
REMARK  14 active torsions:
REMARK  status: ('A' for Active; 'I' for Inactive)
REMARK    1  A    between atoms: C2_2  and  C4_4 
REMARK    2  A    between atoms: C5_5  and  C6_6 
REMARK       I    between atoms: C6_6  and  N1_8 
REMARK    3  A    between atoms: N1_8  and  C7_10 
REMARK    4  A    between atoms: C7_10  and  C8_11 
REMARK    5  A    between atoms: C14_19  and  C15_20 
REMARK    6  A    between atoms: N3_27  and  C21_28 
REMARK    7  A    between atoms: C21_28  and  C22_29 
REMARK    8  A    between atoms: C22_29  and  C23_30 
REMARK    9  A    between atoms: C23_30  and  O2_31 
REMARK   10  A    between atoms: C23_30  and  C24_33 
REMARK   11  A    between atoms: C24_33  and  C25_34 
REMARK   12  A    between atoms: C25_34  and  O3_35 
REMARK   13  A    between atoms: C25_34  and  C26_37 
REMARK   14  A    between atoms: C26_37  and  C27_38 
ROOT
HETATM    1  C4  UNL     1     -15.597   6.481  45.792  1.00  0.00     0.070 A 
HETATM    2  C5  UNL     1     -16.456   7.199  46.578  1.00  0.00     0.129 A 
HETATM    3  N2  UNL     1     -15.912   8.398  46.750  1.00  0.00    -0.335 N 
ATOM      4  H2  UNL     1     -16.333   9.147  47.300  1.00  0.00     0.168 HD
HETATM    5  C14 UNL     1     -14.715   8.503  46.093  1.00  0.00     0.119 A 
HETATM    6  N3  UNL     1     -14.550   7.307  45.510  1.00  0.00    -0.330 N 
ENDROOT
BRANCH   6   7
HETATM    7  C21 UNL     1     -13.365   7.049  44.710  1.00  0.00     0.133 C 
BRANCH   7   8
HETATM    8  C22 UNL     1     -13.654   7.004  43.236  1.00  0.00     0.052 C 
BRANCH   8   9
HETATM    9  C23 UNL     1     -12.487   7.509  42.412  1.00  0.00     0.122 C 
BRANCH   9  10
HETATM   10  O2  UNL     1     -11.743   6.499  41.840  1.00  0.00    -0.395 OA
ATOM     11  H2  UNL     1     -11.096   6.128  42.428  1.00  0.00     0.210 HD
ENDBRANCH   9  10
BRANCH   9  12
HETATM   12  C24 UNL     1     -12.913   8.599  41.478  1.00  0.00     0.064 C 
BRANCH  12  13
HETATM   13  C25 UNL     1     -13.100   9.939  42.075  1.00  0.00     0.130 C 
BRANCH  13  14
HETATM   14  O3  UNL     1     -11.941  10.624  42.385  1.00  0.00    -0.395 OA
ATOM     15  H3  UNL     1     -11.973  11.566  42.261  1.00  0.00     0.210 HD
ENDBRANCH  13  14
BRANCH  13  16
HETATM   16  C26 UNL     1     -14.124  10.814  41.397  1.00  0.00     0.144 C 
BRANCH  16  17
HETATM   17  C27 UNL     1     -13.694  11.288  40.084  1.00  0.00     0.175 C 
HETATM   18  O4  UNL     1     -12.544  11.716  39.873  1.00  0.00    -0.648 OA
HETATM   19  O5  UNL     1     -14.567  11.281  38.996  1.00  0.00    -0.648 OA
ENDBRANCH  16  17
ENDBRANCH  13  16
ENDBRANCH  12  13
ENDBRANCH   9  12
ENDBRANCH   8   9
ENDBRANCH   7   8
ENDBRANCH   6   7
BRANCH   1  20
HETATM   20  C2  UNL     1     -15.642   5.044  45.501  1.00  0.00    -0.058 C 
HETATM   21  C1  UNL     1     -14.467   4.197  45.827  1.00  0.00     0.045 C 
HETATM   22  C3  UNL     1     -16.312   4.615  44.251  1.00  0.00     0.045 C 
ENDBRANCH   1  20
BRANCH   5  23
HETATM   23  C15 UNL     1     -13.988   9.764  46.119  1.00  0.00     0.008 A 
HETATM   24  C16 UNL     1     -14.202  10.845  45.333  1.00  0.00     0.018 A 
HETATM   25  C17 UNL     1     -13.493  12.059  45.502  1.00  0.00     0.043 A 
HETATM   26  C18 UNL     1     -12.552  12.192  46.471  1.00  0.00     0.116 A 
HETATM   27  F1  UNL     1     -11.834  13.305  46.694  1.00  0.00    -0.206 F 
HETATM   28  C19 UNL     1     -12.316  11.104  47.279  1.00  0.00     0.043 A 
HETATM   29  C20 UNL     1     -13.005   9.921  47.119  1.00  0.00     0.018 A 
ENDBRANCH   5  23
BRANCH   2  30
HETATM   30  C6  UNL     1     -17.779   6.910  47.075  1.00  0.00     0.270 C 
HETATM   31  O1  UNL     1     -18.756   6.838  46.245  1.00  0.00    -0.266 OA
HETATM   32  N1  UNL     1     -18.125   6.678  48.429  1.00  0.00    -0.351 N 
ATOM     33  H1  UNL     1     -17.409   6.708  49.155  1.00  0.00     0.163 HD
BRANCH  32  34
HETATM   34  C7  UNL     1     -19.485   6.404  48.769  1.00  0.00     0.161 C 
BRANCH  34  35
HETATM   35  C8  UNL     1     -19.722   5.120  49.413  1.00  0.00    -0.041 A 
HETATM   36  C9  UNL     1     -18.685   4.338  49.847  1.00  0.00     0.009 A 
HETATM   37  C10 UNL     1     -18.956   3.108  50.456  1.00  0.00     0.001 A 
HETATM   38  C11 UNL     1     -20.248   2.676  50.624  1.00  0.00     0.000 A 
HETATM   39  C12 UNL     1     -21.313   3.454  50.191  1.00  0.00     0.001 A 
HETATM   40  C13 UNL     1     -21.007   4.666  49.593  1.00  0.00     0.009 A 
ENDBRANCH  34  35
ENDBRANCH  32  34
ENDBRANCH   2  30
TORSDOF 14
ENDMDL
