MODEL 7
REMARK VINA RESULT: -7.831477309      3.789      8.082
REMARK  14 active torsions:
REMARK  status: ('A' for Active; 'I' for Inactive)
REMARK    1  A    between atoms: C2_2  and  C4_4 
REMARK    2  A    between atoms: C5_5  and  C6_6 
REMARK       I    between atoms: C6_6  and  N1_8 
REMARK    3  A    between atoms: N1_8  and  C7_10 
REMARK    4  A    between atoms: C7_10  and  C8_11 
REMARK    5  A    between atoms: C14_19  and  C15_20 
REMARK    6  A    between atoms: N3_27  and  C21_28 
REMARK    7  A    between atoms: C21_28  and  C22_29 
REMARK    8  A    between atoms: C22_29  and  C23_30 
REMARK    9  A    between atoms: C23_30  and  O2_31 
REMARK   10  A    between atoms: C23_30  and  C24_33 
REMARK   11  A    between atoms: C24_33  and  C25_34 
REMARK   12  A    between atoms: C25_34  and  O3_35 
REMARK   13  A    between atoms: C25_34  and  C26_37 
REMARK   14  A    between atoms: C26_37  and  C27_38 
ROOT
HETATM    1  C4  UNL     1     -13.162   9.747  47.314  1.00  0.00     0.070 A 
HETATM    2  C5  UNL     1     -12.622  10.998  47.201  1.00  0.00     0.129 A 
HETATM    3  N2  UNL     1     -12.636  11.310  45.910  1.00  0.00    -0.335 N 
ATOM      4  H2  UNL     1     -12.287  12.189  45.528  1.00  0.00     0.168 HD
HETATM    5  C14 UNL     1     -13.176  10.301  45.158  1.00  0.00     0.119 A 
HETATM    6  N3  UNL     1     -13.494   9.354  46.051  1.00  0.00    -0.330 N 
ENDROOT
BRANCH   6   7
HETATM    7  C21 UNL     1     -14.105   8.114  45.606  1.00  0.00     0.133 C 
BRANCH   7   8
HETATM    8  C22 UNL     1     -13.100   7.023  45.364  1.00  0.00     0.052 C 
BRANCH   8   9
HETATM    9  C23 UNL     1     -13.457   5.747  46.102  1.00  0.00     0.122 C 
BRANCH   9  10
HETATM   10  O2  UNL     1     -12.389   5.183  46.767  1.00  0.00    -0.395 OA
ATOM     11  H2  UNL     1     -12.543   4.284  47.033  1.00  0.00     0.210 HD
ENDBRANCH   9  10
BRANCH   9  12
HETATM   12  C24 UNL     1     -14.701   5.921  46.916  1.00  0.00     0.064 C 
BRANCH  12  13
HETATM   13  C25 UNL     1     -15.865   5.099  46.522  1.00  0.00     0.130 C 
BRANCH  13  14
HETATM   14  O3  UNL     1     -17.104   5.667  46.750  1.00  0.00    -0.395 OA
ATOM     15  H3  UNL     1     -17.537   6.031  45.986  1.00  0.00     0.210 HD
ENDBRANCH  13  14
BRANCH  13  16
HETATM   16  C26 UNL     1     -15.770   4.445  45.168  1.00  0.00     0.144 C 
BRANCH  16  17
HETATM   17  C27 UNL     1     -16.370   5.243  44.102  1.00  0.00     0.175 C 
HETATM   18  O4  UNL     1     -17.601   5.408  44.006  1.00  0.00    -0.648 OA
HETATM   19  O5  UNL     1     -15.580   5.861  43.134  1.00  0.00    -0.648 OA
ENDBRANCH  16  17
ENDBRANCH  13  16
ENDBRANCH  12  13
ENDBRANCH   9  12
ENDBRANCH   8   9
ENDBRANCH   7   8
ENDBRANCH   6   7
BRANCH   1  20
HETATM   20  C2  UNL     1     -13.168   8.880  48.498  1.00  0.00    -0.058 C 
HETATM   21  C1  UNL     1     -14.020   9.238  49.661  1.00  0.00     0.045 C 
HETATM   22  C3  UNL     1     -11.882   8.273  48.912  1.00  0.00     0.045 C 
ENDBRANCH   1  20
BRANCH   5  23
HETATM   23  C15 UNL     1     -13.325  10.477  43.720  1.00  0.00     0.008 A 
HETATM   24  C16 UNL     1     -14.249  11.232  43.083  1.00  0.00     0.018 A 
HETATM   25  C17 UNL     1     -14.250  11.404  41.677  1.00  0.00     0.043 A 
HETATM   26  C18 UNL     1     -13.313  10.807  40.897  1.00  0.00     0.116 A 
HETATM   27  F1  UNL     1     -13.246  10.916  39.560  1.00  0.00    -0.206 F 
HETATM   28  C19 UNL     1     -12.367  10.032  41.525  1.00  0.00     0.043 A 
HETATM   29  C20 UNL     1     -12.361   9.863  42.893  1.00  0.00     0.018 A 
ENDBRANCH   5  23
BRANCH   2  30
HETATM   30  C6  UNL     1     -12.213  11.966  48.190  1.00  0.00     0.270 C 
HETATM   31  O1  UNL     1     -12.860  13.072  48.286  1.00  0.00    -0.266 OA
HETATM   32  N1  UNL     1     -11.144  11.815  49.106  1.00  0.00    -0.351 N 
ATOM     33  H1  UNL     1     -10.582  10.964  49.105  1.00  0.00     0.163 HD
BRANCH  32  34
HETATM   34  C7  UNL     1     -10.858  12.866  50.031  1.00  0.00     0.161 C 
BRANCH  34  35
HETATM   35  C8  UNL     1      -9.970  12.510  51.128  1.00  0.00    -0.041 A 
HETATM   36  C9  UNL     1      -9.232  11.358  51.101  1.00  0.00     0.009 A 
HETATM   37  C10 UNL     1      -8.394  11.051  52.180  1.00  0.00     0.001 A 
HETATM   38  C11 UNL     1      -8.306  11.889  53.263  1.00  0.00     0.000 A 
HETATM   39  C12 UNL     1      -9.047  13.062  53.308  1.00  0.00     0.001 A 
HETATM   40  C13 UNL     1      -9.864  13.334  52.223  1.00  0.00     0.009 A 
ENDBRANCH  34  35
ENDBRANCH  32  34
ENDBRANCH   2  30
TORSDOF 14
ENDMDL
