MODEL 4
REMARK VINA RESULT: -8.297517121      1.261      1.799
REMARK  14 active torsions:
REMARK  status: ('A' for Active; 'I' for Inactive)
REMARK    1  A    between atoms: C2_2  and  C4_4 
REMARK    2  A    between atoms: C5_5  and  C6_6 
REMARK       I    between atoms: C6_6  and  N1_8 
REMARK    3  A    between atoms: N1_8  and  C7_10 
REMARK    4  A    between atoms: C7_10  and  C8_11 
REMARK    5  A    between atoms: C14_19  and  C15_20 
REMARK    6  A    between atoms: N3_27  and  C21_28 
REMARK    7  A    between atoms: C21_28  and  C22_29 
REMARK    8  A    between atoms: C22_29  and  C23_30 
REMARK    9  A    between atoms: C23_30  and  O2_31 
REMARK   10  A    between atoms: C23_30  and  C24_33 
REMARK   11  A    between atoms: C24_33  and  C25_34 
REMARK   12  A    between atoms: C25_34  and  O3_35 
REMARK   13  A    between atoms: C25_34  and  C26_37 
REMARK   14  A    between atoms: C26_37  and  C27_38 
ROOT
HETATM    1  C4  UNL     1     -15.549   6.550  45.780  1.00  0.00     0.070 A 
HETATM    2  C5  UNL     1     -16.452   7.194  46.580  1.00  0.00     0.129 A 
HETATM    3  N2  UNL     1     -15.922   8.370  46.894  1.00  0.00    -0.335 N 
ATOM      4  H2  UNL     1     -16.376   9.065  47.487  1.00  0.00     0.168 HD
HETATM    5  C14 UNL     1     -14.690   8.533  46.319  1.00  0.00     0.119 A 
HETATM    6  N3  UNL     1     -14.489   7.396  45.637  1.00  0.00    -0.330 N 
ENDROOT
BRANCH   6   7
HETATM    7  C21 UNL     1     -13.260   7.211  44.885  1.00  0.00     0.133 C 
BRANCH   7   8
HETATM    8  C22 UNL     1     -13.354   7.727  43.477  1.00  0.00     0.052 C 
BRANCH   8   9
HETATM    9  C23 UNL     1     -12.068   7.508  42.704  1.00  0.00     0.122 C 
BRANCH   9  10
HETATM   10  O2  UNL     1     -11.992   6.265  42.111  1.00  0.00    -0.395 OA
ATOM     11  H2  UNL     1     -11.242   5.757  42.395  1.00  0.00     0.210 HD
ENDBRANCH   9  10
BRANCH   9  12
HETATM   12  C24 UNL     1     -11.771   8.667  41.805  1.00  0.00     0.064 C 
BRANCH  12  13
HETATM   13  C25 UNL     1     -12.822   9.702  41.698  1.00  0.00     0.130 C 
BRANCH  13  14
HETATM   14  O3  UNL     1     -12.499  10.940  42.221  1.00  0.00    -0.395 OA
ATOM     15  H3  UNL     1     -12.865  11.134  43.076  1.00  0.00     0.210 HD
ENDBRANCH  13  14
BRANCH  13  16
HETATM   16  C26 UNL     1     -13.501   9.801  40.357  1.00  0.00     0.144 C 
BRANCH  16  17
HETATM   17  C27 UNL     1     -13.978  11.148  40.053  1.00  0.00     0.175 C 
HETATM   18  O4  UNL     1     -14.842  11.720  40.744  1.00  0.00    -0.648 OA
HETATM   19  O5  UNL     1     -13.480  11.859  38.962  1.00  0.00    -0.648 OA
ENDBRANCH  16  17
ENDBRANCH  13  16
ENDBRANCH  12  13
ENDBRANCH   9  12
ENDBRANCH   8   9
ENDBRANCH   7   8
ENDBRANCH   6   7
BRANCH   1  20
HETATM   20  C2  UNL     1     -15.573   5.147  45.354  1.00  0.00    -0.058 C 
HETATM   21  C1  UNL     1     -14.508   4.223  45.822  1.00  0.00     0.045 C 
HETATM   22  C3  UNL     1     -15.993   4.857  43.963  1.00  0.00     0.045 C 
ENDBRANCH   1  20
BRANCH   5  23
HETATM   23  C15 UNL     1     -13.969   9.784  46.504  1.00  0.00     0.008 A 
HETATM   24  C16 UNL     1     -13.045  10.060  47.452  1.00  0.00     0.018 A 
HETATM   25  C17 UNL     1     -12.336  11.286  47.489  1.00  0.00     0.043 A 
HETATM   26  C18 UNL     1     -12.560  12.252  46.562  1.00  0.00     0.116 A 
HETATM   27  F1  UNL     1     -11.935  13.441  46.528  1.00  0.00    -0.206 F 
HETATM   28  C19 UNL     1     -13.499  11.993  45.591  1.00  0.00     0.043 A 
HETATM   29  C20 UNL     1     -14.189  10.801  45.552  1.00  0.00     0.018 A 
ENDBRANCH   5  23
BRANCH   2  30
HETATM   30  C6  UNL     1     -17.801   6.863  46.972  1.00  0.00     0.270 C 
HETATM   31  O1  UNL     1     -18.728   6.866  46.083  1.00  0.00    -0.266 OA
HETATM   32  N1  UNL     1     -18.224   6.512  48.278  1.00  0.00    -0.351 N 
ATOM     33  H1  UNL     1     -17.551   6.477  49.043  1.00  0.00     0.163 HD
BRANCH  32  34
HETATM   34  C7  UNL     1     -19.600   6.210  48.512  1.00  0.00     0.161 C 
BRANCH  34  35
HETATM   35  C8  UNL     1     -20.168   6.778  49.726  1.00  0.00    -0.041 A 
HETATM   36  C9  UNL     1     -19.973   8.093  50.056  1.00  0.00     0.009 A 
HETATM   37  C10 UNL     1     -20.532   8.598  51.235  1.00  0.00     0.001 A 
HETATM   38  C11 UNL     1     -21.271   7.792  52.065  1.00  0.00     0.000 A 
HETATM   39  C12 UNL     1     -21.479   6.456  51.748  1.00  0.00     0.001 A 
HETATM   40  C13 UNL     1     -20.912   5.992  50.572  1.00  0.00     0.009 A 
ENDBRANCH  34  35
ENDBRANCH  32  34
ENDBRANCH   2  30
TORSDOF 14
ENDMDL
