MODEL 1
REMARK VINA RESULT: -8.660150555      0.000      0.000
REMARK  14 active torsions:
REMARK  status: ('A' for Active; 'I' for Inactive)
REMARK    1  A    between atoms: C2_2  and  C4_4 
REMARK    2  A    between atoms: C5_5  and  C6_6 
REMARK       I    between atoms: C6_6  and  N1_8 
REMARK    3  A    between atoms: N1_8  and  C7_10 
REMARK    4  A    between atoms: C7_10  and  C8_11 
REMARK    5  A    between atoms: C14_19  and  C15_20 
REMARK    6  A    between atoms: N3_27  and  C21_28 
REMARK    7  A    between atoms: C21_28  and  C22_29 
REMARK    8  A    between atoms: C22_29  and  C23_30 
REMARK    9  A    between atoms: C23_30  and  O2_31 
REMARK   10  A    between atoms: C23_30  and  C24_33 
REMARK   11  A    between atoms: C24_33  and  C25_34 
REMARK   12  A    between atoms: C25_34  and  O3_35 
REMARK   13  A    between atoms: C25_34  and  C26_37 
REMARK   14  A    between atoms: C26_37  and  C27_38 
ROOT
HETATM    1  C4  UNL     1     -15.617   6.496  45.799  1.00  0.00     0.070 A 
HETATM    2  C5  UNL     1     -16.469   7.178  46.622  1.00  0.00     0.129 A 
HETATM    3  N2  UNL     1     -15.901   8.349  46.883  1.00  0.00    -0.335 N 
ATOM      4  H2  UNL     1     -16.313   9.068  47.479  1.00  0.00     0.168 HD
HETATM    5  C14 UNL     1     -14.692   8.471  46.250  1.00  0.00     0.119 A 
HETATM    6  N3  UNL     1     -14.546   7.314  45.588  1.00  0.00    -0.330 N 
ENDROOT
BRANCH   6   7
HETATM    7  C21 UNL     1     -13.357   7.084  44.787  1.00  0.00     0.133 C 
BRANCH   7   8
HETATM    8  C22 UNL     1     -13.647   7.027  43.314  1.00  0.00     0.052 C 
BRANCH   8   9
HETATM    9  C23 UNL     1     -12.479   7.523  42.484  1.00  0.00     0.122 C 
BRANCH   9  10
HETATM   10  O2  UNL     1     -11.735   6.505  41.925  1.00  0.00    -0.395 OA
ATOM     11  H2  UNL     1     -11.680   5.732  42.474  1.00  0.00     0.210 HD
ENDBRANCH   9  10
BRANCH   9  12
HETATM   12  C24 UNL     1     -12.905   8.601  41.538  1.00  0.00     0.064 C 
BRANCH  12  13
HETATM   13  C25 UNL     1     -13.109   9.944  42.121  1.00  0.00     0.130 C 
BRANCH  13  14
HETATM   14  O3  UNL     1     -11.959  10.646  42.426  1.00  0.00    -0.395 OA
ATOM     15  H3  UNL     1     -11.854  11.479  41.982  1.00  0.00     0.210 HD
ENDBRANCH  13  14
BRANCH  13  16
HETATM   16  C26 UNL     1     -14.142  10.800  41.434  1.00  0.00     0.144 C 
BRANCH  16  17
HETATM   17  C27 UNL     1     -13.713  11.274  40.120  1.00  0.00     0.175 C 
HETATM   18  O4  UNL     1     -12.565  11.710  39.911  1.00  0.00    -0.648 OA
HETATM   19  O5  UNL     1     -14.582  11.257  39.030  1.00  0.00    -0.648 OA
ENDBRANCH  16  17
ENDBRANCH  13  16
ENDBRANCH  12  13
ENDBRANCH   9  12
ENDBRANCH   8   9
ENDBRANCH   7   8
ENDBRANCH   6   7
BRANCH   1  20
HETATM   20  C2  UNL     1     -15.690   5.083  45.409  1.00  0.00    -0.058 C 
HETATM   21  C1  UNL     1     -14.537   4.189  45.684  1.00  0.00     0.045 C 
HETATM   22  C3  UNL     1     -16.357   4.758  44.126  1.00  0.00     0.045 C 
ENDBRANCH   1  20
BRANCH   5  23
HETATM   23  C15 UNL     1     -13.938   9.709  46.373  1.00  0.00     0.008 A 
HETATM   24  C16 UNL     1     -12.918   9.962  47.224  1.00  0.00     0.018 A 
HETATM   25  C17 UNL     1     -12.190  11.177  47.200  1.00  0.00     0.043 A 
HETATM   26  C18 UNL     1     -12.492  12.156  46.309  1.00  0.00     0.116 A 
HETATM   27  F1  UNL     1     -11.856  13.336  46.223  1.00  0.00    -0.206 F 
HETATM   28  C19 UNL     1     -13.528  11.921  45.436  1.00  0.00     0.043 A 
HETATM   29  C20 UNL     1     -14.238  10.739  45.456  1.00  0.00     0.018 A 
ENDBRANCH   5  23
BRANCH   2  30
HETATM   30  C6  UNL     1     -17.806   6.887  47.081  1.00  0.00     0.270 C 
HETATM   31  O1  UNL     1     -18.763   6.838  46.226  1.00  0.00    -0.266 OA
HETATM   32  N1  UNL     1     -18.185   6.629  48.421  1.00  0.00    -0.351 N 
ATOM     33  H1  UNL     1     -17.487   6.639  49.164  1.00  0.00     0.163 HD
BRANCH  32  34
HETATM   34  C7  UNL     1     -19.555   6.356  48.722  1.00  0.00     0.161 C 
BRANCH  34  35
HETATM   35  C8  UNL     1     -19.809   5.081  49.378  1.00  0.00    -0.041 A 
HETATM   36  C9  UNL     1     -21.085   4.625  49.579  1.00  0.00     0.009 A 
HETATM   37  C10 UNL     1     -21.285   3.397  50.218  1.00  0.00     0.001 A 
HETATM   38  C11 UNL     1     -20.220   2.644  50.646  1.00  0.00     0.000 A 
HETATM   39  C12 UNL     1     -18.919   3.089  50.451  1.00  0.00     0.001 A 
HETATM   40  C13 UNL     1     -18.759   4.309  49.814  1.00  0.00     0.009 A 
ENDBRANCH  34  35
ENDBRANCH  32  34
ENDBRANCH   2  30
TORSDOF 14
ENDMDL
