MODEL 9
REMARK VINA RESULT: -7.779543429      3.894      7.323
REMARK  14 active torsions:
REMARK  status: ('A' for Active; 'I' for Inactive)
REMARK    1  A    between atoms: C2_2  and  C4_4 
REMARK    2  A    between atoms: C5_5  and  C6_6 
REMARK       I    between atoms: C6_6  and  N1_8 
REMARK    3  A    between atoms: N1_8  and  C7_10 
REMARK    4  A    between atoms: C7_10  and  C8_11 
REMARK    5  A    between atoms: C14_19  and  C15_20 
REMARK    6  A    between atoms: N3_27  and  C21_28 
REMARK    7  A    between atoms: C21_28  and  C22_29 
REMARK    8  A    between atoms: C22_29  and  C23_30 
REMARK    9  A    between atoms: C23_30  and  O2_31 
REMARK   10  A    between atoms: C23_30  and  C24_33 
REMARK   11  A    between atoms: C24_33  and  C25_34 
REMARK   12  A    between atoms: C25_34  and  O3_35 
REMARK   13  A    between atoms: C25_34  and  C26_37 
REMARK   14  A    between atoms: C26_37  and  C27_38 
ROOT
HETATM    1  C4  UNL     1     -12.294   9.330  46.560  1.00  0.00     0.070 A 
HETATM    2  C5  UNL     1     -12.724   8.842  47.763  1.00  0.00     0.129 A 
HETATM    3  N2  UNL     1     -13.587   7.869  47.500  1.00  0.00    -0.335 N 
ATOM      4  H2  UNL     1     -14.074   7.324  48.212  1.00  0.00     0.168 HD
HETATM    5  C14 UNL     1     -13.742   7.688  46.151  1.00  0.00     0.119 A 
HETATM    6  N3  UNL     1     -12.930   8.601  45.599  1.00  0.00    -0.330 N 
ENDROOT
BRANCH   6   7
HETATM    7  C21 UNL     1     -12.831   8.702  44.153  1.00  0.00     0.133 C 
BRANCH   7   8
HETATM    8  C22 UNL     1     -11.607   8.025  43.603  1.00  0.00     0.052 C 
BRANCH   8   9
HETATM    9  C23 UNL     1     -11.828   7.507  42.196  1.00  0.00     0.122 C 
BRANCH   9  10
HETATM   10  O2  UNL     1     -11.848   6.131  42.116  1.00  0.00    -0.395 OA
ATOM     11  H2  UNL     1     -12.633   5.743  42.484  1.00  0.00     0.210 HD
ENDBRANCH   9  10
BRANCH   9  12
HETATM   12  C24 UNL     1     -12.975   8.205  41.535  1.00  0.00     0.064 C 
BRANCH  12  13
HETATM   13  C25 UNL     1     -12.634   9.143  40.444  1.00  0.00     0.130 C 
BRANCH  13  14
HETATM   14  O3  UNL     1     -12.995   8.741  39.173  1.00  0.00    -0.395 OA
ATOM     15  H3  UNL     1     -12.450   9.068  38.467  1.00  0.00     0.210 HD
ENDBRANCH  13  14
BRANCH  13  16
HETATM   16  C26 UNL     1     -12.963  10.590  40.707  1.00  0.00     0.144 C 
BRANCH  16  17
HETATM   17  C27 UNL     1     -13.304  11.331  39.494  1.00  0.00     0.175 C 
HETATM   18  O4  UNL     1     -12.453  11.955  38.833  1.00  0.00    -0.648 OA
HETATM   19  O5  UNL     1     -14.615  11.369  39.020  1.00  0.00    -0.648 OA
ENDBRANCH  16  17
ENDBRANCH  13  16
ENDBRANCH  12  13
ENDBRANCH   9  12
ENDBRANCH   8   9
ENDBRANCH   7   8
ENDBRANCH   6   7
BRANCH   1  20
HETATM   20  C2  UNL     1     -11.507  10.544  46.318  1.00  0.00    -0.058 C 
HETATM   21  C1  UNL     1     -10.027  10.453  46.241  1.00  0.00     0.045 C 
HETATM   22  C3  UNL     1     -11.958  11.796  46.970  1.00  0.00     0.045 C 
ENDBRANCH   1  20
BRANCH   5  23
HETATM   23  C15 UNL     1     -14.611   6.629  45.661  1.00  0.00     0.008 A 
HETATM   24  C16 UNL     1     -15.951   6.689  45.487  1.00  0.00     0.018 A 
HETATM   25  C17 UNL     1     -16.692   5.624  44.918  1.00  0.00     0.043 A 
HETATM   26  C18 UNL     1     -16.081   4.479  44.520  1.00  0.00     0.116 A 
HETATM   27  F1  UNL     1     -16.709   3.424  43.977  1.00  0.00    -0.206 F 
HETATM   28  C19 UNL     1     -14.719   4.396  44.691  1.00  0.00     0.043 A 
HETATM   29  C20 UNL     1     -13.994   5.431  45.243  1.00  0.00     0.018 A 
ENDBRANCH   5  23
BRANCH   2  30
HETATM   30  C6  UNL     1     -12.313   9.117  49.119  1.00  0.00     0.270 C 
HETATM   31  O1  UNL     1     -13.203   9.432  49.990  1.00  0.00    -0.266 OA
HETATM   32  N1  UNL     1     -10.985   9.065  49.610  1.00  0.00    -0.351 N 
ATOM     33  H1  UNL     1     -10.216   8.815  48.988  1.00  0.00     0.163 HD
BRANCH  32  34
HETATM   34  C7  UNL     1     -10.733   9.366  50.983  1.00  0.00     0.161 C 
BRANCH  34  35
HETATM   35  C8  UNL     1     -10.407  10.756  51.270  1.00  0.00    -0.041 A 
HETATM   36  C9  UNL     1      -9.961  11.600  50.288  1.00  0.00     0.009 A 
HETATM   37  C10 UNL     1      -9.654  12.927  50.607  1.00  0.00     0.001 A 
HETATM   38  C11 UNL     1      -9.794  13.393  51.890  1.00  0.00     0.000 A 
HETATM   39  C12 UNL     1     -10.246  12.553  52.899  1.00  0.00     0.001 A 
HETATM   40  C13 UNL     1     -10.541  11.246  52.547  1.00  0.00     0.009 A 
ENDBRANCH  34  35
ENDBRANCH  32  34
ENDBRANCH   2  30
TORSDOF 14
ENDMDL
