MODEL 5
REMARK VINA RESULT: -8.206182388      1.457      1.761
REMARK  14 active torsions:
REMARK  status: ('A' for Active; 'I' for Inactive)
REMARK    1  A    between atoms: C2_2  and  C4_4 
REMARK    2  A    between atoms: C5_5  and  C6_6 
REMARK       I    between atoms: C6_6  and  N1_8 
REMARK    3  A    between atoms: N1_8  and  C7_10 
REMARK    4  A    between atoms: C7_10  and  C8_11 
REMARK    5  A    between atoms: C14_19  and  C15_20 
REMARK    6  A    between atoms: N3_27  and  C21_28 
REMARK    7  A    between atoms: C21_28  and  C22_29 
REMARK    8  A    between atoms: C22_29  and  C23_30 
REMARK    9  A    between atoms: C23_30  and  O2_31 
REMARK   10  A    between atoms: C23_30  and  C24_33 
REMARK   11  A    between atoms: C24_33  and  C25_34 
REMARK   12  A    between atoms: C25_34  and  O3_35 
REMARK   13  A    between atoms: C25_34  and  C26_37 
REMARK   14  A    between atoms: C26_37  and  C27_38 
ROOT
HETATM    1  C4  UNL     1     -15.567   7.150  46.105  1.00  0.00     0.070 A 
HETATM    2  C5  UNL     1     -16.565   7.521  46.963  1.00  0.00     0.129 A 
HETATM    3  N2  UNL     1     -16.169   8.642  47.554  1.00  0.00    -0.335 N 
ATOM      4  H2  UNL     1     -16.716   9.148  48.251  1.00  0.00     0.168 HD
HETATM    5  C14 UNL     1     -14.935   9.034  47.109  1.00  0.00     0.119 A 
HETATM    6  N3  UNL     1     -14.591   8.096  46.215  1.00  0.00    -0.330 N 
ENDROOT
BRANCH   6   7
HETATM    7  C21 UNL     1     -13.318   8.188  45.522  1.00  0.00     0.133 C 
BRANCH   7   8
HETATM    8  C22 UNL     1     -13.424   8.882  44.194  1.00  0.00     0.052 C 
BRANCH   8   9
HETATM    9  C23 UNL     1     -13.329  10.389  44.330  1.00  0.00     0.122 C 
BRANCH   9  10
HETATM   10  O2  UNL     1     -12.039  10.841  44.514  1.00  0.00    -0.395 OA
ATOM     11  H2  UNL     1     -11.979  11.573  45.116  1.00  0.00     0.210 HD
ENDBRANCH   9  10
BRANCH   9  12
HETATM   12  C24 UNL     1     -14.104  11.081  43.252  1.00  0.00     0.064 C 
BRANCH  12  13
HETATM   13  C25 UNL     1     -13.388  11.324  41.981  1.00  0.00     0.130 C 
BRANCH  13  14
HETATM   14  O3  UNL     1     -12.143  10.734  41.872  1.00  0.00    -0.395 OA
ATOM     15  H3  UNL     1     -11.799  10.659  40.989  1.00  0.00     0.210 HD
ENDBRANCH  13  14
BRANCH  13  16
HETATM   16  C26 UNL     1     -14.214  11.167  40.730  1.00  0.00     0.144 C 
BRANCH  16  17
HETATM   17  C27 UNL     1     -13.407  11.118  39.513  1.00  0.00     0.175 C 
HETATM   18  O4  UNL     1     -13.290  12.098  38.752  1.00  0.00    -0.648 OA
HETATM   19  O5  UNL     1     -12.727   9.957  39.146  1.00  0.00    -0.648 OA
ENDBRANCH  16  17
ENDBRANCH  13  16
ENDBRANCH  12  13
ENDBRANCH   9  12
ENDBRANCH   8   9
ENDBRANCH   7   8
ENDBRANCH   6   7
BRANCH   1  20
HETATM   20  C2  UNL     1     -15.432   5.876  45.389  1.00  0.00    -0.058 C 
HETATM   21  C1  UNL     1     -16.035   5.730  44.040  1.00  0.00     0.045 C 
HETATM   22  C3  UNL     1     -15.524   4.628  46.182  1.00  0.00     0.045 C 
ENDBRANCH   1  20
BRANCH   5  23
HETATM   23  C15 UNL     1     -14.351  10.273  47.603  1.00  0.00     0.008 A 
HETATM   24  C16 UNL     1     -13.172  10.418  48.250  1.00  0.00     0.018 A 
HETATM   25  C17 UNL     1     -12.654  11.686  48.611  1.00  0.00     0.043 A 
HETATM   26  C18 UNL     1     -13.331  12.827  48.322  1.00  0.00     0.116 A 
HETATM   27  F1  UNL     1     -12.912  14.065  48.632  1.00  0.00    -0.206 F 
HETATM   28  C19 UNL     1     -14.533  12.702  47.667  1.00  0.00     0.043 A 
HETATM   29  C20 UNL     1     -15.040  11.470  47.313  1.00  0.00     0.018 A 
ENDBRANCH   5  23
BRANCH   2  30
HETATM   30  C6  UNL     1     -17.890   6.996  47.186  1.00  0.00     0.270 C 
HETATM   31  O1  UNL     1     -18.667   6.814  46.180  1.00  0.00    -0.266 OA
HETATM   32  N1  UNL     1     -18.440   6.637  48.442  1.00  0.00    -0.351 N 
ATOM     33  H1  UNL     1     -17.888   6.741  49.293  1.00  0.00     0.163 HD
BRANCH  32  34
HETATM   34  C7  UNL     1     -19.773   6.129  48.503  1.00  0.00     0.161 C 
BRANCH  34  35
HETATM   35  C8  UNL     1     -19.946   4.918  49.294  1.00  0.00    -0.041 A 
HETATM   36  C9  UNL     1     -21.189   4.403  49.546  1.00  0.00     0.009 A 
HETATM   37  C10 UNL     1     -21.310   3.240  50.315  1.00  0.00     0.001 A 
HETATM   38  C11 UNL     1     -20.200   2.612  50.820  1.00  0.00     0.000 A 
HETATM   39  C12 UNL     1     -18.931   3.119  50.575  1.00  0.00     0.001 A 
HETATM   40  C13 UNL     1     -18.849   4.270  49.809  1.00  0.00     0.009 A 
ENDBRANCH  34  35
ENDBRANCH  32  34
ENDBRANCH   2  30
TORSDOF 14
ENDMDL
