MODEL 3
REMARK VINA RESULT: -8.441090298      1.498      2.352
REMARK  14 active torsions:
REMARK  status: ('A' for Active; 'I' for Inactive)
REMARK    1  A    between atoms: C2_2  and  C4_4 
REMARK    2  A    between atoms: C5_5  and  C6_6 
REMARK       I    between atoms: C6_6  and  N1_8 
REMARK    3  A    between atoms: N1_8  and  C7_10 
REMARK    4  A    between atoms: C7_10  and  C8_11 
REMARK    5  A    between atoms: C14_19  and  C15_20 
REMARK    6  A    between atoms: N3_27  and  C21_28 
REMARK    7  A    between atoms: C21_28  and  C22_29 
REMARK    8  A    between atoms: C22_29  and  C23_30 
REMARK    9  A    between atoms: C23_30  and  O2_31 
REMARK   10  A    between atoms: C23_30  and  C24_33 
REMARK   11  A    between atoms: C24_33  and  C25_34 
REMARK   12  A    between atoms: C25_34  and  O3_35 
REMARK   13  A    between atoms: C25_34  and  C26_37 
REMARK   14  A    between atoms: C26_37  and  C27_38 
ROOT
HETATM    1  C4  UNL     1     -15.126   6.562  45.402  1.00  0.00     0.070 A 
HETATM    2  C5  UNL     1     -15.919   7.126  46.363  1.00  0.00     0.129 A 
HETATM    3  N2  UNL     1     -15.431   8.337  46.605  1.00  0.00    -0.335 N 
ATOM      4  H2  UNL     1     -15.823   8.989  47.285  1.00  0.00     0.168 HD
HETATM    5  C14 UNL     1     -14.335   8.599  45.827  1.00  0.00     0.119 A 
HETATM    6  N3  UNL     1     -14.174   7.488  45.094  1.00  0.00    -0.330 N 
ENDROOT
BRANCH   6   7
HETATM    7  C21 UNL     1     -13.088   7.405  44.134  1.00  0.00     0.133 C 
BRANCH   7   8
HETATM    8  C22 UNL     1     -13.516   7.751  42.736  1.00  0.00     0.052 C 
BRANCH   8   9
HETATM    9  C23 UNL     1     -12.393   7.564  41.734  1.00  0.00     0.122 C 
BRANCH   9  10
HETATM   10  O2  UNL     1     -11.648   6.425  41.954  1.00  0.00    -0.395 OA
ATOM     11  H2  UNL     1     -11.702   5.797  41.244  1.00  0.00     0.210 HD
ENDBRANCH   9  10
BRANCH   9  12
HETATM   12  C24 UNL     1     -12.881   7.751  40.332  1.00  0.00     0.064 C 
BRANCH  12  13
HETATM   13  C25 UNL     1     -12.336   8.912  39.595  1.00  0.00     0.130 C 
BRANCH  13  14
HETATM   14  O3  UNL     1     -12.592   8.934  38.238  1.00  0.00    -0.395 OA
ATOM     15  H3  UNL     1     -12.992   9.730  37.907  1.00  0.00     0.210 HD
ENDBRANCH  13  14
BRANCH  13  16
HETATM   16  C26 UNL     1     -12.555  10.254  40.246  1.00  0.00     0.144 C 
BRANCH  16  17
HETATM   17  C27 UNL     1     -13.089  11.257  39.327  1.00  0.00     0.175 C 
HETATM   18  O4  UNL     1     -12.357  12.061  38.720  1.00  0.00    -0.648 OA
HETATM   19  O5  UNL     1     -14.460  11.356  39.089  1.00  0.00    -0.648 OA
ENDBRANCH  16  17
ENDBRANCH  13  16
ENDBRANCH  12  13
ENDBRANCH   9  12
ENDBRANCH   8   9
ENDBRANCH   7   8
ENDBRANCH   6   7
BRANCH   1  20
HETATM   20  C2  UNL     1     -15.121   5.164  44.955  1.00  0.00    -0.058 C 
HETATM   21  C1  UNL     1     -16.323   4.608  44.283  1.00  0.00     0.045 C 
HETATM   22  C3  UNL     1     -14.454   4.167  45.824  1.00  0.00     0.045 C 
ENDBRANCH   1  20
BRANCH   5  23
HETATM   23  C15 UNL     1     -13.688   9.901  45.911  1.00  0.00     0.008 A 
HETATM   24  C16 UNL     1     -13.922  10.980  45.130  1.00  0.00     0.018 A 
HETATM   25  C17 UNL     1     -13.297  12.231  45.354  1.00  0.00     0.043 A 
HETATM   26  C18 UNL     1     -12.421  12.402  46.377  1.00  0.00     0.116 A 
HETATM   27  F1  UNL     1     -11.784  13.551  46.656  1.00  0.00    -0.206 F 
HETATM   28  C19 UNL     1     -12.166  11.317  47.182  1.00  0.00     0.043 A 
HETATM   29  C20 UNL     1     -12.773  10.098  46.967  1.00  0.00     0.018 A 
ENDBRANCH   5  23
BRANCH   2  30
HETATM   30  C6  UNL     1     -17.149   6.689  46.978  1.00  0.00     0.270 C 
HETATM   31  O1  UNL     1     -18.237   6.731  46.297  1.00  0.00    -0.266 OA
HETATM   32  N1  UNL     1     -17.286   6.190  48.296  1.00  0.00    -0.351 N 
ATOM     33  H1  UNL     1     -16.471   6.114  48.905  1.00  0.00     0.163 HD
BRANCH  32  34
HETATM   34  C7  UNL     1     -18.576   5.795  48.766  1.00  0.00     0.161 C 
BRANCH  34  35
HETATM   35  C8  UNL     1     -19.235   6.742  49.655  1.00  0.00    -0.041 A 
HETATM   36  C9  UNL     1     -18.701   7.978  49.900  1.00  0.00     0.009 A 
HETATM   37  C10 UNL     1     -19.364   8.856  50.765  1.00  0.00     0.001 A 
HETATM   38  C11 UNL     1     -20.541   8.492  51.371  1.00  0.00     0.000 A 
HETATM   39  C12 UNL     1     -21.098   7.243  51.134  1.00  0.00     0.001 A 
HETATM   40  C13 UNL     1     -20.415   6.401  50.272  1.00  0.00     0.009 A 
ENDBRANCH  34  35
ENDBRANCH  32  34
ENDBRANCH   2  30
TORSDOF 14
ENDMDL
