MODEL 6
REMARK VINA RESULT: -7.885073480      4.059      8.013
REMARK  15 active torsions:
REMARK  status: ('A' for Active; 'I' for Inactive)
REMARK    1  A    between atoms: C2_2  and  C4_4 
REMARK    2  A    between atoms: C5_5  and  C6_6 
REMARK       I    between atoms: C6_6  and  N1_8 
REMARK    3  A    between atoms: N1_8  and  C7_10 
REMARK    4  A    between atoms: C7_10  and  C8_11 
REMARK    5  A    between atoms: C7_10  and  C9_14 
REMARK    6  A    between atoms: C8_11  and  O2_12 
REMARK    7  A    between atoms: N3_30  and  C22_31 
REMARK    8  A    between atoms: C22_31  and  C23_32 
REMARK    9  A    between atoms: C23_32  and  C24_33 
REMARK   10  A    between atoms: C24_33  and  O3_34 
REMARK   11  A    between atoms: C24_33  and  C25_36 
REMARK   12  A    between atoms: C25_36  and  C26_37 
REMARK   13  A    between atoms: C26_37  and  O4_38 
REMARK   14  A    between atoms: C26_37  and  C27_40 
REMARK   15  A    between atoms: C27_40  and  C28_41 
ROOT
HETATM    1  C4  UNL     1      76.454   8.447  -7.346  1.00  0.00     0.049 A 
HETATM    2  C5  UNL     1      76.822   7.140  -6.903  1.00  0.00     0.125 A 
HETATM    3  N2  UNL     1      76.246   6.299  -7.736  1.00  0.00    -0.336 N 
ATOM      4  H2  UNL     1      76.332   5.285  -7.669  1.00  0.00     0.168 HD
HETATM    5  C15 UNL     1      75.518   6.940  -8.705  1.00  0.00     0.118 A 
HETATM    6  C16 UNL     1      74.821   6.175  -9.713  1.00  0.00     0.008 A 
HETATM    7  C17 UNL     1      74.229   6.666 -10.836  1.00  0.00     0.018 A 
HETATM    8  C18 UNL     1      73.559   5.818 -11.728  1.00  0.00     0.043 A 
HETATM    9  C19 UNL     1      73.470   4.463 -11.513  1.00  0.00     0.116 A 
HETATM   10  F1  UNL     1      72.822   3.643 -12.376  1.00  0.00    -0.206 F 
HETATM   11  C20 UNL     1      74.056   3.948 -10.396  1.00  0.00     0.043 A 
HETATM   12  C21 UNL     1      74.710   4.779  -9.526  1.00  0.00     0.018 A 
HETATM   13  N3  UNL     1      75.659   8.242  -8.438  1.00  0.00    -0.333 N 
ENDROOT
BRANCH   2  14
HETATM   14  C6  UNL     1      77.674   6.799  -5.767  1.00  0.00     0.270 C 
HETATM   15  O1  UNL     1      78.899   6.811  -5.784  1.00  0.00    -0.266 OA
HETATM   16  N1  UNL     1      77.045   6.423  -4.545  1.00  0.00    -0.345 N 
ATOM     17  H1  UNL     1      76.027   6.408  -4.505  1.00  0.00     0.163 HD
BRANCH  16  18
HETATM   18  C7  UNL     1      77.791   6.062  -3.355  1.00  0.00     0.141 C 
BRANCH  18  19
HETATM   19  C8  UNL     1      78.115   4.569  -3.327  1.00  0.00     0.194 C 
BRANCH  19  20
HETATM   20  O2  UNL     1      79.335   4.342  -3.942  1.00  0.00    -0.399 OA
ATOM     21  H2  UNL     1      79.216   3.774  -4.694  1.00  0.00     0.209 HD
ENDBRANCH  19  20
ENDBRANCH  18  19
BRANCH  18  22
HETATM   22  C9  UNL     1      77.052   6.465  -2.142  1.00  0.00    -0.033 A 
HETATM   23  C10 UNL     1      75.913   7.222  -2.266  1.00  0.00     0.009 A 
HETATM   24  C11 UNL     1      75.186   7.628  -1.166  1.00  0.00     0.001 A 
HETATM   25  C12 UNL     1      75.586   7.282   0.102  1.00  0.00     0.000 A 
HETATM   26  C13 UNL     1      76.726   6.523   0.245  1.00  0.00     0.001 A 
HETATM   27  C14 UNL     1      77.460   6.114  -0.874  1.00  0.00     0.009 A 
ENDBRANCH  18  22
ENDBRANCH  16  18
ENDBRANCH   2  14
BRANCH   1  28
HETATM   28  C2  UNL     1      76.982   9.601  -6.653  1.00  0.00     0.030 C 
HETATM   29  C1  UNL     1      77.603  10.741  -7.397  1.00  0.00     0.016 C 
HETATM   30  C3  UNL     1      76.022  10.156  -5.598  1.00  0.00     0.016 C 
ENDBRANCH   1  28
BRANCH  13  31
HETATM   31  C22 UNL     1      75.028   9.269  -9.219  1.00  0.00     0.133 C 
BRANCH  31  32
HETATM   32  C23 UNL     1      73.580   9.503  -8.960  1.00  0.00     0.052 C 
BRANCH  32  33
HETATM   33  C24 UNL     1      73.182   9.655  -7.491  1.00  0.00     0.122 C 
BRANCH  33  34
HETATM   34  O3  UNL     1      72.864  11.015  -7.323  1.00  0.00    -0.395 OA
ATOM     35  H3  UNL     1      71.936  11.087  -7.515  1.00  0.00     0.210 HD
ENDBRANCH  33  34
BRANCH  33  36
HETATM   36  C25 UNL     1      71.956   8.874  -7.233  1.00  0.00     0.064 C 
BRANCH  36  37
HETATM   37  C26 UNL     1      72.060   7.611  -6.510  1.00  0.00     0.130 C 
BRANCH  37  38
HETATM   38  O4  UNL     1      71.935   6.589  -7.554  1.00  0.00    -0.395 OA
ATOM     39  H4  UNL     1      71.035   6.295  -7.485  1.00  0.00     0.210 HD
ENDBRANCH  37  38
BRANCH  37  40
HETATM   40  C27 UNL     1      73.290   7.227  -5.799  1.00  0.00     0.144 C 
BRANCH  40  41
HETATM   41  C28 UNL     1      73.447   5.837  -5.371  1.00  0.00     0.175 C 
HETATM   42  O5  UNL     1      74.514   5.175  -5.537  1.00  0.00    -0.648 OA
HETATM   43  O6  UNL     1      72.407   5.172  -4.751  1.00  0.00    -0.648 OA
ENDBRANCH  40  41
ENDBRANCH  37  40
ENDBRANCH  36  37
ENDBRANCH  33  36
ENDBRANCH  32  33
ENDBRANCH  31  32
ENDBRANCH  13  31
TORSDOF 15
ENDMDL
