MODEL 1
REMARK VINA RESULT: -8.675548189      0.000      0.000
REMARK  15 active torsions:
REMARK  status: ('A' for Active; 'I' for Inactive)
REMARK    1  A    between atoms: C2_2  and  C4_4 
REMARK    2  A    between atoms: C5_5  and  C6_6 
REMARK       I    between atoms: C6_6  and  N1_8 
REMARK    3  A    between atoms: N1_8  and  C7_10 
REMARK    4  A    between atoms: C7_10  and  C8_11 
REMARK    5  A    between atoms: C7_10  and  C9_14 
REMARK    6  A    between atoms: C8_11  and  O2_12 
REMARK    7  A    between atoms: N3_30  and  C22_31 
REMARK    8  A    between atoms: C22_31  and  C23_32 
REMARK    9  A    between atoms: C23_32  and  C24_33 
REMARK   10  A    between atoms: C24_33  and  O3_34 
REMARK   11  A    between atoms: C24_33  and  C25_36 
REMARK   12  A    between atoms: C25_36  and  C26_37 
REMARK   13  A    between atoms: C26_37  and  O4_38 
REMARK   14  A    between atoms: C26_37  and  C27_40 
REMARK   15  A    between atoms: C27_40  and  C28_41 
ROOT
HETATM    1  C4  UNL     1      79.434   9.758  -5.303  1.00  0.00     0.049 A 
HETATM    2  C5  UNL     1      78.534  10.763  -5.771  1.00  0.00     0.125 A 
HETATM    3  N2  UNL     1      77.365  10.171  -5.901  1.00  0.00    -0.336 N 
ATOM      4  H2  UNL     1      76.521  10.646  -6.221  1.00  0.00     0.168 HD
HETATM    5  C15 UNL     1      77.410   8.845  -5.557  1.00  0.00     0.118 A 
HETATM    6  C16 UNL     1      76.216   8.036  -5.631  1.00  0.00     0.008 A 
HETATM    7  C17 UNL     1      76.061   6.775  -5.144  1.00  0.00     0.018 A 
HETATM    8  C18 UNL     1      74.852   6.083  -5.303  1.00  0.00     0.043 A 
HETATM    9  C19 UNL     1      73.776   6.641  -5.951  1.00  0.00     0.116 A 
HETATM   10  F1  UNL     1      72.607   5.973  -6.103  1.00  0.00    -0.206 F 
HETATM   11  C20 UNL     1      73.907   7.904  -6.445  1.00  0.00     0.043 A 
HETATM   12  C21 UNL     1      75.089   8.577  -6.290  1.00  0.00     0.018 A 
HETATM   13  N3  UNL     1      78.679   8.623  -5.205  1.00  0.00    -0.333 N 
ENDROOT
BRANCH   2  14
HETATM   14  C6  UNL     1      78.837  12.166  -6.040  1.00  0.00     0.270 C 
HETATM   15  O1  UNL     1      79.158  12.987  -5.188  1.00  0.00    -0.266 OA
HETATM   16  N1  UNL     1      78.758  12.625  -7.386  1.00  0.00    -0.345 N 
ATOM     17  H1  UNL     1      78.495  11.960  -8.113  1.00  0.00     0.163 HD
BRANCH  16  18
HETATM   18  C7  UNL     1      79.035  13.996  -7.768  1.00  0.00     0.141 C 
BRANCH  18  19
HETATM   19  C8  UNL     1      77.981  14.533  -8.734  1.00  0.00     0.194 C 
BRANCH  19  20
HETATM   20  O2  UNL     1      77.232  15.518  -8.111  1.00  0.00    -0.399 OA
ATOM     21  H2  UNL     1      76.961  15.220  -7.251  1.00  0.00     0.209 HD
ENDBRANCH  19  20
ENDBRANCH  18  19
BRANCH  18  22
HETATM   22  C9  UNL     1      80.388  14.105  -8.348  1.00  0.00    -0.033 A 
HETATM   23  C10 UNL     1      80.981  15.340  -8.450  1.00  0.00     0.009 A 
HETATM   24  C11 UNL     1      82.242  15.499  -8.987  1.00  0.00     0.001 A 
HETATM   25  C12 UNL     1      82.950  14.412  -9.441  1.00  0.00     0.000 A 
HETATM   26  C13 UNL     1      82.370  13.167  -9.346  1.00  0.00     0.001 A 
HETATM   27  C14 UNL     1      81.091  13.011  -8.801  1.00  0.00     0.009 A 
ENDBRANCH  18  22
ENDBRANCH  16  18
ENDBRANCH   2  14
BRANCH   1  28
HETATM   28  C2  UNL     1      80.804  10.119  -5.011  1.00  0.00     0.030 C 
HETATM   29  C1  UNL     1      81.246  10.440  -3.619  1.00  0.00     0.016 C 
HETATM   30  C3  UNL     1      81.821   9.171  -5.653  1.00  0.00     0.016 C 
ENDBRANCH   1  28
BRANCH  13  31
HETATM   31  C22 UNL     1      79.158   7.333  -4.789  1.00  0.00     0.133 C 
BRANCH  31  32
HETATM   32  C23 UNL     1      79.608   7.218  -3.375  1.00  0.00     0.052 C 
BRANCH  32  33
HETATM   33  C24 UNL     1      79.131   5.975  -2.622  1.00  0.00     0.122 C 
BRANCH  33  34
HETATM   34  O3  UNL     1      80.273   5.460  -1.980  1.00  0.00    -0.395 OA
ATOM     35  H3  UNL     1      79.947   4.861  -1.319  1.00  0.00     0.210 HD
ENDBRANCH  33  34
BRANCH  33  36
HETATM   36  C25 UNL     1      78.172   6.376  -1.574  1.00  0.00     0.064 C 
BRANCH  36  37
HETATM   37  C26 UNL     1      76.780   5.956  -1.691  1.00  0.00     0.130 C 
BRANCH  37  38
HETATM   38  O4  UNL     1      76.745   4.645  -1.036  1.00  0.00    -0.395 OA
ATOM     39  H4  UNL     1      75.847   4.557  -0.739  1.00  0.00     0.210 HD
ENDBRANCH  37  38
BRANCH  37  40
HETATM   40  C27 UNL     1      75.692   6.697  -1.032  1.00  0.00     0.144 C 
BRANCH  40  41
HETATM   41  C28 UNL     1      75.607   6.668   0.428  1.00  0.00     0.175 C 
HETATM   42  O5  UNL     1      75.861   7.670   1.159  1.00  0.00    -0.648 OA
HETATM   43  O6  UNL     1      75.237   5.511   1.086  1.00  0.00    -0.648 OA
ENDBRANCH  40  41
ENDBRANCH  37  40
ENDBRANCH  36  37
ENDBRANCH  33  36
ENDBRANCH  32  33
ENDBRANCH  31  32
ENDBRANCH  13  31
TORSDOF 15
ENDMDL
