MODEL 2
REMARK VINA RESULT: -8.456818540      1.231      1.590
REMARK  15 active torsions:
REMARK  status: ('A' for Active; 'I' for Inactive)
REMARK    1  A    between atoms: C2_2  and  C4_4 
REMARK    2  A    between atoms: C5_5  and  C6_6 
REMARK       I    between atoms: C6_6  and  N1_8 
REMARK    3  A    between atoms: N1_8  and  C7_10 
REMARK    4  A    between atoms: C7_10  and  C8_11 
REMARK    5  A    between atoms: C7_10  and  C9_14 
REMARK    6  A    between atoms: C8_11  and  O2_12 
REMARK    7  A    between atoms: N3_30  and  C22_31 
REMARK    8  A    between atoms: C22_31  and  C23_32 
REMARK    9  A    between atoms: C23_32  and  C24_33 
REMARK   10  A    between atoms: C24_33  and  O3_34 
REMARK   11  A    between atoms: C24_33  and  C25_36 
REMARK   12  A    between atoms: C25_36  and  C26_37 
REMARK   13  A    between atoms: C26_37  and  O4_38 
REMARK   14  A    between atoms: C26_37  and  C27_40 
REMARK   15  A    between atoms: C27_40  and  C28_41 
ROOT
HETATM    1  C4  UNL     1      79.627   8.729  -5.098  1.00  0.00     0.049 A 
HETATM    2  C5  UNL     1      78.918   9.885  -5.544  1.00  0.00     0.125 A 
HETATM    3  N2  UNL     1      77.673   9.499  -5.729  1.00  0.00    -0.336 N 
ATOM      4  H2  UNL     1      76.928  10.118  -6.049  1.00  0.00     0.168 HD
HETATM    5  C15 UNL     1      77.491   8.171  -5.443  1.00  0.00     0.118 A 
HETATM    6  C16 UNL     1      76.183   7.573  -5.582  1.00  0.00     0.008 A 
HETATM    7  C17 UNL     1      75.810   6.336  -5.155  1.00  0.00     0.018 A 
HETATM    8  C18 UNL     1      74.510   5.859  -5.373  1.00  0.00     0.043 A 
HETATM    9  C19 UNL     1      73.560   6.611  -6.023  1.00  0.00     0.116 A 
HETATM   10  F1  UNL     1      72.304   6.150  -6.233  1.00  0.00    -0.206 F 
HETATM   11  C20 UNL     1      73.911   7.853  -6.458  1.00  0.00     0.043 A 
HETATM   12  C21 UNL     1      75.181   8.317  -6.244  1.00  0.00     0.018 A 
HETATM   13  N3  UNL     1      78.695   7.730  -5.069  1.00  0.00    -0.333 N 
ENDROOT
BRANCH   2  14
HETATM   14  C6  UNL     1      79.455  11.229  -5.743  1.00  0.00     0.270 C 
HETATM   15  O1  UNL     1      79.717  12.018  -4.843  1.00  0.00    -0.266 OA
HETATM   16  N1  UNL     1      79.695  11.666  -7.078  1.00  0.00    -0.345 N 
ATOM     17  H1  UNL     1      79.487  11.027  -7.845  1.00  0.00     0.163 HD
BRANCH  16  18
HETATM   18  C7  UNL     1      80.222  12.979  -7.394  1.00  0.00     0.141 C 
BRANCH  18  19
HETATM   19  C8  UNL     1      79.160  14.065  -7.232  1.00  0.00     0.194 C 
BRANCH  19  20
HETATM   20  O2  UNL     1      79.301  14.678  -5.997  1.00  0.00    -0.399 OA
ATOM     21  H2  UNL     1      78.562  14.458  -5.443  1.00  0.00     0.209 HD
ENDBRANCH  19  20
ENDBRANCH  18  19
BRANCH  18  22
HETATM   22  C9  UNL     1      80.787  12.992  -8.758  1.00  0.00    -0.033 A 
HETATM   23  C10 UNL     1      79.955  12.814  -9.835  1.00  0.00     0.009 A 
HETATM   24  C11 UNL     1      80.430  12.814 -11.130  1.00  0.00     0.001 A 
HETATM   25  C12 UNL     1      81.769  12.995 -11.383  1.00  0.00     0.000 A 
HETATM   26  C13 UNL     1      82.618  13.175 -10.314  1.00  0.00     0.001 A 
HETATM   27  C14 UNL     1      82.131  13.174  -9.002  1.00  0.00     0.009 A 
ENDBRANCH  18  22
ENDBRANCH  16  18
ENDBRANCH   2  14
BRANCH   1  28
HETATM   28  C2  UNL     1      81.027   8.848  -4.757  1.00  0.00     0.030 C 
HETATM   29  C1  UNL     1      81.509   8.638  -3.357  1.00  0.00     0.016 C 
HETATM   30  C3  UNL     1      81.944   8.089  -5.721  1.00  0.00     0.016 C 
ENDBRANCH   1  28
BRANCH  13  31
HETATM   31  C22 UNL     1      78.943   6.364  -4.699  1.00  0.00     0.133 C 
BRANCH  31  32
HETATM   32  C23 UNL     1      79.029   6.079  -3.240  1.00  0.00     0.052 C 
BRANCH  32  33
HETATM   33  C24 UNL     1      78.698   4.646  -2.820  1.00  0.00     0.122 C 
BRANCH  33  34
HETATM   34  O3  UNL     1      79.772   4.230  -2.012  1.00  0.00    -0.395 OA
ATOM     35  H3  UNL     1      79.750   4.793  -1.246  1.00  0.00     0.210 HD
ENDBRANCH  33  34
BRANCH  33  36
HETATM   36  C25 UNL     1      77.483   4.650  -1.981  1.00  0.00     0.064 C 
BRANCH  36  37
HETATM   37  C26 UNL     1      77.137   5.861  -1.243  1.00  0.00     0.130 C 
BRANCH  37  38
HETATM   38  O4  UNL     1      75.711   6.055  -1.522  1.00  0.00    -0.395 OA
ATOM     39  H4  UNL     1      75.272   5.666  -0.774  1.00  0.00     0.210 HD
ENDBRANCH  37  38
BRANCH  37  40
HETATM   40  C27 UNL     1      77.209   5.916   0.226  1.00  0.00     0.144 C 
BRANCH  40  41
HETATM   41  C28 UNL     1      75.991   6.219   0.977  1.00  0.00     0.175 C 
HETATM   42  O5  UNL     1      75.233   5.328   1.462  1.00  0.00    -0.648 OA
HETATM   43  O6  UNL     1      75.607   7.529   1.192  1.00  0.00    -0.648 OA
ENDBRANCH  40  41
ENDBRANCH  37  40
ENDBRANCH  36  37
ENDBRANCH  33  36
ENDBRANCH  32  33
ENDBRANCH  31  32
ENDBRANCH  13  31
TORSDOF 15
ENDMDL
