MODEL 7
REMARK VINA RESULT: -7.797818367      4.258      8.908
REMARK  15 active torsions:
REMARK  status: ('A' for Active; 'I' for Inactive)
REMARK    1  A    between atoms: C2_2  and  C4_4 
REMARK    2  A    between atoms: C5_5  and  C6_6 
REMARK       I    between atoms: C6_6  and  N1_8 
REMARK    3  A    between atoms: N1_8  and  C7_10 
REMARK    4  A    between atoms: C7_10  and  C8_11 
REMARK    5  A    between atoms: C7_10  and  C9_14 
REMARK    6  A    between atoms: C8_11  and  O2_12 
REMARK    7  A    between atoms: N3_30  and  C22_31 
REMARK    8  A    between atoms: C22_31  and  C23_32 
REMARK    9  A    between atoms: C23_32  and  C24_33 
REMARK   10  A    between atoms: C24_33  and  O3_34 
REMARK   11  A    between atoms: C24_33  and  C25_36 
REMARK   12  A    between atoms: C25_36  and  C26_37 
REMARK   13  A    between atoms: C26_37  and  O4_38 
REMARK   14  A    between atoms: C26_37  and  C27_40 
REMARK   15  A    between atoms: C27_40  and  C28_41 
ROOT
HETATM    1  C4  UNL     1      78.756   5.622  -5.794  1.00  0.00     0.049 A 
HETATM    2  C5  UNL     1      78.867   4.350  -5.155  1.00  0.00     0.125 A 
HETATM    3  N2  UNL     1      78.308   4.487  -3.971  1.00  0.00    -0.336 N 
ATOM      4  H2  UNL     1      78.238   3.735  -3.286  1.00  0.00     0.168 HD
HETATM    5  C15 UNL     1      77.829   5.755  -3.765  1.00  0.00     0.118 A 
HETATM    6  C16 UNL     1      77.175   6.088  -2.520  1.00  0.00     0.008 A 
HETATM    7  C17 UNL     1      76.484   7.229  -2.249  1.00  0.00     0.018 A 
HETATM    8  C18 UNL     1      75.913   7.445  -0.987  1.00  0.00     0.043 A 
HETATM    9  C19 UNL     1      76.022   6.522   0.026  1.00  0.00     0.116 A 
HETATM   10  F1  UNL     1      75.470   6.730   1.245  1.00  0.00    -0.206 F 
HETATM   11  C20 UNL     1      76.707   5.371  -0.223  1.00  0.00     0.043 A 
HETATM   12  C21 UNL     1      77.264   5.163  -1.456  1.00  0.00     0.018 A 
HETATM   13  N3  UNL     1      78.121   6.421  -4.885  1.00  0.00    -0.333 N 
ENDROOT
BRANCH   2  14
HETATM   14  C6  UNL     1      79.467   3.136  -5.703  1.00  0.00     0.270 C 
HETATM   15  O1  UNL     1      78.854   2.104  -5.949  1.00  0.00    -0.266 OA
HETATM   16  N1  UNL     1      80.866   3.140  -5.974  1.00  0.00    -0.345 N 
ATOM     17  H1  UNL     1      81.398   3.988  -5.780  1.00  0.00     0.163 HD
BRANCH  16  18
HETATM   18  C7  UNL     1      81.566   1.991  -6.515  1.00  0.00     0.141 C 
BRANCH  18  19
HETATM   19  C8  UNL     1      82.635   1.480  -5.551  1.00  0.00     0.194 C 
BRANCH  19  20
HETATM   20  O2  UNL     1      82.039   1.040  -4.380  1.00  0.00    -0.399 OA
ATOM     21  H2  UNL     1      82.382   1.528  -3.641  1.00  0.00     0.209 HD
ENDBRANCH  19  20
ENDBRANCH  18  19
BRANCH  18  22
HETATM   22  C9  UNL     1      82.153   2.319  -7.829  1.00  0.00    -0.033 A 
HETATM   23  C10 UNL     1      83.022   1.434  -8.421  1.00  0.00     0.009 A 
HETATM   24  C11 UNL     1      83.601   1.692  -9.646  1.00  0.00     0.001 A 
HETATM   25  C12 UNL     1      83.323   2.858 -10.319  1.00  0.00     0.000 A 
HETATM   26  C13 UNL     1      82.454   3.756  -9.740  1.00  0.00     0.001 A 
HETATM   27  C14 UNL     1      81.869   3.490  -8.497  1.00  0.00     0.009 A 
ENDBRANCH  18  22
ENDBRANCH  16  18
ENDBRANCH   2  14
BRANCH   1  28
HETATM   28  C2  UNL     1      79.241   5.778  -7.147  1.00  0.00     0.030 C 
HETATM   29  C1  UNL     1      78.346   6.256  -8.246  1.00  0.00     0.016 C 
HETATM   30  C3  UNL     1      80.572   6.530  -7.223  1.00  0.00     0.016 C 
ENDBRANCH   1  28
BRANCH  13  31
HETATM   31  C22 UNL     1      77.801   7.810  -5.070  1.00  0.00     0.133 C 
BRANCH  31  32
HETATM   32  C23 UNL     1      78.918   8.777  -4.887  1.00  0.00     0.052 C 
BRANCH  32  33
HETATM   33  C24 UNL     1      79.213   9.689  -6.078  1.00  0.00     0.122 C 
BRANCH  33  34
HETATM   34  O3  UNL     1      77.983   9.857  -6.741  1.00  0.00    -0.395 OA
ATOM     35  H3  UNL     1      77.956   9.179  -7.407  1.00  0.00     0.210 HD
ENDBRANCH  33  34
BRANCH  33  36
HETATM   36  C25 UNL     1      79.640  11.014  -5.587  1.00  0.00     0.064 C 
BRANCH  36  37
HETATM   37  C26 UNL     1      79.006  12.210  -6.132  1.00  0.00     0.130 C 
BRANCH  37  38
HETATM   38  O4  UNL     1      79.067  13.180  -5.035  1.00  0.00    -0.395 OA
ATOM     39  H4  UNL     1      79.478  12.701  -4.324  1.00  0.00     0.210 HD
ENDBRANCH  37  38
BRANCH  37  40
HETATM   40  C27 UNL     1      79.588  12.941  -7.269  1.00  0.00     0.144 C 
BRANCH  40  41
HETATM   41  C28 UNL     1      79.455  14.397  -7.307  1.00  0.00     0.175 C 
HETATM   42  O5  UNL     1      78.416  14.991  -7.722  1.00  0.00    -0.648 OA
HETATM   43  O6  UNL     1      80.490  15.207  -6.880  1.00  0.00    -0.648 OA
ENDBRANCH  40  41
ENDBRANCH  37  40
ENDBRANCH  36  37
ENDBRANCH  33  36
ENDBRANCH  32  33
ENDBRANCH  31  32
ENDBRANCH  13  31
TORSDOF 15
ENDMDL
