MODEL 8
REMARK VINA RESULT: -7.785858103      4.415      8.305
REMARK  15 active torsions:
REMARK  status: ('A' for Active; 'I' for Inactive)
REMARK    1  A    between atoms: C2_2  and  C4_4 
REMARK    2  A    between atoms: C5_5  and  C6_6 
REMARK       I    between atoms: C6_6  and  N1_8 
REMARK    3  A    between atoms: N1_8  and  C7_10 
REMARK    4  A    between atoms: C7_10  and  C8_11 
REMARK    5  A    between atoms: C7_10  and  C9_14 
REMARK    6  A    between atoms: C8_11  and  O2_12 
REMARK    7  A    between atoms: N3_30  and  C22_31 
REMARK    8  A    between atoms: C22_31  and  C23_32 
REMARK    9  A    between atoms: C23_32  and  C24_33 
REMARK   10  A    between atoms: C24_33  and  O3_34 
REMARK   11  A    between atoms: C24_33  and  C25_36 
REMARK   12  A    between atoms: C25_36  and  C26_37 
REMARK   13  A    between atoms: C26_37  and  O4_38 
REMARK   14  A    between atoms: C26_37  and  C27_40 
REMARK   15  A    between atoms: C27_40  and  C28_41 
ROOT
HETATM    1  C4  UNL     1      77.079   5.488  -5.570  1.00  0.00     0.049 A 
HETATM    2  C5  UNL     1      77.645   4.426  -4.802  1.00  0.00     0.125 A 
HETATM    3  N2  UNL     1      77.424   4.731  -3.540  1.00  0.00    -0.336 N 
ATOM      4  H2  UNL     1      77.719   4.150  -2.755  1.00  0.00     0.168 HD
HETATM    5  C15 UNL     1      76.752   5.918  -3.401  1.00  0.00     0.118 A 
HETATM    6  C16 UNL     1      76.415   6.409  -2.085  1.00  0.00     0.008 A 
HETATM    7  C17 UNL     1      75.592   7.454  -1.798  1.00  0.00     0.018 A 
HETATM    8  C18 UNL     1      75.364   7.851  -0.473  1.00  0.00     0.043 A 
HETATM    9  C19 UNL     1      75.956   7.208   0.589  1.00  0.00     0.116 A 
HETATM   10  F1  UNL     1      75.735   7.591   1.870  1.00  0.00    -0.206 F 
HETATM   11  C20 UNL     1      76.782   6.158   0.326  1.00  0.00     0.043 A 
HETATM   12  C21 UNL     1      77.003   5.774  -0.969  1.00  0.00     0.018 A 
HETATM   13  N3  UNL     1      76.562   6.356  -4.649  1.00  0.00    -0.333 N 
ENDROOT
BRANCH   2  14
HETATM   14  C6  UNL     1      78.323   3.235  -5.306  1.00  0.00     0.270 C 
HETATM   15  O1  UNL     1      77.762   2.284  -5.838  1.00  0.00    -0.266 OA
HETATM   16  N1  UNL     1      79.740   3.161  -5.176  1.00  0.00    -0.345 N 
ATOM     17  H1  UNL     1      80.231   3.941  -4.739  1.00  0.00     0.163 HD
BRANCH  16  18
HETATM   18  C7  UNL     1      80.515   2.026  -5.638  1.00  0.00     0.141 C 
BRANCH  18  19
HETATM   19  C8  UNL     1      81.328   1.403  -4.505  1.00  0.00     0.194 C 
BRANCH  19  20
HETATM   20  O2  UNL     1      81.184   2.158  -3.353  1.00  0.00    -0.399 OA
ATOM     21  H2  UNL     1      81.962   2.685  -3.214  1.00  0.00     0.209 HD
ENDBRANCH  19  20
ENDBRANCH  18  19
BRANCH  18  22
HETATM   22  C9  UNL     1      81.390   2.422  -6.759  1.00  0.00    -0.033 A 
HETATM   23  C10 UNL     1      81.101   3.561  -7.470  1.00  0.00     0.009 A 
HETATM   24  C11 UNL     1      81.883   3.976  -8.529  1.00  0.00     0.001 A 
HETATM   25  C12 UNL     1      82.988   3.251  -8.907  1.00  0.00     0.000 A 
HETATM   26  C13 UNL     1      83.292   2.106  -8.204  1.00  0.00     0.001 A 
HETATM   27  C14 UNL     1      82.495   1.690  -7.132  1.00  0.00     0.009 A 
ENDBRANCH  18  22
ENDBRANCH  16  18
ENDBRANCH   2  14
BRANCH   1  28
HETATM   28  C2  UNL     1      77.117   5.413  -7.013  1.00  0.00     0.030 C 
HETATM   29  C1  UNL     1      75.948   5.830  -7.847  1.00  0.00     0.016 C 
HETATM   30  C3  UNL     1      78.395   6.011  -7.609  1.00  0.00     0.016 C 
ENDBRANCH   1  28
BRANCH  13  31
HETATM   31  C22 UNL     1      75.901   7.596  -4.946  1.00  0.00     0.133 C 
BRANCH  31  32
HETATM   32  C23 UNL     1      76.748   8.820  -4.919  1.00  0.00     0.052 C 
BRANCH  32  33
HETATM   33  C24 UNL     1      77.553   9.104  -6.189  1.00  0.00     0.122 C 
BRANCH  33  34
HETATM   34  O3  UNL     1      77.223  10.420  -6.561  1.00  0.00    -0.395 OA
ATOM     35  H3  UNL     1      76.772  10.346  -7.394  1.00  0.00     0.210 HD
ENDBRANCH  33  34
BRANCH  33  36
HETATM   36  C25 UNL     1      78.994   9.076  -5.871  1.00  0.00     0.064 C 
BRANCH  36  37
HETATM   37  C26 UNL     1      79.421   8.596  -4.561  1.00  0.00     0.130 C 
BRANCH  37  38
HETATM   38  O4  UNL     1      79.937   7.249  -4.825  1.00  0.00    -0.395 OA
ATOM     39  H4  UNL     1      79.538   6.711  -4.150  1.00  0.00     0.210 HD
ENDBRANCH  37  38
BRANCH  37  40
HETATM   40  C27 UNL     1      80.516   9.243  -3.821  1.00  0.00     0.144 C 
BRANCH  40  41
HETATM   41  C28 UNL     1      81.795   8.543  -3.706  1.00  0.00     0.175 C 
HETATM   42  O5  UNL     1      82.159   7.924  -2.662  1.00  0.00    -0.648 OA
HETATM   43  O6  UNL     1      82.684   8.528  -4.764  1.00  0.00    -0.648 OA
ENDBRANCH  40  41
ENDBRANCH  37  40
ENDBRANCH  36  37
ENDBRANCH  33  36
ENDBRANCH  32  33
ENDBRANCH  31  32
ENDBRANCH  13  31
TORSDOF 15
ENDMDL
