MODEL 9
REMARK VINA RESULT: -8.258216189      4.209      7.916
REMARK  14 active torsions:
REMARK  status: ('A' for Active; 'I' for Inactive)
REMARK    1  A    between atoms: C2_2  and  N1_4 
REMARK    2  A    between atoms: C4_5  and  C5_6 
REMARK       I    between atoms: C5_6  and  N2_8 
REMARK    3  A    between atoms: N2_8  and  C6_10 
REMARK    4  A    between atoms: C6_10  and  C7_11 
REMARK    5  A    between atoms: C13_20  and  C14_21 
REMARK    6  A    between atoms: C20_28  and  C21_29 
REMARK    7  A    between atoms: C21_29  and  C22_30 
REMARK    8  A    between atoms: C22_30  and  C23_31 
REMARK    9  A    between atoms: C23_31  and  O2_32 
REMARK   10  A    between atoms: C23_31  and  C24_34 
REMARK   11  A    between atoms: C24_34  and  C25_35 
REMARK   12  A    between atoms: C25_35  and  O3_36 
REMARK   13  A    between atoms: C25_35  and  C26_38 
REMARK   14  A    between atoms: C26_38  and  C27_39 
ROOT
HETATM    1  N1  UNL     1     -15.666   6.691  45.620  1.00  0.00    -0.326 N 
HETATM    2  C4  UNL     1     -16.025   7.565  46.616  1.00  0.00     0.178 A 
HETATM    3  N3  UNL     1     -15.041   8.461  46.767  1.00  0.00    -0.335 N 
ATOM      4  H3  UNL     1     -15.048   9.223  47.445  1.00  0.00     0.168 HD
HETATM    5  C13 UNL     1     -14.051   8.217  45.907  1.00  0.00     0.067 A 
HETATM    6  C20 UNL     1     -14.452   7.119  45.188  1.00  0.00     0.045 A 
ENDROOT
BRANCH   6   7
HETATM    7  C21 UNL     1     -13.757   6.556  44.013  1.00  0.00     0.089 C 
BRANCH   7   8
HETATM    8  C22 UNL     1     -13.967   7.204  42.705  1.00  0.00     0.011 C 
BRANCH   8   9
HETATM    9  C23 UNL     1     -12.871   7.453  41.756  1.00  0.00     0.042 C 
BRANCH   9  10
HETATM   10  O2  UNL     1     -11.764   6.648  41.853  1.00  0.00    -0.365 OA
ATOM     11  H2  UNL     1     -11.345   6.387  41.042  1.00  0.00     0.217 HD
ENDBRANCH   9  10
BRANCH   9  12
HETATM   12  C24 UNL     1     -13.300   7.776  40.345  1.00  0.00     0.096 C 
BRANCH  12  13
HETATM   13  C25 UNL     1     -12.710   9.076  39.866  1.00  0.00     0.134 C 
BRANCH  13  14
HETATM   14  O3  UNL     1     -13.005   9.261  38.500  1.00  0.00    -0.395 OA
ATOM     15  H3  UNL     1     -12.266   9.666  38.062  1.00  0.00     0.210 HD
ENDBRANCH  13  14
BRANCH  13  16
HETATM   16  C26 UNL     1     -13.208  10.279  40.612  1.00  0.00     0.145 C 
BRANCH  16  17
HETATM   17  C27 UNL     1     -13.599  11.306  39.568  1.00  0.00     0.175 C 
HETATM   18  O4  UNL     1     -12.718  11.983  39.040  1.00  0.00    -0.648 OA
HETATM   19  O5  UNL     1     -14.927  11.441  39.246  1.00  0.00    -0.648 OA
ENDBRANCH  16  17
ENDBRANCH  13  16
ENDBRANCH  12  13
ENDBRANCH   9  12
ENDBRANCH   8   9
ENDBRANCH   7   8
ENDBRANCH   6   7
BRANCH   1  20
HETATM   20  C2  UNL     1     -16.448   5.535  45.293  1.00  0.00     0.083 C 
HETATM   21  C1  UNL     1     -15.478   4.316  45.118  1.00  0.00     0.032 C 
HETATM   22  C3  UNL     1     -17.170   5.556  43.968  1.00  0.00     0.032 C 
ENDBRANCH   1  20
BRANCH   5  23
HETATM   23  C14 UNL     1     -12.718   8.881  45.988  1.00  0.00    -0.007 A 
HETATM   24  C15 UNL     1     -12.592   9.835  47.014  1.00  0.00     0.017 A 
HETATM   25  C16 UNL     1     -11.454  10.561  47.237  1.00  0.00     0.043 A 
HETATM   26  C17 UNL     1     -10.394  10.313  46.390  1.00  0.00     0.116 A 
HETATM   27  F2  UNL     1      -9.252  11.011  46.596  1.00  0.00    -0.206 F 
HETATM   28  C18 UNL     1     -10.485   9.387  45.374  1.00  0.00     0.043 A 
HETATM   29  C19 UNL     1     -11.671   8.666  45.180  1.00  0.00     0.017 A 
ENDBRANCH   5  23
BRANCH   2  30
HETATM   30  C5  UNL     1     -17.247   7.679  47.383  1.00  0.00     0.286 C 
HETATM   31  O1  UNL     1     -18.341   7.850  46.845  1.00  0.00    -0.264 OA
HETATM   32  N2  UNL     1     -17.252   7.601  48.810  1.00  0.00    -0.350 N 
ATOM     33  H2  UNL     1     -16.365   7.465  49.294  1.00  0.00     0.163 HD
BRANCH  32  34
HETATM   34  C6  UNL     1     -18.463   7.706  49.600  1.00  0.00     0.161 C 
BRANCH  34  35
HETATM   35  C7  UNL     1     -19.154   6.422  49.719  1.00  0.00    -0.040 A 
HETATM   36  C8  UNL     1     -18.481   5.275  50.181  1.00  0.00     0.012 A 
HETATM   37  C9  UNL     1     -19.202   4.134  50.259  1.00  0.00     0.043 A 
HETATM   38  C10 UNL     1     -20.543   4.024  49.914  1.00  0.00     0.116 A 
HETATM   39  F1  UNL     1     -21.194   2.850  50.029  1.00  0.00    -0.206 F 
HETATM   40  C11 UNL     1     -21.197   5.177  49.454  1.00  0.00     0.043 A 
HETATM   41  C12 UNL     1     -20.480   6.321  49.376  1.00  0.00     0.012 A 
ENDBRANCH  34  35
ENDBRANCH  32  34
ENDBRANCH   2  30
TORSDOF 14
ENDMDL
