MODEL 1
REMARK VINA RESULT: -8.732137849      0.000      0.000
REMARK  14 active torsions:
REMARK  status: ('A' for Active; 'I' for Inactive)
REMARK    1  A    between atoms: C2_2  and  N1_4 
REMARK    2  A    between atoms: C4_5  and  C5_6 
REMARK       I    between atoms: C5_6  and  N2_8 
REMARK    3  A    between atoms: N2_8  and  C6_10 
REMARK    4  A    between atoms: C6_10  and  C7_11 
REMARK    5  A    between atoms: C13_20  and  C14_21 
REMARK    6  A    between atoms: C20_28  and  C21_29 
REMARK    7  A    between atoms: C21_29  and  C22_30 
REMARK    8  A    between atoms: C22_30  and  C23_31 
REMARK    9  A    between atoms: C23_31  and  O2_32 
REMARK   10  A    between atoms: C23_31  and  C24_34 
REMARK   11  A    between atoms: C24_34  and  C25_35 
REMARK   12  A    between atoms: C25_35  and  O3_36 
REMARK   13  A    between atoms: C25_35  and  C26_38 
REMARK   14  A    between atoms: C26_38  and  C27_39 
ROOT
HETATM    1  N1  UNL     1     -11.627   7.835  46.220  1.00  0.00    -0.326 N 
HETATM    2  C4  UNL     1     -11.691   6.819  47.142  1.00  0.00     0.178 A 
HETATM    3  N3  UNL     1     -12.979   6.514  47.346  1.00  0.00    -0.335 N 
ATOM      4  H3  UNL     1     -13.310   5.794  47.988  1.00  0.00     0.168 HD
HETATM    5  C13 UNL     1     -13.767   7.283  46.593  1.00  0.00     0.067 A 
HETATM    6  C20 UNL     1     -12.917   8.097  45.886  1.00  0.00     0.045 A 
ENDROOT
BRANCH   6   7
HETATM    7  C21 UNL     1     -13.310   9.024  44.806  1.00  0.00     0.089 C 
BRANCH   7   8
HETATM    8  C22 UNL     1     -13.797   8.447  43.538  1.00  0.00     0.011 C 
BRANCH   8   9
HETATM    9  C23 UNL     1     -12.999   7.511  42.733  1.00  0.00     0.042 C 
BRANCH   9  10
HETATM   10  O2  UNL     1     -13.253   6.172  42.894  1.00  0.00    -0.365 OA
ATOM     11  H2  UNL     1     -13.132   5.614  42.135  1.00  0.00     0.217 HD
ENDBRANCH   9  10
BRANCH   9  12
HETATM   12  C24 UNL     1     -12.740   7.942  41.309  1.00  0.00     0.096 C 
BRANCH  12  13
HETATM   13  C25 UNL     1     -13.041   9.403  41.105  1.00  0.00     0.134 C 
BRANCH  13  14
HETATM   14  O3  UNL     1     -11.883  10.170  41.346  1.00  0.00    -0.395 OA
ATOM     15  H3  UNL     1     -12.124  11.070  41.529  1.00  0.00     0.210 HD
ENDBRANCH  13  14
BRANCH  13  16
HETATM   16  C26 UNL     1     -13.534   9.733  39.726  1.00  0.00     0.145 C 
BRANCH  16  17
HETATM   17  C27 UNL     1     -13.591  11.245  39.636  1.00  0.00     0.175 C 
HETATM   18  O4  UNL     1     -14.496  11.842  40.219  1.00  0.00    -0.648 OA
HETATM   19  O5  UNL     1     -12.625  11.896  38.909  1.00  0.00    -0.648 OA
ENDBRANCH  16  17
ENDBRANCH  13  16
ENDBRANCH  12  13
ENDBRANCH   9  12
ENDBRANCH   8   9
ENDBRANCH   7   8
ENDBRANCH   6   7
BRANCH   1  20
HETATM   20  C2  UNL     1     -10.396   8.480  45.870  1.00  0.00     0.083 C 
HETATM   21  C1  UNL     1     -10.513  10.000  46.234  1.00  0.00     0.032 C 
HETATM   22  C3  UNL     1     -10.050   8.533  44.402  1.00  0.00     0.032 C 
ENDBRANCH   1  20
BRANCH   5  23
HETATM   23  C14 UNL     1     -15.246   7.356  46.771  1.00  0.00    -0.007 A 
HETATM   24  C15 UNL     1     -15.983   6.454  45.982  1.00  0.00     0.017 A 
HETATM   25  C16 UNL     1     -17.349   6.383  45.992  1.00  0.00     0.043 A 
HETATM   26  C17 UNL     1     -18.002   7.257  46.836  1.00  0.00     0.116 A 
HETATM   27  F2  UNL     1     -19.355   7.199  46.871  1.00  0.00    -0.206 F 
HETATM   28  C18 UNL     1     -17.310   8.154  47.620  1.00  0.00     0.043 A 
HETATM   29  C19 UNL     1     -15.910   8.195  47.578  1.00  0.00     0.017 A 
ENDBRANCH   5  23
BRANCH   2  30
HETATM   30  C5  UNL     1     -10.643   6.056  47.785  1.00  0.00     0.286 C 
HETATM   31  O1  UNL     1     -10.529   6.008  49.010  1.00  0.00    -0.264 OA
HETATM   32  N2  UNL     1      -9.680   5.314  47.033  1.00  0.00    -0.350 N 
ATOM     33  H2  UNL     1      -9.737   5.332  46.015  1.00  0.00     0.163 HD
BRANCH  32  34
HETATM   34  C6  UNL     1      -8.625   4.536  47.653  1.00  0.00     0.161 C 
BRANCH  34  35
HETATM   35  C7  UNL     1      -7.799   3.844  46.663  1.00  0.00    -0.040 A 
HETATM   36  C8  UNL     1      -7.378   4.494  45.488  1.00  0.00     0.012 A 
HETATM   37  C9  UNL     1      -6.616   3.776  44.633  1.00  0.00     0.043 A 
HETATM   38  C10 UNL     1      -6.231   2.457  44.838  1.00  0.00     0.116 A 
HETATM   39  F1  UNL     1      -5.461   1.812  43.941  1.00  0.00    -0.206 F 
HETATM   40  C11 UNL     1      -6.661   1.825  46.015  1.00  0.00     0.043 A 
HETATM   41  C12 UNL     1      -7.423   2.541  46.874  1.00  0.00     0.012 A 
ENDBRANCH  34  35
ENDBRANCH  32  34
ENDBRANCH   2  30
TORSDOF 14
ENDMDL
