MODEL 6
REMARK VINA RESULT: -8.398634004      1.497      2.252
REMARK  14 active torsions:
REMARK  status: ('A' for Active; 'I' for Inactive)
REMARK    1  A    between atoms: C2_2  and  N1_4 
REMARK    2  A    between atoms: C4_5  and  C5_6 
REMARK       I    between atoms: C5_6  and  N2_8 
REMARK    3  A    between atoms: N2_8  and  C6_10 
REMARK    4  A    between atoms: C6_10  and  C7_11 
REMARK    5  A    between atoms: C13_20  and  C14_21 
REMARK    6  A    between atoms: C20_28  and  C21_29 
REMARK    7  A    between atoms: C21_29  and  C22_30 
REMARK    8  A    between atoms: C22_30  and  C23_31 
REMARK    9  A    between atoms: C23_31  and  O2_32 
REMARK   10  A    between atoms: C23_31  and  C24_34 
REMARK   11  A    between atoms: C24_34  and  C25_35 
REMARK   12  A    between atoms: C25_35  and  O3_36 
REMARK   13  A    between atoms: C25_35  and  C26_38 
REMARK   14  A    between atoms: C26_38  and  C27_39 
ROOT
HETATM    1  N1  UNL     1     -12.059   8.254  47.069  1.00  0.00    -0.326 N 
HETATM    2  C4  UNL     1     -11.718   6.925  47.113  1.00  0.00     0.178 A 
HETATM    3  N3  UNL     1     -12.581   6.241  46.351  1.00  0.00    -0.335 N 
ATOM      4  H3  UNL     1     -12.558   5.231  46.210  1.00  0.00     0.168 HD
HETATM    5  C13 UNL     1     -13.474   7.065  45.800  1.00  0.00     0.067 A 
HETATM    6  C20 UNL     1     -13.136   8.320  46.244  1.00  0.00     0.045 A 
ENDROOT
BRANCH   6   7
HETATM    7  C21 UNL     1     -13.742   9.587  45.789  1.00  0.00     0.089 C 
BRANCH   7   8
HETATM    8  C22 UNL     1     -13.084  10.317  44.689  1.00  0.00     0.011 C 
BRANCH   8   9
HETATM    9  C23 UNL     1     -13.770  10.647  43.431  1.00  0.00     0.042 C 
BRANCH   9  10
HETATM   10  O2  UNL     1     -13.543  11.892  42.901  1.00  0.00    -0.365 OA
ATOM     11  H2  UNL     1     -14.289  12.474  42.827  1.00  0.00     0.217 HD
ENDBRANCH   9  10
BRANCH   9  12
HETATM   12  C24 UNL     1     -13.837   9.528  42.420  1.00  0.00     0.096 C 
BRANCH  12  13
HETATM   13  C25 UNL     1     -12.823   9.707  41.321  1.00  0.00     0.134 C 
BRANCH  13  14
HETATM   14  O3  UNL     1     -11.908   8.635  41.334  1.00  0.00    -0.395 OA
ATOM     15  H3  UNL     1     -11.170   8.847  41.894  1.00  0.00     0.210 HD
ENDBRANCH  13  14
BRANCH  13  16
HETATM   16  C26 UNL     1     -13.425   9.783  39.948  1.00  0.00     0.145 C 
BRANCH  16  17
HETATM   17  C27 UNL     1     -13.598  11.256  39.632  1.00  0.00     0.175 C 
HETATM   18  O4  UNL     1     -14.607  11.836  40.031  1.00  0.00    -0.648 OA
HETATM   19  O5  UNL     1     -12.617  11.892  38.912  1.00  0.00    -0.648 OA
ENDBRANCH  16  17
ENDBRANCH  13  16
ENDBRANCH  12  13
ENDBRANCH   9  12
ENDBRANCH   8   9
ENDBRANCH   7   8
ENDBRANCH   6   7
BRANCH   1  20
HETATM   20  C2  UNL     1     -11.408   9.243  47.876  1.00  0.00     0.083 C 
HETATM   21  C1  UNL     1     -12.490   9.947  48.765  1.00  0.00     0.032 C 
HETATM   22  C3  UNL     1     -10.788  10.412  47.150  1.00  0.00     0.032 C 
ENDBRANCH   1  20
BRANCH   5  23
HETATM   23  C14 UNL     1     -14.702   6.588  45.102  1.00  0.00    -0.007 A 
HETATM   24  C15 UNL     1     -15.842   6.477  45.917  1.00  0.00     0.017 A 
HETATM   25  C16 UNL     1     -17.057   6.040  45.463  1.00  0.00     0.043 A 
HETATM   26  C17 UNL     1     -17.126   5.703  44.128  1.00  0.00     0.116 A 
HETATM   27  F2  UNL     1     -18.321   5.278  43.651  1.00  0.00    -0.206 F 
HETATM   28  C18 UNL     1     -16.028   5.799  43.302  1.00  0.00     0.043 A 
HETATM   29  C19 UNL     1     -14.801   6.250  43.809  1.00  0.00     0.017 A 
ENDBRANCH   5  23
BRANCH   2  30
HETATM   30  C5  UNL     1     -10.603   6.253  47.745  1.00  0.00     0.286 C 
HETATM   31  O1  UNL     1     -10.508   6.155  48.968  1.00  0.00    -0.264 OA
HETATM   32  N2  UNL     1      -9.546   5.665  46.982  1.00  0.00    -0.350 N 
ATOM     33  H2  UNL     1      -9.586   5.729  45.965  1.00  0.00     0.163 HD
BRANCH  32  34
HETATM   34  C6  UNL     1      -8.422   4.981  47.590  1.00  0.00     0.161 C 
BRANCH  34  35
HETATM   35  C7  UNL     1      -7.771   4.059  46.659  1.00  0.00    -0.040 A 
HETATM   36  C8  UNL     1      -7.470   2.737  47.037  1.00  0.00     0.012 A 
HETATM   37  C9  UNL     1      -6.870   1.957  46.110  1.00  0.00     0.043 A 
HETATM   38  C10 UNL     1      -6.536   2.375  44.827  1.00  0.00     0.116 A 
HETATM   39  F1  UNL     1      -5.948   1.533  43.956  1.00  0.00    -0.206 F 
HETATM   40  C11 UNL     1      -6.844   3.696  44.468  1.00  0.00     0.043 A 
HETATM   41  C12 UNL     1      -7.445   4.478  45.393  1.00  0.00     0.012 A 
ENDBRANCH  34  35
ENDBRANCH  32  34
ENDBRANCH   2  30
TORSDOF 14
ENDMDL
