MODEL 5
REMARK VINA RESULT: -8.426176740      4.002      7.987
REMARK  14 active torsions:
REMARK  status: ('A' for Active; 'I' for Inactive)
REMARK    1  A    between atoms: C2_2  and  N1_4 
REMARK    2  A    between atoms: C4_5  and  C5_6 
REMARK       I    between atoms: C5_6  and  N2_8 
REMARK    3  A    between atoms: N2_8  and  C6_10 
REMARK    4  A    between atoms: C6_10  and  C7_11 
REMARK    5  A    between atoms: C13_20  and  C14_21 
REMARK    6  A    between atoms: C20_28  and  C21_29 
REMARK    7  A    between atoms: C21_29  and  C22_30 
REMARK    8  A    between atoms: C22_30  and  C23_31 
REMARK    9  A    between atoms: C23_31  and  O2_32 
REMARK   10  A    between atoms: C23_31  and  C24_34 
REMARK   11  A    between atoms: C24_34  and  C25_35 
REMARK   12  A    between atoms: C25_35  and  O3_36 
REMARK   13  A    between atoms: C25_35  and  C26_38 
REMARK   14  A    between atoms: C26_38  and  C27_39 
ROOT
HETATM    1  N1  UNL     1     -15.887   6.638  45.710  1.00  0.00    -0.326 N 
HETATM    2  C4  UNL     1     -16.201   7.499  46.733  1.00  0.00     0.178 A 
HETATM    3  N3  UNL     1     -15.174   8.340  46.907  1.00  0.00    -0.335 N 
ATOM      4  H3  UNL     1     -15.142   9.082  47.607  1.00  0.00     0.168 HD
HETATM    5  C13 UNL     1     -14.198   8.074  46.038  1.00  0.00     0.067 A 
HETATM    6  C20 UNL     1     -14.654   7.018  45.288  1.00  0.00     0.045 A 
ENDROOT
BRANCH   6   7
HETATM    7  C21 UNL     1     -13.989   6.456  44.095  1.00  0.00     0.089 C 
BRANCH   7   8
HETATM    8  C22 UNL     1     -13.753   7.350  42.945  1.00  0.00     0.011 C 
BRANCH   8   9
HETATM    9  C23 UNL     1     -12.407   7.654  42.438  1.00  0.00     0.042 C 
BRANCH   9  10
HETATM   10  O2  UNL     1     -11.873   6.787  41.519  1.00  0.00    -0.365 OA
ATOM     11  H2  UNL     1     -11.256   7.145  40.892  1.00  0.00     0.217 HD
ENDBRANCH   9  10
BRANCH   9  12
HETATM   12  C24 UNL     1     -12.134   9.114  42.168  1.00  0.00     0.096 C 
BRANCH  12  13
HETATM   13  C25 UNL     1     -13.351   9.821  41.635  1.00  0.00     0.134 C 
BRANCH  13  14
HETATM   14  O3  UNL     1     -13.297  11.189  41.972  1.00  0.00    -0.395 OA
ATOM     15  H3  UNL     1     -13.980  11.394  42.600  1.00  0.00     0.210 HD
ENDBRANCH  13  14
BRANCH  13  16
HETATM   16  C26 UNL     1     -13.508   9.719  40.146  1.00  0.00     0.145 C 
BRANCH  16  17
HETATM   17  C27 UNL     1     -13.832  11.114  39.647  1.00  0.00     0.175 C 
HETATM   18  O4  UNL     1     -14.996  11.508  39.696  1.00  0.00    -0.648 OA
HETATM   19  O5  UNL     1     -12.809  11.890  39.161  1.00  0.00    -0.648 OA
ENDBRANCH  16  17
ENDBRANCH  13  16
ENDBRANCH  12  13
ENDBRANCH   9  12
ENDBRANCH   8   9
ENDBRANCH   7   8
ENDBRANCH   6   7
BRANCH   1  20
HETATM   20  C2  UNL     1     -16.725   5.532  45.352  1.00  0.00     0.083 C 
HETATM   21  C1  UNL     1     -15.834   4.245  45.261  1.00  0.00     0.032 C 
HETATM   22  C3  UNL     1     -17.357   5.575  43.982  1.00  0.00     0.032 C 
ENDBRANCH   1  20
BRANCH   5  23
HETATM   23  C14 UNL     1     -12.834   8.668  46.135  1.00  0.00    -0.007 A 
HETATM   24  C15 UNL     1     -12.806  10.067  46.275  1.00  0.00     0.017 A 
HETATM   25  C16 UNL     1     -11.651  10.796  46.361  1.00  0.00     0.043 A 
HETATM   26  C17 UNL     1     -10.471  10.083  46.307  1.00  0.00     0.116 A 
HETATM   27  F2  UNL     1      -9.314  10.779  46.401  1.00  0.00    -0.206 F 
HETATM   28  C18 UNL     1     -10.464   8.712  46.168  1.00  0.00     0.043 A 
HETATM   29  C19 UNL     1     -11.671   8.005  46.081  1.00  0.00     0.017 A 
ENDBRANCH   5  23
BRANCH   2  30
HETATM   30  C5  UNL     1     -17.415   7.651  47.506  1.00  0.00     0.286 C 
HETATM   31  O1  UNL     1     -17.583   8.595  48.278  1.00  0.00    -0.264 OA
HETATM   32  N2  UNL     1     -18.489   6.711  47.416  1.00  0.00    -0.350 N 
ATOM     33  H2  UNL     1     -18.385   5.911  46.791  1.00  0.00     0.163 HD
BRANCH  32  34
HETATM   34  C6  UNL     1     -19.717   6.844  48.175  1.00  0.00     0.161 C 
BRANCH  34  35
HETATM   35  C7  UNL     1     -20.032   5.628  48.926  1.00  0.00    -0.040 A 
HETATM   36  C8  UNL     1     -21.366   5.219  49.118  1.00  0.00     0.012 A 
HETATM   37  C9  UNL     1     -21.560   4.082  49.823  1.00  0.00     0.043 A 
HETATM   38  C10 UNL     1     -20.541   3.306  50.363  1.00  0.00     0.116 A 
HETATM   39  F1  UNL     1     -20.817   2.179  51.046  1.00  0.00    -0.206 F 
HETATM   40  C11 UNL     1     -19.219   3.730  50.162  1.00  0.00     0.043 A 
HETATM   41  C12 UNL     1     -19.021   4.867  49.456  1.00  0.00     0.012 A 
ENDBRANCH  34  35
ENDBRANCH  32  34
ENDBRANCH   2  30
TORSDOF 14
ENDMDL
