MODEL 3
REMARK VINA RESULT: -8.451779520      4.591      8.066
REMARK  14 active torsions:
REMARK  status: ('A' for Active; 'I' for Inactive)
REMARK    1  A    between atoms: C2_2  and  N1_4 
REMARK    2  A    between atoms: C4_5  and  C5_6 
REMARK       I    between atoms: C5_6  and  N2_8 
REMARK    3  A    between atoms: N2_8  and  C6_10 
REMARK    4  A    between atoms: C6_10  and  C7_11 
REMARK    5  A    between atoms: C13_20  and  C14_21 
REMARK    6  A    between atoms: C20_28  and  C21_29 
REMARK    7  A    between atoms: C21_29  and  C22_30 
REMARK    8  A    between atoms: C22_30  and  C23_31 
REMARK    9  A    between atoms: C23_31  and  O2_32 
REMARK   10  A    between atoms: C23_31  and  C24_34 
REMARK   11  A    between atoms: C24_34  and  C25_35 
REMARK   12  A    between atoms: C25_35  and  O3_36 
REMARK   13  A    between atoms: C25_35  and  C26_38 
REMARK   14  A    between atoms: C26_38  and  C27_39 
ROOT
HETATM    1  N1  UNL     1     -16.025   6.480  45.768  1.00  0.00    -0.326 N 
HETATM    2  C4  UNL     1     -16.829   7.217  46.602  1.00  0.00     0.178 A 
HETATM    3  N3  UNL     1     -16.122   8.259  47.060  1.00  0.00    -0.335 N 
ATOM      4  H3  UNL     1     -16.479   8.965  47.703  1.00  0.00     0.168 HD
HETATM    5  C13 UNL     1     -14.887   8.242  46.557  1.00  0.00     0.067 A 
HETATM    6  C20 UNL     1     -14.836   7.137  45.744  1.00  0.00     0.045 A 
ENDROOT
BRANCH   6   7
HETATM    7  C21 UNL     1     -13.720   6.775  44.848  1.00  0.00     0.089 C 
BRANCH   7   8
HETATM    8  C22 UNL     1     -13.596   7.494  43.566  1.00  0.00     0.011 C 
BRANCH   8   9
HETATM    9  C23 UNL     1     -12.316   7.639  42.857  1.00  0.00     0.042 C 
BRANCH   9  10
HETATM   10  O2  UNL     1     -11.974   6.646  41.974  1.00  0.00    -0.365 OA
ATOM     11  H2  UNL     1     -11.328   6.859  41.311  1.00  0.00     0.217 HD
ENDBRANCH   9  10
BRANCH   9  12
HETATM   12  C24 UNL     1     -11.988   9.039  42.397  1.00  0.00     0.096 C 
BRANCH  12  13
HETATM   13  C25 UNL     1     -13.216   9.780  41.938  1.00  0.00     0.134 C 
BRANCH  13  14
HETATM   14  O3  UNL     1     -13.103  11.146  42.268  1.00  0.00    -0.395 OA
ATOM     15  H3  UNL     1     -13.029  11.245  43.210  1.00  0.00     0.210 HD
ENDBRANCH  13  14
BRANCH  13  16
HETATM   16  C26 UNL     1     -13.469   9.680  40.463  1.00  0.00     0.145 C 
BRANCH  16  17
HETATM   17  C27 UNL     1     -13.916  11.054  40.005  1.00  0.00     0.175 C 
HETATM   18  O4  UNL     1     -15.048  11.439  40.295  1.00  0.00    -0.648 OA
HETATM   19  O5  UNL     1     -13.036  11.825  39.285  1.00  0.00    -0.648 OA
ENDBRANCH  16  17
ENDBRANCH  13  16
ENDBRANCH  12  13
ENDBRANCH   9  12
ENDBRANCH   8   9
ENDBRANCH   7   8
ENDBRANCH   6   7
BRANCH   1  20
HETATM   20  C2  UNL     1     -16.441   5.230  45.206  1.00  0.00     0.083 C 
HETATM   21  C1  UNL     1     -15.211   4.258  45.198  1.00  0.00     0.032 C 
HETATM   22  C3  UNL     1     -16.845   5.239  43.752  1.00  0.00     0.032 C 
ENDBRANCH   1  20
BRANCH   5  23
HETATM   23  C14 UNL     1     -13.790   9.120  47.059  1.00  0.00    -0.007 A 
HETATM   24  C15 UNL     1     -13.338   8.820  48.357  1.00  0.00     0.017 A 
HETATM   25  C16 UNL     1     -12.353   9.523  48.995  1.00  0.00     0.043 A 
HETATM   26  C17 UNL     1     -11.796  10.572  48.294  1.00  0.00     0.116 A 
HETATM   27  F2  UNL     1     -10.812  11.277  48.900  1.00  0.00    -0.206 F 
HETATM   28  C18 UNL     1     -12.218  10.893  47.022  1.00  0.00     0.043 A 
HETATM   29  C19 UNL     1     -13.232  10.148  46.406  1.00  0.00     0.017 A 
ENDBRANCH   5  23
BRANCH   2  30
HETATM   30  C5  UNL     1     -18.228   7.072  46.942  1.00  0.00     0.286 C 
HETATM   31  O1  UNL     1     -19.117   7.140  46.093  1.00  0.00    -0.264 OA
HETATM   32  N2  UNL     1     -18.658   6.842  48.286  1.00  0.00    -0.350 N 
ATOM     33  H2  UNL     1     -17.952   6.785  49.020  1.00  0.00     0.163 HD
BRANCH  32  34
HETATM   34  C6  UNL     1     -20.052   6.687  48.652  1.00  0.00     0.161 C 
BRANCH  34  35
HETATM   35  C7  UNL     1     -20.310   5.400  49.299  1.00  0.00    -0.040 A 
HETATM   36  C8  UNL     1     -19.250   4.582  49.736  1.00  0.00     0.012 A 
HETATM   37  C9  UNL     1     -19.584   3.412  50.325  1.00  0.00     0.043 A 
HETATM   38  C10 UNL     1     -20.888   2.973  50.521  1.00  0.00     0.116 A 
HETATM   39  F1  UNL     1     -21.139   1.797  51.126  1.00  0.00    -0.206 F 
HETATM   40  C11 UNL     1     -21.931   3.801  50.078  1.00  0.00     0.043 A 
HETATM   41  C12 UNL     1     -21.600   4.974  49.490  1.00  0.00     0.012 A 
ENDBRANCH  34  35
ENDBRANCH  32  34
ENDBRANCH   2  30
TORSDOF 14
ENDMDL
