MODEL 15
REMARK VINA RESULT: -7.808777733      4.370      7.762
REMARK  14 active torsions:
REMARK  status: ('A' for Active; 'I' for Inactive)
REMARK    1  A    between atoms: C2_2  and  N1_4 
REMARK    2  A    between atoms: C4_5  and  C5_6 
REMARK       I    between atoms: C5_6  and  N2_8 
REMARK    3  A    between atoms: N2_8  and  C6_10 
REMARK    4  A    between atoms: C6_10  and  C7_11 
REMARK    5  A    between atoms: C13_20  and  C14_21 
REMARK    6  A    between atoms: C20_28  and  C21_29 
REMARK    7  A    between atoms: C21_29  and  C22_30 
REMARK    8  A    between atoms: C22_30  and  C23_31 
REMARK    9  A    between atoms: C23_31  and  O2_32 
REMARK   10  A    between atoms: C23_31  and  C24_34 
REMARK   11  A    between atoms: C24_34  and  C25_35 
REMARK   12  A    between atoms: C25_35  and  O3_36 
REMARK   13  A    between atoms: C25_35  and  C26_38 
REMARK   14  A    between atoms: C26_38  and  C27_39 
ROOT
HETATM    1  N1  UNL     1     -15.042   6.780  46.898  1.00  0.00    -0.326 N 
HETATM    2  C4  UNL     1     -15.286   7.345  48.126  1.00  0.00     0.178 A 
HETATM    3  N3  UNL     1     -14.999   8.651  48.056  1.00  0.00    -0.335 N 
ATOM      4  H3  UNL     1     -15.088   9.308  48.831  1.00  0.00     0.168 HD
HETATM    5  C13 UNL     1     -14.580   8.972  46.831  1.00  0.00     0.067 A 
HETATM    6  C20 UNL     1     -14.619   7.804  46.111  1.00  0.00     0.045 A 
ENDROOT
BRANCH   6   7
HETATM    7  C21 UNL     1     -14.388   7.676  44.659  1.00  0.00     0.089 C 
BRANCH   7   8
HETATM    8  C22 UNL     1     -12.997   7.540  44.186  1.00  0.00     0.011 C 
BRANCH   8   9
HETATM    9  C23 UNL     1     -12.622   7.674  42.771  1.00  0.00     0.042 C 
BRANCH   9  10
HETATM   10  O2  UNL     1     -12.005   6.599  42.182  1.00  0.00    -0.365 OA
ATOM     11  H2  UNL     1     -11.607   6.740  41.331  1.00  0.00     0.217 HD
ENDBRANCH   9  10
BRANCH   9  12
HETATM   12  C24 UNL     1     -13.631   8.383  41.900  1.00  0.00     0.096 C 
BRANCH  12  13
HETATM   13  C25 UNL     1     -13.086   9.675  41.352  1.00  0.00     0.134 C 
BRANCH  13  14
HETATM   14  O3  UNL     1     -11.714   9.783  41.655  1.00  0.00    -0.395 OA
ATOM     15  H3  UNL     1     -11.542  10.615  42.082  1.00  0.00     0.210 HD
ENDBRANCH  13  14
BRANCH  13  16
HETATM   16  C26 UNL     1     -13.243   9.817  39.866  1.00  0.00     0.145 C 
BRANCH  16  17
HETATM   17  C27 UNL     1     -13.507  11.285  39.596  1.00  0.00     0.175 C 
HETATM   18  O4  UNL     1     -12.710  11.916  38.902  1.00  0.00    -0.648 OA
HETATM   19  O5  UNL     1     -14.632  11.859  40.135  1.00  0.00    -0.648 OA
ENDBRANCH  16  17
ENDBRANCH  13  16
ENDBRANCH  12  13
ENDBRANCH   9  12
ENDBRANCH   8   9
ENDBRANCH   7   8
ENDBRANCH   6   7
BRANCH   1  20
HETATM   20  C2  UNL     1     -15.132   5.369  46.669  1.00  0.00     0.083 C 
HETATM   21  C1  UNL     1     -13.719   4.846  46.237  1.00  0.00     0.032 C 
HETATM   22  C3  UNL     1     -15.999   4.922  45.517  1.00  0.00     0.032 C 
ENDBRANCH   1  20
BRANCH   5  23
HETATM   23  C14 UNL     1     -13.957  10.286  46.500  1.00  0.00    -0.007 A 
HETATM   24  C15 UNL     1     -12.737  10.544  47.152  1.00  0.00     0.017 A 
HETATM   25  C16 UNL     1     -12.024  11.701  46.991  1.00  0.00     0.043 A 
HETATM   26  C17 UNL     1     -12.562  12.638  46.135  1.00  0.00     0.116 A 
HETATM   27  F2  UNL     1     -11.870  13.788  45.950  1.00  0.00    -0.206 F 
HETATM   28  C18 UNL     1     -13.756  12.418  45.482  1.00  0.00     0.043 A 
HETATM   29  C19 UNL     1     -14.455  11.219  45.677  1.00  0.00     0.017 A 
ENDBRANCH   5  23
BRANCH   2  30
HETATM   30  C5  UNL     1     -15.844   6.779  49.335  1.00  0.00     0.286 C 
HETATM   31  O1  UNL     1     -15.179   6.652  50.363  1.00  0.00    -0.264 OA
HETATM   32  N2  UNL     1     -17.201   6.333  49.404  1.00  0.00    -0.350 N 
ATOM     33  H2  UNL     1     -17.783   6.415  48.570  1.00  0.00     0.163 HD
BRANCH  32  34
HETATM   34  C6  UNL     1     -17.785   5.768  50.605  1.00  0.00     0.161 C 
BRANCH  34  35
HETATM   35  C7  UNL     1     -19.036   5.062  50.327  1.00  0.00    -0.040 A 
HETATM   36  C8  UNL     1     -19.249   3.752  50.794  1.00  0.00     0.012 A 
HETATM   37  C9  UNL     1     -20.436   3.180  50.490  1.00  0.00     0.043 A 
HETATM   38  C10 UNL     1     -21.441   3.796  49.754  1.00  0.00     0.116 A 
HETATM   39  F1  UNL     1     -22.602   3.162  49.501  1.00  0.00    -0.206 F 
HETATM   40  C11 UNL     1     -21.210   5.102  49.295  1.00  0.00     0.043 A 
HETATM   41  C12 UNL     1     -20.024   5.677  49.599  1.00  0.00     0.012 A 
ENDBRANCH  34  35
ENDBRANCH  32  34
ENDBRANCH   2  30
TORSDOF 14
ENDMDL
