MODEL 7
REMARK VINA RESULT: -8.342034676      2.021      2.670
REMARK  14 active torsions:
REMARK  status: ('A' for Active; 'I' for Inactive)
REMARK    1  A    between atoms: C2_2  and  N1_4 
REMARK    2  A    between atoms: C4_5  and  C5_6 
REMARK       I    between atoms: C5_6  and  N2_8 
REMARK    3  A    between atoms: N2_8  and  C6_10 
REMARK    4  A    between atoms: C6_10  and  C7_11 
REMARK    5  A    between atoms: C13_20  and  C14_21 
REMARK    6  A    between atoms: C20_28  and  C21_29 
REMARK    7  A    between atoms: C21_29  and  C22_30 
REMARK    8  A    between atoms: C22_30  and  C23_31 
REMARK    9  A    between atoms: C23_31  and  O2_32 
REMARK   10  A    between atoms: C23_31  and  C24_34 
REMARK   11  A    between atoms: C24_34  and  C25_35 
REMARK   12  A    between atoms: C25_35  and  O3_36 
REMARK   13  A    between atoms: C25_35  and  C26_38 
REMARK   14  A    between atoms: C26_38  and  C27_39 
ROOT
HETATM    1  N1  UNL     1     -11.876   8.873  46.616  1.00  0.00    -0.326 N 
HETATM    2  C4  UNL     1     -11.289   7.893  45.853  1.00  0.00     0.178 A 
HETATM    3  N3  UNL     1     -12.255   7.207  45.229  1.00  0.00    -0.335 N 
ATOM      4  H3  UNL     1     -12.096   6.419  44.601  1.00  0.00     0.168 HD
HETATM    5  C13 UNL     1     -13.455   7.698  45.544  1.00  0.00     0.067 A 
HETATM    6  C20 UNL     1     -13.211   8.743  46.400  1.00  0.00     0.045 A 
ENDROOT
BRANCH   6   7
HETATM    7  C21 UNL     1     -14.218   9.696  46.908  1.00  0.00     0.089 C 
BRANCH   7   8
HETATM    8  C22 UNL     1     -14.977  10.494  45.926  1.00  0.00     0.011 C 
BRANCH   8   9
HETATM    9  C23 UNL     1     -14.335  11.191  44.802  1.00  0.00     0.042 C 
BRANCH   9  10
HETATM   10  O2  UNL     1     -13.086  11.714  45.020  1.00  0.00    -0.365 OA
ATOM     11  H2  UNL     1     -12.806  12.421  44.451  1.00  0.00     0.217 HD
ENDBRANCH   9  10
BRANCH   9  12
HETATM   12  C24 UNL     1     -14.527  10.548  43.449  1.00  0.00     0.096 C 
BRANCH  12  13
HETATM   13  C25 UNL     1     -13.844  11.328  42.357  1.00  0.00     0.134 C 
BRANCH  13  14
HETATM   14  O3  UNL     1     -12.580  10.766  42.087  1.00  0.00    -0.395 OA
ATOM     15  H3  UNL     1     -12.068  11.365  41.555  1.00  0.00     0.210 HD
ENDBRANCH  13  14
BRANCH  13  16
HETATM   16  C26 UNL     1     -14.615  11.371  41.071  1.00  0.00     0.145 C 
BRANCH  16  17
HETATM   17  C27 UNL     1     -13.662  10.927  39.979  1.00  0.00     0.175 C 
HETATM   18  O4  UNL     1     -13.068  11.782  39.323  1.00  0.00    -0.648 OA
HETATM   19  O5  UNL     1     -13.492   9.581  39.764  1.00  0.00    -0.648 OA
ENDBRANCH  16  17
ENDBRANCH  13  16
ENDBRANCH  12  13
ENDBRANCH   9  12
ENDBRANCH   8   9
ENDBRANCH   7   8
ENDBRANCH   6   7
BRANCH   1  20
HETATM   20  C2  UNL     1     -11.125   9.708  47.506  1.00  0.00     0.083 C 
HETATM   21  C1  UNL     1     -11.991   9.969  48.786  1.00  0.00     0.032 C 
HETATM   22  C3  UNL     1     -10.829  11.110  47.034  1.00  0.00     0.032 C 
ENDBRANCH   1  20
BRANCH   5  23
HETATM   23  C14 UNL     1     -14.733   7.006  45.209  1.00  0.00    -0.007 A 
HETATM   24  C15 UNL     1     -14.823   6.534  43.887  1.00  0.00     0.017 A 
HETATM   25  C16 UNL     1     -15.922   5.891  43.386  1.00  0.00     0.043 A 
HETATM   26  C17 UNL     1     -16.976   5.712  44.257  1.00  0.00     0.116 A 
HETATM   27  F2  UNL     1     -18.072   5.068  43.789  1.00  0.00    -0.206 F 
HETATM   28  C18 UNL     1     -16.921   6.164  45.558  1.00  0.00     0.043 A 
HETATM   29  C19 UNL     1     -15.776   6.820  46.029  1.00  0.00     0.017 A 
ENDBRANCH   5  23
BRANCH   2  30
HETATM   30  C5  UNL     1      -9.896   7.598  45.598  1.00  0.00     0.286 C 
HETATM   31  O1  UNL     1      -9.340   7.929  44.551  1.00  0.00    -0.264 OA
HETATM   32  N2  UNL     1      -9.085   6.904  46.549  1.00  0.00    -0.350 N 
ATOM     33  H2  UNL     1      -9.510   6.608  47.428  1.00  0.00     0.163 HD
BRANCH  32  34
HETATM   34  C6  UNL     1      -7.686   6.602  46.320  1.00  0.00     0.161 C 
BRANCH  34  35
HETATM   35  C7  UNL     1      -7.459   5.169  46.123  1.00  0.00    -0.040 A 
HETATM   36  C8  UNL     1      -7.205   4.644  44.841  1.00  0.00     0.012 A 
HETATM   37  C9  UNL     1      -7.005   3.310  44.756  1.00  0.00     0.043 A 
HETATM   38  C10 UNL     1      -7.038   2.438  45.838  1.00  0.00     0.116 A 
HETATM   39  F1  UNL     1      -6.819   1.120  45.672  1.00  0.00    -0.206 F 
HETATM   40  C11 UNL     1      -7.293   2.980  47.107  1.00  0.00     0.043 A 
HETATM   41  C12 UNL     1      -7.492   4.315  47.196  1.00  0.00     0.012 A 
ENDBRANCH  34  35
ENDBRANCH  32  34
ENDBRANCH   2  30
TORSDOF 14
ENDMDL
