MODEL 4
REMARK VINA RESULT: -8.440805665      4.694      7.806
REMARK  14 active torsions:
REMARK  status: ('A' for Active; 'I' for Inactive)
REMARK    1  A    between atoms: C2_2  and  N1_4 
REMARK    2  A    between atoms: C4_5  and  C5_6 
REMARK       I    between atoms: C5_6  and  N2_8 
REMARK    3  A    between atoms: N2_8  and  C6_10 
REMARK    4  A    between atoms: C6_10  and  C7_11 
REMARK    5  A    between atoms: C13_20  and  C14_21 
REMARK    6  A    between atoms: C20_28  and  C21_29 
REMARK    7  A    between atoms: C21_29  and  C22_30 
REMARK    8  A    between atoms: C22_30  and  C23_31 
REMARK    9  A    between atoms: C23_31  and  O2_32 
REMARK   10  A    between atoms: C23_31  and  C24_34 
REMARK   11  A    between atoms: C24_34  and  C25_35 
REMARK   12  A    between atoms: C25_35  and  O3_36 
REMARK   13  A    between atoms: C25_35  and  C26_38 
REMARK   14  A    between atoms: C26_38  and  C27_39 
ROOT
HETATM    1  N1  UNL     1     -15.862   6.493  45.976  1.00  0.00    -0.326 N 
HETATM    2  C4  UNL     1     -16.791   7.271  46.622  1.00  0.00     0.178 A 
HETATM    3  N3  UNL     1     -16.304   8.514  46.724  1.00  0.00    -0.335 N 
ATOM      4  H3  UNL     1     -16.790   9.295  47.166  1.00  0.00     0.168 HD
HETATM    5  C13 UNL     1     -15.095   8.590  46.167  1.00  0.00     0.067 A 
HETATM    6  C20 UNL     1     -14.830   7.329  45.693  1.00  0.00     0.045 A 
ENDROOT
BRANCH   6   7
HETATM    7  C21 UNL     1     -13.671   6.944  44.864  1.00  0.00     0.089 C 
BRANCH   7   8
HETATM    8  C22 UNL     1     -13.582   7.491  43.496  1.00  0.00     0.011 C 
BRANCH   8   9
HETATM    9  C23 UNL     1     -12.306   7.643  42.782  1.00  0.00     0.042 C 
BRANCH   9  10
HETATM   10  O2  UNL     1     -11.966   6.659  41.889  1.00  0.00    -0.365 OA
ATOM     11  H2  UNL     1     -11.467   6.920  41.125  1.00  0.00     0.217 HD
ENDBRANCH   9  10
BRANCH   9  12
HETATM   12  C24 UNL     1     -11.981   9.048  42.334  1.00  0.00     0.096 C 
BRANCH  12  13
HETATM   13  C25 UNL     1     -13.211   9.790  41.885  1.00  0.00     0.134 C 
BRANCH  13  14
HETATM   14  O3  UNL     1     -13.097  11.154  42.220  1.00  0.00    -0.395 OA
ATOM     15  H3  UNL     1     -13.837  11.418  42.754  1.00  0.00     0.210 HD
ENDBRANCH  13  14
BRANCH  13  16
HETATM   16  C26 UNL     1     -13.470   9.698  40.409  1.00  0.00     0.145 C 
BRANCH  16  17
HETATM   17  C27 UNL     1     -13.905  11.078  39.958  1.00  0.00     0.175 C 
HETATM   18  O4  UNL     1     -15.035  11.471  40.246  1.00  0.00    -0.648 OA
HETATM   19  O5  UNL     1     -13.016  11.845  39.245  1.00  0.00    -0.648 OA
ENDBRANCH  16  17
ENDBRANCH  13  16
ENDBRANCH  12  13
ENDBRANCH   9  12
ENDBRANCH   8   9
ENDBRANCH   7   8
ENDBRANCH   6   7
BRANCH   1  20
HETATM   20  C2  UNL     1     -16.023   5.078  45.814  1.00  0.00     0.083 C 
HETATM   21  C1  UNL     1     -14.622   4.398  45.994  1.00  0.00     0.032 C 
HETATM   22  C3  UNL     1     -16.437   4.593  44.446  1.00  0.00     0.032 C 
ENDBRANCH   1  20
BRANCH   5  23
HETATM   23  C14 UNL     1     -14.192   9.766  46.331  1.00  0.00    -0.007 A 
HETATM   24  C15 UNL     1     -14.559  10.902  45.589  1.00  0.00     0.017 A 
HETATM   25  C16 UNL     1     -13.848  12.071  45.594  1.00  0.00     0.043 A 
HETATM   26  C17 UNL     1     -12.718  12.097  46.385  1.00  0.00     0.116 A 
HETATM   27  F2  UNL     1     -12.002  13.246  46.416  1.00  0.00    -0.206 F 
HETATM   28  C18 UNL     1     -12.330  11.000  47.123  1.00  0.00     0.043 A 
HETATM   29  C19 UNL     1     -13.087   9.821  47.087  1.00  0.00     0.017 A 
ENDBRANCH   5  23
BRANCH   2  30
HETATM   30  C5  UNL     1     -18.130   6.967  47.079  1.00  0.00     0.286 C 
HETATM   31  O1  UNL     1     -19.094   6.952  46.313  1.00  0.00    -0.264 OA
HETATM   32  N2  UNL     1     -18.410   6.666  48.449  1.00  0.00    -0.350 N 
ATOM     33  H2  UNL     1     -17.638   6.673  49.116  1.00  0.00     0.163 HD
BRANCH  32  34
HETATM   34  C6  UNL     1     -19.740   6.351  48.930  1.00  0.00     0.161 C 
BRANCH  34  35
HETATM   35  C7  UNL     1     -19.741   5.188  49.819  1.00  0.00    -0.040 A 
HETATM   36  C8  UNL     1     -20.765   4.224  49.751  1.00  0.00     0.012 A 
HETATM   37  C9  UNL     1     -20.682   3.183  50.609  1.00  0.00     0.043 A 
HETATM   38  C10 UNL     1     -19.665   3.011  51.542  1.00  0.00     0.116 A 
HETATM   39  F1  UNL     1     -19.648   1.939  52.357  1.00  0.00    -0.206 F 
HETATM   40  C11 UNL     1     -18.655   3.982  51.596  1.00  0.00     0.043 A 
HETATM   41  C12 UNL     1     -18.734   5.025  50.737  1.00  0.00     0.012 A 
ENDBRANCH  34  35
ENDBRANCH  32  34
ENDBRANCH   2  30
TORSDOF 14
ENDMDL
