MODEL 2
REMARK VINA RESULT: -10.324435111      1.150      1.648
REMARK  13 active torsions:
REMARK  status: ('A' for Active; 'I' for Inactive)
REMARK    1  A    between atoms: C2_2  and  C3_3 
REMARK    2  A    between atoms: C4_4  and  C5_5 
REMARK       I    between atoms: C5_5  and  N1_7 
REMARK    3  A    between atoms: N1_7  and  C6_9 
REMARK    4  A    between atoms: C9_12  and  C10_13 
REMARK    5  A    between atoms: N2_23  and  C20_24 
REMARK    6  A    between atoms: C20_24  and  C21_25 
REMARK    7  A    between atoms: C21_25  and  C22_26 
REMARK    8  A    between atoms: C22_26  and  O2_27 
REMARK    9  A    between atoms: C22_26  and  C23_29 
REMARK   10  A    between atoms: C23_29  and  C24_30 
REMARK   11  A    between atoms: C24_30  and  O3_31 
REMARK   12  A    between atoms: C24_30  and  C25_33 
REMARK   13  A    between atoms: C25_33  and  C26_34 
ROOT
HETATM    1  C3  UNL     1      15.084   7.736  45.930  1.00  0.00     0.027 A 
HETATM    2  C4  UNL     1      16.041   7.058  46.700  1.00  0.00     0.063 A 
HETATM    3  C18 UNL     1      15.576   5.769  46.728  1.00  0.00    -0.018 A 
HETATM    4  C19 UNL     1      14.400   5.652  46.017  1.00  0.00     0.019 A 
HETATM    5  N2  UNL     1      14.125   6.883  45.539  1.00  0.00    -0.352 N 
HETATM    6  C27 UNL     1      13.546   4.434  45.793  1.00  0.00     0.058 C 
HETATM    7  C28 UNL     1      13.367   3.667  47.080  1.00  0.00     0.006 C 
HETATM    8  C29 UNL     1      14.559   2.804  47.357  1.00  0.00     0.001 C 
HETATM    9  C30 UNL     1      15.839   3.308  46.779  1.00  0.00     0.005 C 
HETATM   10  C31 UNL     1      16.273   4.633  47.400  1.00  0.00     0.042 C 
ENDROOT
BRANCH   2  11
HETATM   11  C5  UNL     1      17.266   7.641  47.276  1.00  0.00     0.258 C 
HETATM   12  O1  UNL     1      18.236   7.706  46.477  1.00  0.00    -0.267 OA
HETATM   13  N1  UNL     1      17.405   8.104  48.582  1.00  0.00    -0.323 N 
ATOM     14  H1  UNL     1      16.593   8.040  49.195  1.00  0.00     0.169 HD
BRANCH  13  15
HETATM   15  C6  UNL     1      18.583   8.653  49.118  1.00  0.00     0.035 A 
HETATM   16  C7  UNL     1      19.695   7.987  49.502  1.00  0.00     0.030 A 
HETATM   17  C8  UNL     1      20.814   8.643  50.042  1.00  0.00     0.014 A 
HETATM   18  C9  UNL     1      20.805   9.998  50.196  1.00  0.00    -0.026 A 
HETATM   19  C16 UNL     1      19.702  10.706  49.821  1.00  0.00     0.014 A 
HETATM   20  C17 UNL     1      18.603  10.047  49.288  1.00  0.00     0.030 A 
BRANCH  18  21
HETATM   21  C10 UNL     1      21.953  10.690  50.752  1.00  0.00    -0.026 A 
HETATM   22  C11 UNL     1      22.791  10.044  51.665  1.00  0.00     0.012 A 
HETATM   23  C12 UNL     1      23.880  10.682  52.202  1.00  0.00     0.001 A 
HETATM   24  C13 UNL     1      24.174  11.973  51.853  1.00  0.00     0.000 A 
HETATM   25  C14 UNL     1      23.370  12.658  50.947  1.00  0.00     0.001 A 
HETATM   26  C15 UNL     1      22.280  11.987  50.424  1.00  0.00     0.012 A 
ENDBRANCH  18  21
ENDBRANCH  13  15
ENDBRANCH   2  11
BRANCH   1  27
HETATM   27  C2  UNL     1      15.207   9.192  45.609  1.00  0.00     0.054 C 
HETATM   28  C1  UNL     1      15.960   9.445  44.325  1.00  0.00     0.011 C 
ENDBRANCH   1  27
BRANCH   5  29
HETATM   29  C20 UNL     1      13.004   7.168  44.711  1.00  0.00     0.131 C 
BRANCH  29  30
HETATM   30  C21 UNL     1      13.197   7.067  43.230  1.00  0.00     0.052 C 
BRANCH  30  31
HETATM   31  C22 UNL     1      11.987   6.884  42.406  1.00  0.00     0.122 C 
BRANCH  31  32
HETATM   32  O2  UNL     1      11.955   7.730  41.286  1.00  0.00    -0.395 OA
ATOM     33  H2  UNL     1      11.098   8.111  41.134  1.00  0.00     0.210 HD
ENDBRANCH  31  32
BRANCH  31  34
HETATM   34  C23 UNL     1      11.761   5.457  42.030  1.00  0.00     0.064 C 
BRANCH  34  35
HETATM   35  C24 UNL     1      12.913   4.657  41.566  1.00  0.00     0.130 C 
BRANCH  35  36
HETATM   36  O3  UNL     1      13.081   3.447  42.230  1.00  0.00    -0.395 OA
ATOM     37  H3  UNL     1      13.894   3.372  42.716  1.00  0.00     0.210 HD
ENDBRANCH  35  36
BRANCH  35  38
HETATM   38  C25 UNL     1      13.236   4.626  40.122  1.00  0.00     0.144 C 
BRANCH  38  39
HETATM   39  C26 UNL     1      13.646   3.238  39.684  1.00  0.00     0.175 C 
HETATM   40  O4  UNL     1      14.742   2.747  40.050  1.00  0.00    -0.648 OA
HETATM   41  O5  UNL     1      12.831   2.467  38.871  1.00  0.00    -0.648 OA
ENDBRANCH  38  39
ENDBRANCH  35  38
ENDBRANCH  34  35
ENDBRANCH  31  34
ENDBRANCH  30  31
ENDBRANCH  29  30
ENDBRANCH   5  29
TORSDOF 13
ENDMDL
