MODEL 9
REMARK VINA RESULT: -9.446050604      1.436      2.103
REMARK  13 active torsions:
REMARK  status: ('A' for Active; 'I' for Inactive)
REMARK    1  A    between atoms: C2_2  and  C3_3 
REMARK    2  A    between atoms: C4_4  and  C5_5 
REMARK       I    between atoms: C5_5  and  N1_7 
REMARK    3  A    between atoms: N1_7  and  C6_9 
REMARK    4  A    between atoms: C9_12  and  C10_13 
REMARK    5  A    between atoms: N2_23  and  C20_24 
REMARK    6  A    between atoms: C20_24  and  C21_25 
REMARK    7  A    between atoms: C21_25  and  C22_26 
REMARK    8  A    between atoms: C22_26  and  O2_27 
REMARK    9  A    between atoms: C22_26  and  C23_29 
REMARK   10  A    between atoms: C23_29  and  C24_30 
REMARK   11  A    between atoms: C24_30  and  O3_31 
REMARK   12  A    between atoms: C24_30  and  C25_33 
REMARK   13  A    between atoms: C25_33  and  C26_34 
ROOT
HETATM    1  C3  UNL     1      15.331   7.713  46.272  1.00  0.00     0.027 A 
HETATM    2  C4  UNL     1      16.328   7.060  47.013  1.00  0.00     0.063 A 
HETATM    3  C18 UNL     1      15.903   5.757  47.044  1.00  0.00    -0.018 A 
HETATM    4  C19 UNL     1      14.712   5.609  46.365  1.00  0.00     0.019 A 
HETATM    5  N2  UNL     1      14.388   6.833  45.902  1.00  0.00    -0.352 N 
HETATM    6  C27 UNL     1      13.890   4.367  46.155  1.00  0.00     0.058 C 
HETATM    7  C28 UNL     1      13.768   3.588  47.442  1.00  0.00     0.006 C 
HETATM    8  C29 UNL     1      14.992   2.760  47.682  1.00  0.00     0.001 C 
HETATM    9  C30 UNL     1      16.240   3.305  47.073  1.00  0.00     0.005 C 
HETATM   10  C31 UNL     1      16.652   4.639  47.691  1.00  0.00     0.042 C 
ENDROOT
BRANCH   2  11
HETATM   11  C5  UNL     1      17.550   7.676  47.560  1.00  0.00     0.258 C 
HETATM   12  O1  UNL     1      18.541   7.644  46.784  1.00  0.00    -0.267 OA
HETATM   13  N1  UNL     1      17.667   8.265  48.817  1.00  0.00    -0.323 N 
ATOM     14  H1  UNL     1      16.839   8.276  49.412  1.00  0.00     0.169 HD
BRANCH  13  15
HETATM   15  C6  UNL     1      18.842   8.844  49.327  1.00  0.00     0.035 A 
HETATM   16  C7  UNL     1      19.947   8.200  49.764  1.00  0.00     0.030 A 
HETATM   17  C8  UNL     1      21.064   8.887  50.271  1.00  0.00     0.014 A 
HETATM   18  C9  UNL     1      21.058  10.249  50.334  1.00  0.00    -0.026 A 
HETATM   19  C16 UNL     1      19.963  10.934  49.902  1.00  0.00     0.014 A 
HETATM   20  C17 UNL     1      18.866  10.246  49.404  1.00  0.00     0.030 A 
BRANCH  18  21
HETATM   21  C10 UNL     1      22.205  10.973  50.854  1.00  0.00    -0.026 A 
HETATM   22  C11 UNL     1      23.084  10.353  51.747  1.00  0.00     0.012 A 
HETATM   23  C12 UNL     1      24.171  11.021  52.249  1.00  0.00     0.001 A 
HETATM   24  C13 UNL     1      24.423  12.317  51.885  1.00  0.00     0.000 A 
HETATM   25  C14 UNL     1      23.577  12.976  50.999  1.00  0.00     0.001 A 
HETATM   26  C15 UNL     1      22.490  12.276  50.510  1.00  0.00     0.012 A 
ENDBRANCH  18  21
ENDBRANCH  13  15
ENDBRANCH   2  11
BRANCH   1  27
HETATM   27  C2  UNL     1      15.402   9.174  45.958  1.00  0.00     0.054 C 
HETATM   28  C1  UNL     1      16.118   9.457  44.659  1.00  0.00     0.011 C 
ENDBRANCH   1  27
BRANCH   5  29
HETATM   29  C20 UNL     1      13.238   7.089  45.105  1.00  0.00     0.131 C 
BRANCH  29  30
HETATM   30  C21 UNL     1      13.273   6.641  43.678  1.00  0.00     0.052 C 
BRANCH  30  31
HETATM   31  C22 UNL     1      12.324   5.581  43.283  1.00  0.00     0.122 C 
BRANCH  31  32
HETATM   32  O2  UNL     1      11.203   6.078  42.600  1.00  0.00    -0.395 OA
ATOM     33  H2  UNL     1      10.660   5.392  42.230  1.00  0.00     0.210 HD
ENDBRANCH  31  32
BRANCH  31  34
HETATM   34  C23 UNL     1      12.985   4.473  42.533  1.00  0.00     0.064 C 
BRANCH  34  35
HETATM   35  C24 UNL     1      12.795   4.396  41.071  1.00  0.00     0.130 C 
BRANCH  35  36
HETATM   36  O3  UNL     1      11.486   4.155  40.668  1.00  0.00    -0.395 OA
ATOM     37  H3  UNL     1      10.895   4.890  40.782  1.00  0.00     0.210 HD
ENDBRANCH  35  36
BRANCH  35  38
HETATM   38  C25 UNL     1      13.557   5.315  40.194  1.00  0.00     0.144 C 
BRANCH  38  39
HETATM   39  C26 UNL     1      12.638   6.295  39.501  1.00  0.00     0.175 C 
HETATM   40  O4  UNL     1      12.184   7.293  40.112  1.00  0.00    -0.648 OA
HETATM   41  O5  UNL     1      12.268   6.126  38.176  1.00  0.00    -0.648 OA
ENDBRANCH  38  39
ENDBRANCH  35  38
ENDBRANCH  34  35
ENDBRANCH  31  34
ENDBRANCH  30  31
ENDBRANCH  29  30
ENDBRANCH   5  29
TORSDOF 13
ENDMDL
