MODEL 15
REMARK VINA RESULT: -9.024430308      3.019      5.024
REMARK  13 active torsions:
REMARK  status: ('A' for Active; 'I' for Inactive)
REMARK    1  A    between atoms: C2_2  and  C3_3 
REMARK    2  A    between atoms: C4_4  and  C5_5 
REMARK       I    between atoms: C5_5  and  N1_7 
REMARK    3  A    between atoms: N1_7  and  C6_9 
REMARK    4  A    between atoms: C9_12  and  C10_13 
REMARK    5  A    between atoms: N2_23  and  C20_24 
REMARK    6  A    between atoms: C20_24  and  C21_25 
REMARK    7  A    between atoms: C21_25  and  C22_26 
REMARK    8  A    between atoms: C22_26  and  O2_27 
REMARK    9  A    between atoms: C22_26  and  C23_29 
REMARK   10  A    between atoms: C23_29  and  C24_30 
REMARK   11  A    between atoms: C24_30  and  O3_31 
REMARK   12  A    between atoms: C24_30  and  C25_33 
REMARK   13  A    between atoms: C25_33  and  C26_34 
ROOT
HETATM    1  C3  UNL     1      15.946   5.969  46.729  1.00  0.00     0.027 A 
HETATM    2  C4  UNL     1      16.471   7.269  46.678  1.00  0.00     0.063 A 
HETATM    3  C18 UNL     1      15.559   7.954  45.916  1.00  0.00    -0.018 A 
HETATM    4  C19 UNL     1      14.530   7.127  45.517  1.00  0.00     0.019 A 
HETATM    5  N2  UNL     1      14.800   5.912  46.035  1.00  0.00    -0.352 N 
HETATM    6  C27 UNL     1      13.330   7.452  44.670  1.00  0.00     0.058 C 
HETATM    7  C28 UNL     1      13.733   8.272  43.470  1.00  0.00     0.006 C 
HETATM    8  C29 UNL     1      13.888   9.715  43.837  1.00  0.00     0.001 C 
HETATM    9  C30 UNL     1      14.262   9.957  45.261  1.00  0.00     0.005 C 
HETATM   10  C31 UNL     1      15.646   9.409  45.598  1.00  0.00     0.042 C 
ENDROOT
BRANCH   2  11
HETATM   11  C5  UNL     1      17.696   7.741  47.349  1.00  0.00     0.258 C 
HETATM   12  O1  UNL     1      18.747   7.601  46.670  1.00  0.00    -0.267 OA
HETATM   13  N1  UNL     1      17.757   8.306  48.620  1.00  0.00    -0.323 N 
ATOM     14  H1  UNL     1      16.882   8.407  49.134  1.00  0.00     0.169 HD
BRANCH  13  15
HETATM   15  C6  UNL     1      18.935   8.746  49.248  1.00  0.00     0.035 A 
HETATM   16  C7  UNL     1      19.878   7.982  49.845  1.00  0.00     0.030 A 
HETATM   17  C8  UNL     1      21.014   8.537  50.458  1.00  0.00     0.014 A 
HETATM   18  C9  UNL     1      21.197   9.888  50.466  1.00  0.00    -0.026 A 
HETATM   19  C16 UNL     1      20.269  10.692  49.875  1.00  0.00     0.014 A 
HETATM   20  C17 UNL     1      19.150  10.133  49.272  1.00  0.00     0.030 A 
BRANCH  18  21
HETATM   21  C10 UNL     1      22.366  10.476  51.095  1.00  0.00    -0.026 A 
HETATM   22  C11 UNL     1      23.184   9.702  51.923  1.00  0.00     0.012 A 
HETATM   23  C12 UNL     1      24.292  10.240  52.527  1.00  0.00     0.001 A 
HETATM   24  C13 UNL     1      24.625  11.554  52.329  1.00  0.00     0.000 A 
HETATM   25  C14 UNL     1      23.842  12.364  51.512  1.00  0.00     0.001 A 
HETATM   26  C15 UNL     1      22.732  11.792  50.919  1.00  0.00     0.012 A 
ENDBRANCH  18  21
ENDBRANCH  13  15
ENDBRANCH   2  11
BRANCH   1  27
HETATM   27  C2  UNL     1      16.615   4.872  47.497  1.00  0.00     0.054 C 
HETATM   28  C1  UNL     1      16.151   4.798  48.931  1.00  0.00     0.011 C 
ENDBRANCH   1  27
BRANCH   5  29
HETATM   29  C20 UNL     1      13.942   4.788  45.882  1.00  0.00     0.131 C 
BRANCH  29  30
HETATM   30  C21 UNL     1      12.871   4.591  46.910  1.00  0.00     0.052 C 
BRANCH  30  31
HETATM   31  C22 UNL     1      11.975   3.432  46.733  1.00  0.00     0.122 C 
BRANCH  31  32
HETATM   32  O2  UNL     1      12.663   2.210  46.690  1.00  0.00    -0.395 OA
ATOM     33  H2  UNL     1      13.020   2.015  45.832  1.00  0.00     0.210 HD
ENDBRANCH  31  32
BRANCH  31  34
HETATM   34  C23 UNL     1      10.866   3.410  47.732  1.00  0.00     0.064 C 
BRANCH  34  35
HETATM   35  C24 UNL     1       9.638   4.177  47.444  1.00  0.00     0.130 C 
BRANCH  35  36
HETATM   36  O3  UNL     1       9.483   5.330  48.207  1.00  0.00    -0.395 OA
ATOM     37  H3  UNL     1       8.946   6.002  47.804  1.00  0.00     0.210 HD
ENDBRANCH  35  36
BRANCH  35  38
HETATM   38  C25 UNL     1       9.167   4.288  46.045  1.00  0.00     0.144 C 
BRANCH  38  39
HETATM   39  C26 UNL     1       9.353   5.692  45.516  1.00  0.00     0.175 C 
HETATM   40  O4  UNL     1      10.357   5.991  44.824  1.00  0.00    -0.648 OA
HETATM   41  O5  UNL     1       8.427   6.691  45.776  1.00  0.00    -0.648 OA
ENDBRANCH  38  39
ENDBRANCH  35  38
ENDBRANCH  34  35
ENDBRANCH  31  34
ENDBRANCH  30  31
ENDBRANCH  29  30
ENDBRANCH   5  29
TORSDOF 13
ENDMDL
