MODEL 16
REMARK VINA RESULT: -8.957058266      3.125      5.050
REMARK  13 active torsions:
REMARK  status: ('A' for Active; 'I' for Inactive)
REMARK    1  A    between atoms: C2_2  and  C3_3 
REMARK    2  A    between atoms: C4_4  and  C5_5 
REMARK       I    between atoms: C5_5  and  N1_7 
REMARK    3  A    between atoms: N1_7  and  C6_9 
REMARK    4  A    between atoms: C9_12  and  C10_13 
REMARK    5  A    between atoms: N2_23  and  C20_24 
REMARK    6  A    between atoms: C20_24  and  C21_25 
REMARK    7  A    between atoms: C21_25  and  C22_26 
REMARK    8  A    between atoms: C22_26  and  O2_27 
REMARK    9  A    between atoms: C22_26  and  C23_29 
REMARK   10  A    between atoms: C23_29  and  C24_30 
REMARK   11  A    between atoms: C24_30  and  O3_31 
REMARK   12  A    between atoms: C24_30  and  C25_33 
REMARK   13  A    between atoms: C25_33  and  C26_34 
ROOT
HETATM    1  C3  UNL     1      15.714   6.475  47.578  1.00  0.00     0.027 A 
HETATM    2  C4  UNL     1      16.520   7.506  47.075  1.00  0.00     0.063 A 
HETATM    3  C18 UNL     1      15.837   7.938  45.967  1.00  0.00    -0.018 A 
HETATM    4  C19 UNL     1      14.675   7.216  45.793  1.00  0.00     0.019 A 
HETATM    5  N2  UNL     1      14.630   6.323  46.802  1.00  0.00    -0.352 N 
HETATM    6  C27 UNL     1      13.635   7.344  44.713  1.00  0.00     0.058 C 
HETATM    7  C28 UNL     1      14.288   7.471  43.359  1.00  0.00     0.006 C 
HETATM    8  C29 UNL     1      14.741   8.878  43.115  1.00  0.00     0.001 C 
HETATM    9  C30 UNL     1      15.070   9.647  44.350  1.00  0.00     0.005 C 
HETATM   10  C31 UNL     1      16.271   9.067  45.093  1.00  0.00     0.042 C 
ENDROOT
BRANCH   2  11
HETATM   11  C5  UNL     1      17.775   7.999  47.670  1.00  0.00     0.258 C 
HETATM   12  O1  UNL     1      18.811   7.705  47.017  1.00  0.00    -0.267 OA
HETATM   13  N1  UNL     1      17.879   8.736  48.848  1.00  0.00    -0.323 N 
ATOM     14  H1  UNL     1      17.016   8.959  49.342  1.00  0.00     0.169 HD
BRANCH  13  15
HETATM   15  C6  UNL     1      19.085   9.194  49.405  1.00  0.00     0.035 A 
HETATM   16  C7  UNL     1      20.128   8.444  49.826  1.00  0.00     0.030 A 
HETATM   17  C8  UNL     1      21.285   9.014  50.385  1.00  0.00     0.014 A 
HETATM   18  C9  UNL     1      21.384  10.368  50.520  1.00  0.00    -0.026 A 
HETATM   19  C16 UNL     1      20.354  11.158  50.107  1.00  0.00     0.014 A 
HETATM   20  C17 UNL     1      19.216  10.584  49.556  1.00  0.00     0.030 A 
BRANCH  18  21
HETATM   21  C10 UNL     1      22.573  10.972  51.095  1.00  0.00    -0.026 A 
HETATM   22  C11 UNL     1      23.361  10.253  51.997  1.00  0.00     0.012 A 
HETATM   23  C12 UNL     1      24.487  10.807  52.552  1.00  0.00     0.001 A 
HETATM   24  C13 UNL     1      24.867  12.084  52.230  1.00  0.00     0.000 A 
HETATM   25  C14 UNL     1      24.114  12.838  51.336  1.00  0.00     0.001 A 
HETATM   26  C15 UNL     1      22.985  12.251  50.795  1.00  0.00     0.012 A 
ENDBRANCH  18  21
ENDBRANCH  13  15
ENDBRANCH   2  11
BRANCH   1  27
HETATM   27  C2  UNL     1      16.067   5.725  48.824  1.00  0.00     0.054 C 
HETATM   28  C1  UNL     1      16.825   4.450  48.542  1.00  0.00     0.011 C 
ENDBRANCH   1  27
BRANCH   5  29
HETATM   29  C20 UNL     1      13.552   5.417  46.997  1.00  0.00     0.131 C 
BRANCH  29  30
HETATM   30  C21 UNL     1      13.736   4.011  46.520  1.00  0.00     0.052 C 
BRANCH  30  31
HETATM   31  C22 UNL     1      12.693   3.460  45.632  1.00  0.00     0.122 C 
BRANCH  31  32
HETATM   32  O2  UNL     1      12.130   2.271  46.122  1.00  0.00    -0.395 OA
ATOM     33  H2  UNL     1      11.887   1.665  45.433  1.00  0.00     0.210 HD
ENDBRANCH  31  32
BRANCH  31  34
HETATM   34  C23 UNL     1      11.648   4.467  45.285  1.00  0.00     0.064 C 
BRANCH  34  35
HETATM   35  C24 UNL     1      10.316   4.350  45.911  1.00  0.00     0.130 C 
BRANCH  35  36
HETATM   36  O3  UNL     1       9.711   3.108  45.756  1.00  0.00    -0.395 OA
ATOM     37  H3  UNL     1       8.954   2.964  46.312  1.00  0.00     0.210 HD
ENDBRANCH  35  36
BRANCH  35  38
HETATM   38  C25 UNL     1      10.072   5.003  47.217  1.00  0.00     0.144 C 
BRANCH  38  39
HETATM   39  C26 UNL     1       9.928   3.980  48.321  1.00  0.00     0.175 C 
HETATM   40  O4  UNL     1       9.207   4.211  49.322  1.00  0.00    -0.648 OA
HETATM   41  O5  UNL     1      10.582   2.759  48.264  1.00  0.00    -0.648 OA
ENDBRANCH  38  39
ENDBRANCH  35  38
ENDBRANCH  34  35
ENDBRANCH  31  34
ENDBRANCH  30  31
ENDBRANCH  29  30
ENDBRANCH   5  29
TORSDOF 13
ENDMDL
