MODEL 19
REMARK VINA RESULT: -8.631509138      2.947      4.750
REMARK  13 active torsions:
REMARK  status: ('A' for Active; 'I' for Inactive)
REMARK    1  A    between atoms: C2_2  and  C3_3 
REMARK    2  A    between atoms: C4_4  and  C5_5 
REMARK       I    between atoms: C5_5  and  N1_7 
REMARK    3  A    between atoms: N1_7  and  C6_9 
REMARK    4  A    between atoms: C9_12  and  C10_13 
REMARK    5  A    between atoms: N2_23  and  C20_24 
REMARK    6  A    between atoms: C20_24  and  C21_25 
REMARK    7  A    between atoms: C21_25  and  C22_26 
REMARK    8  A    between atoms: C22_26  and  O2_27 
REMARK    9  A    between atoms: C22_26  and  C23_29 
REMARK   10  A    between atoms: C23_29  and  C24_30 
REMARK   11  A    between atoms: C24_30  and  O3_31 
REMARK   12  A    between atoms: C24_30  and  C25_33 
REMARK   13  A    between atoms: C25_33  and  C26_34 
ROOT
HETATM    1  C3  UNL     1      15.002   5.775  47.075  1.00  0.00     0.027 A 
HETATM    2  C4  UNL     1      15.701   6.988  47.157  1.00  0.00     0.063 A 
HETATM    3  C18 UNL     1      15.084   7.778  46.221  1.00  0.00    -0.018 A 
HETATM    4  C19 UNL     1      14.063   7.094  45.594  1.00  0.00     0.019 A 
HETATM    5  N2  UNL     1      14.040   5.864  46.144  1.00  0.00    -0.352 N 
HETATM    6  C27 UNL     1      13.136   7.566  44.507  1.00  0.00     0.058 C 
HETATM    7  C28 UNL     1      13.905   8.300  43.435  1.00  0.00     0.006 C 
HETATM    8  C29 UNL     1      14.174   9.714  43.846  1.00  0.00     0.001 C 
HETATM    9  C30 UNL     1      14.255   9.929  45.320  1.00  0.00     0.005 C 
HETATM   10  C31 UNL     1      15.441   9.201  45.947  1.00  0.00     0.042 C 
ENDROOT
BRANCH   2  11
HETATM   11  C5  UNL     1      16.801   7.299  48.087  1.00  0.00     0.258 C 
HETATM   12  O1  UNL     1      16.430   7.792  49.185  1.00  0.00    -0.267 OA
HETATM   13  N1  UNL     1      18.155   7.087  47.840  1.00  0.00    -0.323 N 
ATOM     14  H1  UNL     1      18.413   6.679  46.942  1.00  0.00     0.169 HD
BRANCH  13  15
HETATM   15  C6  UNL     1      19.193   7.393  48.737  1.00  0.00     0.035 A 
HETATM   16  C7  UNL     1      19.993   8.483  48.721  1.00  0.00     0.030 A 
HETATM   17  C8  UNL     1      21.015   8.678  49.665  1.00  0.00     0.014 A 
HETATM   18  C9  UNL     1      21.229   7.751  50.643  1.00  0.00    -0.026 A 
HETATM   19  C16 UNL     1      20.443   6.639  50.693  1.00  0.00     0.014 A 
HETATM   20  C17 UNL     1      19.436   6.457  49.755  1.00  0.00     0.030 A 
BRANCH  18  21
HETATM   21  C10 UNL     1      22.281   7.939  51.626  1.00  0.00    -0.026 A 
HETATM   22  C11 UNL     1      22.886   9.189  51.781  1.00  0.00     0.012 A 
HETATM   23  C12 UNL     1      23.881   9.385  52.703  1.00  0.00     0.001 A 
HETATM   24  C13 UNL     1      24.306   8.355  53.500  1.00  0.00     0.000 A 
HETATM   25  C14 UNL     1      23.734   7.092  53.384  1.00  0.00     0.001 A 
HETATM   26  C15 UNL     1      22.733   6.928  52.444  1.00  0.00     0.012 A 
ENDBRANCH  18  21
ENDBRANCH  13  15
ENDBRANCH   2  11
BRANCH   1  27
HETATM   27  C2  UNL     1      15.325   4.610  47.957  1.00  0.00     0.054 C 
HETATM   28  C1  UNL     1      16.333   3.672  47.339  1.00  0.00     0.011 C 
ENDBRANCH   1  27
BRANCH   5  29
HETATM   29  C20 UNL     1      13.089   4.867  45.791  1.00  0.00     0.131 C 
BRANCH  29  30
HETATM   30  C21 UNL     1      11.852   4.766  46.628  1.00  0.00     0.052 C 
BRANCH  30  31
HETATM   31  C22 UNL     1      10.605   4.379  45.939  1.00  0.00     0.122 C 
BRANCH  31  32
HETATM   32  O2  UNL     1      10.401   2.991  45.917  1.00  0.00    -0.395 OA
ATOM     33  H2  UNL     1      10.770   2.574  45.148  1.00  0.00     0.210 HD
ENDBRANCH  31  32
BRANCH  31  34
HETATM   34  C23 UNL     1       9.413   5.107  46.465  1.00  0.00     0.064 C 
BRANCH  34  35
HETATM   35  C24 UNL     1       8.732   6.078  45.585  1.00  0.00     0.130 C 
BRANCH  35  36
HETATM   36  O3  UNL     1       7.919   6.990  46.249  1.00  0.00    -0.395 OA
ATOM     37  H3  UNL     1       7.508   7.637  45.687  1.00  0.00     0.210 HD
ENDBRANCH  35  36
BRANCH  35  38
HETATM   38  C25 UNL     1       9.456   6.625  44.415  1.00  0.00     0.144 C 
BRANCH  38  39
HETATM   39  C26 UNL     1       8.494   7.186  43.392  1.00  0.00     0.175 C 
HETATM   40  O4  UNL     1       8.760   7.138  42.166  1.00  0.00    -0.648 OA
HETATM   41  O5  UNL     1       7.294   7.768  43.771  1.00  0.00    -0.648 OA
ENDBRANCH  38  39
ENDBRANCH  35  38
ENDBRANCH  34  35
ENDBRANCH  31  34
ENDBRANCH  30  31
ENDBRANCH  29  30
ENDBRANCH   5  29
TORSDOF 13
ENDMDL
