MODEL 7
REMARK VINA RESULT: -9.612855213      1.561      2.016
REMARK  13 active torsions:
REMARK  status: ('A' for Active; 'I' for Inactive)
REMARK    1  A    between atoms: C2_2  and  C3_3 
REMARK    2  A    between atoms: C4_4  and  C5_5 
REMARK       I    between atoms: C5_5  and  N1_7 
REMARK    3  A    between atoms: N1_7  and  C6_9 
REMARK    4  A    between atoms: C9_12  and  C10_13 
REMARK    5  A    between atoms: N2_23  and  C20_24 
REMARK    6  A    between atoms: C20_24  and  C21_25 
REMARK    7  A    between atoms: C21_25  and  C22_26 
REMARK    8  A    between atoms: C22_26  and  O2_27 
REMARK    9  A    between atoms: C22_26  and  C23_29 
REMARK   10  A    between atoms: C23_29  and  C24_30 
REMARK   11  A    between atoms: C24_30  and  O3_31 
REMARK   12  A    between atoms: C24_30  and  C25_33 
REMARK   13  A    between atoms: C25_33  and  C26_34 
ROOT
HETATM    1  C3  UNL     1      15.269   7.461  46.033  1.00  0.00     0.027 A 
HETATM    2  C4  UNL     1      16.040   6.584  46.811  1.00  0.00     0.063 A 
HETATM    3  C18 UNL     1      15.405   5.379  46.662  1.00  0.00    -0.018 A 
HETATM    4  C19 UNL     1      14.303   5.499  45.841  1.00  0.00     0.019 A 
HETATM    5  N2  UNL     1      14.249   6.795  45.471  1.00  0.00    -0.352 N 
HETATM    6  C27 UNL     1      13.321   4.443  45.415  1.00  0.00     0.058 C 
HETATM    7  C28 UNL     1      12.906   3.597  46.593  1.00  0.00     0.006 C 
HETATM    8  C29 UNL     1      13.935   2.549  46.885  1.00  0.00     0.001 C 
HETATM    9  C30 UNL     1      15.324   2.912  46.480  1.00  0.00     0.005 C 
HETATM   10  C31 UNL     1      15.868   4.098  47.272  1.00  0.00     0.042 C 
ENDROOT
BRANCH   2  11
HETATM   11  C5  UNL     1      17.266   6.929  47.553  1.00  0.00     0.258 C 
HETATM   12  O1  UNL     1      18.279   7.112  46.827  1.00  0.00    -0.267 OA
HETATM   13  N1  UNL     1      17.366   7.060  48.936  1.00  0.00    -0.323 N 
ATOM     14  H1  UNL     1      16.522   6.910  49.487  1.00  0.00     0.169 HD
BRANCH  13  15
HETATM   15  C6  UNL     1      18.545   7.384  49.629  1.00  0.00     0.035 A 
HETATM   16  C7  UNL     1      19.034   8.620  49.879  1.00  0.00     0.030 A 
HETATM   17  C8  UNL     1      20.238   8.825  50.572  1.00  0.00     0.014 A 
HETATM   18  C9  UNL     1      20.960   7.758  51.020  1.00  0.00    -0.026 A 
HETATM   19  C16 UNL     1      20.501   6.496  50.789  1.00  0.00     0.014 A 
HETATM   20  C17 UNL     1      19.309   6.306  50.102  1.00  0.00     0.030 A 
BRANCH  18  21
HETATM   21  C10 UNL     1      22.206   7.953  51.739  1.00  0.00    -0.026 A 
HETATM   22  C11 UNL     1      22.786   6.896  52.445  1.00  0.00     0.012 A 
HETATM   23  C12 UNL     1      23.962   7.062  53.130  1.00  0.00     0.001 A 
HETATM   24  C13 UNL     1      24.600   8.274  53.137  1.00  0.00     0.000 A 
HETATM   25  C14 UNL     1      24.062   9.357  52.449  1.00  0.00     0.001 A 
HETATM   26  C15 UNL     1      22.875   9.157  51.768  1.00  0.00     0.012 A 
ENDBRANCH  18  21
ENDBRANCH  13  15
ENDBRANCH   2  11
BRANCH   1  27
HETATM   27  C2  UNL     1      15.622   8.907  45.879  1.00  0.00     0.054 C 
HETATM   28  C1  UNL     1      16.389   9.188  44.610  1.00  0.00     0.011 C 
ENDBRANCH   1  27
BRANCH   5  29
HETATM   29  C20 UNL     1      13.270   7.313  44.580  1.00  0.00     0.131 C 
BRANCH  29  30
HETATM   30  C21 UNL     1      13.608   7.339  43.122  1.00  0.00     0.052 C 
BRANCH  30  31
HETATM   31  C22 UNL     1      12.524   7.009  42.175  1.00  0.00     0.122 C 
BRANCH  31  32
HETATM   32  O2  UNL     1      11.668   8.093  41.924  1.00  0.00    -0.395 OA
ATOM     33  H2  UNL     1      10.782   7.944  42.231  1.00  0.00     0.210 HD
ENDBRANCH  31  32
BRANCH  31  34
HETATM   34  C23 UNL     1      13.035   6.402  40.910  1.00  0.00     0.064 C 
BRANCH  34  35
HETATM   35  C24 UNL     1      12.850   4.953  40.696  1.00  0.00     0.130 C 
BRANCH  35  36
HETATM   36  O3  UNL     1      12.227   4.288  41.746  1.00  0.00    -0.395 OA
ATOM     37  H3  UNL     1      11.440   3.814  41.503  1.00  0.00     0.210 HD
ENDBRANCH  35  36
BRANCH  35  38
HETATM   38  C25 UNL     1      12.491   4.462  39.347  1.00  0.00     0.144 C 
BRANCH  38  39
HETATM   39  C26 UNL     1      12.977   3.047  39.133  1.00  0.00     0.175 C 
HETATM   40  O4  UNL     1      12.357   2.261  38.376  1.00  0.00    -0.648 OA
HETATM   41  O5  UNL     1      14.119   2.573  39.761  1.00  0.00    -0.648 OA
ENDBRANCH  38  39
ENDBRANCH  35  38
ENDBRANCH  34  35
ENDBRANCH  31  34
ENDBRANCH  30  31
ENDBRANCH  29  30
ENDBRANCH   5  29
TORSDOF 13
ENDMDL
