MODEL 1
REMARK VINA RESULT: -10.400774714      0.000      0.000
REMARK  13 active torsions:
REMARK  status: ('A' for Active; 'I' for Inactive)
REMARK    1  A    between atoms: C2_2  and  C3_3 
REMARK    2  A    between atoms: C4_4  and  C5_5 
REMARK       I    between atoms: C5_5  and  N1_7 
REMARK    3  A    between atoms: N1_7  and  C6_9 
REMARK    4  A    between atoms: C9_12  and  C10_13 
REMARK    5  A    between atoms: N2_23  and  C20_24 
REMARK    6  A    between atoms: C20_24  and  C21_25 
REMARK    7  A    between atoms: C21_25  and  C22_26 
REMARK    8  A    between atoms: C22_26  and  O2_27 
REMARK    9  A    between atoms: C22_26  and  C23_29 
REMARK   10  A    between atoms: C23_29  and  C24_30 
REMARK   11  A    between atoms: C24_30  and  O3_31 
REMARK   12  A    between atoms: C24_30  and  C25_33 
REMARK   13  A    between atoms: C25_33  and  C26_34 
ROOT
HETATM    1  C3  UNL     1      14.389   7.425  46.009  1.00  0.00     0.027 A 
HETATM    2  C4  UNL     1      15.311   6.776  46.842  1.00  0.00     0.063 A 
HETATM    3  C18 UNL     1      15.061   5.446  46.623  1.00  0.00    -0.018 A 
HETATM    4  C19 UNL     1      14.043   5.279  45.708  1.00  0.00     0.019 A 
HETATM    5  N2  UNL     1      13.651   6.519  45.350  1.00  0.00    -0.352 N 
HETATM    6  C27 UNL     1      13.442   4.004  45.184  1.00  0.00     0.058 C 
HETATM    7  C28 UNL     1      13.190   3.033  46.310  1.00  0.00     0.006 C 
HETATM    8  C29 UNL     1      14.448   2.309  46.681  1.00  0.00     0.001 C 
HETATM    9  C30 UNL     1      15.704   3.066  46.406  1.00  0.00     0.005 C 
HETATM   10  C31 UNL     1      15.819   4.328  47.258  1.00  0.00     0.042 C 
ENDROOT
BRANCH   2  11
HETATM   11  C5  UNL     1      16.322   7.427  47.695  1.00  0.00     0.258 C 
HETATM   12  O1  UNL     1      15.994   7.525  48.907  1.00  0.00    -0.267 OA
HETATM   13  N1  UNL     1      17.555   7.910  47.265  1.00  0.00    -0.323 N 
ATOM     14  H1  UNL     1      17.784   7.805  46.277  1.00  0.00     0.169 HD
BRANCH  13  15
HETATM   15  C6  UNL     1      18.506   8.533  48.091  1.00  0.00     0.035 A 
HETATM   16  C7  UNL     1      18.334   9.644  48.843  1.00  0.00     0.030 A 
HETATM   17  C8  UNL     1      19.368  10.189  49.623  1.00  0.00     0.014 A 
HETATM   18  C9  UNL     1      20.597   9.598  49.640  1.00  0.00    -0.026 A 
HETATM   19  C16 UNL     1      20.810   8.477  48.896  1.00  0.00     0.014 A 
HETATM   20  C17 UNL     1      19.781   7.947  48.129  1.00  0.00     0.030 A 
BRANCH  18  21
HETATM   21  C10 UNL     1      21.675  10.150  50.442  1.00  0.00    -0.026 A 
HETATM   22  C11 UNL     1      22.021  11.499  50.324  1.00  0.00     0.012 A 
HETATM   23  C12 UNL     1      23.037  12.037  51.072  1.00  0.00     0.001 A 
HETATM   24  C13 UNL     1      23.738  11.261  51.958  1.00  0.00     0.000 A 
HETATM   25  C14 UNL     1      23.429   9.913  52.110  1.00  0.00     0.001 A 
HETATM   26  C15 UNL     1      22.400   9.401  51.342  1.00  0.00     0.012 A 
ENDBRANCH  18  21
ENDBRANCH  13  15
ENDBRANCH   2  11
BRANCH   1  27
HETATM   27  C2  UNL     1      14.325   8.917  45.903  1.00  0.00     0.054 C 
HETATM   28  C1  UNL     1      15.240   9.466  44.835  1.00  0.00     0.011 C 
ENDBRANCH   1  27
BRANCH   5  29
HETATM   29  C20 UNL     1      12.642   6.771  44.380  1.00  0.00     0.131 C 
BRANCH  29  30
HETATM   30  C21 UNL     1      13.060   6.811  42.943  1.00  0.00     0.052 C 
BRANCH  30  31
HETATM   31  C22 UNL     1      12.001   6.630  41.931  1.00  0.00     0.122 C 
BRANCH  31  32
HETATM   32  O2  UNL     1      10.955   7.557  42.060  1.00  0.00    -0.395 OA
ATOM     33  H2  UNL     1      10.243   7.400  41.451  1.00  0.00     0.210 HD
ENDBRANCH  31  32
BRANCH  31  34
HETATM   34  C23 UNL     1      12.541   6.593  40.540  1.00  0.00     0.064 C 
BRANCH  34  35
HETATM   35  C24 UNL     1      12.497   5.318  39.797  1.00  0.00     0.130 C 
BRANCH  35  36
HETATM   36  O3  UNL     1      12.628   5.446  38.418  1.00  0.00    -0.395 OA
ATOM     37  H3  UNL     1      13.525   5.489  38.108  1.00  0.00     0.210 HD
ENDBRANCH  35  36
BRANCH  35  38
HETATM   38  C25 UNL     1      13.149   4.121  40.376  1.00  0.00     0.144 C 
BRANCH  38  39
HETATM   39  C26 UNL     1      13.499   3.117  39.301  1.00  0.00     0.175 C 
HETATM   40  O4  UNL     1      14.691   2.950  38.941  1.00  0.00    -0.648 OA
HETATM   41  O5  UNL     1      12.524   2.351  38.681  1.00  0.00    -0.648 OA
ENDBRANCH  38  39
ENDBRANCH  35  38
ENDBRANCH  34  35
ENDBRANCH  31  34
ENDBRANCH  30  31
ENDBRANCH  29  30
ENDBRANCH   5  29
TORSDOF 13
ENDMDL
