MODEL 1
REMARK VINA RESULT: -8.969591338      0.000      0.000
REMARK  14 active torsions:
REMARK  status: ('A' for Active; 'I' for Inactive)
REMARK    1  A    between atoms: C2_2  and  N1_4 
REMARK    2  A    between atoms: C4_5  and  C5_6 
REMARK    3  A    between atoms: C5_6  and  C6_7 
REMARK    4  A    between atoms: C6_7  and  C7_8 
REMARK    5  A    between atoms: C7_8  and  O1_9 
REMARK    6  A    between atoms: C7_8  and  C8_11 
REMARK    7  A    between atoms: C8_11  and  C9_12 
REMARK    8  A    between atoms: C9_12  and  O2_13 
REMARK    9  A    between atoms: C9_12  and  C10_15 
REMARK   10  A    between atoms: C10_15  and  C11_16 
REMARK   11  A    between atoms: C12_19  and  C13_20 
REMARK   12  A    between atoms: C19_27  and  C20_28 
REMARK   13  A    between atoms: C26_35  and  C27_36 
REMARK       I    between atoms: C27_36  and  N2_38 
REMARK   14  A    between atoms: N2_38  and  C28_40 
ROOT
HETATM    1  N1  UNL     1      -4.224 -16.407   6.482  1.00  0.00    -0.340 N 
HETATM    2  C4  UNL     1      -4.114 -16.038   7.790  1.00  0.00     0.025 A 
HETATM    3  C12 UNL     1      -5.363 -15.717   8.276  1.00  0.00     0.010 A 
HETATM    4  C19 UNL     1      -6.251 -15.895   7.263  1.00  0.00     0.020 A 
HETATM    5  C26 UNL     1      -5.506 -16.332   6.151  1.00  0.00     0.116 A 
ENDROOT
BRANCH   2   6
HETATM    6  C5  UNL     1      -2.922 -15.995   8.647  1.00  0.00     0.061 C 
BRANCH   6   7
HETATM    7  C6  UNL     1      -2.140 -14.710   8.411  1.00  0.00     0.038 C 
BRANCH   7   8
HETATM    8  C7  UNL     1      -0.937 -14.715   9.319  1.00  0.00     0.120 C 
BRANCH   8   9
HETATM    9  O1  UNL     1      -0.066 -15.757   9.037  1.00  0.00    -0.395 OA
ATOM     10  H1  UNL     1       0.748 -15.689   9.520  1.00  0.00     0.210 HD
ENDBRANCH   8   9
BRANCH   8  11
HETATM   11  C8  UNL     1      -0.277 -13.380   9.424  1.00  0.00     0.064 C 
BRANCH  11  12
HETATM   12  C9  UNL     1      -0.170 -12.962  10.884  1.00  0.00     0.130 C 
BRANCH  12  13
HETATM   13  O2  UNL     1       0.469 -11.722  10.911  1.00  0.00    -0.395 OA
ATOM     14  H2  UNL     1       0.886 -11.641  11.761  1.00  0.00     0.210 HD
ENDBRANCH  12  13
BRANCH  12  15
HETATM   15  C10 UNL     1      -1.586 -12.738  11.399  1.00  0.00     0.144 C 
BRANCH  15  16
HETATM   16  C11 UNL     1      -1.725 -11.425  12.054  1.00  0.00     0.175 C 
HETATM   17  O3  UNL     1      -1.437 -11.223  13.277  1.00  0.00    -0.648 OA
HETATM   18  O4  UNL     1      -2.186 -10.347  11.340  1.00  0.00    -0.648 OA
ENDBRANCH  15  16
ENDBRANCH  12  15
ENDBRANCH  11  12
ENDBRANCH   8  11
ENDBRANCH   7   8
ENDBRANCH   6   7
ENDBRANCH   2   6
BRANCH   1  19
HETATM   19  C2  UNL     1      -3.026 -16.704   5.719  1.00  0.00     0.082 C 
HETATM   20  C1  UNL     1      -2.987 -17.997   5.006  1.00  0.00     0.032 C 
HETATM   21  C3  UNL     1      -2.943 -15.627   4.598  1.00  0.00     0.032 C 
ENDBRANCH   1  19
BRANCH   3  22
HETATM   22  C13 UNL     1      -5.732 -15.269   9.619  1.00  0.00    -0.023 A 
HETATM   23  C14 UNL     1      -5.475 -13.971   9.970  1.00  0.00     0.015 A 
HETATM   24  C15 UNL     1      -5.789 -13.479  11.211  1.00  0.00     0.043 A 
HETATM   25  C16 UNL     1      -6.380 -14.319  12.122  1.00  0.00     0.116 A 
HETATM   26  F1  UNL     1      -6.690 -13.838  13.345  1.00  0.00    -0.206 F 
HETATM   27  C17 UNL     1      -6.644 -15.641  11.770  1.00  0.00     0.043 A 
HETATM   28  C18 UNL     1      -6.321 -16.111  10.524  1.00  0.00     0.015 A 
ENDBRANCH   3  22
BRANCH   5  29
HETATM   29  C27 UNL     1      -6.182 -16.741   4.914  1.00  0.00     0.273 C 
HETATM   30  O5  UNL     1      -6.465 -17.969   4.852  1.00  0.00    -0.266 OA
HETATM   31  N2  UNL     1      -6.513 -15.914   3.842  1.00  0.00    -0.322 N 
ATOM     32  H2  UNL     1      -6.260 -14.929   3.918  1.00  0.00     0.169 HD
BRANCH  31  33
HETATM   33  C28 UNL     1      -7.165 -16.320   2.671  1.00  0.00     0.035 A 
HETATM   34  C29 UNL     1      -8.312 -15.600   2.268  1.00  0.00     0.029 A 
HETATM   35  C30 UNL     1      -9.007 -15.909   1.140  1.00  0.00     0.002 A 
HETATM   36  C31 UNL     1      -8.619 -16.952   0.329  1.00  0.00     0.000 A 
HETATM   37  C32 UNL     1      -7.517 -17.676   0.679  1.00  0.00     0.002 A 
HETATM   38  C33 UNL     1      -6.826 -17.343   1.829  1.00  0.00     0.029 A 
ENDBRANCH  31  33
ENDBRANCH   5  29
BRANCH   4  39
HETATM   39  C20 UNL     1      -7.715 -15.679   7.291  1.00  0.00    -0.022 A 
HETATM   40  C21 UNL     1      -8.592 -16.743   7.322  1.00  0.00     0.015 A 
HETATM   41  C22 UNL     1      -9.971 -16.571   7.347  1.00  0.00     0.043 A 
HETATM   42  C23 UNL     1     -10.491 -15.305   7.341  1.00  0.00     0.116 A 
HETATM   43  F2  UNL     1     -11.834 -15.099   7.364  1.00  0.00    -0.206 F 
HETATM   44  C24 UNL     1      -9.617 -14.239   7.311  1.00  0.00     0.043 A 
HETATM   45  C25 UNL     1      -8.248 -14.413   7.285  1.00  0.00     0.015 A 
ENDBRANCH   4  39
TORSDOF 14
ENDMDL
