MODEL 4
REMARK VINA RESULT: -8.547048244      1.451      1.813
REMARK  14 active torsions:
REMARK  status: ('A' for Active; 'I' for Inactive)
REMARK    1  A    between atoms: C2_2  and  N1_4 
REMARK    2  A    between atoms: C4_5  and  C5_6 
REMARK    3  A    between atoms: C5_6  and  C6_7 
REMARK    4  A    between atoms: C6_7  and  C7_8 
REMARK    5  A    between atoms: C7_8  and  O1_9 
REMARK    6  A    between atoms: C7_8  and  C8_11 
REMARK    7  A    between atoms: C8_11  and  C9_12 
REMARK    8  A    between atoms: C9_12  and  O2_13 
REMARK    9  A    between atoms: C9_12  and  C10_15 
REMARK   10  A    between atoms: C10_15  and  C11_16 
REMARK   11  A    between atoms: C12_19  and  C13_20 
REMARK   12  A    between atoms: C19_27  and  C20_28 
REMARK   13  A    between atoms: C26_35  and  C27_36 
REMARK       I    between atoms: C27_36  and  N2_38 
REMARK   14  A    between atoms: N2_38  and  C28_40 
ROOT
HETATM    1  N1  UNL     1      -4.645 -16.016   5.834  1.00  0.00    -0.340 N 
HETATM    2  C4  UNL     1      -4.731 -16.154   7.188  1.00  0.00     0.025 A 
HETATM    3  C12 UNL     1      -6.056 -16.131   7.562  1.00  0.00     0.010 A 
HETATM    4  C19 UNL     1      -6.795 -15.983   6.432  1.00  0.00     0.020 A 
HETATM    5  C26 UNL     1      -5.881 -15.917   5.363  1.00  0.00     0.116 A 
ENDROOT
BRANCH   2   6
HETATM    6  C5  UNL     1      -3.657 -16.346   8.172  1.00  0.00     0.061 C 
BRANCH   6   7
HETATM    7  C6  UNL     1      -3.131 -15.003   8.658  1.00  0.00     0.038 C 
BRANCH   7   8
HETATM    8  C7  UNL     1      -1.630 -15.005   8.519  1.00  0.00     0.120 C 
BRANCH   8   9
HETATM    9  O1  UNL     1      -1.202 -14.307   7.400  1.00  0.00    -0.395 OA
ATOM     10  H1  UNL     1      -0.422 -14.687   7.013  1.00  0.00     0.210 HD
ENDBRANCH   8   9
BRANCH   8  11
HETATM   11  C8  UNL     1      -0.924 -14.629   9.781  1.00  0.00     0.064 C 
BRANCH  11  12
HETATM   12  C9  UNL     1      -1.819 -13.744  10.636  1.00  0.00     0.130 C 
BRANCH  12  13
HETATM   13  O2  UNL     1      -1.906 -14.342  11.894  1.00  0.00    -0.395 OA
ATOM     14  H2  UNL     1      -2.788 -14.681  11.983  1.00  0.00     0.210 HD
ENDBRANCH  12  13
BRANCH  12  15
HETATM   15  C10 UNL     1      -1.097 -12.417  10.829  1.00  0.00     0.144 C 
BRANCH  15  16
HETATM   16  C11 UNL     1      -1.873 -11.494  11.678  1.00  0.00     0.175 C 
HETATM   17  O3  UNL     1      -2.881 -10.842  11.258  1.00  0.00    -0.648 OA
HETATM   18  O4  UNL     1      -1.516 -11.305  12.990  1.00  0.00    -0.648 OA
ENDBRANCH  15  16
ENDBRANCH  12  15
ENDBRANCH  11  12
ENDBRANCH   8  11
ENDBRANCH   7   8
ENDBRANCH   6   7
ENDBRANCH   2   6
BRANCH   1  19
HETATM   19  C2  UNL     1      -3.341 -15.917   5.205  1.00  0.00     0.082 C 
HETATM   20  C1  UNL     1      -3.010 -16.929   4.182  1.00  0.00     0.032 C 
HETATM   21  C3  UNL     1      -3.325 -14.559   4.444  1.00  0.00     0.032 C 
ENDBRANCH   1  19
BRANCH   3  22
HETATM   22  C13 UNL     1      -6.628 -16.245   8.905  1.00  0.00    -0.023 A 
HETATM   23  C14 UNL     1      -6.691 -15.124   9.687  1.00  0.00     0.015 A 
HETATM   24  C15 UNL     1      -7.210 -15.153  10.957  1.00  0.00     0.043 A 
HETATM   25  C16 UNL     1      -7.678 -16.346  11.449  1.00  0.00     0.116 A 
HETATM   26  F1  UNL     1      -8.189 -16.377  12.699  1.00  0.00    -0.206 F 
HETATM   27  C17 UNL     1      -7.617 -17.490  10.657  1.00  0.00     0.043 A 
HETATM   28  C18 UNL     1      -7.094 -17.437   9.392  1.00  0.00     0.015 A 
ENDBRANCH   3  22
BRANCH   5  29
HETATM   29  C27 UNL     1      -6.357 -15.883   3.975  1.00  0.00     0.273 C 
HETATM   30  O5  UNL     1      -6.492 -14.725   3.495  1.00  0.00    -0.266 OA
HETATM   31  N2  UNL     1      -6.668 -16.987   3.182  1.00  0.00    -0.322 N 
ATOM     32  H2  UNL     1      -6.560 -17.909   3.604  1.00  0.00     0.169 HD
BRANCH  31  33
HETATM   33  C28 UNL     1      -7.116 -16.936   1.856  1.00  0.00     0.035 A 
HETATM   34  C29 UNL     1      -7.934 -15.849   1.476  1.00  0.00     0.029 A 
HETATM   35  C30 UNL     1      -8.410 -15.703   0.209  1.00  0.00     0.002 A 
HETATM   36  C31 UNL     1      -8.111 -16.622  -0.773  1.00  0.00     0.000 A 
HETATM   37  C32 UNL     1      -7.324 -17.688  -0.451  1.00  0.00     0.002 A 
HETATM   38  C33 UNL     1      -6.851 -17.815   0.842  1.00  0.00     0.029 A 
ENDBRANCH  31  33
ENDBRANCH   5  29
BRANCH   4  39
HETATM   39  C20 UNL     1      -8.269 -15.902   6.315  1.00  0.00    -0.022 A 
HETATM   40  C21 UNL     1      -8.977 -14.891   6.929  1.00  0.00     0.015 A 
HETATM   41  C22 UNL     1     -10.360 -14.789   6.840  1.00  0.00     0.043 A 
HETATM   42  C23 UNL     1     -11.057 -15.720   6.117  1.00  0.00     0.116 A 
HETATM   43  F2  UNL     1     -12.411 -15.653   6.009  1.00  0.00    -0.206 F 
HETATM   44  C24 UNL     1     -10.352 -16.733   5.502  1.00  0.00     0.043 A 
HETATM   45  C25 UNL     1      -8.978 -16.831   5.594  1.00  0.00     0.015 A 
ENDBRANCH   4  39
TORSDOF 14
ENDMDL
