MODEL 3
REMARK VINA RESULT: -8.556182273      1.485      1.885
REMARK  14 active torsions:
REMARK  status: ('A' for Active; 'I' for Inactive)
REMARK    1  A    between atoms: C2_2  and  N1_4 
REMARK    2  A    between atoms: C4_5  and  C5_6 
REMARK    3  A    between atoms: C5_6  and  C6_7 
REMARK    4  A    between atoms: C6_7  and  C7_8 
REMARK    5  A    between atoms: C7_8  and  O1_9 
REMARK    6  A    between atoms: C7_8  and  C8_11 
REMARK    7  A    between atoms: C8_11  and  C9_12 
REMARK    8  A    between atoms: C9_12  and  O2_13 
REMARK    9  A    between atoms: C9_12  and  C10_15 
REMARK   10  A    between atoms: C10_15  and  C11_16 
REMARK   11  A    between atoms: C12_19  and  C13_20 
REMARK   12  A    between atoms: C19_27  and  C20_28 
REMARK   13  A    between atoms: C26_35  and  C27_36 
REMARK       I    between atoms: C27_36  and  N2_38 
REMARK   14  A    between atoms: N2_38  and  C28_40 
ROOT
HETATM    1  N1  UNL     1      -4.669 -16.005   5.814  1.00  0.00    -0.340 N 
HETATM    2  C4  UNL     1      -4.757 -16.170   7.165  1.00  0.00     0.025 A 
HETATM    3  C12 UNL     1      -6.083 -16.160   7.536  1.00  0.00     0.010 A 
HETATM    4  C19 UNL     1      -6.820 -15.994   6.408  1.00  0.00     0.020 A 
HETATM    5  C26 UNL     1      -5.904 -15.903   5.342  1.00  0.00     0.116 A 
ENDROOT
BRANCH   2   6
HETATM    6  C5  UNL     1      -3.684 -16.376   8.147  1.00  0.00     0.061 C 
BRANCH   6   7
HETATM    7  C6  UNL     1      -3.171 -15.041   8.667  1.00  0.00     0.038 C 
BRANCH   7   8
HETATM    8  C7  UNL     1      -1.669 -15.025   8.530  1.00  0.00     0.120 C 
BRANCH   8   9
HETATM    9  O1  UNL     1      -1.245 -14.273   7.445  1.00  0.00    -0.395 OA
ATOM     10  H1  UNL     1      -1.904 -13.656   7.153  1.00  0.00     0.210 HD
ENDBRANCH   8   9
BRANCH   8  11
HETATM   11  C8  UNL     1      -0.969 -14.704   9.809  1.00  0.00     0.064 C 
BRANCH  11  12
HETATM   12  C9  UNL     1      -1.841 -13.804  10.671  1.00  0.00     0.130 C 
BRANCH  12  13
HETATM   13  O2  UNL     1      -1.825 -14.330  11.963  1.00  0.00    -0.395 OA
ATOM     14  H2  UNL     1      -2.729 -14.477  12.217  1.00  0.00     0.210 HD
ENDBRANCH  12  13
BRANCH  12  15
HETATM   15  C10 UNL     1      -1.160 -12.443  10.744  1.00  0.00     0.144 C 
BRANCH  15  16
HETATM   16  C11 UNL     1      -1.906 -11.506  11.604  1.00  0.00     0.175 C 
HETATM   17  O3  UNL     1      -2.850 -10.769  11.177  1.00  0.00    -0.648 OA
HETATM   18  O4  UNL     1      -1.591 -11.400  12.936  1.00  0.00    -0.648 OA
ENDBRANCH  15  16
ENDBRANCH  12  15
ENDBRANCH  11  12
ENDBRANCH   8  11
ENDBRANCH   7   8
ENDBRANCH   6   7
ENDBRANCH   2   6
BRANCH   1  19
HETATM   19  C2  UNL     1      -3.364 -15.887   5.190  1.00  0.00     0.082 C 
HETATM   20  C1  UNL     1      -3.043 -16.851   4.118  1.00  0.00     0.032 C 
HETATM   21  C3  UNL     1      -3.335 -14.494   4.497  1.00  0.00     0.032 C 
ENDBRANCH   1  19
BRANCH   3  22
HETATM   22  C13 UNL     1      -6.657 -16.304   8.875  1.00  0.00    -0.023 A 
HETATM   23  C14 UNL     1      -6.754 -15.192   9.668  1.00  0.00     0.015 A 
HETATM   24  C15 UNL     1      -7.278 -15.248  10.935  1.00  0.00     0.043 A 
HETATM   25  C16 UNL     1      -7.714 -16.458  11.414  1.00  0.00     0.116 A 
HETATM   26  F1  UNL     1      -8.229 -16.515  12.661  1.00  0.00    -0.206 F 
HETATM   27  C17 UNL     1      -7.617 -17.593  10.611  1.00  0.00     0.043 A 
HETATM   28  C18 UNL     1      -7.091 -17.513   9.349  1.00  0.00     0.015 A 
ENDBRANCH   3  22
BRANCH   5  29
HETATM   29  C27 UNL     1      -6.378 -15.844   3.954  1.00  0.00     0.273 C 
HETATM   30  O5  UNL     1      -6.463 -14.680   3.478  1.00  0.00    -0.266 OA
HETATM   31  N2  UNL     1      -6.735 -16.931   3.158  1.00  0.00    -0.322 N 
ATOM     32  H2  UNL     1      -6.666 -17.859   3.576  1.00  0.00     0.169 HD
BRANCH  31  33
HETATM   33  C28 UNL     1      -7.180 -16.857   1.831  1.00  0.00     0.035 A 
HETATM   34  C29 UNL     1      -6.798 -17.891   0.948  1.00  0.00     0.029 A 
HETATM   35  C30 UNL     1      -7.188 -17.917  -0.356  1.00  0.00     0.002 A 
HETATM   36  C31 UNL     1      -7.983 -16.921  -0.879  1.00  0.00     0.000 A 
HETATM   37  C32 UNL     1      -8.376 -15.902  -0.063  1.00  0.00     0.002 A 
HETATM   38  C33 UNL     1      -7.968 -15.898   1.258  1.00  0.00     0.029 A 
ENDBRANCH  31  33
ENDBRANCH   5  29
BRANCH   4  39
HETATM   39  C20 UNL     1      -8.294 -15.917   6.289  1.00  0.00    -0.022 A 
HETATM   40  C21 UNL     1      -9.007 -16.892   5.623  1.00  0.00     0.015 A 
HETATM   41  C22 UNL     1     -10.390 -16.846   5.493  1.00  0.00     0.043 A 
HETATM   42  C23 UNL     1     -11.082 -15.801   6.044  1.00  0.00     0.116 A 
HETATM   43  F2  UNL     1     -12.435 -15.723   5.936  1.00  0.00    -0.206 F 
HETATM   44  C24 UNL     1     -10.372 -14.825   6.710  1.00  0.00     0.043 A 
HETATM   45  C25 UNL     1      -8.999 -14.873   6.836  1.00  0.00     0.015 A 
ENDBRANCH   4  39
TORSDOF 14
ENDMDL
