MODEL 8
REMARK VINA RESULT: -7.728614309      3.432      6.204
REMARK  14 active torsions:
REMARK  status: ('A' for Active; 'I' for Inactive)
REMARK    1  A    between atoms: C2_2  and  N1_4 
REMARK    2  A    between atoms: C4_5  and  C5_6 
REMARK    3  A    between atoms: C5_6  and  C6_7 
REMARK    4  A    between atoms: C6_7  and  C7_8 
REMARK    5  A    between atoms: C7_8  and  O1_9 
REMARK    6  A    between atoms: C7_8  and  C8_11 
REMARK    7  A    between atoms: C8_11  and  C9_12 
REMARK    8  A    between atoms: C9_12  and  O2_13 
REMARK    9  A    between atoms: C9_12  and  C10_15 
REMARK   10  A    between atoms: C10_15  and  C11_16 
REMARK   11  A    between atoms: C12_19  and  C13_20 
REMARK   12  A    between atoms: C19_27  and  C20_28 
REMARK   13  A    between atoms: C26_35  and  C27_36 
REMARK       I    between atoms: C27_36  and  N2_38 
REMARK   14  A    between atoms: N2_38  and  C28_40 
ROOT
HETATM    1  N1  UNL     1      -9.088 -16.186   6.110  1.00  0.00    -0.340 N 
HETATM    2  C4  UNL     1      -7.740 -16.088   6.293  1.00  0.00     0.025 A 
HETATM    3  C12 UNL     1      -7.110 -16.194   5.073  1.00  0.00     0.010 A 
HETATM    4  C19 UNL     1      -8.074 -16.354   4.130  1.00  0.00     0.020 A 
HETATM    5  C26 UNL     1      -9.306 -16.341   4.812  1.00  0.00     0.116 A 
ENDROOT
BRANCH   2   6
HETATM    6  C5  UNL     1      -6.984 -15.861   7.532  1.00  0.00     0.061 C 
BRANCH   6   7
HETATM    7  C6  UNL     1      -6.727 -17.179   8.249  1.00  0.00     0.038 C 
BRANCH   7   8
HETATM    8  C7  UNL     1      -5.256 -17.262   8.572  1.00  0.00     0.120 C 
BRANCH   8   9
HETATM    9  O1  UNL     1      -4.661 -18.394   8.036  1.00  0.00    -0.395 OA
ATOM     10  H1  UNL     1      -3.804 -18.563   8.408  1.00  0.00     0.210 HD
ENDBRANCH   8   9
BRANCH   8  11
HETATM   11  C8  UNL     1      -4.522 -15.993   8.288  1.00  0.00     0.064 C 
BRANCH  11  12
HETATM   12  C9  UNL     1      -3.288 -15.894   9.173  1.00  0.00     0.130 C 
BRANCH  12  13
HETATM   13  O2  UNL     1      -2.322 -16.740   8.628  1.00  0.00    -0.395 OA
ATOM     14  H2  UNL     1      -2.533 -16.851   7.708  1.00  0.00     0.210 HD
ENDBRANCH  12  13
BRANCH  12  15
HETATM   15  C10 UNL     1      -2.750 -14.475   9.048  1.00  0.00     0.144 C 
BRANCH  15  16
HETATM   16  C11 UNL     1      -1.435 -14.448   8.382  1.00  0.00     0.175 C 
HETATM   17  O3  UNL     1      -0.334 -14.405   9.016  1.00  0.00    -0.648 OA
HETATM   18  O4  UNL     1      -1.360 -14.468   7.011  1.00  0.00    -0.648 OA
ENDBRANCH  15  16
ENDBRANCH  12  15
ENDBRANCH  11  12
ENDBRANCH   8  11
ENDBRANCH   7   8
ENDBRANCH   6   7
ENDBRANCH   2   6
BRANCH   1  19
HETATM   19  C2  UNL     1      -9.968 -16.195   7.264  1.00  0.00     0.082 C 
HETATM   20  C1  UNL     1     -11.201 -15.387   7.175  1.00  0.00     0.032 C 
HETATM   21  C3  UNL     1     -10.463 -17.663   7.425  1.00  0.00     0.032 C 
ENDBRANCH   1  19
BRANCH   3  22
HETATM   22  C13 UNL     1      -5.677 -16.147   4.779  1.00  0.00    -0.023 A 
HETATM   23  C14 UNL     1      -5.102 -14.933   4.517  1.00  0.00     0.015 A 
HETATM   24  C15 UNL     1      -3.766 -14.809   4.230  1.00  0.00     0.043 A 
HETATM   25  C16 UNL     1      -2.990 -15.941   4.208  1.00  0.00     0.116 A 
HETATM   26  F1  UNL     1      -1.675 -15.822   3.925  1.00  0.00    -0.206 F 
HETATM   27  C17 UNL     1      -3.570 -17.180   4.473  1.00  0.00     0.043 A 
HETATM   28  C18 UNL     1      -4.907 -17.279   4.757  1.00  0.00     0.015 A 
ENDBRANCH   3  22
BRANCH   5  29
HETATM   29  C27 UNL     1     -10.571 -16.365   4.067  1.00  0.00     0.273 C 
HETATM   30  O5  UNL     1     -11.030 -17.520   3.851  1.00  0.00    -0.266 OA
HETATM   31  N2  UNL     1     -11.270 -15.257   3.593  1.00  0.00    -0.322 N 
ATOM     32  H2  UNL     1     -10.867 -14.338   3.773  1.00  0.00     0.169 HD
BRANCH  31  33
HETATM   33  C28 UNL     1     -12.481 -15.299   2.889  1.00  0.00     0.035 A 
HETATM   34  C29 UNL     1     -12.424 -15.320   1.477  1.00  0.00     0.029 A 
HETATM   35  C30 UNL     1     -13.543 -15.372   0.704  1.00  0.00     0.002 A 
HETATM   36  C31 UNL     1     -14.798 -15.407   1.271  1.00  0.00     0.000 A 
HETATM   37  C32 UNL     1     -14.900 -15.388   2.631  1.00  0.00     0.002 A 
HETATM   38  C33 UNL     1     -13.750 -15.336   3.396  1.00  0.00     0.029 A 
ENDBRANCH  31  33
ENDBRANCH   5  29
BRANCH   4  39
HETATM   39  C20 UNL     1      -7.897 -16.514   2.668  1.00  0.00    -0.022 A 
HETATM   40  C21 UNL     1      -7.507 -17.721   2.127  1.00  0.00     0.015 A 
HETATM   41  C22 UNL     1      -7.331 -17.902   0.760  1.00  0.00     0.043 A 
HETATM   42  C23 UNL     1      -7.548 -16.851  -0.090  1.00  0.00     0.116 A 
HETATM   43  F2  UNL     1      -7.384 -16.991  -1.433  1.00  0.00    -0.206 F 
HETATM   44  C24 UNL     1      -7.938 -15.643   0.448  1.00  0.00     0.043 A 
HETATM   45  C25 UNL     1      -8.111 -15.468   1.806  1.00  0.00     0.015 A 
ENDBRANCH   4  39
TORSDOF 14
ENDMDL
