MODEL 5
REMARK VINA RESULT: -8.116928908      1.643      2.218
REMARK  14 active torsions:
REMARK  status: ('A' for Active; 'I' for Inactive)
REMARK    1  A    between atoms: C2_2  and  N1_4 
REMARK    2  A    between atoms: C4_5  and  C5_6 
REMARK    3  A    between atoms: C5_6  and  C6_7 
REMARK    4  A    between atoms: C6_7  and  C7_8 
REMARK    5  A    between atoms: C7_8  and  O1_9 
REMARK    6  A    between atoms: C7_8  and  C8_11 
REMARK    7  A    between atoms: C8_11  and  C9_12 
REMARK    8  A    between atoms: C9_12  and  O2_13 
REMARK    9  A    between atoms: C9_12  and  C10_15 
REMARK   10  A    between atoms: C10_15  and  C11_16 
REMARK   11  A    between atoms: C12_19  and  C13_20 
REMARK   12  A    between atoms: C19_27  and  C20_28 
REMARK   13  A    between atoms: C26_35  and  C27_36 
REMARK       I    between atoms: C27_36  and  N2_38 
REMARK   14  A    between atoms: N2_38  and  C28_40 
ROOT
HETATM    1  N1  UNL     1      -4.750 -16.393   6.083  1.00  0.00    -0.340 N 
HETATM    2  C4  UNL     1      -4.932 -16.601   7.419  1.00  0.00     0.025 A 
HETATM    3  C12 UNL     1      -6.271 -16.472   7.718  1.00  0.00     0.010 A 
HETATM    4  C19 UNL     1      -6.921 -16.188   6.559  1.00  0.00     0.020 A 
HETATM    5  C26 UNL     1      -5.940 -16.148   5.551  1.00  0.00     0.116 A 
ENDROOT
BRANCH   2   6
HETATM    6  C5  UNL     1      -3.945 -16.953   8.447  1.00  0.00     0.061 C 
BRANCH   6   7
HETATM    7  C6  UNL     1      -3.300 -15.699   9.021  1.00  0.00     0.038 C 
BRANCH   7   8
HETATM    8  C7  UNL     1      -3.218 -15.852  10.518  1.00  0.00     0.120 C 
BRANCH   8   9
HETATM    9  O1  UNL     1      -3.038 -17.171  10.907  1.00  0.00    -0.395 OA
ATOM     10  H1  UNL     1      -2.275 -17.566  10.503  1.00  0.00     0.210 HD
ENDBRANCH   8   9
BRANCH   8  11
HETATM   11  C8  UNL     1      -2.266 -14.892  11.153  1.00  0.00     0.064 C 
BRANCH  11  12
HETATM   12  C9  UNL     1      -2.580 -13.472  10.708  1.00  0.00     0.130 C 
BRANCH  12  13
HETATM   13  O2  UNL     1      -3.614 -13.005  11.522  1.00  0.00    -0.395 OA
ATOM     14  H2  UNL     1      -4.431 -13.234  11.095  1.00  0.00     0.210 HD
ENDBRANCH  12  13
BRANCH  12  15
HETATM   15  C10 UNL     1      -1.359 -12.616  11.017  1.00  0.00     0.144 C 
BRANCH  15  16
HETATM   16  C11 UNL     1      -1.713 -11.430  11.817  1.00  0.00     0.175 C 
HETATM   17  O3  UNL     1      -2.211 -10.373  11.313  1.00  0.00    -0.648 OA
HETATM   18  O4  UNL     1      -1.508 -11.431  13.175  1.00  0.00    -0.648 OA
ENDBRANCH  15  16
ENDBRANCH  12  15
ENDBRANCH  11  12
ENDBRANCH   8  11
ENDBRANCH   7   8
ENDBRANCH   6   7
ENDBRANCH   2   6
BRANCH   1  19
HETATM   19  C2  UNL     1      -3.406 -16.384   5.536  1.00  0.00     0.082 C 
HETATM   20  C1  UNL     1      -3.216 -17.005   4.210  1.00  0.00     0.032 C 
HETATM   21  C3  UNL     1      -3.026 -14.887   5.335  1.00  0.00     0.032 C 
ENDBRANCH   1  19
BRANCH   3  22
HETATM   22  C13 UNL     1      -6.933 -16.609   9.016  1.00  0.00    -0.023 A 
HETATM   23  C14 UNL     1      -6.903 -15.549   9.881  1.00  0.00     0.015 A 
HETATM   24  C15 UNL     1      -7.498 -15.603  11.116  1.00  0.00     0.043 A 
HETATM   25  C16 UNL     1      -8.141 -16.757  11.487  1.00  0.00     0.116 A 
HETATM   26  F1  UNL     1      -8.727 -16.813  12.702  1.00  0.00    -0.206 F 
HETATM   27  C17 UNL     1      -8.175 -17.840  10.610  1.00  0.00     0.043 A 
HETATM   28  C18 UNL     1      -7.573 -17.763   9.381  1.00  0.00     0.015 A 
ENDBRANCH   3  22
BRANCH   5  29
HETATM   29  C27 UNL     1      -6.323 -15.987   4.142  1.00  0.00     0.273 C 
HETATM   30  O5  UNL     1      -6.112 -14.838   3.669  1.00  0.00    -0.266 OA
HETATM   31  N2  UNL     1      -6.889 -16.964   3.325  1.00  0.00    -0.322 N 
ATOM     32  H2  UNL     1      -7.059 -17.880   3.741  1.00  0.00     0.169 HD
BRANCH  31  33
HETATM   33  C28 UNL     1      -7.244 -16.795   1.980  1.00  0.00     0.035 A 
HETATM   34  C29 UNL     1      -6.894 -17.818   1.071  1.00  0.00     0.029 A 
HETATM   35  C30 UNL     1      -7.204 -17.753  -0.253  1.00  0.00     0.002 A 
HETATM   36  C31 UNL     1      -7.882 -16.672  -0.772  1.00  0.00     0.000 A 
HETATM   37  C32 UNL     1      -8.240 -15.660   0.070  1.00  0.00     0.002 A 
HETATM   38  C33 UNL     1      -7.915 -15.748   1.410  1.00  0.00     0.029 A 
ENDBRANCH  31  33
ENDBRANCH   5  29
BRANCH   4  39
HETATM   39  C20 UNL     1      -8.371 -15.958   6.365  1.00  0.00    -0.022 A 
HETATM   40  C21 UNL     1      -9.034 -14.970   7.061  1.00  0.00     0.015 A 
HETATM   41  C22 UNL     1     -10.394 -14.732   6.901  1.00  0.00     0.043 A 
HETATM   42  C23 UNL     1     -11.112 -15.499   6.024  1.00  0.00     0.116 A 
HETATM   43  F2  UNL     1     -12.445 -15.295   5.843  1.00  0.00    -0.206 F 
HETATM   44  C24 UNL     1     -10.451 -16.487   5.327  1.00  0.00     0.043 A 
HETATM   45  C25 UNL     1      -9.101 -16.722   5.488  1.00  0.00     0.015 A 
ENDBRANCH   4  39
TORSDOF 14
ENDMDL
