MODEL 2
REMARK VINA RESULT: -8.916095177      0.868      1.244
REMARK  14 active torsions:
REMARK  status: ('A' for Active; 'I' for Inactive)
REMARK    1  A    between atoms: C2_2  and  N1_4 
REMARK    2  A    between atoms: C4_5  and  C5_6 
REMARK    3  A    between atoms: C5_6  and  C6_7 
REMARK    4  A    between atoms: C6_7  and  C7_8 
REMARK    5  A    between atoms: C7_8  and  O1_9 
REMARK    6  A    between atoms: C7_8  and  C8_11 
REMARK    7  A    between atoms: C8_11  and  C9_12 
REMARK    8  A    between atoms: C9_12  and  O2_13 
REMARK    9  A    between atoms: C9_12  and  C10_15 
REMARK   10  A    between atoms: C10_15  and  C11_16 
REMARK   11  A    between atoms: C12_19  and  C13_20 
REMARK   12  A    between atoms: C19_27  and  C20_28 
REMARK   13  A    between atoms: C26_35  and  C27_36 
REMARK       I    between atoms: C27_36  and  N2_38 
REMARK   14  A    between atoms: N2_38  and  C28_40 
ROOT
HETATM    1  N1  UNL     1      -4.291 -16.016   6.005  1.00  0.00    -0.340 N 
HETATM    2  C4  UNL     1      -4.205 -15.939   7.364  1.00  0.00     0.025 A 
HETATM    3  C12 UNL     1      -5.472 -15.814   7.890  1.00  0.00     0.010 A 
HETATM    4  C19 UNL     1      -6.346 -15.818   6.850  1.00  0.00     0.020 A 
HETATM    5  C26 UNL     1      -5.574 -15.950   5.681  1.00  0.00     0.116 A 
ENDROOT
BRANCH   2   6
HETATM    6  C5  UNL     1      -3.018 -16.013   8.226  1.00  0.00     0.061 C 
BRANCH   6   7
HETATM    7  C6  UNL     1      -2.399 -14.634   8.402  1.00  0.00     0.038 C 
BRANCH   7   8
HETATM    8  C7  UNL     1      -1.147 -14.779   9.230  1.00  0.00     0.120 C 
BRANCH   8   9
HETATM    9  O1  UNL     1      -0.372 -15.858   8.833  1.00  0.00    -0.395 OA
ATOM     10  H1  UNL     1       0.102 -16.249   9.556  1.00  0.00     0.210 HD
ENDBRANCH   8   9
BRANCH   8  11
HETATM   11  C8  UNL     1      -0.388 -13.500   9.372  1.00  0.00     0.064 C 
BRANCH  11  12
HETATM   12  C9  UNL     1      -0.351 -13.074  10.832  1.00  0.00     0.130 C 
BRANCH  12  13
HETATM   13  O2  UNL     1       0.382 -11.888  10.896  1.00  0.00    -0.395 OA
ATOM     14  H2  UNL     1       1.146 -12.061  11.434  1.00  0.00     0.210 HD
ENDBRANCH  12  13
BRANCH  12  15
HETATM   15  C10 UNL     1      -1.777 -12.731  11.244  1.00  0.00     0.144 C 
BRANCH  15  16
HETATM   16  C11 UNL     1      -1.865 -11.378  11.824  1.00  0.00     0.175 C 
HETATM   17  O3  UNL     1      -2.231 -10.357  11.160  1.00  0.00    -0.648 OA
HETATM   18  O4  UNL     1      -1.543 -11.176  13.143  1.00  0.00    -0.648 OA
ENDBRANCH  15  16
ENDBRANCH  12  15
ENDBRANCH  11  12
ENDBRANCH   8  11
ENDBRANCH   7   8
ENDBRANCH   6   7
ENDBRANCH   2   6
BRANCH   1  19
HETATM   19  C2  UNL     1      -3.075 -16.060   5.213  1.00  0.00     0.082 C 
HETATM   20  C1  UNL     1      -2.993 -17.100   4.167  1.00  0.00     0.032 C 
HETATM   21  C3  UNL     1      -3.008 -14.710   4.441  1.00  0.00     0.032 C 
ENDBRANCH   1  19
BRANCH   3  22
HETATM   22  C13 UNL     1      -5.870 -15.699   9.294  1.00  0.00    -0.023 A 
HETATM   23  C14 UNL     1      -5.866 -14.460   9.877  1.00  0.00     0.015 A 
HETATM   24  C15 UNL     1      -6.223 -14.273  11.188  1.00  0.00     0.043 A 
HETATM   25  C16 UNL     1      -6.595 -15.366  11.931  1.00  0.00     0.116 A 
HETATM   26  F1  UNL     1      -6.946 -15.185  13.222  1.00  0.00    -0.206 F 
HETATM   27  C17 UNL     1      -6.601 -16.630  11.343  1.00  0.00     0.043 A 
HETATM   28  C18 UNL     1      -6.240 -16.792  10.031  1.00  0.00     0.015 A 
ENDBRANCH   3  22
BRANCH   5  29
HETATM   29  C27 UNL     1      -6.222 -16.116   4.374  1.00  0.00     0.273 C 
HETATM   30  O5  UNL     1      -6.329 -15.054   3.702  1.00  0.00    -0.266 OA
HETATM   31  N2  UNL     1      -6.718 -17.306   3.844  1.00  0.00    -0.322 N 
ATOM     32  H2  UNL     1      -6.628 -18.145   4.416  1.00  0.00     0.169 HD
BRANCH  31  33
HETATM   33  C28 UNL     1      -7.329 -17.447   2.591  1.00  0.00     0.035 A 
HETATM   34  C29 UNL     1      -8.726 -17.255   2.512  1.00  0.00     0.029 A 
HETATM   35  C30 UNL     1      -9.410 -17.358   1.340  1.00  0.00     0.002 A 
HETATM   36  C31 UNL     1      -8.762 -17.659   0.162  1.00  0.00     0.000 A 
HETATM   37  C32 UNL     1      -7.412 -17.853   0.191  1.00  0.00     0.002 A 
HETATM   38  C33 UNL     1      -6.739 -17.742   1.393  1.00  0.00     0.029 A 
ENDBRANCH  31  33
ENDBRANCH   5  29
BRANCH   4  39
HETATM   39  C20 UNL     1      -7.822 -15.706   6.905  1.00  0.00    -0.022 A 
HETATM   40  C21 UNL     1      -8.434 -14.506   7.198  1.00  0.00     0.015 A 
HETATM   41  C22 UNL     1      -9.816 -14.370   7.259  1.00  0.00     0.043 A 
HETATM   42  C23 UNL     1     -10.609 -15.460   7.019  1.00  0.00     0.116 A 
HETATM   43  F2  UNL     1     -11.965 -15.364   7.071  1.00  0.00    -0.206 F 
HETATM   44  C24 UNL     1     -10.000 -16.661   6.725  1.00  0.00     0.043 A 
HETATM   45  C25 UNL     1      -8.628 -16.792   6.667  1.00  0.00     0.015 A 
ENDBRANCH   4  39
TORSDOF 14
ENDMDL
