MODEL 10
REMARK VINA RESULT: -7.630252047      3.021      5.340
REMARK  14 active torsions:
REMARK  status: ('A' for Active; 'I' for Inactive)
REMARK    1  A    between atoms: C2_2  and  N1_4 
REMARK    2  A    between atoms: C4_5  and  C5_6 
REMARK    3  A    between atoms: C5_6  and  C6_7 
REMARK    4  A    between atoms: C6_7  and  C7_8 
REMARK    5  A    between atoms: C7_8  and  O1_9 
REMARK    6  A    between atoms: C7_8  and  C8_11 
REMARK    7  A    between atoms: C8_11  and  C9_12 
REMARK    8  A    between atoms: C9_12  and  O2_13 
REMARK    9  A    between atoms: C9_12  and  C10_15 
REMARK   10  A    between atoms: C10_15  and  C11_16 
REMARK   11  A    between atoms: C12_19  and  C13_20 
REMARK   12  A    between atoms: C19_27  and  C20_28 
REMARK   13  A    between atoms: C26_35  and  C27_36 
REMARK       I    between atoms: C27_36  and  N2_38 
REMARK   14  A    between atoms: N2_38  and  C28_40 
ROOT
HETATM    1  N1  UNL     1      -4.119 -16.609   9.434  1.00  0.00    -0.340 N 
HETATM    2  C4  UNL     1      -5.133 -15.730   9.679  1.00  0.00     0.025 A 
HETATM    3  C12 UNL     1      -6.267 -16.154   9.021  1.00  0.00     0.010 A 
HETATM    4  C19 UNL     1      -5.953 -17.304   8.370  1.00  0.00     0.020 A 
HETATM    5  C26 UNL     1      -4.598 -17.566   8.652  1.00  0.00     0.116 A 
ENDROOT
BRANCH   2   6
HETATM    6  C5  UNL     1      -5.137 -14.527  10.522  1.00  0.00     0.061 C 
BRANCH   6   7
HETATM    7  C6  UNL     1      -5.132 -13.272   9.662  1.00  0.00     0.038 C 
BRANCH   7   8
HETATM    8  C7  UNL     1      -4.014 -12.378  10.136  1.00  0.00     0.120 C 
BRANCH   8   9
HETATM    9  O1  UNL     1      -4.481 -11.201  10.699  1.00  0.00    -0.395 OA
ATOM     10  H1  UNL     1      -3.782 -10.671  11.063  1.00  0.00     0.210 HD
ENDBRANCH   8   9
BRANCH   8  11
HETATM   11  C8  UNL     1      -3.004 -13.096  10.968  1.00  0.00     0.064 C 
BRANCH  11  12
HETATM   12  C9  UNL     1      -1.600 -12.784  10.473  1.00  0.00     0.130 C 
BRANCH  12  13
HETATM   13  O2  UNL     1      -1.700 -11.685   9.619  1.00  0.00    -0.395 OA
ATOM     14  H2  UNL     1      -0.941 -11.136   9.779  1.00  0.00     0.210 HD
ENDBRANCH  12  13
BRANCH  12  15
HETATM   15  C10 UNL     1      -0.781 -12.332  11.675  1.00  0.00     0.144 C 
BRANCH  15  16
HETATM   16  C11 UNL     1      -1.464 -11.263  12.427  1.00  0.00     0.175 C 
HETATM   17  O3  UNL     1      -1.974 -10.238  11.873  1.00  0.00    -0.648 OA
HETATM   18  O4  UNL     1      -1.570 -11.346  13.793  1.00  0.00    -0.648 OA
ENDBRANCH  15  16
ENDBRANCH  12  15
ENDBRANCH  11  12
ENDBRANCH   8  11
ENDBRANCH   7   8
ENDBRANCH   6   7
ENDBRANCH   2   6
BRANCH   1  19
HETATM   19  C2  UNL     1      -2.789 -16.328   9.945  1.00  0.00     0.082 C 
HETATM   20  C1  UNL     1      -2.067 -17.446  10.585  1.00  0.00     0.032 C 
HETATM   21  C3  UNL     1      -1.920 -15.942   8.713  1.00  0.00     0.032 C 
ENDBRANCH   1  19
BRANCH   3  22
HETATM   22  C13 UNL     1      -7.591 -15.532   8.993  1.00  0.00    -0.023 A 
HETATM   23  C14 UNL     1      -7.859 -14.607   8.021  1.00  0.00     0.015 A 
HETATM   24  C15 UNL     1      -9.076 -13.979   7.931  1.00  0.00     0.043 A 
HETATM   25  C16 UNL     1     -10.048 -14.295   8.848  1.00  0.00     0.116 A 
HETATM   26  F1  UNL     1     -11.246 -13.679   8.763  1.00  0.00    -0.206 F 
HETATM   27  C17 UNL     1      -9.781 -15.237   9.839  1.00  0.00     0.043 A 
HETATM   28  C18 UNL     1      -8.558 -15.850   9.909  1.00  0.00     0.015 A 
ENDBRANCH   3  22
BRANCH   5  29
HETATM   29  C27 UNL     1      -3.970 -18.813   8.200  1.00  0.00     0.273 C 
HETATM   30  O5  UNL     1      -3.406 -18.739   7.075  1.00  0.00    -0.266 OA
HETATM   31  N2  UNL     1      -3.957 -20.026   8.887  1.00  0.00    -0.322 N 
ATOM     32  H2  UNL     1      -4.432 -20.057   9.789  1.00  0.00     0.169 HD
BRANCH  31  33
HETATM   33  C28 UNL     1      -3.346 -21.207   8.443  1.00  0.00     0.035 A 
HETATM   34  C29 UNL     1      -2.075 -21.530   8.968  1.00  0.00     0.029 A 
HETATM   35  C30 UNL     1      -1.405 -22.659   8.610  1.00  0.00     0.002 A 
HETATM   36  C31 UNL     1      -1.944 -23.549   7.707  1.00  0.00     0.000 A 
HETATM   37  C32 UNL     1      -3.170 -23.277   7.175  1.00  0.00     0.002 A 
HETATM   38  C33 UNL     1      -3.832 -22.124   7.554  1.00  0.00     0.029 A 
ENDBRANCH  31  33
ENDBRANCH   5  29
BRANCH   4  39
HETATM   39  C20 UNL     1      -6.836 -18.138   7.524  1.00  0.00    -0.022 A 
HETATM   40  C21 UNL     1      -7.551 -19.189   8.059  1.00  0.00     0.015 A 
HETATM   41  C22 UNL     1      -8.386 -19.990   7.290  1.00  0.00     0.043 A 
HETATM   42  C23 UNL     1      -8.513 -19.738   5.951  1.00  0.00     0.116 A 
HETATM   43  F2  UNL     1      -9.321 -20.502   5.167  1.00  0.00    -0.206 F 
HETATM   44  C24 UNL     1      -7.800 -18.688   5.412  1.00  0.00     0.043 A 
HETATM   45  C25 UNL     1      -6.971 -17.895   6.179  1.00  0.00     0.015 A 
ENDBRANCH   4  39
TORSDOF 14
ENDMDL
