MODEL 9
REMARK VINA RESULT: -7.721733348      3.450      5.968
REMARK  14 active torsions:
REMARK  status: ('A' for Active; 'I' for Inactive)
REMARK    1  A    between atoms: C2_2  and  N1_4 
REMARK    2  A    between atoms: C4_5  and  C5_6 
REMARK    3  A    between atoms: C5_6  and  C6_7 
REMARK    4  A    between atoms: C6_7  and  C7_8 
REMARK    5  A    between atoms: C7_8  and  O1_9 
REMARK    6  A    between atoms: C7_8  and  C8_11 
REMARK    7  A    between atoms: C8_11  and  C9_12 
REMARK    8  A    between atoms: C9_12  and  O2_13 
REMARK    9  A    between atoms: C9_12  and  C10_15 
REMARK   10  A    between atoms: C10_15  and  C11_16 
REMARK   11  A    between atoms: C12_19  and  C13_20 
REMARK   12  A    between atoms: C19_27  and  C20_28 
REMARK   13  A    between atoms: C26_35  and  C27_36 
REMARK       I    between atoms: C27_36  and  N2_38 
REMARK   14  A    between atoms: N2_38  and  C28_40 
ROOT
HETATM    1  N1  UNL     1      -4.368 -18.131  10.002  1.00  0.00    -0.340 N 
HETATM    2  C4  UNL     1      -3.482 -17.576   9.127  1.00  0.00     0.025 A 
HETATM    3  C12 UNL     1      -4.115 -17.353   7.924  1.00  0.00     0.010 A 
HETATM    4  C19 UNL     1      -5.402 -17.768   8.059  1.00  0.00     0.020 A 
HETATM    5  C26 UNL     1      -5.530 -18.249   9.376  1.00  0.00     0.116 A 
ENDROOT
BRANCH   2   6
HETATM    6  C5  UNL     1      -2.079 -17.196   9.339  1.00  0.00     0.061 C 
BRANCH   6   7
HETATM    7  C6  UNL     1      -1.989 -15.808   9.956  1.00  0.00     0.038 C 
BRANCH   7   8
HETATM    8  C7  UNL     1      -0.601 -15.271   9.712  1.00  0.00     0.120 C 
BRANCH   8   9
HETATM    9  O1  UNL     1       0.069 -15.970   8.720  1.00  0.00    -0.395 OA
ATOM     10  H1  UNL     1       0.887 -15.554   8.474  1.00  0.00     0.210 HD
ENDBRANCH   8   9
BRANCH   8  11
HETATM   11  C8  UNL     1      -0.568 -13.787   9.544  1.00  0.00     0.064 C 
BRANCH  11  12
HETATM   12  C9  UNL     1      -0.500 -13.108  10.903  1.00  0.00     0.130 C 
BRANCH  12  13
HETATM   13  O2  UNL     1       0.296 -11.971  10.756  1.00  0.00    -0.395 OA
ATOM     14  H2  UNL     1       0.960 -12.177  10.108  1.00  0.00     0.210 HD
ENDBRANCH  12  13
BRANCH  12  15
HETATM   15  C10 UNL     1      -1.903 -12.621  11.241  1.00  0.00     0.144 C 
BRANCH  15  16
HETATM   16  C11 UNL     1      -1.886 -11.253  11.792  1.00  0.00     0.175 C 
HETATM   17  O3  UNL     1      -2.113 -10.217  11.090  1.00  0.00    -0.648 OA
HETATM   18  O4  UNL     1      -1.615 -11.053  13.123  1.00  0.00    -0.648 OA
ENDBRANCH  15  16
ENDBRANCH  12  15
ENDBRANCH  11  12
ENDBRANCH   8  11
ENDBRANCH   7   8
ENDBRANCH   6   7
ENDBRANCH   2   6
BRANCH   1  19
HETATM   19  C2  UNL     1      -3.911 -18.546  11.316  1.00  0.00     0.082 C 
HETATM   20  C1  UNL     1      -4.946 -18.785  12.343  1.00  0.00     0.032 C 
HETATM   21  C3  UNL     1      -3.214 -19.924  11.122  1.00  0.00     0.032 C 
ENDBRANCH   1  19
BRANCH   3  22
HETATM   22  C13 UNL     1      -3.566 -16.776   6.696  1.00  0.00    -0.023 A 
HETATM   23  C14 UNL     1      -3.128 -17.623   5.714  1.00  0.00     0.015 A 
HETATM   24  C15 UNL     1      -2.598 -17.157   4.537  1.00  0.00     0.043 A 
HETATM   25  C16 UNL     1      -2.508 -15.800   4.347  1.00  0.00     0.116 A 
HETATM   26  F1  UNL     1      -1.986 -15.340   3.191  1.00  0.00    -0.206 F 
HETATM   27  C17 UNL     1      -2.953 -14.934   5.344  1.00  0.00     0.043 A 
HETATM   28  C18 UNL     1      -3.478 -15.422   6.511  1.00  0.00     0.015 A 
ENDBRANCH   3  22
BRANCH   5  29
HETATM   29  C27 UNL     1      -6.840 -18.661   9.895  1.00  0.00     0.273 C 
HETATM   30  O5  UNL     1      -7.498 -17.739  10.451  1.00  0.00    -0.266 OA
HETATM   31  N2  UNL     1      -7.386 -19.942   9.834  1.00  0.00    -0.322 N 
ATOM     32  H2  UNL     1      -6.824 -20.668   9.389  1.00  0.00     0.169 HD
BRANCH  31  33
HETATM   33  C28 UNL     1      -8.642 -20.316  10.330  1.00  0.00     0.035 A 
HETATM   34  C29 UNL     1      -9.590 -20.823   9.414  1.00  0.00     0.029 A 
HETATM   35  C30 UNL     1     -10.832 -21.225   9.798  1.00  0.00     0.002 A 
HETATM   36  C31 UNL     1     -11.225 -21.154  11.117  1.00  0.00     0.000 A 
HETATM   37  C32 UNL     1     -10.342 -20.671  12.036  1.00  0.00     0.002 A 
HETATM   38  C33 UNL     1      -9.086 -20.270  11.622  1.00  0.00     0.029 A 
ENDBRANCH  31  33
ENDBRANCH   5  29
BRANCH   4  39
HETATM   39  C20 UNL     1      -6.477 -17.737   7.041  1.00  0.00    -0.022 A 
HETATM   40  C21 UNL     1      -7.278 -16.625   6.885  1.00  0.00     0.015 A 
HETATM   41  C22 UNL     1      -8.296 -16.568   5.941  1.00  0.00     0.043 A 
HETATM   42  C23 UNL     1      -8.522 -17.647   5.130  1.00  0.00     0.116 A 
HETATM   43  F2  UNL     1      -9.510 -17.626   4.195  1.00  0.00    -0.206 F 
HETATM   44  C24 UNL     1      -7.723 -18.760   5.284  1.00  0.00     0.043 A 
HETATM   45  C25 UNL     1      -6.714 -18.814   6.223  1.00  0.00     0.015 A 
ENDBRANCH   4  39
TORSDOF 14
ENDMDL
