MODEL 2
REMARK VINA RESULT: -9.278651013      0.192      1.026
REMARK  16 active torsions:
REMARK  status: ('A' for Active; 'I' for Inactive)
REMARK    1  A    between atoms: C2_2  and  N1_4 
REMARK    2  A    between atoms: C4_5  and  C5_6 
REMARK    3  A    between atoms: C5_6  and  C6_7 
REMARK    4  A    between atoms: C6_7  and  C7_8 
REMARK    5  A    between atoms: C7_8  and  O1_9 
REMARK    6  A    between atoms: C7_8  and  C8_11 
REMARK    7  A    between atoms: C8_11  and  C9_12 
REMARK    8  A    between atoms: C9_12  and  O2_13 
REMARK    9  A    between atoms: C9_12  and  C10_15 
REMARK   10  A    between atoms: C10_15  and  C11_16 
REMARK   11  A    between atoms: C12_19  and  C13_20 
REMARK   12  A    between atoms: C19_27  and  C20_28 
REMARK   13  A    between atoms: C26_34  and  C27_35 
REMARK       I    between atoms: C27_35  and  N2_37 
REMARK   14  A    between atoms: N2_37  and  C28_39 
REMARK   15  A    between atoms: C31_42  and  S1_43 
REMARK   16  A    between atoms: S1_43  and  N3_44 
ROOT
HETATM    1  N1  UNL     1      19.004  23.960  13.499  1.00  0.00    -0.340 N 
HETATM    2  C4  UNL     1      17.889  23.453  14.111  1.00  0.00     0.025 A 
HETATM    3  C12 UNL     1      18.022  23.728  15.469  1.00  0.00     0.010 A 
HETATM    4  C19 UNL     1      19.196  24.384  15.673  1.00  0.00     0.020 A 
HETATM    5  C26 UNL     1      19.803  24.515  14.399  1.00  0.00     0.116 A 
ENDROOT
BRANCH   5   6
HETATM    6  C27 UNL     1      21.147  25.061  14.229  1.00  0.00     0.273 C 
HETATM    7  O5  UNL     1      22.082  24.225  14.162  1.00  0.00    -0.266 OA
HETATM    8  N2  UNL     1      21.491  26.416  14.126  1.00  0.00    -0.322 N 
ATOM      9  H2  UNL     1      20.746  27.110  14.170  1.00  0.00     0.169 HD
BRANCH   8  10
HETATM   10  C28 UNL     1      22.805  26.860  13.965  1.00  0.00     0.035 A 
HETATM   11  C29 UNL     1      23.758  26.871  14.919  1.00  0.00     0.031 A 
HETATM   12  C30 UNL     1      25.013  27.382  14.602  1.00  0.00     0.027 A 
HETATM   13  C31 UNL     1      25.319  27.879  13.340  1.00  0.00     0.079 A 
HETATM   14  C32 UNL     1      24.351  27.872  12.357  1.00  0.00     0.027 A 
HETATM   15  C33 UNL     1      23.120  27.366  12.685  1.00  0.00     0.031 A 
BRANCH  13  16
HETATM   16  S1  UNL     1      26.907  28.500  12.972  1.00  0.00     0.256 S 
HETATM   17  O6  UNL     1      27.841  28.132  14.105  1.00  0.00    -0.201 OA
HETATM   18  O7  UNL     1      26.819  29.978  12.805  1.00  0.00    -0.201 OA
BRANCH  16  19
HETATM   19  N3  UNL     1      27.511  27.714  11.557  1.00  0.00    -0.324 N 
ATOM     20  H32 UNL     1      27.161  27.873  10.612  1.00  0.00     0.169 HD
ATOM     21  H31 UNL     1      28.263  27.077  11.821  1.00  0.00     0.169 HD
ENDBRANCH  16  19
ENDBRANCH  13  16
ENDBRANCH   8  10
ENDBRANCH   5   6
BRANCH   1  22
HETATM   22  C2  UNL     1      19.079  23.894  12.066  1.00  0.00     0.082 C 
HETATM   23  C1  UNL     1      20.187  23.179  11.430  1.00  0.00     0.032 C 
HETATM   24  C3  UNL     1      19.157  25.347  11.523  1.00  0.00     0.032 C 
ENDBRANCH   1  22
BRANCH   4  25
HETATM   25  C20 UNL     1      19.797  24.891  16.896  1.00  0.00    -0.023 A 
HETATM   26  C21 UNL     1      20.042  26.241  16.985  1.00  0.00     0.012 A 
HETATM   27  C22 UNL     1      20.603  26.796  18.132  1.00  0.00     0.001 A 
HETATM   28  C23 UNL     1      20.899  25.943  19.165  1.00  0.00     0.000 A 
HETATM   29  C24 UNL     1      20.661  24.580  19.100  1.00  0.00     0.001 A 
HETATM   30  C25 UNL     1      20.107  24.061  17.955  1.00  0.00     0.012 A 
ENDBRANCH   4  25
BRANCH   2  31
HETATM   31  C5  UNL     1      16.757  22.680  13.579  1.00  0.00     0.061 C 
BRANCH  31  32
HETATM   32  C6  UNL     1      17.056  21.342  13.021  1.00  0.00     0.038 C 
BRANCH  32  33
HETATM   33  C7  UNL     1      15.761  20.635  12.606  1.00  0.00     0.120 C 
BRANCH  33  34
HETATM   34  O1  UNL     1      15.364  21.213  11.403  1.00  0.00    -0.395 OA
ATOM     35  H1  UNL     1      14.420  21.307  11.448  1.00  0.00     0.210 HD
ENDBRANCH  33  34
BRANCH  33  36
HETATM   36  C8  UNL     1      15.943  19.166  12.372  1.00  0.00     0.064 C 
BRANCH  36  37
HETATM   37  C9  UNL     1      15.084  18.414  13.364  1.00  0.00     0.130 C 
BRANCH  37  38
HETATM   38  O2  UNL     1      15.084  17.048  13.113  1.00  0.00    -0.395 OA
ATOM     39  H2  UNL     1      14.216  16.730  12.897  1.00  0.00     0.210 HD
ENDBRANCH  37  38
BRANCH  37  40
HETATM   40  C10 UNL     1      15.465  18.667  14.785  1.00  0.00     0.144 C 
BRANCH  40  41
HETATM   41  C11 UNL     1      15.963  17.489  15.512  1.00  0.00     0.175 C 
HETATM   42  O3  UNL     1      17.191  17.283  15.670  1.00  0.00    -0.648 OA
HETATM   43  O4  UNL     1      15.061  16.538  16.058  1.00  0.00    -0.648 OA
ENDBRANCH  40  41
ENDBRANCH  37  40
ENDBRANCH  36  37
ENDBRANCH  33  36
ENDBRANCH  32  33
ENDBRANCH  31  32
ENDBRANCH   2  31
BRANCH   3  44
HETATM   44  C13 UNL     1      17.080  23.407  16.531  1.00  0.00    -0.023 A 
HETATM   45  C14 UNL     1      17.099  22.087  16.964  1.00  0.00     0.015 A 
HETATM   46  C15 UNL     1      16.234  21.643  17.971  1.00  0.00     0.043 A 
HETATM   47  C16 UNL     1      15.361  22.565  18.518  1.00  0.00     0.116 A 
HETATM   48  F1  UNL     1      14.524  22.167  19.482  1.00  0.00    -0.206 F 
HETATM   49  C17 UNL     1      15.329  23.877  18.102  1.00  0.00     0.043 A 
HETATM   50  C18 UNL     1      16.208  24.288  17.091  1.00  0.00     0.015 A 
ENDBRANCH   3  44
TORSDOF 16
ENDMDL
