MODEL 3
REMARK VINA RESULT: -8.826451751      1.424      1.779
REMARK  16 active torsions:
REMARK  status: ('A' for Active; 'I' for Inactive)
REMARK    1  A    between atoms: C2_2  and  N1_4 
REMARK    2  A    between atoms: C4_5  and  C5_6 
REMARK    3  A    between atoms: C5_6  and  C6_7 
REMARK    4  A    between atoms: C6_7  and  C7_8 
REMARK    5  A    between atoms: C7_8  and  O1_9 
REMARK    6  A    between atoms: C7_8  and  C8_11 
REMARK    7  A    between atoms: C8_11  and  C9_12 
REMARK    8  A    between atoms: C9_12  and  O2_13 
REMARK    9  A    between atoms: C9_12  and  C10_15 
REMARK   10  A    between atoms: C10_15  and  C11_16 
REMARK   11  A    between atoms: C12_19  and  C13_20 
REMARK   12  A    between atoms: C19_27  and  C20_28 
REMARK   13  A    between atoms: C26_34  and  C27_35 
REMARK       I    between atoms: C27_35  and  N2_37 
REMARK   14  A    between atoms: N2_37  and  C28_39 
REMARK   15  A    between atoms: C31_42  and  S1_43 
REMARK   16  A    between atoms: S1_43  and  N3_44 
ROOT
HETATM    1  N1  UNL     1      19.922  24.601  13.545  1.00  0.00    -0.340 N 
HETATM    2  C4  UNL     1      18.842  23.905  14.018  1.00  0.00     0.025 A 
HETATM    3  C12 UNL     1      18.719  24.231  15.366  1.00  0.00     0.010 A 
HETATM    4  C19 UNL     1      19.708  25.103  15.700  1.00  0.00     0.020 A 
HETATM    5  C26 UNL     1      20.463  25.318  14.520  1.00  0.00     0.116 A 
ENDROOT
BRANCH   5   6
HETATM    6  C27 UNL     1      21.692  26.106  14.514  1.00  0.00     0.273 C 
HETATM    7  O5  UNL     1      21.588  27.295  14.119  1.00  0.00    -0.266 OA
HETATM    8  N2  UNL     1      22.964  25.674  14.912  1.00  0.00    -0.322 N 
ATOM      9  H2  UNL     1      23.067  24.715  15.244  1.00  0.00     0.169 HD
BRANCH   8  10
HETATM   10  C28 UNL     1      24.095  26.491  14.877  1.00  0.00     0.035 A 
HETATM   11  C29 UNL     1      24.467  27.367  15.833  1.00  0.00     0.031 A 
HETATM   12  C30 UNL     1      25.609  28.134  15.625  1.00  0.00     0.027 A 
HETATM   13  C31 UNL     1      26.378  28.031  14.472  1.00  0.00     0.079 A 
HETATM   14  C32 UNL     1      26.006  27.138  13.489  1.00  0.00     0.027 A 
HETATM   15  C33 UNL     1      24.879  26.390  13.707  1.00  0.00     0.031 A 
BRANCH  13  16
HETATM   16  S1  UNL     1      27.812  28.998  14.250  1.00  0.00     0.256 S 
HETATM   17  O6  UNL     1      28.400  28.682  12.891  1.00  0.00    -0.201 OA
HETATM   18  O7  UNL     1      28.778  28.685  15.341  1.00  0.00    -0.201 OA
BRANCH  16  19
HETATM   19  N3  UNL     1      27.372  30.670  14.223  1.00  0.00    -0.324 N 
ATOM     20  H32 UNL     1      26.830  31.113  13.482  1.00  0.00     0.169 HD
ATOM     21  H31 UNL     1      27.741  31.128  15.056  1.00  0.00     0.169 HD
ENDBRANCH  16  19
ENDBRANCH  13  16
ENDBRANCH   8  10
ENDBRANCH   5   6
BRANCH   1  22
HETATM   22  C2  UNL     1      20.219  24.518  12.143  1.00  0.00     0.082 C 
HETATM   23  C1  UNL     1      19.196  24.886  11.162  1.00  0.00     0.032 C 
HETATM   24  C3  UNL     1      20.595  23.047  11.818  1.00  0.00     0.032 C 
ENDBRANCH   1  22
BRANCH   4  25
HETATM   25  C20 UNL     1      20.017  25.742  16.969  1.00  0.00    -0.023 A 
HETATM   26  C21 UNL     1      20.706  25.014  17.909  1.00  0.00     0.012 A 
HETATM   27  C22 UNL     1      21.047  25.567  19.141  1.00  0.00     0.001 A 
HETATM   28  C23 UNL     1      20.666  26.865  19.375  1.00  0.00     0.000 A 
HETATM   29  C24 UNL     1      19.972  27.619  18.444  1.00  0.00     0.001 A 
HETATM   30  C25 UNL     1      19.650  27.046  17.238  1.00  0.00     0.012 A 
ENDBRANCH   4  25
BRANCH   2  31
HETATM   31  C5  UNL     1      17.964  22.919  13.371  1.00  0.00     0.061 C 
BRANCH  31  32
HETATM   32  C6  UNL     1      16.536  23.281  13.223  1.00  0.00     0.038 C 
BRANCH  32  33
HETATM   33  C7  UNL     1      15.648  22.049  13.428  1.00  0.00     0.120 C 
BRANCH  33  34
HETATM   34  O1  UNL     1      15.035  21.796  12.204  1.00  0.00    -0.395 OA
ATOM     35  H1  UNL     1      14.294  22.388  12.146  1.00  0.00     0.210 HD
ENDBRANCH  33  34
BRANCH  33  36
HETATM   36  C8  UNL     1      16.422  20.826  13.817  1.00  0.00     0.064 C 
BRANCH  36  37
HETATM   37  C9  UNL     1      15.640  20.084  14.878  1.00  0.00     0.130 C 
BRANCH  37  38
HETATM   38  O2  UNL     1      14.347  19.799  14.459  1.00  0.00    -0.395 OA
ATOM     39  H2  UNL     1      14.337  19.369  13.613  1.00  0.00     0.210 HD
ENDBRANCH  37  38
BRANCH  37  40
HETATM   40  C10 UNL     1      16.310  18.831  15.336  1.00  0.00     0.144 C 
BRANCH  40  41
HETATM   41  C11 UNL     1      15.551  17.595  15.088  1.00  0.00     0.175 C 
HETATM   42  O3  UNL     1      15.311  16.774  16.005  1.00  0.00    -0.648 OA
HETATM   43  O4  UNL     1      15.065  17.290  13.789  1.00  0.00    -0.648 OA
ENDBRANCH  40  41
ENDBRANCH  37  40
ENDBRANCH  36  37
ENDBRANCH  33  36
ENDBRANCH  32  33
ENDBRANCH  31  32
ENDBRANCH   2  31
BRANCH   3  44
HETATM   44  C13 UNL     1      17.706  23.760  16.299  1.00  0.00    -0.023 A 
HETATM   45  C14 UNL     1      16.669  24.650  16.549  1.00  0.00     0.015 A 
HETATM   46  C15 UNL     1      15.636  24.327  17.437  1.00  0.00     0.043 A 
HETATM   47  C16 UNL     1      15.686  23.091  18.055  1.00  0.00     0.116 A 
HETATM   48  F1  UNL     1      14.712  22.757  18.908  1.00  0.00    -0.206 F 
HETATM   49  C17 UNL     1      16.706  22.197  17.818  1.00  0.00     0.043 A 
HETATM   50  C18 UNL     1      17.725  22.552  16.924  1.00  0.00     0.015 A 
ENDBRANCH   3  44
TORSDOF 16
ENDMDL
