MODEL 6
REMARK VINA RESULT: -8.256999248      5.038      7.324
REMARK  16 active torsions:
REMARK  status: ('A' for Active; 'I' for Inactive)
REMARK    1  A    between atoms: C2_2  and  N1_4 
REMARK    2  A    between atoms: C4_5  and  C5_6 
REMARK    3  A    between atoms: C5_6  and  C6_7 
REMARK    4  A    between atoms: C6_7  and  C7_8 
REMARK    5  A    between atoms: C7_8  and  O1_9 
REMARK    6  A    between atoms: C7_8  and  C8_11 
REMARK    7  A    between atoms: C8_11  and  C9_12 
REMARK    8  A    between atoms: C9_12  and  O2_13 
REMARK    9  A    between atoms: C9_12  and  C10_15 
REMARK   10  A    between atoms: C10_15  and  C11_16 
REMARK   11  A    between atoms: C12_19  and  C13_20 
REMARK   12  A    between atoms: C19_27  and  C20_28 
REMARK   13  A    between atoms: C26_34  and  C27_35 
REMARK       I    between atoms: C27_35  and  N2_37 
REMARK   14  A    between atoms: N2_37  and  C28_39 
REMARK   15  A    between atoms: C31_42  and  S1_43 
REMARK   16  A    between atoms: S1_43  and  N3_44 
ROOT
HETATM    1  N1  UNL     1      16.057  24.616  15.566  1.00  0.00    -0.340 N 
HETATM    2  C4  UNL     1      16.477  24.034  14.400  1.00  0.00     0.025 A 
HETATM    3  C12 UNL     1      17.709  24.606  14.094  1.00  0.00     0.010 A 
HETATM    4  C19 UNL     1      18.024  25.516  15.054  1.00  0.00     0.020 A 
HETATM    5  C26 UNL     1      16.949  25.504  15.979  1.00  0.00     0.116 A 
ENDROOT
BRANCH   5   6
HETATM    6  C27 UNL     1      16.869  26.447  17.091  1.00  0.00     0.273 C 
HETATM    7  O5  UNL     1      17.516  26.144  18.125  1.00  0.00    -0.266 OA
HETATM    8  N2  UNL     1      16.154  27.652  17.114  1.00  0.00    -0.322 N 
ATOM      9  H2  UNL     1      15.629  27.920  16.282  1.00  0.00     0.169 HD
BRANCH   8  10
HETATM   10  C28 UNL     1      16.126  28.503  18.221  1.00  0.00     0.035 A 
HETATM   11  C29 UNL     1      17.091  29.378  18.569  1.00  0.00     0.031 A 
HETATM   12  C30 UNL     1      16.922  30.130  19.728  1.00  0.00     0.027 A 
HETATM   13  C31 UNL     1      15.797  30.013  20.536  1.00  0.00     0.079 A 
HETATM   14  C32 UNL     1      14.804  29.121  20.187  1.00  0.00     0.027 A 
HETATM   15  C33 UNL     1      14.985  28.387  19.045  1.00  0.00     0.031 A 
BRANCH  13  16
HETATM   16  S1  UNL     1      15.610  30.982  21.975  1.00  0.00     0.256 S 
HETATM   17  O6  UNL     1      14.333  30.564  22.673  1.00  0.00    -0.201 OA
HETATM   18  O7  UNL     1      15.566  32.419  21.584  1.00  0.00    -0.201 OA
BRANCH  16  19
HETATM   19  N3  UNL     1      16.906  30.637  23.065  1.00  0.00    -0.324 N 
ATOM     20  H32 UNL     1      17.116  29.714  23.441  1.00  0.00     0.169 HD
ATOM     21  H31 UNL     1      17.415  31.499  23.264  1.00  0.00     0.169 HD
ENDBRANCH  16  19
ENDBRANCH  13  16
ENDBRANCH   8  10
ENDBRANCH   5   6
BRANCH   1  22
HETATM   22  C2  UNL     1      14.842  24.135  16.163  1.00  0.00     0.082 C 
HETATM   23  C1  UNL     1      13.694  25.034  16.294  1.00  0.00     0.032 C 
HETATM   24  C3  UNL     1      15.169  23.667  17.607  1.00  0.00     0.032 C 
ENDBRANCH   1  22
BRANCH   4  25
HETATM   25  C20 UNL     1      19.189  26.374  15.200  1.00  0.00    -0.023 A 
HETATM   26  C21 UNL     1      19.171  27.601  14.580  1.00  0.00     0.012 A 
HETATM   27  C22 UNL     1      20.246  28.478  14.688  1.00  0.00     0.001 A 
HETATM   28  C23 UNL     1      21.321  28.067  15.436  1.00  0.00     0.000 A 
HETATM   29  C24 UNL     1      21.363  26.837  16.070  1.00  0.00     0.001 A 
HETATM   30  C25 UNL     1      20.287  25.993  15.946  1.00  0.00     0.012 A 
ENDBRANCH   4  25
BRANCH   2  31
HETATM   31  C5  UNL     1      15.824  23.065  13.508  1.00  0.00     0.061 C 
BRANCH  31  32
HETATM   32  C6  UNL     1      16.415  21.709  13.436  1.00  0.00     0.038 C 
BRANCH  32  33
HETATM   33  C7  UNL     1      15.482  20.760  12.677  1.00  0.00     0.120 C 
BRANCH  33  34
HETATM   34  O1  UNL     1      15.362  21.272  11.387  1.00  0.00    -0.395 OA
ATOM     35  H1  UNL     1      15.614  20.573  10.796  1.00  0.00     0.210 HD
ENDBRANCH  33  34
BRANCH  33  36
HETATM   36  C8  UNL     1      16.022  19.366  12.570  1.00  0.00     0.064 C 
BRANCH  36  37
HETATM   37  C9  UNL     1      15.086  18.433  13.305  1.00  0.00     0.130 C 
BRANCH  37  38
HETATM   38  O2  UNL     1      15.300  17.107  12.953  1.00  0.00    -0.395 OA
ATOM     39  H2  UNL     1      15.177  16.523  13.692  1.00  0.00     0.210 HD
ENDBRANCH  37  38
BRANCH  37  40
HETATM   40  C10 UNL     1      15.151  18.579  14.789  1.00  0.00     0.144 C 
BRANCH  40  41
HETATM   41  C11 UNL     1      15.776  17.451  15.496  1.00  0.00     0.175 C 
HETATM   42  O3  UNL     1      15.089  16.570  16.067  1.00  0.00    -0.648 OA
HETATM   43  O4  UNL     1      17.189  17.326  15.558  1.00  0.00    -0.648 OA
ENDBRANCH  40  41
ENDBRANCH  37  40
ENDBRANCH  36  37
ENDBRANCH  33  36
ENDBRANCH  32  33
ENDBRANCH  31  32
ENDBRANCH   2  31
BRANCH   3  44
HETATM   44  C13 UNL     1      18.567  24.298  12.959  1.00  0.00    -0.023 A 
HETATM   45  C14 UNL     1      19.628  23.443  13.230  1.00  0.00     0.015 A 
HETATM   46  C15 UNL     1      20.536  23.077  12.229  1.00  0.00     0.043 A 
HETATM   47  C16 UNL     1      20.339  23.597  10.963  1.00  0.00     0.116 A 
HETATM   48  F1  UNL     1      21.192  23.263   9.989  1.00  0.00    -0.206 F 
HETATM   49  C17 UNL     1      19.292  24.445  10.677  1.00  0.00     0.043 A 
HETATM   50  C18 UNL     1      18.401  24.792  11.702  1.00  0.00     0.015 A 
ENDBRANCH   3  44
TORSDOF 16
ENDMDL
