MODEL 5
REMARK VINA RESULT: -8.339660667      1.267      1.882
REMARK  16 active torsions:
REMARK  status: ('A' for Active; 'I' for Inactive)
REMARK    1  A    between atoms: C2_2  and  N1_4 
REMARK    2  A    between atoms: C4_5  and  C5_6 
REMARK    3  A    between atoms: C5_6  and  C6_7 
REMARK    4  A    between atoms: C6_7  and  C7_8 
REMARK    5  A    between atoms: C7_8  and  O1_9 
REMARK    6  A    between atoms: C7_8  and  C8_11 
REMARK    7  A    between atoms: C8_11  and  C9_12 
REMARK    8  A    between atoms: C9_12  and  O2_13 
REMARK    9  A    between atoms: C9_12  and  C10_15 
REMARK   10  A    between atoms: C10_15  and  C11_16 
REMARK   11  A    between atoms: C12_19  and  C13_20 
REMARK   12  A    between atoms: C19_27  and  C20_28 
REMARK   13  A    between atoms: C26_34  and  C27_35 
REMARK       I    between atoms: C27_35  and  N2_37 
REMARK   14  A    between atoms: N2_37  and  C28_39 
REMARK   15  A    between atoms: C31_42  and  S1_43 
REMARK   16  A    between atoms: S1_43  and  N3_44 
ROOT
HETATM    1  N1  UNL     1      19.947  24.501  13.170  1.00  0.00    -0.340 N 
HETATM    2  C4  UNL     1      18.837  23.922  13.724  1.00  0.00     0.025 A 
HETATM    3  C12 UNL     1      18.760  24.385  15.034  1.00  0.00     0.010 A 
HETATM    4  C19 UNL     1      19.805  25.224  15.267  1.00  0.00     0.020 A 
HETATM    5  C26 UNL     1      20.547  25.277  14.060  1.00  0.00     0.116 A 
ENDROOT
BRANCH   5   6
HETATM    6  C27 UNL     1      21.821  25.984  13.960  1.00  0.00     0.273 C 
HETATM    7  O5  UNL     1      22.855  25.301  14.169  1.00  0.00    -0.266 OA
HETATM    8  N2  UNL     1      22.002  27.338  13.648  1.00  0.00    -0.322 N 
ATOM      9  H2  UNL     1      21.176  27.909  13.468  1.00  0.00     0.169 HD
BRANCH   8  10
HETATM   10  C28 UNL     1      23.258  27.944  13.572  1.00  0.00     0.035 A 
HETATM   11  C29 UNL     1      23.919  28.523  14.594  1.00  0.00     0.031 A 
HETATM   12  C30 UNL     1      25.152  29.115  14.340  1.00  0.00     0.027 A 
HETATM   13  C31 UNL     1      25.726  29.130  13.074  1.00  0.00     0.079 A 
HETATM   14  C32 UNL     1      25.057  28.539  12.021  1.00  0.00     0.027 A 
HETATM   15  C33 UNL     1      23.844  27.962  12.287  1.00  0.00     0.031 A 
BRANCH  13  16
HETATM   16  S1  UNL     1      27.281  29.869  12.792  1.00  0.00     0.256 S 
HETATM   17  O6  UNL     1      27.704  30.592  14.053  1.00  0.00    -0.201 OA
HETATM   18  O7  UNL     1      27.165  30.811  11.644  1.00  0.00    -0.201 OA
BRANCH  16  19
HETATM   19  N3  UNL     1      28.456  28.633  12.511  1.00  0.00    -0.324 N 
ATOM     20  H32 UNL     1      28.293  27.637  12.651  1.00  0.00     0.169 HD
ATOM     21  H31 UNL     1      29.324  29.062  12.189  1.00  0.00     0.169 HD
ENDBRANCH  16  19
ENDBRANCH  13  16
ENDBRANCH   8  10
ENDBRANCH   5   6
BRANCH   1  22
HETATM   22  C2  UNL     1      20.211  24.263  11.778  1.00  0.00     0.082 C 
HETATM   23  C1  UNL     1      19.152  24.486  10.791  1.00  0.00     0.032 C 
HETATM   24  C3  UNL     1      20.622  22.774  11.616  1.00  0.00     0.032 C 
ENDBRANCH   1  22
BRANCH   4  25
HETATM   25  C20 UNL     1      20.175  25.965  16.462  1.00  0.00    -0.023 A 
HETATM   26  C21 UNL     1      19.815  27.290  16.539  1.00  0.00     0.012 A 
HETATM   27  C22 UNL     1      20.124  28.056  17.659  1.00  0.00     0.001 A 
HETATM   28  C23 UNL     1      20.802  27.436  18.678  1.00  0.00     0.000 A 
HETATM   29  C24 UNL     1      21.176  26.103  18.625  1.00  0.00     0.001 A 
HETATM   30  C25 UNL     1      20.856  25.373  17.507  1.00  0.00     0.012 A 
ENDBRANCH   4  25
BRANCH   2  31
HETATM   31  C5  UNL     1      17.890  22.932  13.190  1.00  0.00     0.061 C 
BRANCH  31  32
HETATM   32  C6  UNL     1      16.470  23.341  13.089  1.00  0.00     0.038 C 
BRANCH  32  33
HETATM   33  C7  UNL     1      15.551  22.192  13.516  1.00  0.00     0.120 C 
BRANCH  33  34
HETATM   34  O1  UNL     1      14.646  22.003  12.474  1.00  0.00    -0.395 OA
ATOM     35  H1  UNL     1      15.088  22.278  11.680  1.00  0.00     0.210 HD
ENDBRANCH  33  34
BRANCH  33  36
HETATM   36  C8  UNL     1      16.283  20.902  13.728  1.00  0.00     0.064 C 
BRANCH  36  37
HETATM   37  C9  UNL     1      15.556  20.110  14.792  1.00  0.00     0.130 C 
BRANCH  37  38
HETATM   38  O2  UNL     1      14.258  19.802  14.407  1.00  0.00    -0.395 OA
ATOM     39  H2  UNL     1      13.939  19.017  14.837  1.00  0.00     0.210 HD
ENDBRANCH  37  38
BRANCH  37  40
HETATM   40  C10 UNL     1      16.273  18.863  15.192  1.00  0.00     0.144 C 
BRANCH  40  41
HETATM   41  C11 UNL     1      15.519  17.618  14.977  1.00  0.00     0.175 C 
HETATM   42  O3  UNL     1      15.086  17.298  13.845  1.00  0.00    -0.648 OA
HETATM   43  O4  UNL     1      15.253  16.735  16.057  1.00  0.00    -0.648 OA
ENDBRANCH  40  41
ENDBRANCH  37  40
ENDBRANCH  36  37
ENDBRANCH  33  36
ENDBRANCH  32  33
ENDBRANCH  31  32
ENDBRANCH   2  31
BRANCH   3  44
HETATM   44  C13 UNL     1      17.739  24.071  16.023  1.00  0.00    -0.023 A 
HETATM   45  C14 UNL     1      17.877  22.839  16.650  1.00  0.00     0.015 A 
HETATM   46  C15 UNL     1      16.956  22.408  17.612  1.00  0.00     0.043 A 
HETATM   47  C16 UNL     1      15.904  23.253  17.914  1.00  0.00     0.116 A 
HETATM   48  F1  UNL     1      15.010  22.866  18.830  1.00  0.00    -0.206 F 
HETATM   49  C17 UNL     1      15.753  24.478  17.304  1.00  0.00     0.043 A 
HETATM   50  C18 UNL     1      16.693  24.878  16.345  1.00  0.00     0.015 A 
ENDBRANCH   3  44
TORSDOF 16
ENDMDL
