MODEL 4
REMARK VINA RESULT: -8.420092166      4.817      6.839
REMARK  16 active torsions:
REMARK  status: ('A' for Active; 'I' for Inactive)
REMARK    1  A    between atoms: C2_2  and  N1_4 
REMARK    2  A    between atoms: C4_5  and  C5_6 
REMARK    3  A    between atoms: C5_6  and  C6_7 
REMARK    4  A    between atoms: C6_7  and  C7_8 
REMARK    5  A    between atoms: C7_8  and  O1_9 
REMARK    6  A    between atoms: C7_8  and  C8_11 
REMARK    7  A    between atoms: C8_11  and  C9_12 
REMARK    8  A    between atoms: C9_12  and  O2_13 
REMARK    9  A    between atoms: C9_12  and  C10_15 
REMARK   10  A    between atoms: C10_15  and  C11_16 
REMARK   11  A    between atoms: C12_19  and  C13_20 
REMARK   12  A    between atoms: C19_27  and  C20_28 
REMARK   13  A    between atoms: C26_34  and  C27_35 
REMARK       I    between atoms: C27_35  and  N2_37 
REMARK   14  A    between atoms: N2_37  and  C28_39 
REMARK   15  A    between atoms: C31_42  and  S1_43 
REMARK   16  A    between atoms: S1_43  and  N3_44 
ROOT
HETATM    1  N1  UNL     1      16.472  24.760  15.900  1.00  0.00    -0.340 N 
HETATM    2  C4  UNL     1      16.780  24.155  14.711  1.00  0.00     0.025 A 
HETATM    3  C12 UNL     1      18.008  24.670  14.309  1.00  0.00     0.010 A 
HETATM    4  C19 UNL     1      18.432  25.572  15.235  1.00  0.00     0.020 A 
HETATM    5  C26 UNL     1      17.430  25.612  16.237  1.00  0.00     0.116 A 
ENDROOT
BRANCH   5   6
HETATM    6  C27 UNL     1      17.473  26.564  17.343  1.00  0.00     0.273 C 
HETATM    7  O5  UNL     1      18.020  26.163  18.401  1.00  0.00    -0.266 OA
HETATM    8  N2  UNL     1      16.976  27.874  17.337  1.00  0.00    -0.322 N 
ATOM      9  H2  UNL     1      16.536  28.222  16.486  1.00  0.00     0.169 HD
BRANCH   8  10
HETATM   10  C28 UNL     1      17.055  28.726  18.440  1.00  0.00     0.035 A 
HETATM   11  C29 UNL     1      16.106  28.885  19.386  1.00  0.00     0.031 A 
HETATM   12  C30 UNL     1      16.329  29.807  20.405  1.00  0.00     0.027 A 
HETATM   13  C31 UNL     1      17.491  30.565  20.484  1.00  0.00     0.079 A 
HETATM   14  C32 UNL     1      18.468  30.409  19.522  1.00  0.00     0.027 A 
HETATM   15  C33 UNL     1      18.234  29.500  18.525  1.00  0.00     0.031 A 
BRANCH  13  16
HETATM   16  S1  UNL     1      17.744  31.701  21.784  1.00  0.00     0.256 S 
HETATM   17  O6  UNL     1      16.793  32.864  21.598  1.00  0.00    -0.201 OA
HETATM   18  O7  UNL     1      19.163  32.156  21.756  1.00  0.00    -0.201 OA
BRANCH  16  19
HETATM   19  N3  UNL     1      17.325  30.952  23.284  1.00  0.00    -0.324 N 
ATOM     20  H32 UNL     1      16.515  30.349  23.423  1.00  0.00     0.169 HD
ATOM     21  H31 UNL     1      18.012  31.212  23.992  1.00  0.00     0.169 HD
ENDBRANCH  16  19
ENDBRANCH  13  16
ENDBRANCH   8  10
ENDBRANCH   5   6
BRANCH   1  22
HETATM   22  C2  UNL     1      15.286  24.336  16.588  1.00  0.00     0.082 C 
HETATM   23  C1  UNL     1      14.313  25.334  17.038  1.00  0.00     0.032 C 
HETATM   24  C3  UNL     1      15.721  23.576  17.871  1.00  0.00     0.032 C 
ENDBRANCH   1  22
BRANCH   4  25
HETATM   25  C20 UNL     1      19.641  26.379  15.286  1.00  0.00    -0.023 A 
HETATM   26  C21 UNL     1      20.715  25.890  15.992  1.00  0.00     0.012 A 
HETATM   27  C22 UNL     1      21.909  26.603  16.072  1.00  0.00     0.001 A 
HETATM   28  C23 UNL     1      21.966  27.809  15.419  1.00  0.00     0.000 A 
HETATM   29  C24 UNL     1      20.899  28.322  14.702  1.00  0.00     0.001 A 
HETATM   30  C25 UNL     1      19.734  27.596  14.641  1.00  0.00     0.012 A 
ENDBRANCH   4  25
BRANCH   2  31
HETATM   31  C5  UNL     1      16.021  23.210  13.878  1.00  0.00     0.061 C 
BRANCH  31  32
HETATM   32  C6  UNL     1      16.542  21.827  13.782  1.00  0.00     0.038 C 
BRANCH  32  33
HETATM   33  C7  UNL     1      16.281  21.254  12.385  1.00  0.00     0.120 C 
BRANCH  33  34
HETATM   34  O1  UNL     1      17.525  21.122  11.773  1.00  0.00    -0.395 OA
ATOM     35  H1  UNL     1      17.621  20.203  11.553  1.00  0.00     0.210 HD
ENDBRANCH  33  34
BRANCH  33  36
HETATM   36  C8  UNL     1      15.638  19.901  12.415  1.00  0.00     0.064 C 
BRANCH  36  37
HETATM   37  C9  UNL     1      15.491  19.474  13.858  1.00  0.00     0.130 C 
BRANCH  37  38
HETATM   38  O2  UNL     1      14.199  19.673  14.325  1.00  0.00    -0.395 OA
ATOM     39  H2  UNL     1      14.142  19.553  15.266  1.00  0.00     0.210 HD
ENDBRANCH  37  38
BRANCH  37  40
HETATM   40  C10 UNL     1      15.903  18.059  14.099  1.00  0.00     0.144 C 
BRANCH  40  41
HETATM   41  C11 UNL     1      15.638  17.559  15.457  1.00  0.00     0.175 C 
HETATM   42  O3  UNL     1      16.473  17.694  16.383  1.00  0.00    -0.648 OA
HETATM   43  O4  UNL     1      14.419  16.898  15.762  1.00  0.00    -0.648 OA
ENDBRANCH  40  41
ENDBRANCH  37  40
ENDBRANCH  36  37
ENDBRANCH  33  36
ENDBRANCH  32  33
ENDBRANCH  31  32
ENDBRANCH   2  31
BRANCH   3  44
HETATM   44  C13 UNL     1      18.766  24.319  13.116  1.00  0.00    -0.023 A 
HETATM   45  C14 UNL     1      19.800  23.414  13.314  1.00  0.00     0.015 A 
HETATM   46  C15 UNL     1      20.615  23.002  12.252  1.00  0.00     0.043 A 
HETATM   47  C16 UNL     1      20.352  23.529  11.001  1.00  0.00     0.116 A 
HETATM   48  F1  UNL     1      21.114  23.152   9.970  1.00  0.00    -0.206 F 
HETATM   49  C17 UNL     1      19.330  24.426  10.788  1.00  0.00     0.043 A 
HETATM   50  C18 UNL     1      18.533  24.818  11.872  1.00  0.00     0.015 A 
ENDBRANCH   3  44
TORSDOF 16
ENDMDL
