MODEL 9
REMARK VINA RESULT: -8.022459758      5.834      8.501
REMARK  16 active torsions:
REMARK  status: ('A' for Active; 'I' for Inactive)
REMARK    1  A    between atoms: C2_2  and  N1_4 
REMARK    2  A    between atoms: C4_5  and  C5_6 
REMARK    3  A    between atoms: C5_6  and  C6_7 
REMARK    4  A    between atoms: C6_7  and  C7_8 
REMARK    5  A    between atoms: C7_8  and  O1_9 
REMARK    6  A    between atoms: C7_8  and  C8_11 
REMARK    7  A    between atoms: C8_11  and  C9_12 
REMARK    8  A    between atoms: C9_12  and  O2_13 
REMARK    9  A    between atoms: C9_12  and  C10_15 
REMARK   10  A    between atoms: C10_15  and  C11_16 
REMARK   11  A    between atoms: C12_19  and  C13_20 
REMARK   12  A    between atoms: C19_27  and  C20_28 
REMARK   13  A    between atoms: C26_34  and  C27_35 
REMARK       I    between atoms: C27_35  and  N2_37 
REMARK   14  A    between atoms: N2_37  and  C28_39 
REMARK   15  A    between atoms: C31_42  and  S1_43 
REMARK   16  A    between atoms: S1_43  and  N3_44 
ROOT
HETATM    1  N1  UNL     1      16.806  24.874  17.562  1.00  0.00    -0.340 N 
HETATM    2  C4  UNL     1      17.499  24.008  16.759  1.00  0.00     0.025 A 
HETATM    3  C12 UNL     1      17.401  24.505  15.463  1.00  0.00     0.010 A 
HETATM    4  C19 UNL     1      16.661  25.646  15.482  1.00  0.00     0.020 A 
HETATM    5  C26 UNL     1      16.292  25.855  16.835  1.00  0.00     0.116 A 
ENDROOT
BRANCH   5   6
HETATM    6  C27 UNL     1      15.381  26.924  17.237  1.00  0.00     0.273 C 
HETATM    7  O5  UNL     1      14.153  26.681  17.119  1.00  0.00    -0.266 OA
HETATM    8  N2  UNL     1      15.739  28.179  17.746  1.00  0.00    -0.322 N 
ATOM      9  H2  UNL     1      16.730  28.393  17.857  1.00  0.00     0.169 HD
BRANCH   8  10
HETATM   10  C28 UNL     1      14.804  29.151  18.108  1.00  0.00     0.035 A 
HETATM   11  C29 UNL     1      14.097  29.179  19.257  1.00  0.00     0.031 A 
HETATM   12  C30 UNL     1      13.176  30.204  19.447  1.00  0.00     0.027 A 
HETATM   13  C31 UNL     1      12.960  31.199  18.500  1.00  0.00     0.079 A 
HETATM   14  C32 UNL     1      13.679  31.180  17.323  1.00  0.00     0.027 A 
HETATM   15  C33 UNL     1      14.581  30.163  17.149  1.00  0.00     0.031 A 
BRANCH  13  16
HETATM   16  S1  UNL     1      11.807  32.478  18.778  1.00  0.00     0.256 S 
HETATM   17  O6  UNL     1      11.835  33.416  17.590  1.00  0.00    -0.201 OA
HETATM   18  O7  UNL     1      12.172  33.190  20.035  1.00  0.00    -0.201 OA
BRANCH  16  19
HETATM   19  N3  UNL     1      10.216  31.806  18.842  1.00  0.00    -0.324 N 
ATOM     20  H32 UNL     1       9.523  32.028  19.556  1.00  0.00     0.169 HD
ATOM     21  H31 UNL     1      10.091  31.164  18.060  1.00  0.00     0.169 HD
ENDBRANCH  16  19
ENDBRANCH  13  16
ENDBRANCH   8  10
ENDBRANCH   5   6
BRANCH   1  22
HETATM   22  C2  UNL     1      16.826  24.645  18.980  1.00  0.00     0.082 C 
HETATM   23  C1  UNL     1      15.625  24.914  19.774  1.00  0.00     0.032 C 
HETATM   24  C3  UNL     1      17.938  25.538  19.595  1.00  0.00     0.032 C 
ENDBRANCH   1  22
BRANCH   4  25
HETATM   25  C20 UNL     1      16.272  26.541  14.404  1.00  0.00    -0.023 A 
HETATM   26  C21 UNL     1      15.241  26.152  13.581  1.00  0.00     0.012 A 
HETATM   27  C22 UNL     1      14.808  26.965  12.537  1.00  0.00     0.001 A 
HETATM   28  C23 UNL     1      15.451  28.165  12.365  1.00  0.00     0.000 A 
HETATM   29  C24 UNL     1      16.491  28.579  13.181  1.00  0.00     0.001 A 
HETATM   30  C25 UNL     1      16.896  27.755  14.202  1.00  0.00     0.012 A 
ENDBRANCH   4  25
BRANCH   2  31
HETATM   31  C5  UNL     1      18.174  22.737  17.058  1.00  0.00     0.061 C 
BRANCH  31  32
HETATM   32  C6  UNL     1      17.317  21.591  17.440  1.00  0.00     0.038 C 
BRANCH  32  33
HETATM   33  C7  UNL     1      17.215  20.591  16.283  1.00  0.00     0.120 C 
BRANCH  33  34
HETATM   34  O1  UNL     1      17.137  19.326  16.860  1.00  0.00    -0.395 OA
ATOM     35  H1  UNL     1      16.241  19.033  16.747  1.00  0.00     0.210 HD
ENDBRANCH  33  34
BRANCH  33  36
HETATM   36  C8  UNL     1      15.991  20.789  15.442  1.00  0.00     0.064 C 
BRANCH  36  37
HETATM   37  C9  UNL     1      15.692  19.493  14.721  1.00  0.00     0.130 C 
BRANCH  37  38
HETATM   38  O2  UNL     1      14.327  19.295  14.564  1.00  0.00    -0.395 OA
ATOM     39  H2  UNL     1      14.114  18.982  13.693  1.00  0.00     0.210 HD
ENDBRANCH  37  38
BRANCH  37  40
HETATM   40  C10 UNL     1      16.374  19.384  13.397  1.00  0.00     0.144 C 
BRANCH  40  41
HETATM   41  C11 UNL     1      15.483  19.091  12.263  1.00  0.00     0.175 C 
HETATM   42  O3  UNL     1      15.078  19.995  11.494  1.00  0.00    -0.648 OA
HETATM   43  O4  UNL     1      15.048  17.765  12.006  1.00  0.00    -0.648 OA
ENDBRANCH  40  41
ENDBRANCH  37  40
ENDBRANCH  36  37
ENDBRANCH  33  36
ENDBRANCH  32  33
ENDBRANCH  31  32
ENDBRANCH   2  31
BRANCH   3  44
HETATM   44  C13 UNL     1      17.993  23.945  14.256  1.00  0.00    -0.023 A 
HETATM   45  C14 UNL     1      19.286  24.369  13.976  1.00  0.00     0.015 A 
HETATM   46  C15 UNL     1      19.965  23.918  12.838  1.00  0.00     0.043 A 
HETATM   47  C16 UNL     1      19.303  23.035  12.005  1.00  0.00     0.116 A 
HETATM   48  F1  UNL     1      19.929  22.588  10.912  1.00  0.00    -0.206 F 
HETATM   49  C17 UNL     1      18.022  22.604  12.268  1.00  0.00     0.043 A 
HETATM   50  C18 UNL     1      17.370  23.076  13.415  1.00  0.00     0.015 A 
ENDBRANCH   3  44
TORSDOF 16
ENDMDL
