MODEL 1
REMARK VINA RESULT: -9.346546792      0.000      0.000
REMARK  16 active torsions:
REMARK  status: ('A' for Active; 'I' for Inactive)
REMARK    1  A    between atoms: C2_2  and  N1_4 
REMARK    2  A    between atoms: C4_5  and  C5_6 
REMARK    3  A    between atoms: C5_6  and  C6_7 
REMARK    4  A    between atoms: C6_7  and  C7_8 
REMARK    5  A    between atoms: C7_8  and  O1_9 
REMARK    6  A    between atoms: C7_8  and  C8_11 
REMARK    7  A    between atoms: C8_11  and  C9_12 
REMARK    8  A    between atoms: C9_12  and  O2_13 
REMARK    9  A    between atoms: C9_12  and  C10_15 
REMARK   10  A    between atoms: C10_15  and  C11_16 
REMARK   11  A    between atoms: C12_19  and  C13_20 
REMARK   12  A    between atoms: C19_27  and  C20_28 
REMARK   13  A    between atoms: C26_34  and  C27_35 
REMARK       I    between atoms: C27_35  and  N2_37 
REMARK   14  A    between atoms: N2_37  and  C28_39 
REMARK   15  A    between atoms: C31_42  and  S1_43 
REMARK   16  A    between atoms: S1_43  and  N3_44 
ROOT
HETATM    1  N1  UNL     1      19.015  23.932  13.396  1.00  0.00    -0.340 N 
HETATM    2  C4  UNL     1      17.910  23.393  13.999  1.00  0.00     0.025 A 
HETATM    3  C12 UNL     1      18.063  23.604  15.366  1.00  0.00     0.010 A 
HETATM    4  C19 UNL     1      19.238  24.253  15.585  1.00  0.00     0.020 A 
HETATM    5  C26 UNL     1      19.826  24.447  14.309  1.00  0.00     0.116 A 
ENDROOT
BRANCH   5   6
HETATM    6  C27 UNL     1      21.166  25.004  14.147  1.00  0.00     0.273 C 
HETATM    7  O5  UNL     1      22.099  24.175  14.000  1.00  0.00    -0.266 OA
HETATM    8  N2  UNL     1      21.509  26.363  14.129  1.00  0.00    -0.322 N 
ATOM      9  H2  UNL     1      20.765  27.052  14.239  1.00  0.00     0.169 HD
BRANCH   8  10
HETATM   10  C28 UNL     1      22.819  26.818  13.969  1.00  0.00     0.035 A 
HETATM   11  C29 UNL     1      23.804  26.728  14.885  1.00  0.00     0.031 A 
HETATM   12  C30 UNL     1      25.050  27.267  14.578  1.00  0.00     0.027 A 
HETATM   13  C31 UNL     1      25.315  27.891  13.364  1.00  0.00     0.079 A 
HETATM   14  C32 UNL     1      24.313  27.988  12.421  1.00  0.00     0.027 A 
HETATM   15  C33 UNL     1      23.092  27.454  12.738  1.00  0.00     0.031 A 
BRANCH  13  16
HETATM   16  S1  UNL     1      26.893  28.543  13.007  1.00  0.00     0.256 S 
HETATM   17  O6  UNL     1      27.813  28.241  14.170  1.00  0.00    -0.201 OA
HETATM   18  O7  UNL     1      26.768  30.012  12.786  1.00  0.00    -0.201 OA
BRANCH  16  19
HETATM   19  N3  UNL     1      27.548  27.727  11.631  1.00  0.00    -0.324 N 
ATOM     20  H32 UNL     1      28.542  27.565  11.473  1.00  0.00     0.169 HD
ATOM     21  H31 UNL     1      26.786  27.440  11.017  1.00  0.00     0.169 HD
ENDBRANCH  16  19
ENDBRANCH  13  16
ENDBRANCH   8  10
ENDBRANCH   5   6
BRANCH   1  22
HETATM   22  C2  UNL     1      19.069  23.935  11.961  1.00  0.00     0.082 C 
HETATM   23  C1  UNL     1      20.156  23.232  11.275  1.00  0.00     0.032 C 
HETATM   24  C3  UNL     1      19.167  25.411  11.487  1.00  0.00     0.032 C 
ENDBRANCH   1  22
BRANCH   4  25
HETATM   25  C20 UNL     1      19.855  24.703  16.822  1.00  0.00    -0.023 A 
HETATM   26  C21 UNL     1      20.039  23.781  17.825  1.00  0.00     0.012 A 
HETATM   27  C22 UNL     1      20.636  24.139  19.031  1.00  0.00     0.001 A 
HETATM   28  C23 UNL     1      21.030  25.446  19.175  1.00  0.00     0.000 A 
HETATM   29  C24 UNL     1      20.855  26.392  18.180  1.00  0.00     0.001 A 
HETATM   30  C25 UNL     1      20.264  26.010  17.001  1.00  0.00     0.012 A 
ENDBRANCH   4  25
BRANCH   2  31
HETATM   31  C5  UNL     1      16.773  22.643  13.448  1.00  0.00     0.061 C 
BRANCH  31  32
HETATM   32  C6  UNL     1      17.046  21.280  12.939  1.00  0.00     0.038 C 
BRANCH  32  33
HETATM   33  C7  UNL     1      15.738  20.583  12.549  1.00  0.00     0.120 C 
BRANCH  33  34
HETATM   34  O1  UNL     1      15.320  21.167  11.355  1.00  0.00    -0.395 OA
ATOM     35  H1  UNL     1      14.419  21.437  11.489  1.00  0.00     0.210 HD
ENDBRANCH  33  34
BRANCH  33  36
HETATM   36  C8  UNL     1      15.905  19.113  12.308  1.00  0.00     0.064 C 
BRANCH  36  37
HETATM   37  C9  UNL     1      15.065  18.365  13.319  1.00  0.00     0.130 C 
BRANCH  37  38
HETATM   38  O2  UNL     1      15.095  16.994  13.100  1.00  0.00    -0.395 OA
ATOM     39  H2  UNL     1      14.452  16.727  12.454  1.00  0.00     0.210 HD
ENDBRANCH  37  38
BRANCH  37  40
HETATM   40  C10 UNL     1      15.445  18.658  14.733  1.00  0.00     0.144 C 
BRANCH  40  41
HETATM   41  C11 UNL     1      15.973  17.509  15.484  1.00  0.00     0.175 C 
HETATM   42  O3  UNL     1      17.206  17.318  15.615  1.00  0.00    -0.648 OA
HETATM   43  O4  UNL     1      15.095  16.570  16.086  1.00  0.00    -0.648 OA
ENDBRANCH  40  41
ENDBRANCH  37  40
ENDBRANCH  36  37
ENDBRANCH  33  36
ENDBRANCH  32  33
ENDBRANCH  31  32
ENDBRANCH   2  31
BRANCH   3  44
HETATM   44  C13 UNL     1      17.137  23.230  16.426  1.00  0.00    -0.023 A 
HETATM   45  C14 UNL     1      16.340  24.259  16.910  1.00  0.00     0.015 A 
HETATM   46  C15 UNL     1      15.416  24.038  17.939  1.00  0.00     0.043 A 
HETATM   47  C16 UNL     1      15.326  22.758  18.453  1.00  0.00     0.116 A 
HETATM   48  F1  UNL     1      14.451  22.518  19.436  1.00  0.00    -0.206 F 
HETATM   49  C17 UNL     1      16.107  21.725  17.984  1.00  0.00     0.043 A 
HETATM   50  C18 UNL     1      17.022  21.981  16.954  1.00  0.00     0.015 A 
ENDBRANCH   3  44
TORSDOF 16
ENDMDL
