MODEL 1
REMARK VINA RESULT: -8.847123888      0.000      0.000
REMARK  6 active torsions:
REMARK  status: ('A' for Active; 'I' for Inactive)
REMARK    1  A    between atoms: C2_3  and  O2_4 
REMARK    2  A    between atoms: C3_6  and  C4_7 
REMARK    3  A    between atoms: C7_10  and  O3_11 
REMARK    4  A    between atoms: C8_13  and  O4_14 
REMARK    5  A    between atoms: C12_20  and  O6_21 
REMARK    6  A    between atoms: C14_24  and  O7_25 
ROOT
HETATM    1  O1  UNL     1      14.131  15.068  -9.811  1.00  0.00    -0.284 OA
HETATM    2  C1  UNL     1      14.756  14.009  -9.569  1.00  0.00     0.223 A 
HETATM    3  C2  UNL     1      15.845  13.638 -10.374  1.00  0.00     0.152 A 
HETATM    4  C3  UNL     1      16.534  12.501 -10.136  1.00  0.00     0.123 A 
HETATM    5  O5  UNL     1      16.111  11.774  -9.099  1.00  0.00    -0.306 OA
HETATM    6  C10 UNL     1      15.128  12.057  -8.329  1.00  0.00     0.096 A 
HETATM    7  C11 UNL     1      14.854  11.164  -7.305  1.00  0.00     0.075 A 
HETATM    8  C12 UNL     1      13.806  11.441  -6.463  1.00  0.00     0.071 A 
HETATM    9  C13 UNL     1      13.067  12.568  -6.645  1.00  0.00     0.074 A 
HETATM   10  C14 UNL     1      13.346  13.475  -7.685  1.00  0.00     0.085 A 
HETATM   11  C15 UNL     1      14.393  13.210  -8.533  1.00  0.00     0.084 A 
ENDROOT
BRANCH   4  12
HETATM   12  C4  UNL     1      17.681  11.995 -10.889  1.00  0.00     0.004 A 
HETATM   13  C5  UNL     1      17.667  10.670 -11.330  1.00  0.00     0.017 A 
HETATM   14  C6  UNL     1      18.701  10.116 -12.041  1.00  0.00     0.040 A 
HETATM   15  C7  UNL     1      19.838  10.855 -12.368  1.00  0.00     0.098 A 
HETATM   16  C8  UNL     1      19.866  12.156 -11.944  1.00  0.00     0.099 A 
HETATM   17  C9  UNL     1      18.796  12.719 -11.210  1.00  0.00     0.053 A 
BRANCH  15  18
HETATM   18  O3  UNL     1      20.871  10.287 -13.084  1.00  0.00    -0.358 OA
ATOM     19  H3  UNL     1      20.755  10.040 -13.994  1.00  0.00     0.217 HD
ENDBRANCH  15  18
BRANCH  16  20
HETATM   20  O4  UNL     1      20.949  12.957 -12.222  1.00  0.00    -0.358 OA
ATOM     21  H4  UNL     1      20.847  13.735 -12.757  1.00  0.00     0.217 HD
ENDBRANCH  16  20
ENDBRANCH   4  12
BRANCH   3  22
HETATM   22  O2  UNL     1      16.196  14.454 -11.412  1.00  0.00    -0.355 OA
ATOM     23  H2  UNL     1      16.471  15.343 -11.217  1.00  0.00     0.218 HD
ENDBRANCH   3  22
BRANCH  10  24
HETATM   24  O7  UNL     1      12.558  14.563  -7.782  1.00  0.00    -0.360 OA
ATOM     25  H7  UNL     1      12.878  15.367  -7.392  1.00  0.00     0.217 HD
ENDBRANCH  10  24
BRANCH   8  26
HETATM   26  O6  UNL     1      13.532  10.536  -5.431  1.00  0.00    -0.361 OA
ATOM     27  H6  UNL     1      13.743  10.794  -4.541  1.00  0.00     0.217 HD
ENDBRANCH   8  26
TORSDOF 6
ENDMDL
