MODEL 3
REMARK VINA RESULT: -8.763603349      2.717      7.039
REMARK  6 active torsions:
REMARK  status: ('A' for Active; 'I' for Inactive)
REMARK    1  A    between atoms: C2_3  and  O2_4 
REMARK    2  A    between atoms: C3_6  and  C4_7 
REMARK    3  A    between atoms: C7_10  and  O3_11 
REMARK    4  A    between atoms: C8_13  and  O4_14 
REMARK    5  A    between atoms: C12_20  and  O6_21 
REMARK    6  A    between atoms: C14_24  and  O7_25 
ROOT
HETATM    1  O1  UNL     1      15.489  12.495  -7.594  1.00  0.00    -0.284 OA
HETATM    2  C1  UNL     1      15.556  13.178  -8.643  1.00  0.00     0.223 A 
HETATM    3  C2  UNL     1      14.554  14.118  -8.933  1.00  0.00     0.152 A 
HETATM    4  C3  UNL     1      14.601  14.865 -10.057  1.00  0.00     0.123 A 
HETATM    5  O5  UNL     1      15.650  14.646 -10.854  1.00  0.00    -0.306 OA
HETATM    6  C10 UNL     1      16.594  13.806 -10.647  1.00  0.00     0.096 A 
HETATM    7  C11 UNL     1      17.594  13.735 -11.603  1.00  0.00     0.075 A 
HETATM    8  C12 UNL     1      18.619  12.844 -11.409  1.00  0.00     0.071 A 
HETATM    9  C13 UNL     1      18.636  12.059 -10.299  1.00  0.00     0.074 A 
HETATM   10  C14 UNL     1      17.619  12.131  -9.326  1.00  0.00     0.085 A 
HETATM   11  C15 UNL     1      16.589  13.019  -9.510  1.00  0.00     0.084 A 
ENDROOT
BRANCH   4  12
HETATM   12  C4  UNL     1      13.632  15.875 -10.482  1.00  0.00     0.004 A 
HETATM   13  C5  UNL     1      13.669  16.332 -11.801  1.00  0.00     0.017 A 
HETATM   14  C6  UNL     1      12.799  17.277 -12.281  1.00  0.00     0.040 A 
HETATM   15  C7  UNL     1      11.815  17.840 -11.468  1.00  0.00     0.098 A 
HETATM   16  C8  UNL     1      11.766  17.401 -10.173  1.00  0.00     0.099 A 
HETATM   17  C9  UNL     1      12.668  16.427  -9.686  1.00  0.00     0.053 A 
BRANCH  15  18
HETATM   18  O3  UNL     1      10.945  18.789 -11.962  1.00  0.00    -0.358 OA
ATOM     19  H3  UNL     1      10.924  19.668 -11.600  1.00  0.00     0.217 HD
ENDBRANCH  15  18
BRANCH  16  20
HETATM   20  O4  UNL     1      10.827  17.903  -9.302  1.00  0.00    -0.358 OA
ATOM     21  H4  UNL     1      10.831  18.825  -9.069  1.00  0.00     0.217 HD
ENDBRANCH  16  20
ENDBRANCH   4  12
BRANCH   3  22
HETATM   22  O2  UNL     1      13.522  14.263  -8.049  1.00  0.00    -0.355 OA
ATOM     23  H2  UNL     1      13.562  14.973  -7.418  1.00  0.00     0.218 HD
ENDBRANCH   3  22
BRANCH  10  24
HETATM   24  O7  UNL     1      17.725  11.313  -8.262  1.00  0.00    -0.360 OA
ATOM     25  H7  UNL     1      17.213  11.532  -7.493  1.00  0.00     0.217 HD
ENDBRANCH  10  24
BRANCH   8  26
HETATM   26  O6  UNL     1      19.627  12.776 -12.378  1.00  0.00    -0.361 OA
ATOM     27  H6  UNL     1      19.930  13.588 -12.767  1.00  0.00     0.217 HD
ENDBRANCH   8  26
TORSDOF 6
ENDMDL
