MODEL 4
REMARK VINA RESULT: -8.739822159      0.945      1.565
REMARK  6 active torsions:
REMARK  status: ('A' for Active; 'I' for Inactive)
REMARK    1  A    between atoms: C2_3  and  O2_4 
REMARK    2  A    between atoms: C3_6  and  C4_7 
REMARK    3  A    between atoms: C7_10  and  O3_11 
REMARK    4  A    between atoms: C8_13  and  O4_14 
REMARK    5  A    between atoms: C12_20  and  O6_21 
REMARK    6  A    between atoms: C14_24  and  O7_25 
ROOT
HETATM    1  O1  UNL     1      13.591  15.104  -9.479  1.00  0.00    -0.284 OA
HETATM    2  C1  UNL     1      14.202  14.029  -9.273  1.00  0.00     0.223 A 
HETATM    3  C2  UNL     1      15.227  13.628 -10.145  1.00  0.00     0.152 A 
HETATM    4  C3  UNL     1      15.901  12.474  -9.946  1.00  0.00     0.123 A 
HETATM    5  O5  UNL     1      15.525  11.761  -8.882  1.00  0.00    -0.306 OA
HETATM    6  C10 UNL     1      14.600  12.071  -8.053  1.00  0.00     0.096 A 
HETATM    7  C11 UNL     1      14.368  11.187  -7.011  1.00  0.00     0.075 A 
HETATM    8  C12 UNL     1      13.384  11.492  -6.105  1.00  0.00     0.071 A 
HETATM    9  C13 UNL     1      12.664  12.638  -6.243  1.00  0.00     0.074 A 
HETATM   10  C14 UNL     1      12.901  13.536  -7.303  1.00  0.00     0.085 A 
HETATM   11  C15 UNL     1      13.884  13.242  -8.214  1.00  0.00     0.084 A 
ENDROOT
BRANCH   4  12
HETATM   12  C4  UNL     1      16.984  11.937 -10.769  1.00  0.00     0.004 A 
HETATM   13  C5  UNL     1      18.236  12.556 -10.723  1.00  0.00     0.017 A 
HETATM   14  C6  UNL     1      19.305  12.117 -11.462  1.00  0.00     0.040 A 
HETATM   15  C7  UNL     1      19.199  11.016 -12.312  1.00  0.00     0.098 A 
HETATM   16  C8  UNL     1      17.979  10.399 -12.367  1.00  0.00     0.099 A 
HETATM   17  C9  UNL     1      16.882  10.858 -11.602  1.00  0.00     0.053 A 
BRANCH  15  18
HETATM   18  O3  UNL     1      20.282  10.584 -13.050  1.00  0.00    -0.358 OA
ATOM     19  H3  UNL     1      20.191  10.377 -13.973  1.00  0.00     0.217 HD
ENDBRANCH  15  18
BRANCH  16  20
HETATM   20  O4  UNL     1      17.787   9.306 -13.179  1.00  0.00    -0.358 OA
ATOM     21  H4  UNL     1      16.941   9.150 -13.584  1.00  0.00     0.217 HD
ENDBRANCH  16  20
ENDBRANCH   4  12
BRANCH   3  22
HETATM   22  O2  UNL     1      15.533  14.433 -11.205  1.00  0.00    -0.355 OA
ATOM     23  H2  UNL     1      16.043  15.219 -11.046  1.00  0.00     0.218 HD
ENDBRANCH   3  22
BRANCH  10  24
HETATM   24  O7  UNL     1      12.137  14.644  -7.353  1.00  0.00    -0.360 OA
ATOM     25  H7  UNL     1      11.744  14.863  -8.190  1.00  0.00     0.217 HD
ENDBRANCH  10  24
BRANCH   8  26
HETATM   26  O6  UNL     1      13.152  10.597  -5.054  1.00  0.00    -0.361 OA
ATOM     27  H6  UNL     1      12.271  10.535  -4.705  1.00  0.00     0.217 HD
ENDBRANCH   8  26
TORSDOF 6
ENDMDL
