MODEL 5
REMARK VINA RESULT: -7.373065231      3.769      5.138
REMARK  1 active torsions:
REMARK  status: ('A' for Active; 'I' for Inactive)
REMARK    1  A    between atoms: C6_7  and  S1_8 
ROOT
HETATM    1  N1  UNL     1     -21.568   0.921 -21.689  1.00  0.00    -0.102 NA
HETATM    2  C1  UNL     1     -21.270   0.271 -22.916  1.00  0.00     0.057 A 
HETATM    3  C2  UNL     1     -20.502  -0.871 -22.891  1.00  0.00     0.027 A 
HETATM    4  C3  UNL     1     -20.177  -1.554 -24.064  1.00  0.00     0.003 A 
HETATM    5  C4  UNL     1     -20.633  -1.075 -25.273  1.00  0.00     0.014 A 
HETATM    6  C5  UNL     1     -21.410   0.076 -25.327  1.00  0.00     0.000 A 
HETATM    7  C6  UNL     1     -21.845   0.517 -26.561  1.00  0.00     0.091 A 
HETATM    8  C7  UNL     1     -22.614   1.662 -26.591  1.00  0.00     0.027 A 
HETATM    9  C8  UNL     1     -22.929   2.329 -25.422  1.00  0.00     0.003 A 
HETATM   10  C9  UNL     1     -22.476   1.858 -24.189  1.00  0.00     0.014 A 
HETATM   11  C10 UNL     1     -21.704   0.714 -24.144  1.00  0.00    -0.000 A 
ENDROOT
BRANCH   7  12
HETATM   12  S1  UNL     1     -21.414  -0.367 -28.005  1.00  0.00     0.138 S 
HETATM   13  O1  UNL     1     -19.835   0.242 -28.425  1.00  0.00    -0.591 OA
HETATM   14  O2  UNL     1     -22.410   0.427 -29.196  1.00  0.00    -0.591 OA
HETATM   15  O3  UNL     1     -21.582  -1.780 -28.059  1.00  0.00    -0.591 OA
ENDBRANCH   7  12
TORSDOF 1
ENDMDL
