MODEL 1
REMARK VINA RESULT: -7.508717506      0.000      0.000
REMARK  1 active torsions:
REMARK  status: ('A' for Active; 'I' for Inactive)
REMARK    1  A    between atoms: C6_7  and  S1_8 
ROOT
HETATM    1  N1  UNL     1     -20.724  -0.192 -29.106  1.00  0.00    -0.102 NA
HETATM    2  C1  UNL     1     -21.232   0.188 -27.836  1.00  0.00     0.057 A 
HETATM    3  C2  UNL     1     -21.987   1.334 -27.739  1.00  0.00     0.027 A 
HETATM    4  C3  UNL     1     -22.514   1.758 -26.517  1.00  0.00     0.003 A 
HETATM    5  C4  UNL     1     -22.271   1.013 -25.384  1.00  0.00     0.014 A 
HETATM    6  C5  UNL     1     -21.511  -0.149 -25.452  1.00  0.00     0.000 A 
HETATM    7  C6  UNL     1     -21.296  -0.862 -24.290  1.00  0.00     0.091 A 
HETATM    8  C7  UNL     1     -20.538  -2.011 -24.382  1.00  0.00     0.027 A 
HETATM    9  C8  UNL     1     -20.023  -2.420 -25.597  1.00  0.00     0.003 A 
HETATM   10  C9  UNL     1     -20.259  -1.678 -26.756  1.00  0.00     0.014 A 
HETATM   11  C10 UNL     1     -21.014  -0.525 -26.679  1.00  0.00    -0.000 A 
ENDROOT
BRANCH   7  12
HETATM   12  S1  UNL     1     -21.972  -0.296 -22.781  1.00  0.00     0.138 S 
HETATM   13  O1  UNL     1     -21.520  -1.521 -21.625  1.00  0.00    -0.591 OA
HETATM   14  O2  UNL     1     -23.663  -0.657 -23.012  1.00  0.00    -0.591 OA
HETATM   15  O3  UNL     1     -21.790   1.056 -22.375  1.00  0.00    -0.591 OA
ENDBRANCH   7  12
TORSDOF 1
ENDMDL
