MODEL 2
REMARK VINA RESULT: -7.460430899      0.853      1.340
REMARK  1 active torsions:
REMARK  status: ('A' for Active; 'I' for Inactive)
REMARK    1  A    between atoms: C6_7  and  S1_8 
ROOT
HETATM    1  N1  UNL     1     -21.374   0.833 -28.762  1.00  0.00    -0.102 NA
HETATM    2  C1  UNL     1     -21.721   0.815 -27.386  1.00  0.00     0.057 A 
HETATM    3  C2  UNL     1     -22.489   1.841 -26.883  1.00  0.00     0.027 A 
HETATM    4  C3  UNL     1     -22.863   1.877 -25.538  1.00  0.00     0.003 A 
HETATM    5  C4  UNL     1     -22.453   0.866 -24.696  1.00  0.00     0.014 A 
HETATM    6  C5  UNL     1     -21.677  -0.181 -25.177  1.00  0.00     0.000 A 
HETATM    7  C6  UNL     1     -21.292  -1.171 -24.295  1.00  0.00     0.091 A 
HETATM    8  C7  UNL     1     -20.520  -2.200 -24.795  1.00  0.00     0.027 A 
HETATM    9  C8  UNL     1     -20.158  -2.226 -26.128  1.00  0.00     0.003 A 
HETATM   10  C9  UNL     1     -20.564  -1.210 -26.996  1.00  0.00     0.014 A 
HETATM   11  C10 UNL     1     -21.334  -0.173 -26.509  1.00  0.00    -0.000 A 
ENDROOT
BRANCH   7  12
HETATM   12  S1  UNL     1     -21.780  -1.087 -22.620  1.00  0.00     0.138 S 
HETATM   13  O1  UNL     1     -20.626  -0.000 -21.892  1.00  0.00    -0.591 OA
HETATM   14  O2  UNL     1     -21.216  -2.626 -22.026  1.00  0.00    -0.591 OA
HETATM   15  O3  UNL     1     -23.147  -0.878 -22.281  1.00  0.00    -0.591 OA
ENDBRANCH   7  12
TORSDOF 1
ENDMDL
