MODEL 10
REMARK VINA RESULT: -6.674539496      3.854      5.146
REMARK  1 active torsions:
REMARK  status: ('A' for Active; 'I' for Inactive)
REMARK    1  A    between atoms: C6_7  and  S1_8 
ROOT
HETATM    1  N1  UNL     1     -21.548  -0.521 -22.040  1.00  0.00    -0.102 NA
HETATM    2  C1  UNL     1     -21.296  -0.758 -23.417  1.00  0.00     0.057 A 
HETATM    3  C2  UNL     1     -20.597  -1.887 -23.778  1.00  0.00     0.027 A 
HETATM    4  C3  UNL     1     -20.320  -2.173 -25.117  1.00  0.00     0.003 A 
HETATM    5  C4  UNL     1     -20.755  -1.308 -26.096  1.00  0.00     0.014 A 
HETATM    6  C5  UNL     1     -21.464  -0.160 -25.759  1.00  0.00     0.000 A 
HETATM    7  C6  UNL     1     -21.879   0.677 -26.776  1.00  0.00     0.091 A 
HETATM    8  C7  UNL     1     -22.580   1.810 -26.418  1.00  0.00     0.027 A 
HETATM    9  C8  UNL     1     -22.848   2.082 -25.090  1.00  0.00     0.003 A 
HETATM   10  C9  UNL     1     -22.415   1.216 -24.084  1.00  0.00     0.014 A 
HETATM   11  C10 UNL     1     -21.711   0.079 -24.428  1.00  0.00    -0.000 A 
ENDROOT
BRANCH   7  12
HETATM   12  S1  UNL     1     -21.511   0.282 -28.438  1.00  0.00     0.138 S 
HETATM   13  O1  UNL     1     -19.895  -0.370 -28.374  1.00  0.00    -0.591 OA
HETATM   14  O2  UNL     1     -21.211   1.865 -29.103  1.00  0.00    -0.591 OA
HETATM   15  O3  UNL     1     -22.452  -0.435 -29.230  1.00  0.00    -0.591 OA
ENDBRANCH   7  12
TORSDOF 1
ENDMDL
