MODEL 8
REMARK VINA RESULT: -6.849503707      1.091      1.534
REMARK  1 active torsions:
REMARK  status: ('A' for Active; 'I' for Inactive)
REMARK    1  A    between atoms: C6_7  and  S1_8 
ROOT
HETATM    1  N1  UNL     1     -21.092  -1.177 -28.974  1.00  0.00    -0.102 NA
HETATM    2  C1  UNL     1     -21.418  -0.323 -27.888  1.00  0.00     0.057 A 
HETATM    3  C2  UNL     1     -22.100   0.845 -28.145  1.00  0.00     0.027 A 
HETATM    4  C3  UNL     1     -22.448   1.724 -27.117  1.00  0.00     0.003 A 
HETATM    5  C4  UNL     1     -22.102   1.417 -25.820  1.00  0.00     0.014 A 
HETATM    6  C5  UNL     1     -21.413   0.245 -25.532  1.00  0.00     0.000 A 
HETATM    7  C6  UNL     1     -21.088  -0.019 -24.217  1.00  0.00     0.091 A 
HETATM    8  C7  UNL     1     -20.403  -1.188 -23.955  1.00  0.00     0.027 A 
HETATM    9  C8  UNL     1     -20.065  -2.051 -24.980  1.00  0.00     0.003 A 
HETATM   10  C9  UNL     1     -20.408  -1.756 -26.301  1.00  0.00     0.014 A 
HETATM   11  C10 UNL     1     -21.092  -0.589 -26.578  1.00  0.00    -0.000 A 
ENDROOT
BRANCH   7  12
HETATM   12  S1  UNL     1     -21.542   1.108 -22.961  1.00  0.00     0.138 S 
HETATM   13  O1  UNL     1     -20.212   2.234 -22.897  1.00  0.00    -0.591 OA
HETATM   14  O2  UNL     1     -21.249   0.156 -21.530  1.00  0.00    -0.591 OA
HETATM   15  O3  UNL     1     -22.849   1.671 -22.941  1.00  0.00    -0.591 OA
ENDBRANCH   7  12
TORSDOF 1
ENDMDL
