MODEL 9
REMARK VINA RESULT: -9.521768510      3.588      5.366
REMARK  2 active torsions:
REMARK  status: ('A' for Active; 'I' for Inactive)
REMARK    1  A    between atoms: C5_5  and  C6_6 
REMARK    2  A    between atoms: C10_10  and  C11_11 
REMARK       I    between atoms: C11_11  and  N1_13 
ROOT
HETATM    1  C6  UNL     1      46.761  61.452  82.531  1.00  0.00     0.043 A 
HETATM    2  C7  UNL     1      47.417  62.657  82.648  1.00  0.00     0.030 A 
HETATM    3  C8  UNL     1      48.779  62.753  82.825  1.00  0.00     0.005 A 
HETATM    4  C9  UNL     1      49.499  61.586  82.884  1.00  0.00     0.035 A 
HETATM    5  C10 UNL     1      48.847  60.347  82.766  1.00  0.00     0.101 A 
HETATM    6  N2  UNL     1      47.510  60.343  82.595  1.00  0.00    -0.351 N 
ATOM      7  H2  UNL     1      47.040  59.442  82.510  1.00  0.00     0.166 HD
ENDROOT
BRANCH   5   8
HETATM    8  C11 UNL     1      49.658  59.145  82.842  1.00  0.00     0.270 C 
HETATM    9  O1  UNL     1      49.781  58.606  84.006  1.00  0.00    -0.266 OA
HETATM   10  N1  UNL     1      50.315  58.515  81.805  1.00  0.00    -0.346 N 
HETATM   11  C12 UNL     1      51.109  57.295  82.109  1.00  0.00     0.126 C 
HETATM   12  C18 UNL     1      50.355  58.860  80.401  1.00  0.00     0.135 C 
HETATM   13  C13 UNL     1      52.544  57.680  81.752  1.00  0.00     0.021 C 
HETATM   14  C14 UNL     1      52.671  58.156  80.345  1.00  0.00     0.012 C 
HETATM   15  C15 UNL     1      51.768  59.324  80.010  1.00  0.00    -0.031 C 
HETATM   16  C16 UNL     1      51.792  59.674  78.559  1.00  0.00     0.016 C 
HETATM   17  C17 UNL     1      52.133  60.491  80.896  1.00  0.00     0.016 C 
ENDBRANCH   5   8
BRANCH   1  18
HETATM   18  C5  UNL     1      45.295  61.397  82.332  1.00  0.00    -0.006 A 
HETATM   19  C4  UNL     1      44.757  60.869  81.179  1.00  0.00     0.014 A 
HETATM   20  C3  UNL     1      43.379  60.802  80.973  1.00  0.00     0.011 A 
HETATM   21  C2  UNL     1      42.489  61.263  81.915  1.00  0.00    -0.023 A 
HETATM   22  C1  UNL     1      41.016  61.185  81.681  1.00  0.00     0.051 C 
HETATM   23  C20 UNL     1      43.014  61.793  83.070  1.00  0.00     0.123 A 
HETATM   24  C19 UNL     1      44.401  61.855  83.268  1.00  0.00     0.056 A 
HETATM   25  F1  UNL     1      42.168  62.253  84.012  1.00  0.00    -0.206 F 
ENDBRANCH   1  18
TORSDOF 2
ENDMDL
