MODEL 5
REMARK VINA RESULT: -9.777390379      2.626      4.838
REMARK  2 active torsions:
REMARK  status: ('A' for Active; 'I' for Inactive)
REMARK    1  A    between atoms: C5_5  and  C6_6 
REMARK    2  A    between atoms: C10_10  and  C11_11 
REMARK       I    between atoms: C11_11  and  N1_13 
ROOT
HETATM    1  C6  UNL     1      45.160  60.849  79.473  1.00  0.00     0.043 A 
HETATM    2  C7  UNL     1      45.057  59.754  78.644  1.00  0.00     0.030 A 
HETATM    3  C8  UNL     1      46.154  59.114  78.114  1.00  0.00     0.005 A 
HETATM    4  C9  UNL     1      47.396  59.601  78.436  1.00  0.00     0.035 A 
HETATM    5  C10 UNL     1      47.519  60.717  79.280  1.00  0.00     0.101 A 
HETATM    6  N2  UNL     1      46.393  61.285  79.756  1.00  0.00    -0.351 N 
ATOM      7  H2  UNL     1      46.487  62.095  80.369  1.00  0.00     0.166 HD
ENDROOT
BRANCH   5   8
HETATM    8  C11 UNL     1      48.858  61.192  79.581  1.00  0.00     0.270 C 
HETATM    9  O1  UNL     1      49.475  61.813  78.636  1.00  0.00    -0.266 OA
HETATM   10  N1  UNL     1      49.546  61.053  80.770  1.00  0.00    -0.346 N 
HETATM   11  C12 UNL     1      50.922  61.606  80.859  1.00  0.00     0.126 C 
HETATM   12  C18 UNL     1      49.122  60.431  82.005  1.00  0.00     0.135 C 
HETATM   13  C13 UNL     1      51.805  60.384  81.105  1.00  0.00     0.021 C 
HETATM   14  C14 UNL     1      51.380  59.609  82.306  1.00  0.00     0.012 C 
HETATM   15  C15 UNL     1      49.937  59.152  82.260  1.00  0.00    -0.031 C 
HETATM   16  C16 UNL     1      49.490  58.525  83.538  1.00  0.00     0.016 C 
HETATM   17  C17 UNL     1      49.753  58.242  81.069  1.00  0.00     0.016 C 
ENDBRANCH   5   8
BRANCH   1  18
HETATM   18  C5  UNL     1      43.951  61.500  80.030  1.00  0.00    -0.006 A 
HETATM   19  C4  UNL     1      43.680  62.826  79.771  1.00  0.00     0.014 A 
HETATM   20  C3  UNL     1      42.546  63.457  80.279  1.00  0.00     0.011 A 
HETATM   21  C2  UNL     1      41.640  62.785  81.067  1.00  0.00    -0.023 A 
HETATM   22  C1  UNL     1      40.430  63.474  81.604  1.00  0.00     0.051 C 
HETATM   23  C20 UNL     1      41.900  61.460  81.332  1.00  0.00     0.123 A 
HETATM   24  C19 UNL     1      43.044  60.833  80.815  1.00  0.00     0.056 A 
HETATM   25  F1  UNL     1      41.032  60.773  82.099  1.00  0.00    -0.206 F 
ENDBRANCH   1  18
TORSDOF 2
ENDMDL
