MODEL 7
REMARK VINA RESULT: -9.601519194      2.741      5.055
REMARK  2 active torsions:
REMARK  status: ('A' for Active; 'I' for Inactive)
REMARK    1  A    between atoms: C5_5  and  C6_6 
REMARK    2  A    between atoms: C10_10  and  C11_11 
REMARK       I    between atoms: C11_11  and  N1_13 
ROOT
HETATM    1  C6  UNL     1      45.354  60.705  79.437  1.00  0.00     0.043 A 
HETATM    2  C7  UNL     1      45.299  59.664  78.537  1.00  0.00     0.030 A 
HETATM    3  C8  UNL     1      46.424  59.082  77.999  1.00  0.00     0.005 A 
HETATM    4  C9  UNL     1      47.646  59.572  78.387  1.00  0.00     0.035 A 
HETATM    5  C10 UNL     1      47.721  60.634  79.304  1.00  0.00     0.101 A 
HETATM    6  N2  UNL     1      46.570  61.147  79.784  1.00  0.00    -0.351 N 
ATOM      7  H2  UNL     1      46.628  61.917  80.450  1.00  0.00     0.166 HD
ENDROOT
BRANCH   5   8
HETATM    8  C11 UNL     1      49.040  61.116  79.675  1.00  0.00     0.270 C 
HETATM    9  O1  UNL     1      49.668  61.811  78.791  1.00  0.00    -0.266 OA
HETATM   10  N1  UNL     1      49.698  60.912  80.871  1.00  0.00    -0.346 N 
HETATM   11  C12 UNL     1      51.058  61.487  81.036  1.00  0.00     0.126 C 
HETATM   12  C18 UNL     1      49.255  60.200  82.050  1.00  0.00     0.135 C 
HETATM   13  C13 UNL     1      51.962  60.270  81.226  1.00  0.00     0.021 C 
HETATM   14  C14 UNL     1      51.522  59.408  82.360  1.00  0.00     0.012 C 
HETATM   15  C15 UNL     1      50.092  58.925  82.243  1.00  0.00    -0.031 C 
HETATM   16  C16 UNL     1      49.624  58.205  83.464  1.00  0.00     0.016 C 
HETATM   17  C17 UNL     1      49.960  58.092  80.990  1.00  0.00     0.016 C 
ENDBRANCH   5   8
BRANCH   1  18
HETATM   18  C5  UNL     1      44.116  61.294  79.999  1.00  0.00    -0.006 A 
HETATM   19  C4  UNL     1      43.256  60.536  80.762  1.00  0.00     0.014 A 
HETATM   20  C3  UNL     1      42.089  61.072  81.305  1.00  0.00     0.011 A 
HETATM   21  C2  UNL     1      41.739  62.387  81.103  1.00  0.00    -0.023 A 
HETATM   22  C1  UNL     1      40.486  62.947  81.691  1.00  0.00     0.051 C 
HETATM   23  C20 UNL     1      42.591  63.154  80.342  1.00  0.00     0.123 A 
HETATM   24  C19 UNL     1      43.763  62.606  79.800  1.00  0.00     0.056 A 
HETATM   25  F1  UNL     1      42.277  64.446  80.126  1.00  0.00    -0.206 F 
ENDBRANCH   1  18
TORSDOF 2
ENDMDL
