MODEL 2
REMARK VINA RESULT: -10.653493433      0.970      1.362
REMARK  2 active torsions:
REMARK  status: ('A' for Active; 'I' for Inactive)
REMARK    1  A    between atoms: C5_5  and  C6_6 
REMARK    2  A    between atoms: C10_10  and  C11_11 
REMARK       I    between atoms: C11_11  and  N1_13 
ROOT
HETATM    1  C6  UNL     1      42.903  62.902  82.798  1.00  0.00     0.043 A 
HETATM    2  C7  UNL     1      43.028  62.700  84.155  1.00  0.00     0.030 A 
HETATM    3  C8  UNL     1      44.226  62.387  84.756  1.00  0.00     0.005 A 
HETATM    4  C9  UNL     1      45.334  62.275  83.954  1.00  0.00     0.035 A 
HETATM    5  C10 UNL     1      45.225  62.477  82.568  1.00  0.00     0.101 A 
HETATM    6  N2  UNL     1      44.014  62.781  82.060  1.00  0.00    -0.351 N 
ATOM      7  H2  UNL     1      43.938  62.927  81.053  1.00  0.00     0.166 HD
ENDROOT
BRANCH   5   8
HETATM    8  C11 UNL     1      46.429  62.340  81.768  1.00  0.00     0.270 C 
HETATM    9  O1  UNL     1      47.386  63.163  82.023  1.00  0.00    -0.266 OA
HETATM   10  N1  UNL     1      46.663  61.425  80.761  1.00  0.00    -0.346 N 
HETATM   11  C12 UNL     1      47.970  61.469  80.055  1.00  0.00     0.126 C 
HETATM   12  C18 UNL     1      45.803  60.374  80.261  1.00  0.00     0.135 C 
HETATM   13  C13 UNL     1      47.606  61.798  78.608  1.00  0.00     0.021 C 
HETATM   14  C14 UNL     1      46.634  60.826  78.032  1.00  0.00     0.012 C 
HETATM   15  C15 UNL     1      45.352  60.697  78.827  1.00  0.00    -0.031 C 
HETATM   16  C16 UNL     1      44.470  59.603  78.326  1.00  0.00     0.016 C 
HETATM   17  C17 UNL     1      44.659  62.038  78.853  1.00  0.00     0.016 C 
ENDBRANCH   5   8
BRANCH   1  18
HETATM   18  C5  UNL     1      41.595  63.247  82.195  1.00  0.00    -0.006 A 
HETATM   19  C4  UNL     1      41.000  62.416  81.272  1.00  0.00     0.014 A 
HETATM   20  C3  UNL     1      39.767  62.718  80.696  1.00  0.00     0.011 A 
HETATM   21  C2  UNL     1      39.083  63.866  81.024  1.00  0.00    -0.023 A 
HETATM   22  C1  UNL     1      37.762  64.176  80.400  1.00  0.00     0.051 C 
HETATM   23  C20 UNL     1      39.666  64.704  81.946  1.00  0.00     0.123 A 
HETATM   24  C19 UNL     1      40.907  64.391  82.520  1.00  0.00     0.056 A 
HETATM   25  F1  UNL     1      39.021  65.835  82.289  1.00  0.00    -0.206 F 
ENDBRANCH   1  18
TORSDOF 2
ENDMDL
