MODEL 1
REMARK VINA RESULT: -10.679232419      0.000      0.000
REMARK  2 active torsions:
REMARK  status: ('A' for Active; 'I' for Inactive)
REMARK    1  A    between atoms: C5_5  and  C6_6 
REMARK    2  A    between atoms: C10_10  and  C11_11 
REMARK       I    between atoms: C11_11  and  N1_13 
ROOT
HETATM    1  C6  UNL     1      42.778  62.936  82.957  1.00  0.00     0.043 A 
HETATM    2  C7  UNL     1      42.824  62.739  84.319  1.00  0.00     0.030 A 
HETATM    3  C8  UNL     1      43.980  62.406  84.987  1.00  0.00     0.005 A 
HETATM    4  C9  UNL     1      45.129  62.268  84.248  1.00  0.00     0.035 A 
HETATM    5  C10 UNL     1      45.100  62.465  82.857  1.00  0.00     0.101 A 
HETATM    6  N2  UNL     1      43.925  62.789  82.281  1.00  0.00    -0.351 N 
ATOM      7  H2  UNL     1      43.909  62.932  81.272  1.00  0.00     0.166 HD
ENDROOT
BRANCH   5   8
HETATM    8  C11 UNL     1      46.343  62.300  82.125  1.00  0.00     0.270 C 
HETATM    9  O1  UNL     1      47.315  63.077  82.459  1.00  0.00    -0.266 OA
HETATM   10  N1  UNL     1      46.602  61.402  81.109  1.00  0.00    -0.346 N 
HETATM   11  C12 UNL     1      47.949  61.412  80.482  1.00  0.00     0.126 C 
HETATM   12  C18 UNL     1      45.734  60.400  80.530  1.00  0.00     0.135 C 
HETATM   13  C13 UNL     1      47.685  61.793  79.026  1.00  0.00     0.021 C 
HETATM   14  C14 UNL     1      46.713  60.875  78.367  1.00  0.00     0.012 C 
HETATM   15  C15 UNL     1      45.382  60.778  79.082  1.00  0.00    -0.031 C 
HETATM   16  C16 UNL     1      44.489  59.732  78.499  1.00  0.00     0.016 C 
HETATM   17  C17 UNL     1      44.740  62.144  79.104  1.00  0.00     0.016 C 
ENDBRANCH   5   8
BRANCH   1  18
HETATM   18  C5  UNL     1      41.512  63.304  82.281  1.00  0.00    -0.006 A 
HETATM   19  C4  UNL     1      40.819  64.437  82.646  1.00  0.00     0.014 A 
HETATM   20  C3  UNL     1      39.629  64.805  82.020  1.00  0.00     0.011 A 
HETATM   21  C2  UNL     1      39.088  64.051  81.005  1.00  0.00    -0.023 A 
HETATM   22  C1  UNL     1      37.813  64.458  80.343  1.00  0.00     0.051 C 
HETATM   23  C20 UNL     1      39.771  62.917  80.631  1.00  0.00     0.123 A 
HETATM   24  C19 UNL     1      40.968  62.555  81.267  1.00  0.00     0.056 A 
HETATM   25  F1  UNL     1      39.267  62.158  79.639  1.00  0.00    -0.206 F 
ENDBRANCH   1  18
TORSDOF 2
ENDMDL
