MODEL 6
REMARK VINA RESULT: -6.212535472      2.333      5.534
REMARK  3 active torsions:
REMARK  status: ('A' for Active; 'I' for Inactive)
REMARK    1  A    between atoms: N1_7  and  C7_8 
REMARK    2  A    between atoms: C7_8  and  O1_9 
REMARK    3  A    between atoms: C7_8  and  C8_11 
ROOT
HETATM    1  C7  UNL     1     -23.807   9.771 -16.447  1.00  0.00     0.150 C 
ENDROOT
BRANCH   1   2
HETATM    2  N1  UNL     1     -22.858   8.771 -16.329  1.00  0.00    -0.361 N 
HETATM    3  C6  UNL     1     -21.430   9.222 -16.250  1.00  0.00     0.129 C 
HETATM    4  C4  UNL     1     -20.916   8.454 -15.057  1.00  0.00    -0.000 C 
HETATM    5  C3  UNL     1     -20.653   7.046 -15.500  1.00  0.00     0.011 C 
HETATM    6  C5  UNL     1     -19.711   9.108 -14.430  1.00  0.00     0.011 C 
HETATM    7  C2  UNL     1     -21.710   6.591 -16.440  1.00  0.00    -0.000 C 
HETATM    8  C1  UNL     1     -21.316   6.544 -17.887  1.00  0.00     0.011 C 
HETATM    9  C14 UNL     1     -23.014   7.366 -16.292  1.00  0.00     0.129 C 
ENDBRANCH   1   2
BRANCH   1  10
HETATM   10  O1  UNL     1     -23.502  10.814 -17.187  1.00  0.00    -0.345 OA
ATOM     11  H1  UNL     1     -24.181  11.462 -17.334  1.00  0.00     0.219 HD
ENDBRANCH   1  10
BRANCH   1  12
HETATM   12  C8  UNL     1     -25.119   9.846 -15.865  1.00  0.00     0.040 A 
HETATM   13  C9  UNL     1     -25.416   9.846 -14.522  1.00  0.00     0.036 A 
HETATM   14  C10 UNL     1     -26.729   9.954 -14.037  1.00  0.00     0.012 A 
HETATM   15 BR1  UNL     1     -27.022   9.942 -12.142  1.00  0.00    -0.051 Br
HETATM   16  C11 UNL     1     -27.776  10.064 -14.911  1.00  0.00     0.021 A 
HETATM   17  C12 UNL     1     -27.531  10.069 -16.261  1.00  0.00     0.029 A 
HETATM   18  C13 UNL     1     -26.247   9.963 -16.704  1.00  0.00     0.060 A 
HETATM   19  N2  UNL     1     -26.011   9.966 -18.110  1.00  0.00    -0.101 NA
ENDBRANCH   1  12
TORSDOF 3
ENDMDL
