MODEL 5
REMARK VINA RESULT: -6.216630518      4.412      6.070
REMARK  3 active torsions:
REMARK  status: ('A' for Active; 'I' for Inactive)
REMARK    1  A    between atoms: N1_7  and  C7_8 
REMARK    2  A    between atoms: C7_8  and  O1_9 
REMARK    3  A    between atoms: C7_8  and  C8_11 
ROOT
HETATM    1  C7  UNL     1     -22.401   6.149 -18.723  1.00  0.00     0.150 C 
ENDROOT
BRANCH   1   2
HETATM    2  N1  UNL     1     -22.648   6.701 -17.477  1.00  0.00    -0.361 N 
HETATM    3  C6  UNL     1     -21.550   6.564 -16.465  1.00  0.00     0.129 C 
HETATM    4  C4  UNL     1     -21.419   7.973 -15.941  1.00  0.00    -0.000 C 
HETATM    5  C3  UNL     1     -22.544   8.208 -14.979  1.00  0.00     0.011 C 
HETATM    6  C5  UNL     1     -20.063   8.234 -15.335  1.00  0.00     0.011 C 
HETATM    7  C2  UNL     1     -23.794   7.577 -15.477  1.00  0.00    -0.000 C 
HETATM    8  C1  UNL     1     -24.196   6.304 -14.792  1.00  0.00     0.011 C 
HETATM    9  C14 UNL     1     -23.795   7.365 -16.986  1.00  0.00     0.129 C 
ENDBRANCH   1   2
BRANCH   1  10
HETATM   10  O1  UNL     1     -22.000   6.960 -19.677  1.00  0.00    -0.345 OA
ATOM     11  H1  UNL     1     -21.786   6.574 -20.518  1.00  0.00     0.219 HD
ENDBRANCH   1  10
BRANCH   1  12
HETATM   12  C8  UNL     1     -22.522   4.781 -19.145  1.00  0.00     0.040 A 
HETATM   13  C9  UNL     1     -23.692   4.078 -19.309  1.00  0.00     0.036 A 
HETATM   14  C10 UNL     1     -23.720   2.748 -19.757  1.00  0.00     0.012 A 
HETATM   15 BR1  UNL     1     -25.413   1.868 -19.947  1.00  0.00    -0.051 Br
HETATM   16  C11 UNL     1     -22.553   2.098 -20.050  1.00  0.00     0.021 A 
HETATM   17  C12 UNL     1     -21.358   2.757 -19.904  1.00  0.00     0.029 A 
HETATM   18  C13 UNL     1     -21.360   4.048 -19.467  1.00  0.00     0.060 A 
HETATM   19  N2  UNL     1     -20.109   4.716 -19.316  1.00  0.00    -0.101 NA
ENDBRANCH   1  12
TORSDOF 3
ENDMDL
