MODEL 1
REMARK VINA RESULT: -6.771158479      0.000      0.000
REMARK  3 active torsions:
REMARK  status: ('A' for Active; 'I' for Inactive)
REMARK    1  A    between atoms: N1_7  and  C7_8 
REMARK    2  A    between atoms: C7_8  and  O1_9 
REMARK    3  A    between atoms: C7_8  and  C8_11 
ROOT
HETATM    1  C7  UNL     1     -24.150   9.879 -16.216  1.00  0.00     0.150 C 
ENDROOT
BRANCH   1   2
HETATM    2  N1  UNL     1     -25.159   9.998 -15.275  1.00  0.00    -0.361 N 
HETATM    3  C6  UNL     1     -25.718   8.714 -14.741  1.00  0.00     0.129 C 
HETATM    4  C4  UNL     1     -25.686   8.945 -13.250  1.00  0.00    -0.000 C 
HETATM    5  C3  UNL     1     -26.848   9.826 -12.901  1.00  0.00     0.011 C 
HETATM    6  C5  UNL     1     -25.671   7.654 -12.470  1.00  0.00     0.011 C 
HETATM    7  C2  UNL     1     -27.041  10.869 -13.940  1.00  0.00    -0.000 C 
HETATM    8  C1  UNL     1     -28.189  10.647 -14.879  1.00  0.00     0.011 C 
HETATM    9  C14 UNL     1     -25.776  11.153 -14.742  1.00  0.00     0.129 C 
ENDBRANCH   1   2
BRANCH   1  10
HETATM   10  O1  UNL     1     -24.324  10.481 -17.372  1.00  0.00    -0.345 OA
ATOM     11  H1  UNL     1     -23.562  10.587 -17.930  1.00  0.00     0.219 HD
ENDBRANCH   1  10
BRANCH   1  12
HETATM   12  C8  UNL     1     -22.901   9.175 -16.118  1.00  0.00     0.040 A 
HETATM   13  C9  UNL     1     -21.898   9.416 -15.209  1.00  0.00     0.036 A 
HETATM   14  C10 UNL     1     -20.718   8.657 -15.164  1.00  0.00     0.012 A 
HETATM   15 BR1  UNL     1     -19.387   9.087 -13.852  1.00  0.00    -0.051 Br
HETATM   16  C11 UNL     1     -20.530   7.629 -16.046  1.00  0.00     0.021 A 
HETATM   17  C12 UNL     1     -21.503   7.347 -16.973  1.00  0.00     0.029 A 
HETATM   18  C13 UNL     1     -22.638   8.101 -16.994  1.00  0.00     0.060 A 
HETATM   19  N2  UNL     1     -23.637   7.797 -17.966  1.00  0.00    -0.101 NA
ENDBRANCH   1  12
TORSDOF 3
ENDMDL
