MODEL 2
REMARK VINA RESULT: -6.567775802      0.735      2.081
REMARK  3 active torsions:
REMARK  status: ('A' for Active; 'I' for Inactive)
REMARK    1  A    between atoms: N1_7  and  C7_8 
REMARK    2  A    between atoms: C7_8  and  O1_9 
REMARK    3  A    between atoms: C7_8  and  C8_11 
ROOT
HETATM    1  C7  UNL     1     -24.342   9.920 -16.205  1.00  0.00     0.150 C 
ENDROOT
BRANCH   1   2
HETATM    2  N1  UNL     1     -25.378   9.993 -15.290  1.00  0.00    -0.361 N 
HETATM    3  C6  UNL     1     -25.683  11.355 -14.745  1.00  0.00     0.129 C 
HETATM    4  C4  UNL     1     -27.179  11.444 -14.919  1.00  0.00    -0.000 C 
HETATM    5  C3  UNL     1     -27.815  10.646 -13.820  1.00  0.00     0.011 C 
HETATM    6  C5  UNL     1     -27.667  12.870 -14.968  1.00  0.00     0.011 C 
HETATM    7  C2  UNL     1     -27.039   9.404 -13.565  1.00  0.00    -0.000 C 
HETATM    8  C1  UNL     1     -26.189   9.413 -12.329  1.00  0.00     0.011 C 
HETATM    9  C14 UNL     1     -26.198   8.970 -14.759  1.00  0.00     0.129 C 
ENDBRANCH   1   2
BRANCH   1  10
HETATM   10  O1  UNL     1     -24.467  10.606 -17.320  1.00  0.00    -0.345 OA
ATOM     11  H1  UNL     1     -24.138  11.498 -17.324  1.00  0.00     0.219 HD
ENDBRANCH   1  10
BRANCH   1  12
HETATM   12  C8  UNL     1     -23.111   9.183 -16.120  1.00  0.00     0.040 A 
HETATM   13  C9  UNL     1     -22.076   9.422 -15.246  1.00  0.00     0.036 A 
HETATM   14  C10 UNL     1     -20.918   8.631 -15.210  1.00  0.00     0.012 A 
HETATM   15 BR1  UNL     1     -19.540   9.060 -13.948  1.00  0.00    -0.051 Br
HETATM   16  C11 UNL     1     -20.784   7.572 -16.066  1.00  0.00     0.021 A 
HETATM   17  C12 UNL     1     -21.789   7.291 -16.957  1.00  0.00     0.029 A 
HETATM   18  C13 UNL     1     -22.903   8.076 -16.970  1.00  0.00     0.060 A 
HETATM   19  N2  UNL     1     -23.936   7.773 -17.905  1.00  0.00    -0.101 NA
ENDBRANCH   1  12
TORSDOF 3
ENDMDL
