MODEL 4
REMARK VINA RESULT: -6.351383268      5.320      7.388
REMARK  3 active torsions:
REMARK  status: ('A' for Active; 'I' for Inactive)
REMARK    1  A    between atoms: N1_7  and  C7_8 
REMARK    2  A    between atoms: C7_8  and  O1_9 
REMARK    3  A    between atoms: C7_8  and  C8_11 
ROOT
HETATM    1  C7  UNL     1     -19.686   4.966 -18.349  1.00  0.00     0.150 C 
ENDROOT
BRANCH   1   2
HETATM    2  N1  UNL     1     -20.825   5.731 -18.169  1.00  0.00    -0.361 N 
HETATM    3  C6  UNL     1     -21.071   6.232 -16.777  1.00  0.00     0.129 C 
HETATM    4  C4  UNL     1     -21.350   7.698 -17.007  1.00  0.00    -0.000 C 
HETATM    5  C3  UNL     1     -22.756   7.821 -17.512  1.00  0.00     0.011 C 
HETATM    6  C5  UNL     1     -21.091   8.530 -15.777  1.00  0.00     0.011 C 
HETATM    7  C2  UNL     1     -23.069   6.716 -18.455  1.00  0.00    -0.000 C 
HETATM    8  C1  UNL     1     -23.937   5.622 -17.908  1.00  0.00     0.011 C 
HETATM    9  C14 UNL     1     -21.826   6.108 -19.095  1.00  0.00     0.129 C 
ENDBRANCH   1   2
BRANCH   1  10
HETATM   10  O1  UNL     1     -18.652   5.225 -17.579  1.00  0.00    -0.345 OA
ATOM     11  H1  UNL     1     -17.826   4.811 -17.800  1.00  0.00     0.219 HD
ENDBRANCH   1  10
BRANCH   1  12
HETATM   12  C8  UNL     1     -19.454   3.896 -19.280  1.00  0.00     0.040 A 
HETATM   13  C9  UNL     1     -20.273   2.813 -19.498  1.00  0.00     0.036 A 
HETATM   14  C10 UNL     1     -19.984   1.825 -20.453  1.00  0.00     0.012 A 
HETATM   15 BR1  UNL     1     -21.199   0.359 -20.668  1.00  0.00    -0.051 Br
HETATM   16  C11 UNL     1     -18.850   1.918 -21.213  1.00  0.00     0.021 A 
HETATM   17  C12 UNL     1     -18.001   2.981 -21.034  1.00  0.00     0.029 A 
HETATM   18  C13 UNL     1     -18.306   3.924 -20.100  1.00  0.00     0.060 A 
HETATM   19  N2  UNL     1     -17.411   5.020 -19.924  1.00  0.00    -0.101 NA
ENDBRANCH   1  12
TORSDOF 3
ENDMDL
