MODEL 3
REMARK VINA RESULT: -6.441721994      0.987      1.062
REMARK  3 active torsions:
REMARK  status: ('A' for Active; 'I' for Inactive)
REMARK    1  A    between atoms: N1_7  and  C7_8 
REMARK    2  A    between atoms: C7_8  and  O1_9 
REMARK    3  A    between atoms: C7_8  and  C8_11 
ROOT
HETATM    1  C7  UNL     1     -24.420   9.591 -16.521  1.00  0.00     0.150 C 
ENDROOT
BRANCH   1   2
HETATM    2  N1  UNL     1     -25.345  10.228 -15.711  1.00  0.00    -0.361 N 
HETATM    3  C6  UNL     1     -26.124   9.349 -14.780  1.00  0.00     0.129 C 
HETATM    4  C4  UNL     1     -25.984  10.072 -13.463  1.00  0.00    -0.000 C 
HETATM    5  C3  UNL     1     -26.932  11.233 -13.477  1.00  0.00     0.011 C 
HETATM    6  C5  UNL     1     -26.192   9.157 -12.282  1.00  0.00     0.011 C 
HETATM    7  C2  UNL     1     -26.958  11.867 -14.820  1.00  0.00    -0.000 C 
HETATM    8  C1  UNL     1     -28.167  11.568 -15.657  1.00  0.00     0.011 C 
HETATM    9  C14 UNL     1     -25.697  11.595 -15.632  1.00  0.00     0.129 C 
ENDBRANCH   1   2
BRANCH   1  10
HETATM   10  O1  UNL     1     -24.599   9.665 -17.821  1.00  0.00    -0.345 OA
ATOM     11  H1  UNL     1     -24.960   8.902 -18.258  1.00  0.00     0.219 HD
ENDBRANCH   1  10
BRANCH   1  12
HETATM   12  C8  UNL     1     -23.257   8.836 -16.144  1.00  0.00     0.040 A 
HETATM   13  C9  UNL     1     -22.109   9.335 -15.575  1.00  0.00     0.036 A 
HETATM   14  C10 UNL     1     -21.028   8.518 -15.209  1.00  0.00     0.012 A 
HETATM   15 BR1  UNL     1     -19.478   9.328 -14.424  1.00  0.00    -0.051 Br
HETATM   16  C11 UNL     1     -21.090   7.167 -15.413  1.00  0.00     0.021 A 
HETATM   17  C12 UNL     1     -22.215   6.619 -15.977  1.00  0.00     0.029 A 
HETATM   18  C13 UNL     1     -23.249   7.436 -16.323  1.00  0.00     0.060 A 
HETATM   19  N2  UNL     1     -24.409   6.851 -16.912  1.00  0.00    -0.101 NA
ENDBRANCH   1  12
TORSDOF 3
ENDMDL
