MODEL 18
REMARK VINA RESULT: -5.694907556      1.669      1.952
REMARK  3 active torsions:
REMARK  status: ('A' for Active; 'I' for Inactive)
REMARK    1  A    between atoms: N1_7  and  C7_8 
REMARK    2  A    between atoms: C7_8  and  O1_9 
REMARK    3  A    between atoms: C7_8  and  C8_11 
ROOT
HETATM    1  C7  UNL     1     -24.557   7.985 -14.848  1.00  0.00     0.150 C 
ENDROOT
BRANCH   1   2
HETATM    2  N1  UNL     1     -25.335   9.130 -14.878  1.00  0.00    -0.361 N 
HETATM    3  C6  UNL     1     -26.637   9.064 -14.137  1.00  0.00     0.129 C 
HETATM    4  C4  UNL     1     -26.604  10.329 -13.315  1.00  0.00    -0.000 C 
HETATM    5  C3  UNL     1     -26.951  11.471 -14.221  1.00  0.00     0.011 C 
HETATM    6  C5  UNL     1     -27.497  10.248 -12.102  1.00  0.00     0.011 C 
HETATM    7  C2  UNL     1     -26.327  11.284 -15.557  1.00  0.00    -0.000 C 
HETATM    8  C1  UNL     1     -27.255  10.843 -16.651  1.00  0.00     0.011 C 
HETATM    9  C14 UNL     1     -25.109  10.368 -15.523  1.00  0.00     0.129 C 
ENDBRANCH   1   2
BRANCH   1  10
HETATM   10  O1  UNL     1     -25.104   6.893 -14.361  1.00  0.00    -0.345 OA
ATOM     11  H1  UNL     1     -25.352   6.899 -13.444  1.00  0.00     0.219 HD
ENDBRANCH   1  10
BRANCH   1  12
HETATM   12  C8  UNL     1     -23.199   7.804 -15.281  1.00  0.00     0.040 A 
HETATM   13  C9  UNL     1     -22.094   8.464 -14.799  1.00  0.00     0.036 A 
HETATM   14  C10 UNL     1     -20.794   8.202 -15.259  1.00  0.00     0.012 A 
HETATM   15 BR1  UNL     1     -19.329   9.186 -14.512  1.00  0.00    -0.051 Br
HETATM   16  C11 UNL     1     -20.587   7.257 -16.226  1.00  0.00     0.021 A 
HETATM   17  C12 UNL     1     -21.659   6.569 -16.740  1.00  0.00     0.029 A 
HETATM   18  C13 UNL     1     -22.909   6.845 -16.274  1.00  0.00     0.060 A 
HETATM   19  N2  UNL     1     -24.011   6.124 -16.822  1.00  0.00    -0.101 NA
ENDBRANCH   1  12
TORSDOF 3
ENDMDL
