MODEL 8
REMARK VINA RESULT: -7.126778956      3.126      4.854
REMARK  7 active torsions:
REMARK  status: ('A' for Active; 'I' for Inactive)
REMARK    1  A    between atoms: N1_7  and  C7_8 
REMARK    2  A    between atoms: C7_8  and  O1_9 
REMARK    3  A    between atoms: C7_8  and  C8_11 
REMARK    4  A    between atoms: C13_17  and  N2_18 
REMARK       I    between atoms: N2_18  and  C14_20 
REMARK    5  A    between atoms: C14_20  and  C15_22 
REMARK    6  A    between atoms: C15_22  and  C16_23 
REMARK    7  A    between atoms: C16_23  and  C17_24 
ROOT
HETATM    1  C8  UNL     1     -23.193   5.399 -17.096  1.00  0.00     0.043 A 
HETATM    2  C9  UNL     1     -21.852   5.398 -17.446  1.00  0.00     0.037 A 
HETATM    3  C10 UNL     1     -21.270   4.302 -18.045  1.00  0.00     0.012 A 
HETATM    4 BR1  UNL     1     -19.401   4.380 -18.498  1.00  0.00    -0.051 Br
HETATM    5  C11 UNL     1     -22.015   3.189 -18.304  1.00  0.00     0.021 A 
HETATM    6  C12 UNL     1     -23.366   3.198 -17.947  1.00  0.00     0.032 A 
HETATM    7  C13 UNL     1     -23.991   4.262 -17.349  1.00  0.00     0.049 A 
ENDROOT
BRANCH   1   8
HETATM    8  C7  UNL     1     -23.822   6.603 -16.620  1.00  0.00     0.150 C 
BRANCH   8   9
HETATM    9  N1  UNL     1     -23.937   7.143 -15.340  1.00  0.00    -0.361 N 
HETATM   10  C6  UNL     1     -23.000   6.997 -14.255  1.00  0.00     0.129 C 
HETATM   11  C4  UNL     1     -22.366   8.358 -14.089  1.00  0.00    -0.000 C 
HETATM   12  C3  UNL     1     -23.440   9.260 -13.520  1.00  0.00     0.011 C 
HETATM   13  C5  UNL     1     -21.124   8.334 -13.255  1.00  0.00     0.011 C 
HETATM   14  C2  UNL     1     -24.541   9.366 -14.542  1.00  0.00    -0.000 C 
HETATM   15  C1  UNL     1     -25.660  10.245 -14.096  1.00  0.00     0.011 C 
HETATM   16  C18 UNL     1     -25.084   8.034 -14.995  1.00  0.00     0.129 C 
ENDBRANCH   8   9
BRANCH   8  17
HETATM   17  O1  UNL     1     -24.415   7.376 -17.514  1.00  0.00    -0.345 OA
ATOM     18  H1  UNL     1     -23.809   7.628 -18.201  1.00  0.00     0.219 HD
ENDBRANCH   8  17
ENDBRANCH   1   8
BRANCH   7  19
HETATM   19  N2  UNL     1     -25.324   4.159 -16.913  1.00  0.00    -0.326 N 
HETATM   20  C14 UNL     1     -26.399   4.596 -17.729  1.00  0.00     0.222 C 
HETATM   21  O2  UNL     1     -26.299   5.105 -18.859  1.00  0.00    -0.273 OA
ATOM     22  H2  UNL     1     -25.521   3.763 -15.994  1.00  0.00     0.169 HD
BRANCH  20  23
HETATM   23  C15 UNL     1     -27.779   4.422 -17.160  1.00  0.00     0.113 C 
BRANCH  23  24
HETATM   24  C16 UNL     1     -27.762   4.904 -15.736  1.00  0.00     0.122 C 
BRANCH  24  25
HETATM   25  C17 UNL     1     -27.981   3.739 -14.840  1.00  0.00     0.172 C 
HETATM   26  O3  UNL     1     -29.159   3.464 -14.471  1.00  0.00    -0.648 OA
HETATM   27  O4  UNL     1     -26.929   2.963 -14.410  1.00  0.00    -0.648 OA
ENDBRANCH  24  25
ENDBRANCH  23  24
ENDBRANCH  20  23
ENDBRANCH   7  19
TORSDOF 7
ENDMDL
