MODEL 14
REMARK VINA RESULT: -6.993500448      0.689      1.810
REMARK  7 active torsions:
REMARK  status: ('A' for Active; 'I' for Inactive)
REMARK    1  A    between atoms: N1_7  and  C7_8 
REMARK    2  A    between atoms: C7_8  and  O1_9 
REMARK    3  A    between atoms: C7_8  and  C8_11 
REMARK    4  A    between atoms: C13_17  and  N2_18 
REMARK       I    between atoms: N2_18  and  C14_20 
REMARK    5  A    between atoms: C14_20  and  C15_22 
REMARK    6  A    between atoms: C15_22  and  C16_23 
REMARK    7  A    between atoms: C16_23  and  C17_24 
ROOT
HETATM    1  C8  UNL     1     -24.320   8.837 -13.843  1.00  0.00     0.043 A 
HETATM    2  C9  UNL     1     -23.122   9.371 -13.397  1.00  0.00     0.037 A 
HETATM    3  C10 UNL     1     -21.979   8.605 -13.327  1.00  0.00     0.012 A 
HETATM    4 BR1  UNL     1     -20.355   9.422 -12.693  1.00  0.00    -0.051 Br
HETATM    5  C11 UNL     1     -22.011   7.294 -13.702  1.00  0.00     0.021 A 
HETATM    6  C12 UNL     1     -23.224   6.763 -14.151  1.00  0.00     0.032 A 
HETATM    7  C13 UNL     1     -24.387   7.484 -14.237  1.00  0.00     0.049 A 
ENDROOT
BRANCH   1   8
HETATM    8  C7  UNL     1     -25.461   9.688 -14.061  1.00  0.00     0.150 C 
BRANCH   8   9
HETATM    9  N1  UNL     1     -26.159  10.537 -13.203  1.00  0.00    -0.361 N 
HETATM   10  C6  UNL     1     -26.949  11.682 -13.578  1.00  0.00     0.129 C 
HETATM   11  C4  UNL     1     -28.382  11.279 -13.326  1.00  0.00    -0.000 C 
HETATM   12  C3  UNL     1     -28.545  11.204 -11.823  1.00  0.00     0.011 C 
HETATM   13  C5  UNL     1     -29.375  12.192 -13.975  1.00  0.00     0.011 C 
HETATM   14  C2  UNL     1     -27.643  10.110 -11.317  1.00  0.00    -0.000 C 
HETATM   15  C1  UNL     1     -27.725   9.932  -9.838  1.00  0.00     0.011 C 
HETATM   16  C18 UNL     1     -26.203  10.261 -11.737  1.00  0.00     0.129 C 
ENDBRANCH   8   9
BRANCH   8  17
HETATM   17  O1  UNL     1     -25.986   9.706 -15.275  1.00  0.00    -0.345 OA
ATOM     18  H1  UNL     1     -25.681   8.967 -15.788  1.00  0.00     0.219 HD
ENDBRANCH   8  17
ENDBRANCH   1   8
BRANCH   7  19
HETATM   19  N2  UNL     1     -25.596   6.856 -14.588  1.00  0.00    -0.326 N 
HETATM   20  C14 UNL     1     -26.279   6.014 -13.673  1.00  0.00     0.222 C 
HETATM   21  O2  UNL     1     -25.908   5.736 -12.520  1.00  0.00    -0.273 OA
ATOM     22  H2  UNL     1     -25.989   7.009 -15.517  1.00  0.00     0.169 HD
BRANCH  20  23
HETATM   23  C15 UNL     1     -27.568   5.412 -14.158  1.00  0.00     0.113 C 
BRANCH  23  24
HETATM   24  C16 UNL     1     -27.347   4.898 -15.553  1.00  0.00     0.122 C 
BRANCH  24  25
HETATM   25  C17 UNL     1     -26.859   3.497 -15.470  1.00  0.00     0.172 C 
HETATM   26  O3  UNL     1     -26.274   2.993 -16.471  1.00  0.00    -0.648 OA
HETATM   27  O4  UNL     1     -27.034   2.748 -14.328  1.00  0.00    -0.648 OA
ENDBRANCH  24  25
ENDBRANCH  23  24
ENDBRANCH  20  23
ENDBRANCH   7  19
TORSDOF 7
ENDMDL
