MODEL 11
REMARK VINA RESULT: -7.046889752      1.217      1.897
REMARK  7 active torsions:
REMARK  status: ('A' for Active; 'I' for Inactive)
REMARK    1  A    between atoms: N1_7  and  C7_8 
REMARK    2  A    between atoms: C7_8  and  O1_9 
REMARK    3  A    between atoms: C7_8  and  C8_11 
REMARK    4  A    between atoms: C13_17  and  N2_18 
REMARK       I    between atoms: N2_18  and  C14_20 
REMARK    5  A    between atoms: C14_20  and  C15_22 
REMARK    6  A    between atoms: C15_22  and  C16_23 
REMARK    7  A    between atoms: C16_23  and  C17_24 
ROOT
HETATM    1  C8  UNL     1     -24.170   8.776 -13.930  1.00  0.00     0.043 A 
HETATM    2  C9  UNL     1     -23.121   9.238 -13.150  1.00  0.00     0.037 A 
HETATM    3  C10 UNL     1     -21.908   8.586 -13.124  1.00  0.00     0.012 A 
HETATM    4 BR1  UNL     1     -20.503   9.291 -12.012  1.00  0.00    -0.051 Br
HETATM    5  C11 UNL     1     -21.719   7.463 -13.875  1.00  0.00     0.021 A 
HETATM    6  C12 UNL     1     -22.782   7.003 -14.659  1.00  0.00     0.032 A 
HETATM    7  C13 UNL     1     -24.007   7.616 -14.718  1.00  0.00     0.049 A 
ENDROOT
BRANCH   1   8
HETATM    8  C7  UNL     1     -25.373   9.554 -14.070  1.00  0.00     0.150 C 
BRANCH   8   9
HETATM    9  N1  UNL     1     -26.560   9.562 -13.338  1.00  0.00    -0.361 N 
HETATM   10  C6  UNL     1     -27.769   8.844 -13.650  1.00  0.00     0.129 C 
HETATM   11  C4  UNL     1     -27.869   7.759 -12.604  1.00  0.00    -0.000 C 
HETATM   12  C3  UNL     1     -28.188   8.455 -11.298  1.00  0.00     0.011 C 
HETATM   13  C5  UNL     1     -28.860   6.693 -12.953  1.00  0.00     0.011 C 
HETATM   14  C2  UNL     1     -27.023   9.345 -10.955  1.00  0.00    -0.000 C 
HETATM   15  C1  UNL     1     -27.216  10.080  -9.672  1.00  0.00     0.011 C 
HETATM   16  C18 UNL     1     -26.648  10.311 -12.051  1.00  0.00     0.129 C 
ENDBRANCH   8   9
BRANCH   8  17
HETATM   17  O1  UNL     1     -25.418  10.436 -15.055  1.00  0.00    -0.345 OA
ATOM     18  H1  UNL     1     -26.140  10.251 -15.644  1.00  0.00     0.219 HD
ENDBRANCH   8  17
ENDBRANCH   1   8
BRANCH   7  19
HETATM   19  N2  UNL     1     -25.066   7.034 -15.437  1.00  0.00    -0.326 N 
HETATM   20  C14 UNL     1     -25.791   5.931 -14.915  1.00  0.00     0.222 C 
HETATM   21  O2  UNL     1     -25.582   5.371 -13.825  1.00  0.00    -0.273 OA
ATOM     22  H2  UNL     1     -25.318   7.412 -16.350  1.00  0.00     0.169 HD
BRANCH  20  23
HETATM   23  C15 UNL     1     -26.909   5.405 -15.770  1.00  0.00     0.113 C 
BRANCH  23  24
HETATM   24  C16 UNL     1     -26.470   4.094 -16.359  1.00  0.00     0.122 C 
BRANCH  24  25
HETATM   25  C17 UNL     1     -27.284   3.008 -15.755  1.00  0.00     0.172 C 
HETATM   26  O3  UNL     1     -28.175   2.449 -16.457  1.00  0.00    -0.648 OA
HETATM   27  O4  UNL     1     -27.084   2.607 -14.453  1.00  0.00    -0.648 OA
ENDBRANCH  24  25
ENDBRANCH  23  24
ENDBRANCH  20  23
ENDBRANCH   7  19
TORSDOF 7
ENDMDL
