MODEL 6
REMARK VINA RESULT: -7.193286524      1.043      1.825
REMARK  7 active torsions:
REMARK  status: ('A' for Active; 'I' for Inactive)
REMARK    1  A    between atoms: N1_7  and  C7_8 
REMARK    2  A    between atoms: C7_8  and  O1_9 
REMARK    3  A    between atoms: C7_8  and  C8_11 
REMARK    4  A    between atoms: C13_17  and  N2_18 
REMARK       I    between atoms: N2_18  and  C14_20 
REMARK    5  A    between atoms: C14_20  and  C15_22 
REMARK    6  A    between atoms: C15_22  and  C16_23 
REMARK    7  A    between atoms: C16_23  and  C17_24 
ROOT
HETATM    1  C8  UNL     1     -24.257   8.923 -13.741  1.00  0.00     0.043 A 
HETATM    2  C9  UNL     1     -23.043   9.462 -13.343  1.00  0.00     0.037 A 
HETATM    3  C10 UNL     1     -21.920   8.675 -13.211  1.00  0.00     0.012 A 
HETATM    4 BR1  UNL     1     -20.273   9.501 -12.651  1.00  0.00    -0.051 Br
HETATM    5  C11 UNL     1     -21.987   7.338 -13.473  1.00  0.00     0.021 A 
HETATM    6  C12 UNL     1     -23.215   6.803 -13.873  1.00  0.00     0.032 A 
HETATM    7  C13 UNL     1     -24.360   7.543 -14.018  1.00  0.00     0.049 A 
ENDROOT
BRANCH   1   8
HETATM    8  C7  UNL     1     -25.377   9.781 -14.027  1.00  0.00     0.150 C 
BRANCH   8   9
HETATM    9  N1  UNL     1     -26.526  10.078 -13.296  1.00  0.00    -0.361 N 
HETATM   10  C6  UNL     1     -27.886  10.028 -13.770  1.00  0.00     0.129 C 
HETATM   11  C4  UNL     1     -28.508   8.843 -13.072  1.00  0.00    -0.000 C 
HETATM   12  C3  UNL     1     -28.647   9.231 -11.615  1.00  0.00     0.011 C 
HETATM   13  C5  UNL     1     -29.803   8.409 -13.684  1.00  0.00     0.011 C 
HETATM   14  C2  UNL     1     -27.262   9.441 -11.062  1.00  0.00    -0.000 C 
HETATM   15  C1  UNL     1     -27.268   9.820  -9.619  1.00  0.00     0.011 C 
HETATM   16  C18 UNL     1     -26.432  10.424 -11.848  1.00  0.00     0.129 C 
ENDBRANCH   8   9
BRANCH   8  17
HETATM   17  O1  UNL     1     -25.369  10.430 -15.180  1.00  0.00    -0.345 OA
ATOM     18  H1  UNL     1     -24.484  10.517 -15.515  1.00  0.00     0.219 HD
ENDBRANCH   8  17
ENDBRANCH   1   8
BRANCH   7  19
HETATM   19  N2  UNL     1     -25.586   6.919 -14.312  1.00  0.00    -0.326 N 
HETATM   20  C14 UNL     1     -26.213   6.055 -13.378  1.00  0.00     0.222 C 
HETATM   21  O2  UNL     1     -25.774   5.752 -12.255  1.00  0.00    -0.273 OA
ATOM     22  H2  UNL     1     -26.032   7.092 -15.213  1.00  0.00     0.169 HD
BRANCH  20  23
HETATM   23  C15 UNL     1     -27.526   5.459 -13.801  1.00  0.00     0.113 C 
BRANCH  23  24
HETATM   24  C16 UNL     1     -27.416   5.065 -15.247  1.00  0.00     0.122 C 
BRANCH  24  25
HETATM   25  C17 UNL     1     -26.859   3.689 -15.322  1.00  0.00     0.172 C 
HETATM   26  O3  UNL     1     -26.203   3.350 -16.348  1.00  0.00    -0.648 OA
HETATM   27  O4  UNL     1     -27.047   2.788 -14.298  1.00  0.00    -0.648 OA
ENDBRANCH  24  25
ENDBRANCH  23  24
ENDBRANCH  20  23
ENDBRANCH   7  19
TORSDOF 7
ENDMDL
