MODEL 9
REMARK VINA RESULT: -7.082416394      4.050      6.492
REMARK  7 active torsions:
REMARK  status: ('A' for Active; 'I' for Inactive)
REMARK    1  A    between atoms: N1_7  and  C7_8 
REMARK    2  A    between atoms: C7_8  and  O1_9 
REMARK    3  A    between atoms: C7_8  and  C8_11 
REMARK    4  A    between atoms: C13_17  and  N2_18 
REMARK       I    between atoms: N2_18  and  C14_20 
REMARK    5  A    between atoms: C14_20  and  C15_22 
REMARK    6  A    between atoms: C15_22  and  C16_23 
REMARK    7  A    between atoms: C16_23  and  C17_24 
ROOT
HETATM    1  C8  UNL     1     -23.937   5.498 -17.170  1.00  0.00     0.043 A 
HETATM    2  C9  UNL     1     -24.011   4.284 -17.835  1.00  0.00     0.037 A 
HETATM    3  C10 UNL     1     -22.910   3.465 -17.955  1.00  0.00     0.012 A 
HETATM    4 BR1  UNL     1     -23.096   1.796 -18.896  1.00  0.00    -0.051 Br
HETATM    5  C11 UNL     1     -21.716   3.842 -17.412  1.00  0.00     0.021 A 
HETATM    6  C12 UNL     1     -21.650   5.068 -16.744  1.00  0.00     0.032 A 
HETATM    7  C13 UNL     1     -22.716   5.918 -16.600  1.00  0.00     0.049 A 
ENDROOT
BRANCH   1   8
HETATM    8  C7  UNL     1     -25.129   6.265 -16.917  1.00  0.00     0.150 C 
BRANCH   8   9
HETATM    9  N1  UNL     1     -26.178   6.075 -16.019  1.00  0.00    -0.361 N 
HETATM   10  C6  UNL     1     -27.280   5.158 -16.162  1.00  0.00     0.129 C 
HETATM   11  C4  UNL     1     -27.037   4.080 -15.133  1.00  0.00    -0.000 C 
HETATM   12  C3  UNL     1     -27.272   4.720 -13.782  1.00  0.00     0.011 C 
HETATM   13  C5  UNL     1     -27.872   2.856 -15.351  1.00  0.00     0.011 C 
HETATM   14  C2  UNL     1     -26.239   5.799 -13.598  1.00  0.00    -0.000 C 
HETATM   15  C1  UNL     1     -26.362   6.500 -12.287  1.00  0.00     0.011 C 
HETATM   16  C18 UNL     1     -26.201   6.807 -14.719  1.00  0.00     0.129 C 
ENDBRANCH   8   9
BRANCH   8  17
HETATM   17  O1  UNL     1     -25.316   7.357 -17.639  1.00  0.00    -0.345 OA
ATOM     18  H1  UNL     1     -24.486   7.742 -17.895  1.00  0.00     0.219 HD
ENDBRANCH   8  17
ENDBRANCH   1   8
BRANCH   7  19
HETATM   19  N2  UNL     1     -22.550   7.186 -16.016  1.00  0.00    -0.326 N 
HETATM   20  C14 UNL     1     -22.585   7.358 -14.608  1.00  0.00     0.222 C 
HETATM   21  O2  UNL     1     -22.769   6.460 -13.768  1.00  0.00    -0.273 OA
ATOM     22  H2  UNL     1     -22.400   7.998 -16.616  1.00  0.00     0.169 HD
BRANCH  20  23
HETATM   23  C15 UNL     1     -22.380   8.758 -14.103  1.00  0.00     0.113 C 
BRANCH  23  24
HETATM   24  C16 UNL     1     -22.140   8.689 -12.621  1.00  0.00     0.122 C 
BRANCH  24  25
HETATM   25  C17 UNL     1     -20.700   8.951 -12.362  1.00  0.00     0.172 C 
HETATM   26  O3  UNL     1     -19.917   9.087 -13.346  1.00  0.00    -0.648 OA
HETATM   27  O4  UNL     1     -20.212   9.046 -11.078  1.00  0.00    -0.648 OA
ENDBRANCH  24  25
ENDBRANCH  23  24
ENDBRANCH  20  23
ENDBRANCH   7  19
TORSDOF 7
ENDMDL
