MODEL 5
REMARK VINA RESULT: -7.253627043      3.625      5.034
REMARK  7 active torsions:
REMARK  status: ('A' for Active; 'I' for Inactive)
REMARK    1  A    between atoms: N1_7  and  C7_8 
REMARK    2  A    between atoms: C7_8  and  O1_9 
REMARK    3  A    between atoms: C7_8  and  C8_11 
REMARK    4  A    between atoms: C13_17  and  N2_18 
REMARK       I    between atoms: N2_18  and  C14_20 
REMARK    5  A    between atoms: C14_20  and  C15_22 
REMARK    6  A    between atoms: C15_22  and  C16_23 
REMARK    7  A    between atoms: C16_23  and  C17_24 
ROOT
HETATM    1  C8  UNL     1     -23.352   5.474 -17.208  1.00  0.00     0.043 A 
HETATM    2  C9  UNL     1     -22.002   5.472 -17.525  1.00  0.00     0.037 A 
HETATM    3  C10 UNL     1     -21.380   4.336 -17.995  1.00  0.00     0.012 A 
HETATM    4 BR1  UNL     1     -19.501   4.415 -18.409  1.00  0.00    -0.051 Br
HETATM    5  C11 UNL     1     -22.092   3.184 -18.158  1.00  0.00     0.021 A 
HETATM    6  C12 UNL     1     -23.452   3.195 -17.837  1.00  0.00     0.032 A 
HETATM    7  C13 UNL     1     -24.116   4.299 -17.365  1.00  0.00     0.049 A 
ENDROOT
BRANCH   1   8
HETATM    8  C7  UNL     1     -24.020   6.705 -16.872  1.00  0.00     0.150 C 
BRANCH   8   9
HETATM    9  N1  UNL     1     -24.141   7.392 -15.665  1.00  0.00    -0.361 N 
HETATM   10  C6  UNL     1     -25.243   7.321 -14.740  1.00  0.00     0.129 C 
HETATM   11  C4  UNL     1     -24.709   6.578 -13.539  1.00  0.00    -0.000 C 
HETATM   12  C3  UNL     1     -23.729   7.511 -12.862  1.00  0.00     0.011 C 
HETATM   13  C5  UNL     1     -25.784   6.095 -12.616  1.00  0.00     0.011 C 
HETATM   14  C2  UNL     1     -22.592   7.757 -13.819  1.00  0.00    -0.000 C 
HETATM   15  C1  UNL     1     -21.548   8.661 -13.256  1.00  0.00     0.011 C 
HETATM   16  C18 UNL     1     -23.029   8.256 -15.173  1.00  0.00     0.129 C 
ENDBRANCH   8   9
BRANCH   8  17
HETATM   17  O1  UNL     1     -24.651   7.341 -17.844  1.00  0.00    -0.345 OA
ATOM     18  H1  UNL     1     -25.019   6.728 -18.469  1.00  0.00     0.219 HD
ENDBRANCH   8  17
ENDBRANCH   1   8
BRANCH   7  19
HETATM   19  N2  UNL     1     -25.458   4.207 -16.952  1.00  0.00    -0.326 N 
HETATM   20  C14 UNL     1     -26.521   4.540 -17.831  1.00  0.00     0.222 C 
HETATM   21  O2  UNL     1     -26.402   4.941 -19.002  1.00  0.00    -0.273 OA
ATOM     22  H2  UNL     1     -25.670   3.895 -16.005  1.00  0.00     0.169 HD
BRANCH  20  23
HETATM   23  C15 UNL     1     -27.911   4.388 -17.281  1.00  0.00     0.113 C 
BRANCH  23  24
HETATM   24  C16 UNL     1     -27.896   4.831 -15.845  1.00  0.00     0.122 C 
BRANCH  24  25
HETATM   25  C17 UNL     1     -28.022   3.630 -14.979  1.00  0.00     0.172 C 
HETATM   26  O3  UNL     1     -29.164   3.115 -14.809  1.00  0.00    -0.648 OA
HETATM   27  O4  UNL     1     -26.921   3.077 -14.364  1.00  0.00    -0.648 OA
ENDBRANCH  24  25
ENDBRANCH  23  24
ENDBRANCH  20  23
ENDBRANCH   7  19
TORSDOF 7
ENDMDL
