MODEL 1
REMARK VINA RESULT: -7.461565284      0.000      0.000
REMARK  7 active torsions:
REMARK  status: ('A' for Active; 'I' for Inactive)
REMARK    1  A    between atoms: N1_7  and  C7_8 
REMARK    2  A    between atoms: C7_8  and  O1_9 
REMARK    3  A    between atoms: C7_8  and  C8_11 
REMARK    4  A    between atoms: C13_17  and  N2_18 
REMARK       I    between atoms: N2_18  and  C14_20 
REMARK    5  A    between atoms: C14_20  and  C15_22 
REMARK    6  A    between atoms: C15_22  and  C16_23 
REMARK    7  A    between atoms: C16_23  and  C17_24 
ROOT
HETATM    1  C8  UNL     1     -24.119   9.032 -13.864  1.00  0.00     0.043 A 
HETATM    2  C9  UNL     1     -22.941   9.512 -13.314  1.00  0.00     0.037 A 
HETATM    3  C10 UNL     1     -21.830   8.707 -13.189  1.00  0.00     0.012 A 
HETATM    4 BR1  UNL     1     -20.233   9.450 -12.412  1.00  0.00    -0.051 Br
HETATM    5  C11 UNL     1     -21.875   7.411 -13.611  1.00  0.00     0.021 A 
HETATM    6  C12 UNL     1     -23.067   6.934 -14.164  1.00  0.00     0.032 A 
HETATM    7  C13 UNL     1     -24.199   7.695 -14.309  1.00  0.00     0.049 A 
ENDROOT
BRANCH   1   8
HETATM    8  C7  UNL     1     -25.216   9.926 -14.133  1.00  0.00     0.150 C 
BRANCH   8   9
HETATM    9  N1  UNL     1     -26.437  10.113 -13.488  1.00  0.00    -0.361 N 
HETATM   10  C6  UNL     1     -26.952   9.350 -12.380  1.00  0.00     0.129 C 
HETATM   11  C4  UNL     1     -26.898  10.283 -11.194  1.00  0.00    -0.000 C 
HETATM   12  C3  UNL     1     -27.959  11.336 -11.432  1.00  0.00     0.011 C 
HETATM   13  C5  UNL     1     -27.059   9.581  -9.882  1.00  0.00     0.011 C 
HETATM   14  C2  UNL     1     -27.573  12.107 -12.666  1.00  0.00    -0.000 C 
HETATM   15  C1  UNL     1     -28.545  13.188 -12.999  1.00  0.00     0.011 C 
HETATM   16  C18 UNL     1     -27.333  11.241 -13.877  1.00  0.00     0.129 C 
ENDBRANCH   8   9
BRANCH   8  17
HETATM   17  O1  UNL     1     -25.099  10.739 -15.170  1.00  0.00    -0.345 OA
ATOM     18  H1  UNL     1     -24.351  11.315 -15.068  1.00  0.00     0.219 HD
ENDBRANCH   8  17
ENDBRANCH   1   8
BRANCH   7  19
HETATM   19  N2  UNL     1     -25.397   7.119 -14.767  1.00  0.00    -0.326 N 
HETATM   20  C14 UNL     1     -26.093   6.156 -13.991  1.00  0.00     0.222 C 
HETATM   21  O2  UNL     1     -25.742   5.722 -12.880  1.00  0.00    -0.273 OA
ATOM     22  H2  UNL     1     -25.772   7.398 -15.673  1.00  0.00     0.169 HD
BRANCH  20  23
HETATM   23  C15 UNL     1     -27.368   5.623 -14.580  1.00  0.00     0.113 C 
BRANCH  23  24
HETATM   24  C16 UNL     1     -27.032   4.920 -15.865  1.00  0.00     0.122 C 
BRANCH  24  25
HETATM   25  C17 UNL     1     -26.847   3.473 -15.579  1.00  0.00     0.172 C 
HETATM   26  O3  UNL     1     -26.535   2.697 -16.526  1.00  0.00    -0.648 OA
HETATM   27  O4  UNL     1     -27.010   2.973 -14.306  1.00  0.00    -0.648 OA
ENDBRANCH  24  25
ENDBRANCH  23  24
ENDBRANCH  20  23
ENDBRANCH   7  19
TORSDOF 7
ENDMDL
