MODEL 1
REMARK VINA RESULT: -7.557905511      0.000      0.000
REMARK  7 active torsions:
REMARK  status: ('A' for Active; 'I' for Inactive)
REMARK    1  A    between atoms: N1_7  and  C7_8 
REMARK    2  A    between atoms: C7_8  and  O1_9 
REMARK    3  A    between atoms: C7_8  and  C8_11 
REMARK    4  A    between atoms: C13_17  and  N2_18 
REMARK       I    between atoms: N2_18  and  C14_20 
REMARK    5  A    between atoms: C14_20  and  C15_22 
REMARK    6  A    between atoms: C15_22  and  C16_23 
REMARK    7  A    between atoms: C16_23  and  C17_24 
REMARK       I    between atoms: C17_24  and  N3_26 
ROOT
HETATM    1  C8  UNL     1       5.026  39.279  78.815  1.00  0.00     0.043 A 
HETATM    2  C9  UNL     1       4.906  40.657  78.745  1.00  0.00     0.037 A 
HETATM    3  C10 UNL     1       3.768  41.290  79.198  1.00  0.00     0.012 A 
HETATM    4 BR1  UNL     1       3.680  43.213  79.065  1.00  0.00    -0.051 Br
HETATM    5  C11 UNL     1       2.735  40.576  79.726  1.00  0.00     0.021 A 
HETATM    6  C12 UNL     1       2.836  39.214  79.806  1.00  0.00     0.032 A 
HETATM    7  C13 UNL     1       3.950  38.545  79.368  1.00  0.00     0.049 A 
ENDROOT
BRANCH   7   8
HETATM    8  N2  UNL     1       4.089  37.135  79.581  1.00  0.00    -0.326 N 
HETATM    9  C14 UNL     1       4.834  36.527  80.617  1.00  0.00     0.222 C 
HETATM   10  O2  UNL     1       5.435  37.218  81.449  1.00  0.00    -0.273 OA
ATOM     11  H2  UNL     1       3.607  36.516  78.929  1.00  0.00     0.169 HD
BRANCH   9  12
HETATM   12  C15 UNL     1       4.923  35.031  80.743  1.00  0.00     0.112 C 
BRANCH  12  13
HETATM   13  C16 UNL     1       5.760  34.520  79.600  1.00  0.00     0.112 C 
BRANCH  13  14
HETATM   14  C17 UNL     1       4.970  33.865  78.542  1.00  0.00     0.220 C 
HETATM   15  O3  UNL     1       3.851  34.305  78.199  1.00  0.00    -0.273 OA
HETATM   16  N3  UNL     1       5.493  32.720  77.905  1.00  0.00    -0.348 N 
HETATM   17  C18 UNL     1       6.798  32.172  78.274  1.00  0.00     0.152 C 
HETATM   18  C21 UNL     1       4.793  32.003  76.850  1.00  0.00     0.152 C 
HETATM   19  C19 UNL     1       7.511  31.761  76.984  1.00  0.00     0.187 C 
HETATM   20  O4  UNL     1       6.808  30.783  76.296  1.00  0.00    -0.388 OA
HETATM   21  C20 UNL     1       5.485  30.663  76.691  1.00  0.00     0.187 C 
ENDBRANCH  13  14
ENDBRANCH  12  13
ENDBRANCH   9  12
ENDBRANCH   7   8
BRANCH   1  22
HETATM   22  C7  UNL     1       6.161  38.617  78.207  1.00  0.00     0.150 C 
BRANCH  22  23
HETATM   23  N1  UNL     1       6.424  38.185  76.912  1.00  0.00    -0.361 N 
HETATM   24  C6  UNL     1       6.307  36.938  76.242  1.00  0.00     0.129 C 
HETATM   25  C4  UNL     1       7.662  36.343  75.894  1.00  0.00    -0.000 C 
HETATM   26  C3  UNL     1       8.660  37.489  75.679  1.00  0.00     0.011 C 
HETATM   27  C5  UNL     1       8.231  35.451  76.950  1.00  0.00     0.011 C 
HETATM   28  C2  UNL     1       7.859  38.581  74.997  1.00  0.00    -0.000 C 
HETATM   29  C1  UNL     1       8.830  39.592  74.398  1.00  0.00     0.011 C 
HETATM   30  C22 UNL     1       6.974  39.256  75.982  1.00  0.00     0.129 C 
ENDBRANCH  22  23
BRANCH  22  31
HETATM   31  O1  UNL     1       7.140  38.378  79.039  1.00  0.00    -0.345 OA
ATOM     32  H1  UNL     1       7.754  39.100  79.112  1.00  0.00     0.219 HD
ENDBRANCH  22  31
ENDBRANCH   1  22
TORSDOF 7
ENDMDL
