MODEL 3
REMARK VINA RESULT: -7.276620885      1.798      2.268
REMARK  7 active torsions:
REMARK  status: ('A' for Active; 'I' for Inactive)
REMARK    1  A    between atoms: N1_7  and  C7_8 
REMARK    2  A    between atoms: C7_8  and  O1_9 
REMARK    3  A    between atoms: C7_8  and  C8_11 
REMARK    4  A    between atoms: C13_17  and  N2_18 
REMARK       I    between atoms: N2_18  and  C14_20 
REMARK    5  A    between atoms: C14_20  and  C15_22 
REMARK    6  A    between atoms: C15_22  and  C16_23 
REMARK    7  A    between atoms: C16_23  and  C17_24 
REMARK       I    between atoms: C17_24  and  N3_26 
ROOT
HETATM    1  C8  UNL     1       5.090  38.999  78.858  1.00  0.00     0.043 A 
HETATM    2  C9  UNL     1       4.712  40.322  78.691  1.00  0.00     0.037 A 
HETATM    3  C10 UNL     1       3.525  40.788  79.216  1.00  0.00     0.012 A 
HETATM    4 BR1  UNL     1       3.073  42.643  78.938  1.00  0.00    -0.051 Br
HETATM    5  C11 UNL     1       2.697  39.961  79.912  1.00  0.00     0.021 A 
HETATM    6  C12 UNL     1       3.054  38.652  80.090  1.00  0.00     0.032 A 
HETATM    7  C13 UNL     1       4.225  38.147  79.586  1.00  0.00     0.049 A 
ENDROOT
BRANCH   7   8
HETATM    8  N2  UNL     1       4.641  36.811  79.896  1.00  0.00    -0.326 N 
HETATM    9  C14 UNL     1       5.486  36.438  80.965  1.00  0.00     0.222 C 
HETATM   10  O2  UNL     1       5.932  37.291  81.742  1.00  0.00    -0.273 OA
ATOM     11  H2  UNL     1       4.296  36.065  79.292  1.00  0.00     0.169 HD
BRANCH   9  12
HETATM   12  C15 UNL     1       5.870  35.002  81.194  1.00  0.00     0.112 C 
BRANCH  12  13
HETATM   13  C16 UNL     1       6.622  34.525  79.980  1.00  0.00     0.112 C 
BRANCH  13  14
HETATM   14  C17 UNL     1       8.054  34.288  80.233  1.00  0.00     0.220 C 
HETATM   15  O3  UNL     1       8.716  35.039  80.983  1.00  0.00    -0.273 OA
HETATM   16  N3  UNL     1       8.687  33.188  79.616  1.00  0.00    -0.348 N 
HETATM   17  C18 UNL     1       7.951  32.284  78.733  1.00  0.00     0.152 C 
HETATM   18  C21 UNL     1      10.094  32.868  79.803  1.00  0.00     0.152 C 
HETATM   19  C19 UNL     1       8.406  30.857  79.045  1.00  0.00     0.187 C 
HETATM   20  O4  UNL     1       9.763  30.686  78.810  1.00  0.00    -0.388 OA
HETATM   21  C20 UNL     1      10.469  31.875  78.719  1.00  0.00     0.187 C 
ENDBRANCH  13  14
ENDBRANCH  12  13
ENDBRANCH   9  12
ENDBRANCH   7   8
BRANCH   1  22
HETATM   22  C7  UNL     1       6.264  38.489  78.183  1.00  0.00     0.150 C 
BRANCH  22  23
HETATM   23  N1  UNL     1       6.515  38.120  76.867  1.00  0.00    -0.361 N 
HETATM   24  C6  UNL     1       6.414  36.903  76.143  1.00  0.00     0.129 C 
HETATM   25  C4  UNL     1       7.775  36.354  75.747  1.00  0.00    -0.000 C 
HETATM   26  C3  UNL     1       8.745  37.531  75.569  1.00  0.00     0.011 C 
HETATM   27  C5  UNL     1       8.381  35.429  76.753  1.00  0.00     0.011 C 
HETATM   28  C2  UNL     1       7.910  38.633  74.949  1.00  0.00    -0.000 C 
HETATM   29  C1  UNL     1       8.850  39.691  74.382  1.00  0.00     0.011 C 
HETATM   30  C22 UNL     1       7.027  39.244  75.977  1.00  0.00     0.129 C 
ENDBRANCH  22  23
BRANCH  22  31
HETATM   31  O1  UNL     1       7.302  38.345  78.965  1.00  0.00    -0.345 OA
ATOM     32  H1  UNL     1       7.090  38.430  79.887  1.00  0.00     0.219 HD
ENDBRANCH  22  31
ENDBRANCH   1  22
TORSDOF 7
ENDMDL
