MODEL 13
REMARK VINA RESULT: -7.150641768      3.108      5.950
REMARK  7 active torsions:
REMARK  status: ('A' for Active; 'I' for Inactive)
REMARK    1  A    between atoms: N1_7  and  C7_8 
REMARK    2  A    between atoms: C7_8  and  O1_9 
REMARK    3  A    between atoms: C7_8  and  C8_11 
REMARK    4  A    between atoms: C13_17  and  N2_18 
REMARK       I    between atoms: N2_18  and  C14_20 
REMARK    5  A    between atoms: C14_20  and  C15_22 
REMARK    6  A    between atoms: C15_22  and  C16_23 
REMARK    7  A    between atoms: C16_23  and  C17_24 
REMARK       I    between atoms: C17_24  and  N3_26 
ROOT
HETATM    1  C8  UNL     1       8.496  36.788  76.869  1.00  0.00     0.043 A 
HETATM    2  C9  UNL     1       9.063  37.639  75.934  1.00  0.00     0.037 A 
HETATM    3  C10 UNL     1       8.288  38.553  75.252  1.00  0.00     0.012 A 
HETATM    4 BR1  UNL     1       9.155  39.703  73.968  1.00  0.00    -0.051 Br
HETATM    5  C11 UNL     1       6.949  38.642  75.480  1.00  0.00     0.021 A 
HETATM    6  C12 UNL     1       6.371  37.811  76.400  1.00  0.00     0.032 A 
HETATM    7  C13 UNL     1       7.104  36.888  77.102  1.00  0.00     0.049 A 
ENDROOT
BRANCH   7   8
HETATM    8  N2  UNL     1       6.503  36.121  78.153  1.00  0.00    -0.326 N 
HETATM    9  C14 UNL     1       5.589  35.057  77.979  1.00  0.00     0.222 C 
HETATM   10  O2  UNL     1       5.244  34.703  76.845  1.00  0.00    -0.273 OA
ATOM     11  H2  UNL     1       6.758  36.364  79.110  1.00  0.00     0.169 HD
BRANCH   9  12
HETATM   12  C15 UNL     1       5.008  34.325  79.157  1.00  0.00     0.112 C 
BRANCH  12  13
HETATM   13  C16 UNL     1       4.426  35.347  80.096  1.00  0.00     0.112 C 
BRANCH  13  14
HETATM   14  C17 UNL     1       2.959  35.460  80.002  1.00  0.00     0.220 C 
HETATM   15  O3  UNL     1       2.300  34.744  79.216  1.00  0.00    -0.273 OA
HETATM   16  N3  UNL     1       2.289  36.395  80.819  1.00  0.00    -0.348 N 
HETATM   17  C18 UNL     1       3.020  37.251  81.752  1.00  0.00     0.152 C 
HETATM   18  C21 UNL     1       0.846  36.581  80.802  1.00  0.00     0.152 C 
HETATM   19  C19 UNL     1       2.212  37.319  83.051  1.00  0.00     0.187 C 
HETATM   20  O4  UNL     1       0.956  37.871  82.847  1.00  0.00    -0.388 OA
HETATM   21  C20 UNL     1       0.560  37.887  81.519  1.00  0.00     0.187 C 
ENDBRANCH  13  14
ENDBRANCH  12  13
ENDBRANCH   9  12
ENDBRANCH   7   8
BRANCH   1  22
HETATM   22  C7  UNL     1       9.291  35.739  77.472  1.00  0.00     0.150 C 
BRANCH  22  23
HETATM   23  N1  UNL     1       9.312  34.358  77.317  1.00  0.00    -0.361 N 
HETATM   24  C6  UNL     1       9.802  33.282  78.103  1.00  0.00     0.129 C 
HETATM   25  C4  UNL     1      11.002  32.601  77.464  1.00  0.00    -0.000 C 
HETATM   26  C3  UNL     1      10.887  32.738  75.939  1.00  0.00     0.011 C 
HETATM   27  C5  UNL     1      12.321  33.179  77.863  1.00  0.00     0.011 C 
HETATM   28  C2  UNL     1       9.406  32.602  75.646  1.00  0.00    -0.000 C 
HETATM   29  C1  UNL     1       9.230  32.337  74.154  1.00  0.00     0.011 C 
HETATM   30  C22 UNL     1       8.696  33.852  76.021  1.00  0.00     0.129 C 
ENDBRANCH  22  23
BRANCH  22  31
HETATM   31  O1  UNL     1      10.170  36.175  78.336  1.00  0.00    -0.345 OA
ATOM     32  H1  UNL     1      10.661  36.927  78.024  1.00  0.00     0.219 HD
ENDBRANCH  22  31
ENDBRANCH   1  22
TORSDOF 7
ENDMDL
