MODEL 4
REMARK VINA RESULT: -7.260977498      1.134      1.405
REMARK  7 active torsions:
REMARK  status: ('A' for Active; 'I' for Inactive)
REMARK    1  A    between atoms: N1_7  and  C7_8 
REMARK    2  A    between atoms: C7_8  and  O1_9 
REMARK    3  A    between atoms: C7_8  and  C8_11 
REMARK    4  A    between atoms: C13_17  and  N2_18 
REMARK       I    between atoms: N2_18  and  C14_20 
REMARK    5  A    between atoms: C14_20  and  C15_22 
REMARK    6  A    between atoms: C15_22  and  C16_23 
REMARK    7  A    between atoms: C16_23  and  C17_24 
REMARK       I    between atoms: C17_24  and  N3_26 
ROOT
HETATM    1  C8  UNL     1       5.075  38.887  78.906  1.00  0.00     0.043 A 
HETATM    2  C9  UNL     1       4.621  40.182  78.714  1.00  0.00     0.037 A 
HETATM    3  C10 UNL     1       3.426  40.600  79.260  1.00  0.00     0.012 A 
HETATM    4 BR1  UNL     1       2.867  42.420  78.945  1.00  0.00    -0.051 Br
HETATM    5  C11 UNL     1       2.663  39.751  80.003  1.00  0.00     0.021 A 
HETATM    6  C12 UNL     1       3.094  38.468  80.206  1.00  0.00     0.032 A 
HETATM    7  C13 UNL     1       4.277  38.012  79.681  1.00  0.00     0.049 A 
ENDROOT
BRANCH   7   8
HETATM    8  N2  UNL     1       4.773  36.710  80.016  1.00  0.00    -0.326 N 
HETATM    9  C14 UNL     1       5.734  36.423  81.011  1.00  0.00     0.222 C 
HETATM   10  O2  UNL     1       6.224  37.332  81.693  1.00  0.00    -0.273 OA
ATOM     11  H2  UNL     1       4.398  35.920  79.490  1.00  0.00     0.169 HD
BRANCH   9  12
HETATM   12  C15 UNL     1       6.194  35.016  81.273  1.00  0.00     0.112 C 
BRANCH  12  13
HETATM   13  C16 UNL     1       5.519  34.115  80.272  1.00  0.00     0.112 C 
BRANCH  13  14
HETATM   14  C17 UNL     1       6.464  33.423  79.376  1.00  0.00     0.220 C 
HETATM   15  O3  UNL     1       7.679  33.329  79.658  1.00  0.00    -0.273 OA
HETATM   16  N3  UNL     1       5.982  32.856  78.178  1.00  0.00    -0.348 N 
HETATM   17  C18 UNL     1       4.569  32.941  77.810  1.00  0.00     0.152 C 
HETATM   18  C21 UNL     1       6.831  32.152  77.229  1.00  0.00     0.152 C 
HETATM   19  C19 UNL     1       4.158  31.587  77.227  1.00  0.00     0.187 C 
HETATM   20  O4  UNL     1       4.886  31.274  76.088  1.00  0.00    -0.388 OA
HETATM   21  C20 UNL     1       6.043  32.023  75.940  1.00  0.00     0.187 C 
ENDBRANCH  13  14
ENDBRANCH  12  13
ENDBRANCH   9  12
ENDBRANCH   7   8
BRANCH   1  22
HETATM   22  C7  UNL     1       6.255  38.421  78.211  1.00  0.00     0.150 C 
BRANCH  22  23
HETATM   23  N1  UNL     1       6.480  37.992  76.908  1.00  0.00    -0.361 N 
HETATM   24  C6  UNL     1       6.408  36.735  76.253  1.00  0.00     0.129 C 
HETATM   25  C4  UNL     1       7.779  36.221  75.842  1.00  0.00    -0.000 C 
HETATM   26  C3  UNL     1       8.692  37.424  75.570  1.00  0.00     0.011 C 
HETATM   27  C5  UNL     1       8.454  35.376  76.875  1.00  0.00     0.011 C 
HETATM   28  C2  UNL     1       7.792  38.457  74.921  1.00  0.00    -0.000 C 
HETATM   29  C1  UNL     1       8.668  39.521  74.268  1.00  0.00     0.011 C 
HETATM   30  C22 UNL     1       6.917  39.086  75.945  1.00  0.00     0.129 C 
ENDBRANCH  22  23
BRANCH  22  31
HETATM   31  O1  UNL     1       7.330  38.398  78.954  1.00  0.00    -0.345 OA
ATOM     32  H1  UNL     1       7.598  39.259  79.252  1.00  0.00     0.219 HD
ENDBRANCH  22  31
ENDBRANCH   1  22
TORSDOF 7
ENDMDL
