MODEL 6
REMARK VINA RESULT: -7.206879028      2.991      5.837
REMARK  7 active torsions:
REMARK  status: ('A' for Active; 'I' for Inactive)
REMARK    1  A    between atoms: N1_7  and  C7_8 
REMARK    2  A    between atoms: C7_8  and  O1_9 
REMARK    3  A    between atoms: C7_8  and  C8_11 
REMARK    4  A    between atoms: C13_17  and  N2_18 
REMARK       I    between atoms: N2_18  and  C14_20 
REMARK    5  A    between atoms: C14_20  and  C15_22 
REMARK    6  A    between atoms: C15_22  and  C16_23 
REMARK    7  A    between atoms: C16_23  and  C17_24 
REMARK       I    between atoms: C17_24  and  N3_26 
ROOT
HETATM    1  C8  UNL     1       8.620  37.045  76.791  1.00  0.00     0.043 A 
HETATM    2  C9  UNL     1       9.099  37.742  75.693  1.00  0.00     0.037 A 
HETATM    3  C10 UNL     1       8.290  38.625  75.010  1.00  0.00     0.012 A 
HETATM    4 BR1  UNL     1       9.035  39.555  73.492  1.00  0.00    -0.051 Br
HETATM    5  C11 UNL     1       7.001  38.834  75.397  1.00  0.00     0.021 A 
HETATM    6  C12 UNL     1       6.510  38.158  76.480  1.00  0.00     0.032 A 
HETATM    7  C13 UNL     1       7.281  37.271  77.189  1.00  0.00     0.049 A 
ENDROOT
BRANCH   7   8
HETATM    8  N2  UNL     1       6.789  36.675  78.395  1.00  0.00    -0.326 N 
HETATM    9  C14 UNL     1       5.745  35.726  78.481  1.00  0.00     0.222 C 
HETATM   10  O2  UNL     1       5.171  35.329  77.459  1.00  0.00    -0.273 OA
ATOM     11  H2  UNL     1       7.232  36.960  79.269  1.00  0.00     0.169 HD
BRANCH   9  12
HETATM   12  C15 UNL     1       5.298  35.171  79.805  1.00  0.00     0.112 C 
BRANCH  12  13
HETATM   13  C16 UNL     1       5.312  36.296  80.806  1.00  0.00     0.112 C 
BRANCH  13  14
HETATM   14  C17 UNL     1       4.420  37.413  80.445  1.00  0.00     0.220 C 
HETATM   15  O3  UNL     1       4.855  38.432  79.866  1.00  0.00    -0.273 OA
HETATM   16  N3  UNL     1       3.048  37.324  80.761  1.00  0.00    -0.348 N 
HETATM   17  C18 UNL     1       2.497  36.150  81.436  1.00  0.00     0.152 C 
HETATM   18  C21 UNL     1       2.087  38.370  80.446  1.00  0.00     0.152 C 
HETATM   19  C19 UNL     1       1.154  35.823  80.780  1.00  0.00     0.187 C 
HETATM   20  O4  UNL     1       0.249  36.867  80.913  1.00  0.00    -0.388 OA
HETATM   21  C20 UNL     1       0.834  38.077  81.250  1.00  0.00     0.187 C 
ENDBRANCH  13  14
ENDBRANCH  12  13
ENDBRANCH   9  12
ENDBRANCH   7   8
BRANCH   1  22
HETATM   22  C7  UNL     1       9.431  36.019  77.410  1.00  0.00     0.150 C 
BRANCH  22  23
HETATM   23  N1  UNL     1       9.425  34.631  77.332  1.00  0.00    -0.361 N 
HETATM   24  C6  UNL     1       9.956  33.592  78.141  1.00  0.00     0.129 C 
HETATM   25  C4  UNL     1      11.099  32.858  77.458  1.00  0.00    -0.000 C 
HETATM   26  C3  UNL     1      10.878  32.912  75.940  1.00  0.00     0.011 C 
HETATM   27  C5  UNL     1      12.450  33.436  77.731  1.00  0.00     0.011 C 
HETATM   28  C2  UNL     1       9.378  32.784  75.760  1.00  0.00    -0.000 C 
HETATM   29  C1  UNL     1       9.094  32.439  74.302  1.00  0.00     0.011 C 
HETATM   30  C22 UNL     1       8.711  34.064  76.113  1.00  0.00     0.129 C 
ENDBRANCH  22  23
BRANCH  22  31
HETATM   31  O1  UNL     1      10.360  36.486  78.201  1.00  0.00    -0.345 OA
ATOM     32  H1  UNL     1      10.065  37.212  78.738  1.00  0.00     0.219 HD
ENDBRANCH  22  31
ENDBRANCH   1  22
TORSDOF 7
ENDMDL
