MODEL 2
REMARK VINA RESULT: -6.538405037      2.669      7.322
REMARK  18 active torsions:
REMARK  status: ('A' for Active; 'I' for Inactive)
REMARK    1  A    between atoms: O1_1  and  C1_3 
REMARK    2  A    between atoms: C1_3  and  C2_4 
REMARK    3  A    between atoms: C3_6  and  O3_7 
REMARK    4  A    between atoms: O3_7  and  C4_8 
REMARK    5  A    between atoms: C5_9  and  C6_10 
REMARK    6  A    between atoms: C6_10  and  O4_11 
REMARK    7  A    between atoms: C7_14  and  O6_15 
REMARK    8  A    between atoms: O6_15  and  C8_16 
REMARK    9  A    between atoms: C9_17  and  C10_18 
REMARK   10  A    between atoms: C10_18  and  O7_19 
REMARK   11  A    between atoms: C11_22  and  O9_23 
REMARK   12  A    between atoms: C12_25  and  O10_26 
REMARK   13  A    between atoms: C13_28  and  O11_29 
REMARK   14  A    between atoms: C14_31  and  O12_32 
REMARK   15  A    between atoms: C15_34  and  O13_35 
REMARK   16  A    between atoms: C16_37  and  O14_38 
REMARK   17  A    between atoms: C17_40  and  O15_41 
REMARK   18  A    between atoms: C18_43  and  O16_44 
ROOT
HETATM    1  C4  UNL     1      19.713 -18.321  -5.085  1.00  0.00     0.187 C 
HETATM    2  C5  UNL     1      18.547 -17.434  -5.348  1.00  0.00     0.180 C 
HETATM    3  O5  UNL     1      17.557 -18.027  -6.112  1.00  0.00    -0.348 OA
HETATM    4  C7  UNL     1      17.977 -18.378  -7.385  1.00  0.00     0.292 C 
HETATM    5  C14 UNL     1      19.334 -19.025  -7.391  1.00  0.00     0.204 C 
HETATM    6  C15 UNL     1      19.767 -19.507  -6.026  1.00  0.00     0.183 C 
ENDROOT
BRANCH   1   7
HETATM    7  O3  UNL     1      19.684 -18.796  -3.780  1.00  0.00    -0.348 OA
BRANCH   7   8
HETATM    8  C3  UNL     1      18.547 -18.440  -3.088  1.00  0.00     0.292 C 
HETATM    9  O2  UNL     1      17.786 -19.533  -2.784  1.00  0.00    -0.348 OA
HETATM   10  C2  UNL     1      16.613 -19.350  -2.129  1.00  0.00     0.179 C 
HETATM   11  C18 UNL     1      16.527 -17.981  -1.522  1.00  0.00     0.180 C 
HETATM   12  C17 UNL     1      17.857 -17.707  -0.815  1.00  0.00     0.183 C 
HETATM   13  C16 UNL     1      18.973 -17.667  -1.848  1.00  0.00     0.204 C 
BRANCH  10  14
HETATM   14  C1  UNL     1      15.489 -19.505  -3.168  1.00  0.00     0.198 C 
BRANCH  14  15
HETATM   15  O1  UNL     1      15.253 -18.332  -3.851  1.00  0.00    -0.398 OA
ATOM     16  H1  UNL     1      15.095 -18.484  -4.775  1.00  0.00     0.209 HD
ENDBRANCH  14  15
ENDBRANCH  10  14
BRANCH  11  17
HETATM   17  O16 UNL     1      15.458 -17.814  -0.672  1.00  0.00    -0.390 OA
ATOM     18  H16 UNL     1      15.101 -16.934  -0.671  1.00  0.00     0.210 HD
ENDBRANCH  11  17
BRANCH  12  19
HETATM   19  O15 UNL     1      17.774 -16.555  -0.061  1.00  0.00    -0.390 OA
ATOM     20  H15 UNL     1      17.864 -16.711   0.871  1.00  0.00     0.210 HD
ENDBRANCH  12  19
BRANCH  13  21
HETATM   21  O14 UNL     1      20.163 -18.119  -1.307  1.00  0.00    -0.388 OA
ATOM     22  H14 UNL     1      20.113 -18.277  -0.372  1.00  0.00     0.210 HD
ENDBRANCH  13  21
ENDBRANCH   7   8
ENDBRANCH   1   7
BRANCH   2  23
HETATM   23  C6  UNL     1      19.019 -16.125  -5.894  1.00  0.00     0.198 C 
BRANCH  23  24
HETATM   24  O4  UNL     1      18.957 -15.132  -4.917  1.00  0.00    -0.398 OA
ATOM     25  H4  UNL     1      19.638 -15.258  -4.266  1.00  0.00     0.209 HD
ENDBRANCH  23  24
ENDBRANCH   2  23
BRANCH   6  26
HETATM   26  O13 UNL     1      21.031 -20.040  -6.152  1.00  0.00    -0.390 OA
ATOM     27  H13 UNL     1      21.409 -19.904  -7.014  1.00  0.00     0.210 HD
ENDBRANCH   6  26
BRANCH   5  28
HETATM   28  O12 UNL     1      19.337 -20.098  -8.275  1.00  0.00    -0.388 OA
ATOM     29  H12 UNL     1      20.121 -20.069  -8.810  1.00  0.00     0.210 HD
ENDBRANCH   5  28
BRANCH   4  30
HETATM   30  O6  UNL     1      17.080 -19.306  -7.922  1.00  0.00    -0.348 OA
BRANCH  30  31
HETATM   31  C8  UNL     1      15.971 -19.495  -7.150  1.00  0.00     0.187 C 
HETATM   32  C9  UNL     1      15.406 -20.875  -7.394  1.00  0.00     0.180 C 
HETATM   33  O8  UNL     1      14.608 -21.131  -6.278  1.00  0.00    -0.349 OA
HETATM   34  C11 UNL     1      13.463 -20.393  -6.390  1.00  0.00     0.288 C 
HETATM   35  C12 UNL     1      13.487 -19.200  -7.262  1.00  0.00     0.204 C 
HETATM   36  C13 UNL     1      14.826 -18.544  -7.463  1.00  0.00     0.183 C 
BRANCH  32  37
HETATM   37  C10 UNL     1      16.420 -21.922  -7.688  1.00  0.00     0.198 C 
BRANCH  37  38
HETATM   38  O7  UNL     1      17.394 -21.893  -6.691  1.00  0.00    -0.398 OA
ATOM     39  H7  UNL     1      18.198 -21.544  -7.059  1.00  0.00     0.209 HD
ENDBRANCH  37  38
ENDBRANCH  32  37
BRANCH  34  40
HETATM   40  O9  UNL     1      13.019 -20.080  -5.101  1.00  0.00    -0.369 OA
ATOM     41  H9  UNL     1      12.693 -19.188  -5.108  1.00  0.00     0.212 HD
ENDBRANCH  34  40
BRANCH  35  42
HETATM   42  O10 UNL     1      12.847 -19.429  -8.501  1.00  0.00    -0.388 OA
ATOM     43  H10 UNL     1      13.365 -19.976  -9.079  1.00  0.00     0.210 HD
ENDBRANCH  35  42
BRANCH  36  44
HETATM   44  O11 UNL     1      14.934 -17.355  -6.745  1.00  0.00    -0.390 OA
ATOM     45  H11 UNL     1      14.124 -16.857  -6.767  1.00  0.00     0.210 HD
ENDBRANCH  36  44
ENDBRANCH  30  31
ENDBRANCH   4  30
TORSDOF 18
ENDMDL
