MODEL 1
REMARK VINA RESULT: -7.041537918      0.000      0.000
REMARK  18 active torsions:
REMARK  status: ('A' for Active; 'I' for Inactive)
REMARK    1  A    between atoms: O1_1  and  C1_3 
REMARK    2  A    between atoms: C1_3  and  C2_4 
REMARK    3  A    between atoms: C3_6  and  O3_7 
REMARK    4  A    between atoms: O3_7  and  C4_8 
REMARK    5  A    between atoms: C5_9  and  C6_10 
REMARK    6  A    between atoms: C6_10  and  O4_11 
REMARK    7  A    between atoms: C7_14  and  O6_15 
REMARK    8  A    between atoms: O6_15  and  C8_16 
REMARK    9  A    between atoms: C9_17  and  C10_18 
REMARK   10  A    between atoms: C10_18  and  O7_19 
REMARK   11  A    between atoms: C11_22  and  O9_23 
REMARK   12  A    between atoms: C12_25  and  O10_26 
REMARK   13  A    between atoms: C13_28  and  O11_29 
REMARK   14  A    between atoms: C14_31  and  O12_32 
REMARK   15  A    between atoms: C15_34  and  O13_35 
REMARK   16  A    between atoms: C16_37  and  O14_38 
REMARK   17  A    between atoms: C17_40  and  O15_41 
REMARK   18  A    between atoms: C18_43  and  O16_44 
ROOT
HETATM    1  C4  UNL     1      16.661 -20.325  -8.164  1.00  0.00     0.187 C 
HETATM    2  C5  UNL     1      17.574 -19.873  -7.079  1.00  0.00     0.180 C 
HETATM    3  O5  UNL     1      16.919 -19.511  -5.914  1.00  0.00    -0.348 OA
HETATM    4  C7  UNL     1      16.065 -18.432  -6.074  1.00  0.00     0.292 C 
HETATM    5  C14 UNL     1      15.242 -18.523  -7.328  1.00  0.00     0.204 C 
HETATM    6  C15 UNL     1      15.223 -19.911  -7.925  1.00  0.00     0.183 C 
ENDROOT
BRANCH   1   7
HETATM    7  O3  UNL     1      16.704 -21.707  -8.299  1.00  0.00    -0.348 OA
BRANCH   7   8
HETATM    8  C3  UNL     1      17.530 -22.136  -9.315  1.00  0.00     0.292 C 
HETATM    9  O2  UNL     1      18.094 -23.346  -9.020  1.00  0.00    -0.348 OA
HETATM   10  C2  UNL     1      18.962 -23.894  -9.905  1.00  0.00     0.179 C 
HETATM   11  C18 UNL     1      18.872 -23.232 -11.248  1.00  0.00     0.180 C 
HETATM   12  C17 UNL     1      17.388 -23.104 -11.600  1.00  0.00     0.183 C 
HETATM   13  C16 UNL     1      16.716 -22.175 -10.600  1.00  0.00     0.204 C 
BRANCH  10  14
HETATM   14  C1  UNL     1      20.376 -23.683  -9.340  1.00  0.00     0.198 C 
BRANCH  14  15
HETATM   15  O1  UNL     1      20.995 -22.584  -9.894  1.00  0.00    -0.398 OA
ATOM     16  H1  UNL     1      21.924 -22.562  -9.699  1.00  0.00     0.209 HD
ENDBRANCH  14  15
ENDBRANCH  10  14
BRANCH  11  17
HETATM   17  O16 UNL     1      19.572 -23.883 -12.238  1.00  0.00    -0.390 OA
ATOM     18  H16 UNL     1      20.239 -23.349 -12.653  1.00  0.00     0.210 HD
ENDBRANCH  11  17
BRANCH  12  19
HETATM   19  O15 UNL     1      17.236 -22.694 -12.908  1.00  0.00    -0.390 OA
ATOM     20  H15 UNL     1      18.036 -22.347 -13.287  1.00  0.00     0.210 HD
ENDBRANCH  12  19
BRANCH  13  21
HETATM   21  O14 UNL     1      15.397 -22.536 -10.399  1.00  0.00    -0.388 OA
ATOM     22  H14 UNL     1      15.146 -23.319 -10.875  1.00  0.00     0.210 HD
ENDBRANCH  13  21
ENDBRANCH   7   8
ENDBRANCH   1   7
BRANCH   2  23
HETATM   23  C6  UNL     1      18.496 -18.818  -7.598  1.00  0.00     0.198 C 
BRANCH  23  24
HETATM   24  O4  UNL     1      19.622 -19.394  -8.187  1.00  0.00    -0.398 OA
ATOM     25  H4  UNL     1      19.567 -19.346  -9.135  1.00  0.00     0.209 HD
ENDBRANCH  23  24
ENDBRANCH   2  23
BRANCH   6  26
HETATM   26  O13 UNL     1      14.476 -19.859  -9.082  1.00  0.00    -0.390 OA
ATOM     27  H13 UNL     1      13.930 -20.626  -9.208  1.00  0.00     0.210 HD
ENDBRANCH   6  26
BRANCH   5  28
HETATM   28  O12 UNL     1      13.937 -18.124  -7.062  1.00  0.00    -0.388 OA
ATOM     29  H12 UNL     1      13.614 -17.589  -7.778  1.00  0.00     0.210 HD
ENDBRANCH   5  28
BRANCH   4  30
HETATM   30  O6  UNL     1      15.170 -18.396  -5.000  1.00  0.00    -0.348 OA
BRANCH  30  31
HETATM   31  C8  UNL     1      15.611 -19.080  -3.905  1.00  0.00     0.187 C 
HETATM   32  C9  UNL     1      14.448 -19.770  -3.230  1.00  0.00     0.180 C 
HETATM   33  O8  UNL     1      15.035 -20.767  -2.451  1.00  0.00    -0.349 OA
HETATM   34  C11 UNL     1      15.614 -20.179  -1.363  1.00  0.00     0.288 C 
HETATM   35  C12 UNL     1      15.958 -18.744  -1.449  1.00  0.00     0.204 C 
HETATM   36  C13 UNL     1      16.223 -18.200  -2.827  1.00  0.00     0.183 C 
BRANCH  32  37
HETATM   37  C10 UNL     1      13.382 -20.245  -4.152  1.00  0.00     0.198 C 
BRANCH  37  38
HETATM   38  O7  UNL     1      12.902 -21.468  -3.688  1.00  0.00    -0.398 OA
ATOM     39  H7  UNL     1      11.979 -21.377  -3.484  1.00  0.00     0.209 HD
ENDBRANCH  37  38
ENDBRANCH  32  37
BRANCH  34  40
HETATM   40  O9  UNL     1      16.718 -20.952  -0.985  1.00  0.00    -0.369 OA
ATOM     41  H9  UNL     1      16.985 -20.681  -0.114  1.00  0.00     0.212 HD
ENDBRANCH  34  40
BRANCH  35  42
HETATM   42  O10 UNL     1      15.037 -17.929  -0.753  1.00  0.00    -0.388 OA
ATOM     43  H10 UNL     1      14.730 -17.200  -1.280  1.00  0.00     0.210 HD
ENDBRANCH  35  42
BRANCH  36  44
HETATM   44  O11 UNL     1      17.582 -17.985  -3.047  1.00  0.00    -0.390 OA
ATOM     45  H11 UNL     1      17.944 -17.364  -2.426  1.00  0.00     0.210 HD
ENDBRANCH  36  44
ENDBRANCH  30  31
ENDBRANCH   4  30
TORSDOF 18
ENDMDL
