MODEL 3
REMARK VINA RESULT: -6.486733477      1.611      8.343
REMARK  18 active torsions:
REMARK  status: ('A' for Active; 'I' for Inactive)
REMARK    1  A    between atoms: O1_1  and  C1_3 
REMARK    2  A    between atoms: C1_3  and  C2_4 
REMARK    3  A    between atoms: C3_6  and  O3_7 
REMARK    4  A    between atoms: O3_7  and  C4_8 
REMARK    5  A    between atoms: C5_9  and  C6_10 
REMARK    6  A    between atoms: C6_10  and  O4_11 
REMARK    7  A    between atoms: C7_14  and  O6_15 
REMARK    8  A    between atoms: O6_15  and  C8_16 
REMARK    9  A    between atoms: C9_17  and  C10_18 
REMARK   10  A    between atoms: C10_18  and  O7_19 
REMARK   11  A    between atoms: C11_22  and  O9_23 
REMARK   12  A    between atoms: C12_25  and  O10_26 
REMARK   13  A    between atoms: C13_28  and  O11_29 
REMARK   14  A    between atoms: C14_31  and  O12_32 
REMARK   15  A    between atoms: C15_34  and  O13_35 
REMARK   16  A    between atoms: C16_37  and  O14_38 
REMARK   17  A    between atoms: C17_40  and  O15_41 
REMARK   18  A    between atoms: C18_43  and  O16_44 
ROOT
HETATM    1  C4  UNL     1      16.558 -19.041  -5.102  1.00  0.00     0.187 C 
HETATM    2  C5  UNL     1      15.609 -19.942  -5.812  1.00  0.00     0.180 C 
HETATM    3  O5  UNL     1      16.143 -20.531  -6.945  1.00  0.00    -0.348 OA
HETATM    4  C7  UNL     1      16.501 -19.619  -7.925  1.00  0.00     0.292 C 
HETATM    5  C14 UNL     1      17.217 -18.420  -7.368  1.00  0.00     0.204 C 
HETATM    6  C15 UNL     1      17.735 -18.636  -5.966  1.00  0.00     0.183 C 
ENDROOT
BRANCH   1   7
HETATM    7  O3  UNL     1      17.045 -19.647  -3.951  1.00  0.00    -0.348 OA
BRANCH   7   8
HETATM    8  C3  UNL     1      16.214 -19.509  -2.860  1.00  0.00     0.292 C 
HETATM    9  O2  UNL     1      15.601 -20.690  -2.549  1.00  0.00    -0.348 OA
HETATM   10  C2  UNL     1      14.723 -20.716  -1.516  1.00  0.00     0.179 C 
HETATM   11  C18 UNL     1      14.854 -19.499  -0.649  1.00  0.00     0.180 C 
HETATM   12  C17 UNL     1      16.346 -19.277  -0.389  1.00  0.00     0.183 C 
HETATM   13  C16 UNL     1      17.041 -18.963  -1.706  1.00  0.00     0.204 C 
BRANCH  10  14
HETATM   14  C1  UNL     1      13.311 -20.744  -2.125  1.00  0.00     0.198 C 
BRANCH  14  15
HETATM   15  O1  UNL     1      13.238 -21.575  -3.221  1.00  0.00    -0.398 OA
ATOM     16  H1  UNL     1      13.279 -21.091  -4.038  1.00  0.00     0.209 HD
ENDBRANCH  14  15
ENDBRANCH  10  14
BRANCH  11  17
HETATM   17  O16 UNL     1      14.141 -19.572   0.526  1.00  0.00    -0.390 OA
ATOM     18  H16 UNL     1      13.861 -20.451   0.752  1.00  0.00     0.210 HD
ENDBRANCH  11  17
BRANCH  12  19
HETATM   19  O15 UNL     1      16.529 -18.300   0.568  1.00  0.00    -0.390 OA
ATOM     20  H15 UNL     1      17.299 -18.443   1.105  1.00  0.00     0.210 HD
ENDBRANCH  12  19
BRANCH  13  21
HETATM   21  O14 UNL     1      18.344 -19.429  -1.699  1.00  0.00    -0.388 OA
ATOM     22  H14 UNL     1      18.649 -19.699  -2.557  1.00  0.00     0.210 HD
ENDBRANCH  13  21
ENDBRANCH   7   8
ENDBRANCH   1   7
BRANCH   2  23
HETATM   23  C6  UNL     1      14.321 -19.227  -6.061  1.00  0.00     0.198 C 
BRANCH  23  24
HETATM   24  O4  UNL     1      13.235 -20.046  -5.750  1.00  0.00    -0.398 OA
ATOM     25  H4  UNL     1      12.424 -19.658  -6.057  1.00  0.00     0.209 HD
ENDBRANCH  23  24
ENDBRANCH   2  23
BRANCH   6  26
HETATM   26  O13 UNL     1      18.331 -17.464  -5.554  1.00  0.00    -0.390 OA
ATOM     27  H13 UNL     1      18.280 -17.330  -4.614  1.00  0.00     0.210 HD
ENDBRANCH   6  26
BRANCH   5  28
HETATM   28  O12 UNL     1      18.279 -18.081  -8.199  1.00  0.00    -0.388 OA
ATOM     29  H12 UNL     1      18.909 -17.559  -7.716  1.00  0.00     0.210 HD
ENDBRANCH   5  28
BRANCH   4  30
HETATM   30  O6  UNL     1      17.378 -20.236  -8.824  1.00  0.00    -0.348 OA
BRANCH  30  31
HETATM   31  C8  UNL     1      17.120 -21.563  -9.005  1.00  0.00     0.187 C 
HETATM   32  C9  UNL     1      18.385 -22.364  -8.793  1.00  0.00     0.180 C 
HETATM   33  O8  UNL     1      17.941 -23.663  -8.544  1.00  0.00    -0.349 OA
HETATM   34  C11 UNL     1      17.522 -24.208  -9.725  1.00  0.00     0.288 C 
HETATM   35  C12 UNL     1      17.142 -23.289 -10.818  1.00  0.00     0.204 C 
HETATM   36  C13 UNL     1      16.662 -21.922 -10.409  1.00  0.00     0.183 C 
BRANCH  32  37
HETATM   37  C10 UNL     1      19.307 -21.813  -7.764  1.00  0.00     0.198 C 
BRANCH  37  38
HETATM   38  O7  UNL     1      19.984 -20.723  -8.309  1.00  0.00    -0.398 OA
ATOM     39  H7  UNL     1      20.305 -20.178  -7.600  1.00  0.00     0.209 HD
ENDBRANCH  37  38
ENDBRANCH  32  37
BRANCH  34  40
HETATM   40  O9  UNL     1      16.503 -25.125  -9.445  1.00  0.00    -0.369 OA
ATOM     41  H9  UNL     1      16.859 -26.000  -9.539  1.00  0.00     0.212 HD
ENDBRANCH  34  40
BRANCH  35  42
HETATM   42  O10 UNL     1      18.143 -23.195 -11.812  1.00  0.00    -0.388 OA
ATOM     43  H10 UNL     1      18.768 -22.503 -11.630  1.00  0.00     0.210 HD
ENDBRANCH  35  42
BRANCH  36  44
HETATM   44  O11 UNL     1      15.282 -21.795 -10.549  1.00  0.00    -0.390 OA
ATOM     45  H11 UNL     1      14.814 -22.400  -9.985  1.00  0.00     0.210 HD
ENDBRANCH  36  44
ENDBRANCH  30  31
ENDBRANCH   4  30
TORSDOF 18
ENDMDL
