MODEL 18
REMARK VINA RESULT: -7.506605512      3.106      5.226
REMARK  13 active torsions:
REMARK  status: ('A' for Active; 'I' for Inactive)
REMARK    1  A    between atoms: C2_2  and  C10_19 
REMARK    2  A    between atoms: C3_3  and  C4_4 
REMARK    3  A    between atoms: C4_4  and  C5_5 
REMARK    4  A    between atoms: C5_5  and  C6_6 
REMARK    5  A    between atoms: C8_8  and  C9_9 
REMARK    6  A    between atoms: C9_9  and  O1_10 
REMARK    7  A    between atoms: O1_10  and  P1_11 
REMARK    8  A    between atoms: P1_11  and  O4_14 
REMARK    9  A    between atoms: O4_14  and  P2_15 
REMARK   10  A    between atoms: C10_19  and  C11_20 
REMARK   11  A    between atoms: C11_20  and  C12_21 
REMARK   12  A    between atoms: C13_22  and  C14_23 
REMARK   13  A    between atoms: C13_22  and  C15_25 
ROOT
HETATM    1  C5  UNL     1      -3.061 -33.846  15.132  1.00  0.00     0.037 C 
ENDROOT
BRANCH   1   2
HETATM    2  C4  UNL     1      -2.053 -32.865  14.526  1.00  0.00     0.031 C 
BRANCH   2   3
HETATM    3  C3  UNL     1      -1.573 -32.019  15.655  1.00  0.00    -0.024 C 
HETATM    4  C2  UNL     1      -0.350 -31.497  15.691  1.00  0.00    -0.087 C 
HETATM    5  C1  UNL     1       0.537 -31.801  14.533  1.00  0.00     0.043 C 
BRANCH   4   6
HETATM    6  C10 UNL     1       0.110 -30.650  16.836  1.00  0.00     0.037 C 
BRANCH   6   7
HETATM    7  C11 UNL     1       1.180 -31.371  17.651  1.00  0.00     0.032 C 
BRANCH   7   8
HETATM    8  C12 UNL     1       0.550 -31.890  18.854  1.00  0.00    -0.019 C 
HETATM    9  C13 UNL     1       0.256 -31.244  19.943  1.00  0.00    -0.027 C 
BRANCH   9  10
HETATM   10  C14 UNL     1       0.480 -29.821  20.254  1.00  0.00     0.258 C 
HETATM   11  F1  UNL     1       1.764 -29.383  20.212  1.00  0.00    -0.251 F 
ENDBRANCH   9  10
BRANCH   9  12
HETATM   12  C15 UNL     1      -0.413 -32.021  21.086  1.00  0.00     0.258 C 
HETATM   13  F2  UNL     1      -0.850 -31.091  21.996  1.00  0.00    -0.251 F 
ENDBRANCH   9  12
ENDBRANCH   7   8
ENDBRANCH   6   7
ENDBRANCH   4   6
ENDBRANCH   2   3
ENDBRANCH   1   2
BRANCH   1  14
HETATM   14  C6  UNL     1      -2.445 -34.728  16.129  1.00  0.00    -0.085 C 
HETATM   15  C7  UNL     1      -2.696 -34.511  17.576  1.00  0.00     0.043 C 
HETATM   16  C8  UNL     1      -1.668 -35.716  15.744  1.00  0.00     0.002 C 
BRANCH  16  17
HETATM   17  C9  UNL     1      -1.008 -36.655  16.727  1.00  0.00     0.209 C 
BRANCH  17  18
HETATM   18  O1  UNL     1       0.316 -36.309  16.740  1.00  0.00    -0.286 OA
BRANCH  18  19
HETATM   19  P1  UNL     1       0.951 -36.789  18.216  1.00  0.00     0.418 P 
HETATM   20  O2  UNL     1       2.094 -35.794  18.047  1.00  0.00    -0.624 OA
HETATM   21  O3  UNL     1       1.930 -38.102  18.297  1.00  0.00    -0.624 OA
BRANCH  19  22
HETATM   22  O4  UNL     1       0.427 -36.083  19.596  1.00  0.00    -0.173 OA
BRANCH  22  23
HETATM   23  P2  UNL     1      -0.648 -37.023  20.414  1.00  0.00     0.431 P 
HETATM   24  O5  UNL     1      -2.269 -36.800  20.304  1.00  0.00    -0.616 OA
HETATM   25  O6  UNL     1      -0.087 -38.395  21.181  1.00  0.00    -0.616 OA
HETATM   26  O7  UNL     1      -0.443 -36.207  21.686  1.00  0.00    -0.616 OA
ENDBRANCH  22  23
ENDBRANCH  19  22
ENDBRANCH  18  19
ENDBRANCH  17  18
ENDBRANCH  16  17
ENDBRANCH   1  14
TORSDOF 13
ENDMDL
