MODEL 16
REMARK VINA RESULT: -7.550545676      2.482      4.920
REMARK  13 active torsions:
REMARK  status: ('A' for Active; 'I' for Inactive)
REMARK    1  A    between atoms: C2_2  and  C10_19 
REMARK    2  A    between atoms: C3_3  and  C4_4 
REMARK    3  A    between atoms: C4_4  and  C5_5 
REMARK    4  A    between atoms: C5_5  and  C6_6 
REMARK    5  A    between atoms: C8_8  and  C9_9 
REMARK    6  A    between atoms: C9_9  and  O1_10 
REMARK    7  A    between atoms: O1_10  and  P1_11 
REMARK    8  A    between atoms: P1_11  and  O4_14 
REMARK    9  A    between atoms: O4_14  and  P2_15 
REMARK   10  A    between atoms: C10_19  and  C11_20 
REMARK   11  A    between atoms: C11_20  and  C12_21 
REMARK   12  A    between atoms: C13_22  and  C14_23 
REMARK   13  A    between atoms: C13_22  and  C15_25 
ROOT
HETATM    1  C5  UNL     1      -1.605 -31.588  15.289  1.00  0.00     0.037 C 
ENDROOT
BRANCH   1   2
HETATM    2  C4  UNL     1      -0.112 -31.430  15.593  1.00  0.00     0.031 C 
BRANCH   2   3
HETATM    3  C3  UNL     1      -0.031 -30.745  16.913  1.00  0.00    -0.024 C 
HETATM    4  C2  UNL     1       0.860 -31.081  17.842  1.00  0.00    -0.087 C 
HETATM    5  C1  UNL     1       1.792 -32.192  17.498  1.00  0.00     0.043 C 
BRANCH   4   6
HETATM    6  C10 UNL     1       0.922 -30.379  19.162  1.00  0.00     0.037 C 
BRANCH   6   7
HETATM    7  C11 UNL     1      -0.152 -30.905  20.109  1.00  0.00     0.032 C 
BRANCH   7   8
HETATM    8  C12 UNL     1       0.426 -31.996  20.877  1.00  0.00    -0.019 C 
HETATM    9  C13 UNL     1       0.188 -33.269  20.757  1.00  0.00    -0.027 C 
BRANCH   9  10
HETATM   10  C14 UNL     1      -0.724 -33.947  19.820  1.00  0.00     0.258 C 
HETATM   11  F1  UNL     1      -2.041 -33.633  19.916  1.00  0.00    -0.251 F 
ENDBRANCH   9  10
BRANCH   9  12
HETATM   12  C15 UNL     1       0.931 -34.234  21.693  1.00  0.00     0.258 C 
HETATM   13  F2  UNL     1       0.210 -35.403  21.711  1.00  0.00    -0.251 F 
ENDBRANCH   9  12
ENDBRANCH   7   8
ENDBRANCH   6   7
ENDBRANCH   4   6
ENDBRANCH   2   3
ENDBRANCH   1   2
BRANCH   1  14
HETATM   14  C6  UNL     1      -2.038 -32.988  15.353  1.00  0.00    -0.085 C 
HETATM   15  C7  UNL     1      -2.561 -33.665  14.140  1.00  0.00     0.043 C 
HETATM   16  C8  UNL     1      -1.963 -33.650  16.486  1.00  0.00     0.002 C 
BRANCH  16  17
HETATM   17  C9  UNL     1      -2.395 -35.092  16.610  1.00  0.00     0.209 C 
BRANCH  17  18
HETATM   18  O1  UNL     1      -1.245 -35.831  16.543  1.00  0.00    -0.286 OA
BRANCH  18  19
HETATM   19  P1  UNL     1      -1.304 -36.973  17.770  1.00  0.00     0.418 P 
HETATM   20  O2  UNL     1      -2.157 -37.878  16.887  1.00  0.00    -0.624 OA
HETATM   21  O3  UNL     1      -2.432 -36.845  18.953  1.00  0.00    -0.624 OA
BRANCH  19  22
HETATM   22  O4  UNL     1      -0.112 -38.086  17.905  1.00  0.00    -0.173 OA
BRANCH  22  23
HETATM   23  P2  UNL     1       1.048 -37.636  18.984  1.00  0.00     0.431 P 
HETATM   24  O5  UNL     1       1.875 -36.228  18.845  1.00  0.00    -0.616 OA
HETATM   25  O6  UNL     1       1.213 -38.518  20.391  1.00  0.00    -0.616 OA
HETATM   26  O7  UNL     1       2.080 -38.519  18.290  1.00  0.00    -0.616 OA
ENDBRANCH  22  23
ENDBRANCH  19  22
ENDBRANCH  18  19
ENDBRANCH  17  18
ENDBRANCH  16  17
ENDBRANCH   1  14
TORSDOF 13
ENDMDL
