MODEL 5
REMARK VINA RESULT: -7.761801256      2.673      4.771
REMARK  13 active torsions:
REMARK  status: ('A' for Active; 'I' for Inactive)
REMARK    1  A    between atoms: C2_2  and  C10_19 
REMARK    2  A    between atoms: C3_3  and  C4_4 
REMARK    3  A    between atoms: C4_4  and  C5_5 
REMARK    4  A    between atoms: C5_5  and  C6_6 
REMARK    5  A    between atoms: C8_8  and  C9_9 
REMARK    6  A    between atoms: C9_9  and  O1_10 
REMARK    7  A    between atoms: O1_10  and  P1_11 
REMARK    8  A    between atoms: P1_11  and  O4_14 
REMARK    9  A    between atoms: O4_14  and  P2_15 
REMARK   10  A    between atoms: C10_19  and  C11_20 
REMARK   11  A    between atoms: C11_20  and  C12_21 
REMARK   12  A    between atoms: C13_22  and  C14_23 
REMARK   13  A    between atoms: C13_22  and  C15_25 
ROOT
HETATM    1  C5  UNL     1      -3.167 -33.928  15.190  1.00  0.00     0.037 C 
ENDROOT
BRANCH   1   2
HETATM    2  C4  UNL     1      -2.152 -32.967  14.564  1.00  0.00     0.031 C 
BRANCH   2   3
HETATM    3  C3  UNL     1      -1.708 -32.065  15.664  1.00  0.00    -0.024 C 
HETATM    4  C2  UNL     1      -0.507 -31.494  15.682  1.00  0.00    -0.087 C 
HETATM    5  C1  UNL     1       0.393 -31.800  14.534  1.00  0.00     0.043 C 
BRANCH   4   6
HETATM    6  C10 UNL     1      -0.083 -30.592  16.798  1.00  0.00     0.037 C 
BRANCH   6   7
HETATM    7  C11 UNL     1       1.057 -31.215  17.599  1.00  0.00     0.032 C 
BRANCH   7   8
HETATM    8  C12 UNL     1       0.491 -31.778  18.815  1.00  0.00    -0.019 C 
HETATM    9  C13 UNL     1       0.253 -31.170  19.939  1.00  0.00    -0.027 C 
BRANCH   9  10
HETATM   10  C14 UNL     1       0.491 -29.758  20.287  1.00  0.00     0.258 C 
HETATM   11  F1  UNL     1       1.774 -29.320  20.213  1.00  0.00    -0.251 F 
ENDBRANCH   9  10
BRANCH   9  12
HETATM   12  C15 UNL     1      -0.355 -31.988  21.088  1.00  0.00     0.258 C 
HETATM   13  F2  UNL     1      -0.818 -31.087  22.015  1.00  0.00    -0.251 F 
ENDBRANCH   9  12
ENDBRANCH   7   8
ENDBRANCH   6   7
ENDBRANCH   4   6
ENDBRANCH   2   3
ENDBRANCH   1   2
BRANCH   1  14
HETATM   14  C6  UNL     1      -2.519 -35.073  15.838  1.00  0.00    -0.085 C 
HETATM   15  C7  UNL     1      -2.072 -36.236  15.031  1.00  0.00     0.043 C 
HETATM   16  C8  UNL     1      -2.330 -35.074  17.139  1.00  0.00     0.002 C 
BRANCH  16  17
HETATM   17  C9  UNL     1      -1.668 -36.225  17.860  1.00  0.00     0.209 C 
BRANCH  17  18
HETATM   18  O1  UNL     1      -2.413 -36.435  18.988  1.00  0.00    -0.286 OA
BRANCH  18  19
HETATM   19  P1  UNL     1      -1.460 -37.289  20.073  1.00  0.00     0.418 P 
HETATM   20  O2  UNL     1      -2.713 -37.760  20.802  1.00  0.00    -0.624 OA
HETATM   21  O3  UNL     1      -0.826 -36.528  21.380  1.00  0.00    -0.624 OA
BRANCH  19  22
HETATM   22  O4  UNL     1      -0.989 -38.815  19.717  1.00  0.00    -0.173 OA
BRANCH  22  23
HETATM   23  P2  UNL     1       0.057 -39.426  20.832  1.00  0.00     0.431 P 
HETATM   24  O5  UNL     1       1.682 -39.254  20.696  1.00  0.00    -0.616 OA
HETATM   25  O6  UNL     1      -0.561 -40.020  22.264  1.00  0.00    -0.616 OA
HETATM   26  O7  UNL     1      -0.029 -40.811  20.200  1.00  0.00    -0.616 OA
ENDBRANCH  22  23
ENDBRANCH  19  22
ENDBRANCH  18  19
ENDBRANCH  17  18
ENDBRANCH  16  17
ENDBRANCH   1  14
TORSDOF 13
ENDMDL
