MODEL 1
REMARK VINA RESULT: -9.225395962      0.000      0.000
REMARK  14 active torsions:
REMARK  status: ('A' for Active; 'I' for Inactive)
REMARK    1  A    between atoms: O1_2  and  C2_3 
REMARK    2  A    between atoms: C6_7  and  C7_8 
REMARK    3  A    between atoms: C7_8  and  N1_9 
REMARK    4  A    between atoms: C9_11  and  C10_12 
REMARK       I    between atoms: C10_12  and  N2_14 
REMARK    5  A    between atoms: N2_14  and  C11_16 
REMARK    6  A    between atoms: C11_16  and  C12_17 
REMARK    7  A    between atoms: C11_16  and  C19_24 
REMARK    8  A    between atoms: C12_17  and  C13_18 
REMARK    9  A    between atoms: C19_24  and  O3_25 
REMARK   10  A    between atoms: C19_24  and  C20_27 
REMARK   11  A    between atoms: C20_27  and  N3_28 
REMARK   12  A    between atoms: N3_28  and  C21_31 
REMARK   13  A    between atoms: C21_31  and  C22_32 
REMARK   14  A    between atoms: C26_36  and  N4_37 
ROOT
HETATM    1  C11 UNL     1      29.655   7.355   9.834  1.00  0.00     0.024 C 
ENDROOT
BRANCH   1   2
HETATM    2  N2  UNL     1      30.466   7.285   8.648  1.00  0.00    -0.330 N 
HETATM    3  C10 UNL     1      30.503   6.143   7.815  1.00  0.00     0.246 C 
HETATM    4  O2  UNL     1      29.812   5.147   8.123  1.00  0.00    -0.271 OA
ATOM      5  H2  UNL     1      31.036   8.092   8.398  1.00  0.00     0.168 HD
BRANCH   3   6
HETATM    6  C9  UNL     1      31.368   6.151   6.585  1.00  0.00     0.196 C 
HETATM    7  C8  UNL     1      32.821   6.133   7.023  1.00  0.00     0.162 C 
HETATM    8  N1  UNL     1      33.485   6.819   5.928  1.00  0.00    -0.328 N 
HETATM    9  C30 UNL     1      32.516   7.678   5.313  1.00  0.00     0.319 C 
HETATM   10  N5  UNL     1      31.213   7.383   5.857  1.00  0.00    -0.328 N 
HETATM   11  O4  UNL     1      32.747   8.538   4.451  1.00  0.00    -0.247 OA
ATOM     12  H5  UNL     1      30.361   7.933   5.749  1.00  0.00     0.165 HD
BRANCH   8  13
HETATM   13  C7  UNL     1      34.858   6.673   5.525  1.00  0.00     0.166 C 
BRANCH  13  14
HETATM   14  C6  UNL     1      35.248   5.262   5.308  1.00  0.00    -0.038 A 
HETATM   15  C5  UNL     1      35.243   4.735   4.043  1.00  0.00     0.009 A 
HETATM   16  C4  UNL     1      35.608   3.406   3.809  1.00  0.00     0.003 A 
HETATM   17  C3  UNL     1      35.973   2.624   4.861  1.00  0.00     0.037 A 
HETATM   18  C2  UNL     1      35.979   3.147   6.131  1.00  0.00     0.068 A 
HETATM   19  C31 UNL     1      35.616   4.471   6.359  1.00  0.00     0.045 A 
BRANCH  18  20
HETATM   20  O1  UNL     1      36.342   2.401   7.247  1.00  0.00    -0.356 OA
HETATM   21  C1  UNL     1      37.334   1.399   7.204  1.00  0.00     0.210 C 
ENDBRANCH  18  20
ENDBRANCH  13  14
ENDBRANCH   8  13
ENDBRANCH   3   6
ENDBRANCH   1   2
BRANCH   1  22
HETATM   22  C12 UNL     1      30.341   7.873  11.070  1.00  0.00     0.093 C 
BRANCH  22  23
HETATM   23  C13 UNL     1      31.005   6.756  11.772  1.00  0.00    -0.053 A 
HETATM   24  C14 UNL     1      32.001   7.049  12.715  1.00  0.00     0.007 A 
HETATM   25  C15 UNL     1      32.684   6.070  13.404  1.00  0.00     0.001 A 
HETATM   26  C16 UNL     1      32.395   4.746  13.176  1.00  0.00     0.000 A 
HETATM   27  C17 UNL     1      31.420   4.440  12.253  1.00  0.00     0.001 A 
HETATM   28  C18 UNL     1      30.729   5.438  11.554  1.00  0.00     0.007 A 
ENDBRANCH  22  23
ENDBRANCH   1  22
BRANCH   1  29
HETATM   29  C19 UNL     1      28.258   7.765   9.618  1.00  0.00     0.189 C 
BRANCH  29  30
HETATM   30  O3  UNL     1      28.277   8.865   8.722  1.00  0.00    -0.388 OA
ATOM     31  H3  UNL     1      28.289   8.510   7.841  1.00  0.00     0.210 HD
ENDBRANCH  29  30
BRANCH  29  32
HETATM   32  C20 UNL     1      27.477   8.195  10.808  1.00  0.00     0.270 C 
BRANCH  32  33
HETATM   33  N3  UNL     1      27.107   7.049  11.618  1.00  0.00    -0.069 N 
ATOM     34  H32 UNL     1      26.399   6.483  11.151  1.00  0.00     0.277 HD
ATOM     35  H31 UNL     1      27.864   6.366  11.656  1.00  0.00     0.277 HD
BRANCH  33  36
HETATM   36  C21 UNL     1      26.677   7.426  12.951  1.00  0.00     0.271 C 
BRANCH  36  37
HETATM   37  C22 UNL     1      27.804   7.188  13.863  1.00  0.00    -0.031 A 
HETATM   38  C23 UNL     1      28.125   5.914  14.244  1.00  0.00     0.009 A 
HETATM   39  C24 UNL     1      29.190   5.653  15.111  1.00  0.00     0.003 A 
HETATM   40  C25 UNL     1      29.920   6.726  15.576  1.00  0.00     0.029 A 
HETATM   41  C26 UNL     1      29.614   8.023  15.204  1.00  0.00     0.029 A 
HETATM   42  C29 UNL     1      28.541   8.238  14.337  1.00  0.00     0.038 A 
BRANCH  41  43
HETATM   43  N4  UNL     1      30.373   9.115  15.692  1.00  0.00    -0.390 N 
HETATM   44  C27 UNL     1      30.481   9.325  17.112  1.00  0.00     0.149 C 
HETATM   45  C28 UNL     1      31.037  10.016  14.794  1.00  0.00     0.149 C 
ENDBRANCH  41  43
ENDBRANCH  36  37
ENDBRANCH  33  36
ENDBRANCH  32  33
ENDBRANCH  29  32
ENDBRANCH   1  29
TORSDOF 14
ENDMDL
