MODEL 3
REMARK VINA RESULT: -8.824625009      3.032      7.855
REMARK  14 active torsions:
REMARK  status: ('A' for Active; 'I' for Inactive)
REMARK    1  A    between atoms: O1_2  and  C2_3 
REMARK    2  A    between atoms: C6_7  and  C7_8 
REMARK    3  A    between atoms: C7_8  and  N1_9 
REMARK    4  A    between atoms: C9_11  and  C10_12 
REMARK       I    between atoms: C10_12  and  N2_14 
REMARK    5  A    between atoms: N2_14  and  C11_16 
REMARK    6  A    between atoms: C11_16  and  C12_17 
REMARK    7  A    between atoms: C11_16  and  C19_24 
REMARK    8  A    between atoms: C12_17  and  C13_18 
REMARK    9  A    between atoms: C19_24  and  O3_25 
REMARK   10  A    between atoms: C19_24  and  C20_27 
REMARK   11  A    between atoms: C20_27  and  N3_28 
REMARK   12  A    between atoms: N3_28  and  C21_31 
REMARK   13  A    between atoms: C21_31  and  C22_32 
REMARK   14  A    between atoms: C26_36  and  N4_37 
ROOT
HETATM    1  C11 UNL     1      30.594   5.945   8.231  1.00  0.00     0.024 C 
ENDROOT
BRANCH   1   2
HETATM    2  N2  UNL     1      29.872   6.711   9.211  1.00  0.00    -0.330 N 
HETATM    3  C10 UNL     1      28.873   7.648   8.861  1.00  0.00     0.246 C 
HETATM    4  O2  UNL     1      28.608   7.827   7.652  1.00  0.00    -0.271 OA
ATOM      5  H2  UNL     1      30.090   6.572  10.197  1.00  0.00     0.168 HD
BRANCH   3   6
HETATM    6  C9  UNL     1      28.154   8.403   9.945  1.00  0.00     0.196 C 
HETATM    7  C8  UNL     1      28.499   7.768  11.279  1.00  0.00     0.162 C 
HETATM    8  N1  UNL     1      27.317   8.053  12.075  1.00  0.00    -0.328 N 
HETATM    9  C30 UNL     1      26.220   8.214  11.166  1.00  0.00     0.319 C 
HETATM   10  N5  UNL     1      26.728   8.251   9.817  1.00  0.00    -0.328 N 
HETATM   11  O4  UNL     1      25.024   8.307  11.477  1.00  0.00    -0.247 OA
ATOM     12  H5  UNL     1      26.189   8.185   8.953  1.00  0.00     0.165 HD
BRANCH   8  13
HETATM   13  C7  UNL     1      27.247   8.158  13.507  1.00  0.00     0.166 C 
BRANCH  13  14
HETATM   14  C6  UNL     1      27.433   6.859  14.191  1.00  0.00    -0.038 A 
HETATM   15  C5  UNL     1      28.234   6.775  15.300  1.00  0.00     0.009 A 
HETATM   16  C4  UNL     1      28.427   5.561  15.965  1.00  0.00     0.003 A 
HETATM   17  C3  UNL     1      27.807   4.444  15.498  1.00  0.00     0.037 A 
HETATM   18  C2  UNL     1      27.004   4.522  14.387  1.00  0.00     0.068 A 
HETATM   19  C31 UNL     1      26.814   5.733  13.728  1.00  0.00     0.045 A 
BRANCH  18  20
HETATM   20  O1  UNL     1      26.343   3.417  13.860  1.00  0.00    -0.356 OA
HETATM   21  C1  UNL     1      25.068   3.506  13.262  1.00  0.00     0.210 C 
ENDBRANCH  18  20
ENDBRANCH  13  14
ENDBRANCH   8  13
ENDBRANCH   3   6
ENDBRANCH   1   2
BRANCH   1  22
HETATM   22  C12 UNL     1      31.723   6.661   7.538  1.00  0.00     0.093 C 
BRANCH  22  23
HETATM   23  C13 UNL     1      31.514   6.614   6.076  1.00  0.00    -0.053 A 
HETATM   24  C14 UNL     1      30.435   5.874   5.573  1.00  0.00     0.007 A 
HETATM   25  C15 UNL     1      30.175   5.762   4.224  1.00  0.00     0.001 A 
HETATM   26  C16 UNL     1      30.992   6.392   3.315  1.00  0.00     0.000 A 
HETATM   27  C17 UNL     1      32.058   7.122   3.793  1.00  0.00     0.001 A 
HETATM   28  C18 UNL     1      32.318   7.233   5.165  1.00  0.00     0.007 A 
ENDBRANCH  22  23
ENDBRANCH   1  22
BRANCH   1  29
HETATM   29  C19 UNL     1      30.803   4.527   8.569  1.00  0.00     0.189 C 
BRANCH  29  30
HETATM   30  O3  UNL     1      29.547   3.877   8.450  1.00  0.00    -0.388 OA
ATOM     31  H3  UNL     1      29.264   3.651   9.328  1.00  0.00     0.210 HD
ENDBRANCH  29  30
BRANCH  29  32
HETATM   32  C20 UNL     1      31.320   4.214   9.927  1.00  0.00     0.270 C 
BRANCH  32  33
HETATM   33  N3  UNL     1      30.310   4.485  10.934  1.00  0.00    -0.069 N 
ATOM     34  H32 UNL     1      30.198   5.488  11.081  1.00  0.00     0.277 HD
ATOM     35  H31 UNL     1      29.377   4.264  10.586  1.00  0.00     0.277 HD
BRANCH  33  36
HETATM   36  C21 UNL     1      30.575   3.801  12.186  1.00  0.00     0.271 C 
BRANCH  36  37
HETATM   37  C22 UNL     1      31.068   4.803  13.140  1.00  0.00    -0.031 A 
HETATM   38  C23 UNL     1      31.631   4.410  14.324  1.00  0.00     0.009 A 
HETATM   39  C24 UNL     1      32.108   5.338  15.254  1.00  0.00     0.003 A 
HETATM   40  C25 UNL     1      31.996   6.677  14.944  1.00  0.00     0.029 A 
HETATM   41  C26 UNL     1      31.430   7.098  13.754  1.00  0.00     0.029 A 
HETATM   42  C29 UNL     1      30.965   6.137  12.854  1.00  0.00     0.038 A 
BRANCH  41  43
HETATM   43  N4  UNL     1      31.320   8.478  13.452  1.00  0.00    -0.390 N 
HETATM   44  C27 UNL     1      30.844   9.388  14.460  1.00  0.00     0.149 C 
HETATM   45  C28 UNL     1      31.678   8.982  12.157  1.00  0.00     0.149 C 
ENDBRANCH  41  43
ENDBRANCH  36  37
ENDBRANCH  33  36
ENDBRANCH  32  33
ENDBRANCH  29  32
ENDBRANCH   1  29
TORSDOF 14
ENDMDL
