MODEL 8
REMARK VINA RESULT: -8.600679540      2.238      9.263
REMARK  14 active torsions:
REMARK  status: ('A' for Active; 'I' for Inactive)
REMARK    1  A    between atoms: O1_2  and  C2_3 
REMARK    2  A    between atoms: C6_7  and  C7_8 
REMARK    3  A    between atoms: C7_8  and  N1_9 
REMARK    4  A    between atoms: C9_11  and  C10_12 
REMARK       I    between atoms: C10_12  and  N2_14 
REMARK    5  A    between atoms: N2_14  and  C11_16 
REMARK    6  A    between atoms: C11_16  and  C12_17 
REMARK    7  A    between atoms: C11_16  and  C19_24 
REMARK    8  A    between atoms: C12_17  and  C13_18 
REMARK    9  A    between atoms: C19_24  and  O3_25 
REMARK   10  A    between atoms: C19_24  and  C20_27 
REMARK   11  A    between atoms: C20_27  and  N3_28 
REMARK   12  A    between atoms: N3_28  and  C21_31 
REMARK   13  A    between atoms: C21_31  and  C22_32 
REMARK   14  A    between atoms: C26_36  and  N4_37 
ROOT
HETATM    1  C11 UNL     1      30.850   4.815   9.741  1.00  0.00     0.024 C 
ENDROOT
BRANCH   1   2
HETATM    2  N2  UNL     1      30.024   5.916  10.155  1.00  0.00    -0.330 N 
HETATM    3  C10 UNL     1      30.377   7.266   9.922  1.00  0.00     0.246 C 
HETATM    4  O2  UNL     1      31.456   7.516   9.340  1.00  0.00    -0.271 OA
ATOM      5  H2  UNL     1      29.148   5.717  10.637  1.00  0.00     0.168 HD
BRANCH   3   6
HETATM    6  C9  UNL     1      29.455   8.362  10.377  1.00  0.00     0.196 C 
HETATM    7  C8  UNL     1      28.764   7.908  11.649  1.00  0.00     0.162 C 
HETATM    8  N1  UNL     1      27.503   8.628  11.593  1.00  0.00    -0.328 N 
HETATM    9  C30 UNL     1      27.230   8.903  10.212  1.00  0.00     0.319 C 
HETATM   10  N5  UNL     1      28.392   8.566   9.427  1.00  0.00    -0.328 N 
HETATM   11  O4  UNL     1      26.171   9.357   9.755  1.00  0.00    -0.247 OA
ATOM     12  H5  UNL     1      28.448   8.487   8.412  1.00  0.00     0.165 HD
BRANCH   8  13
HETATM   13  C7  UNL     1      26.673   9.002  12.706  1.00  0.00     0.166 C 
BRANCH  13  14
HETATM   14  C6  UNL     1      26.738   8.035  13.825  1.00  0.00    -0.038 A 
HETATM   15  C5  UNL     1      27.425   8.353  14.967  1.00  0.00     0.009 A 
HETATM   16  C4  UNL     1      27.503   7.459  16.039  1.00  0.00     0.003 A 
HETATM   17  C3  UNL     1      26.884   6.251  15.941  1.00  0.00     0.037 A 
HETATM   18  C2  UNL     1      26.194   5.928  14.798  1.00  0.00     0.068 A 
HETATM   19  C31 UNL     1      26.118   6.821  13.734  1.00  0.00     0.045 A 
BRANCH  18  20
HETATM   20  O1  UNL     1      25.540   4.711  14.636  1.00  0.00    -0.356 OA
HETATM   21  C1  UNL     1      25.051   4.270  13.388  1.00  0.00     0.210 C 
ENDBRANCH  18  20
ENDBRANCH  13  14
ENDBRANCH   8  13
ENDBRANCH   3   6
ENDBRANCH   1   2
BRANCH   1  22
HETATM   22  C12 UNL     1      31.332   3.904  10.839  1.00  0.00     0.093 C 
BRANCH  22  23
HETATM   23  C13 UNL     1      31.184   4.581  12.143  1.00  0.00    -0.053 A 
HETATM   24  C14 UNL     1      32.292   5.250  12.684  1.00  0.00     0.007 A 
HETATM   25  C15 UNL     1      32.250   5.894  13.902  1.00  0.00     0.001 A 
HETATM   26  C16 UNL     1      31.087   5.894  14.636  1.00  0.00     0.000 A 
HETATM   27  C17 UNL     1      29.990   5.240  14.120  1.00  0.00     0.001 A 
HETATM   28  C18 UNL     1      30.037   4.587  12.882  1.00  0.00     0.007 A 
ENDBRANCH  22  23
ENDBRANCH   1  22
BRANCH   1  29
HETATM   29  C19 UNL     1      30.469   4.187   8.465  1.00  0.00     0.189 C 
BRANCH  29  30
HETATM   30  O3  UNL     1      31.560   3.380   8.052  1.00  0.00    -0.388 OA
ATOM     31  H3  UNL     1      31.215   2.515   7.865  1.00  0.00     0.210 HD
ENDBRANCH  29  30
BRANCH  29  32
HETATM   32  C20 UNL     1      30.146   5.087   7.326  1.00  0.00     0.270 C 
BRANCH  32  33
HETATM   33  N3  UNL     1      30.544   4.482   6.068  1.00  0.00    -0.069 N 
ATOM     34  H32 UNL     1      31.279   3.789   6.210  1.00  0.00     0.277 HD
ATOM     35  H31 UNL     1      29.811   3.872   5.706  1.00  0.00     0.277 HD
BRANCH  33  36
HETATM   36  C21 UNL     1      30.940   5.466   5.078  1.00  0.00     0.271 C 
BRANCH  36  37
HETATM   37  C22 UNL     1      32.374   5.726   5.262  1.00  0.00    -0.031 A 
HETATM   38  C23 UNL     1      32.807   6.968   5.640  1.00  0.00     0.009 A 
HETATM   39  C24 UNL     1      34.164   7.248   5.822  1.00  0.00     0.003 A 
HETATM   40  C25 UNL     1      35.067   6.228   5.610  1.00  0.00     0.029 A 
HETATM   41  C26 UNL     1      34.652   4.965   5.228  1.00  0.00     0.029 A 
HETATM   42  C29 UNL     1      33.287   4.729   5.056  1.00  0.00     0.038 A 
BRANCH  41  43
HETATM   43  N4  UNL     1      35.593   3.927   5.013  1.00  0.00    -0.390 N 
HETATM   44  C27 UNL     1      36.158   3.238   6.144  1.00  0.00     0.149 C 
HETATM   45  C28 UNL     1      35.992   3.552   3.688  1.00  0.00     0.149 C 
ENDBRANCH  41  43
ENDBRANCH  36  37
ENDBRANCH  33  36
ENDBRANCH  32  33
ENDBRANCH  29  32
ENDBRANCH   1  29
TORSDOF 14
ENDMDL
