MODEL 2
REMARK VINA RESULT: -8.984869187      1.279      2.422
REMARK  14 active torsions:
REMARK  status: ('A' for Active; 'I' for Inactive)
REMARK    1  A    between atoms: O1_2  and  C2_3 
REMARK    2  A    between atoms: C6_7  and  C7_8 
REMARK    3  A    between atoms: C7_8  and  N1_9 
REMARK    4  A    between atoms: C9_11  and  C10_12 
REMARK       I    between atoms: C10_12  and  N2_14 
REMARK    5  A    between atoms: N2_14  and  C11_16 
REMARK    6  A    between atoms: C11_16  and  C12_17 
REMARK    7  A    between atoms: C11_16  and  C19_24 
REMARK    8  A    between atoms: C12_17  and  C13_18 
REMARK    9  A    between atoms: C19_24  and  O3_25 
REMARK   10  A    between atoms: C19_24  and  C20_27 
REMARK   11  A    between atoms: C20_27  and  N3_28 
REMARK   12  A    between atoms: N3_28  and  C21_31 
REMARK   13  A    between atoms: C21_31  and  C22_32 
REMARK   14  A    between atoms: C26_36  and  N4_37 
ROOT
HETATM    1  C11 UNL     1      30.020   7.314  10.000  1.00  0.00     0.024 C 
ENDROOT
BRANCH   1   2
HETATM    2  N2  UNL     1      30.728   7.237   8.751  1.00  0.00    -0.330 N 
HETATM    3  C10 UNL     1      30.749   6.067   7.957  1.00  0.00     0.246 C 
HETATM    4  O2  UNL     1      30.135   5.054   8.357  1.00  0.00    -0.271 OA
ATOM      5  H2  UNL     1      31.236   8.058   8.425  1.00  0.00     0.168 HD
BRANCH   3   6
HETATM    6  C9  UNL     1      31.505   6.067   6.657  1.00  0.00     0.196 C 
HETATM    7  C8  UNL     1      32.989   6.082   6.968  1.00  0.00     0.162 C 
HETATM    8  N1  UNL     1      33.544   6.759   5.808  1.00  0.00    -0.328 N 
HETATM    9  C30 UNL     1      32.510   7.590   5.265  1.00  0.00     0.319 C 
HETATM   10  N5  UNL     1      31.265   7.284   5.924  1.00  0.00    -0.328 N 
HETATM   11  O4  UNL     1      32.651   8.438   4.372  1.00  0.00    -0.247 OA
ATOM     12  H5  UNL     1      30.397   7.817   5.881  1.00  0.00     0.165 HD
BRANCH   8  13
HETATM   13  C7  UNL     1      34.880   6.628   5.291  1.00  0.00     0.166 C 
BRANCH  13  14
HETATM   14  C6  UNL     1      35.314   5.219   5.162  1.00  0.00    -0.038 A 
HETATM   15  C5  UNL     1      35.367   4.627   3.928  1.00  0.00     0.009 A 
HETATM   16  C4  UNL     1      35.774   3.299   3.778  1.00  0.00     0.003 A 
HETATM   17  C3  UNL     1      36.122   2.583   4.882  1.00  0.00     0.037 A 
HETATM   18  C2  UNL     1      36.070   3.172   6.122  1.00  0.00     0.068 A 
HETATM   19  C31 UNL     1      35.665   4.496   6.267  1.00  0.00     0.045 A 
BRANCH  18  20
HETATM   20  O1  UNL     1      36.412   2.496   7.288  1.00  0.00    -0.356 OA
HETATM   21  C1  UNL     1      37.235   1.350   7.291  1.00  0.00     0.210 C 
ENDBRANCH  18  20
ENDBRANCH  13  14
ENDBRANCH   8  13
ENDBRANCH   3   6
ENDBRANCH   1   2
BRANCH   1  22
HETATM   22  C12 UNL     1      30.830   7.755  11.190  1.00  0.00     0.093 C 
BRANCH  22  23
HETATM   23  C13 UNL     1      31.172   6.581  12.018  1.00  0.00    -0.053 A 
HETATM   24  C14 UNL     1      32.146   6.722  13.017  1.00  0.00     0.007 A 
HETATM   25  C15 UNL     1      32.538   5.676  13.825  1.00  0.00     0.001 A 
HETATM   26  C16 UNL     1      31.967   4.436  13.665  1.00  0.00     0.000 A 
HETATM   27  C17 UNL     1      31.009   4.281  12.687  1.00  0.00     0.001 A 
HETATM   28  C18 UNL     1      30.613   5.346  11.869  1.00  0.00     0.007 A 
ENDBRANCH  22  23
ENDBRANCH   1  22
BRANCH   1  29
HETATM   29  C19 UNL     1      28.636   7.808   9.909  1.00  0.00     0.189 C 
BRANCH  29  30
HETATM   30  O3  UNL     1      28.461   8.330   8.600  1.00  0.00    -0.388 OA
ATOM     31  H3  UNL     1      28.671   7.633   7.990  1.00  0.00     0.210 HD
ENDBRANCH  29  30
BRANCH  29  32
HETATM   32  C20 UNL     1      28.225   8.878  10.855  1.00  0.00     0.270 C 
BRANCH  32  33
HETATM   33  N3  UNL     1      27.404   8.332  11.921  1.00  0.00    -0.069 N 
ATOM     34  H32 UNL     1      26.459   8.715  11.889  1.00  0.00     0.277 HD
ATOM     35  H31 UNL     1      27.189   7.349  11.750  1.00  0.00     0.277 HD
BRANCH  33  36
HETATM   36  C21 UNL     1      27.998   8.516  13.231  1.00  0.00     0.271 C 
BRANCH  36  37
HETATM   37  C22 UNL     1      28.018   7.206  13.895  1.00  0.00    -0.031 A 
HETATM   38  C23 UNL     1      28.935   6.945  14.877  1.00  0.00     0.009 A 
HETATM   39  C24 UNL     1      28.981   5.709  15.528  1.00  0.00     0.003 A 
HETATM   40  C25 UNL     1      28.068   4.747  15.151  1.00  0.00     0.029 A 
HETATM   41  C26 UNL     1      27.132   4.989  14.161  1.00  0.00     0.029 A 
HETATM   42  C29 UNL     1      27.122   6.238  13.536  1.00  0.00     0.038 A 
BRANCH  41  43
HETATM   43  N4  UNL     1      26.201   3.990  13.784  1.00  0.00    -0.390 N 
HETATM   44  C27 UNL     1      24.829   4.355  13.546  1.00  0.00     0.149 C 
HETATM   45  C28 UNL     1      26.602   2.621  13.637  1.00  0.00     0.149 C 
ENDBRANCH  41  43
ENDBRANCH  36  37
ENDBRANCH  33  36
ENDBRANCH  32  33
ENDBRANCH  29  32
ENDBRANCH   1  29
TORSDOF 14
ENDMDL
