MODEL 4
REMARK VINA RESULT: -6.984576032      2.585      4.715
REMARK  9 active torsions:
REMARK  status: ('A' for Active; 'I' for Inactive)
REMARK       I    between atoms: C2_2  and  N1_4 
REMARK    1  A    between atoms: N1_4  and  C3_6 
REMARK    2  A    between atoms: C4_7  and  N2_8 
REMARK    3  A    between atoms: C7_14  and  C8_15 
REMARK    4  A    between atoms: C9_19  and  C10_20 
REMARK    5  A    between atoms: C10_20  and  O5_21 
REMARK    6  A    between atoms: C10_20  and  C11_23 
REMARK    7  A    between atoms: C11_23  and  O6_24 
REMARK    8  A    between atoms: C11_23  and  C12_26 
REMARK    9  A    between atoms: C12_26  and  O7_27 
ROOT
HETATM    1  C3  UNL     1     -30.707 -56.468   8.802  1.00  0.00     0.143 C 
HETATM    2  C4  UNL     1     -31.416 -55.739   7.679  1.00  0.00     0.135 C 
HETATM    3  C6  UNL     1     -32.496 -56.529   7.084  1.00  0.00     0.044 C 
HETATM    4  C7  UNL     1     -32.474 -57.859   7.008  1.00  0.00     0.144 C 
HETATM    5  O4  UNL     1     -31.355 -58.462   7.532  1.00  0.00    -0.335 OA
HETATM    6  C9  UNL     1     -30.726 -57.958   8.673  1.00  0.00     0.185 C 
ENDROOT
BRANCH   6   7
HETATM    7  C10 UNL     1     -29.407 -58.565   8.972  1.00  0.00     0.180 C 
BRANCH   7   8
HETATM    8  O5  UNL     1     -29.536 -59.405  10.079  1.00  0.00    -0.390 OA
ATOM      9  H5  UNL     1     -29.757 -60.279   9.778  1.00  0.00     0.210 HD
ENDBRANCH   7   8
BRANCH   7  10
HETATM   10  C11 UNL     1     -28.225 -57.677   9.063  1.00  0.00     0.173 C 
BRANCH  10  11
HETATM   11  O6  UNL     1     -27.187 -57.922   8.211  1.00  0.00    -0.391 OA
ATOM     12  H6  UNL     1     -27.002 -57.268   7.547  1.00  0.00     0.210 HD
ENDBRANCH  10  11
BRANCH  10  13
HETATM   13  C12 UNL     1     -27.782 -57.439  10.495  1.00  0.00     0.198 C 
BRANCH  13  14
HETATM   14  O7  UNL     1     -28.587 -56.509  11.153  1.00  0.00    -0.398 OA
ATOM     15  H7  UNL     1     -28.080 -55.875  11.644  1.00  0.00     0.209 HD
ENDBRANCH  13  14
ENDBRANCH  10  13
ENDBRANCH   7  10
ENDBRANCH   6   7
BRANCH   1  16
HETATM   16  N1  UNL     1     -31.287 -56.072  10.083  1.00  0.00    -0.352 N 
HETATM   17  C2  UNL     1     -32.151 -56.950  10.781  1.00  0.00     0.214 C 
HETATM   18  C1  UNL     1     -32.733 -56.520  12.092  1.00  0.00     0.117 C 
HETATM   19  O1  UNL     1     -32.430 -58.060  10.328  1.00  0.00    -0.274 OA
ATOM     20  H1  UNL     1     -31.068 -55.158  10.478  1.00  0.00     0.163 HD
ENDBRANCH   1  16
BRANCH   2  21
HETATM   21  N2  UNL     1     -30.502 -55.234   6.680  1.00  0.00    -0.357 N 
HETATM   22  C5  UNL     1     -30.412 -54.023   6.324  1.00  0.00     0.197 C 
HETATM   23  N3  UNL     1     -29.487 -53.625   5.338  1.00  0.00    -0.067 NA
HETATM   24  N4  UNL     1     -31.240 -53.047   6.916  1.00  0.00    -0.067 NA
ATOM     25  H2  UNL     1     -29.882 -55.905   6.228  1.00  0.00     0.162 HD
ENDBRANCH   2  21
BRANCH   4  26
HETATM   26  C8  UNL     1     -33.590 -58.582   6.400  1.00  0.00     0.233 C 
HETATM   27  O2  UNL     1     -34.004 -59.677   6.834  1.00  0.00    -0.642 OA
HETATM   28  O3  UNL     1     -34.229 -58.044   5.295  1.00  0.00    -0.642 OA
ENDBRANCH   4  26
TORSDOF 9
ENDMDL
