MODEL 6
REMARK VINA RESULT: -6.827593771      2.430      6.130
REMARK  9 active torsions:
REMARK  status: ('A' for Active; 'I' for Inactive)
REMARK       I    between atoms: C2_2  and  N1_4 
REMARK    1  A    between atoms: N1_4  and  C3_6 
REMARK    2  A    between atoms: C4_7  and  N2_8 
REMARK    3  A    between atoms: C7_14  and  C8_15 
REMARK    4  A    between atoms: C9_19  and  C10_20 
REMARK    5  A    between atoms: C10_20  and  O5_21 
REMARK    6  A    between atoms: C10_20  and  C11_23 
REMARK    7  A    between atoms: C11_23  and  O6_24 
REMARK    8  A    between atoms: C11_23  and  C12_26 
REMARK    9  A    between atoms: C12_26  and  O7_27 
ROOT
HETATM    1  C3  UNL     1     -31.924 -56.638   8.923  1.00  0.00     0.143 C 
HETATM    2  C4  UNL     1     -33.215 -56.607   9.714  1.00  0.00     0.135 C 
HETATM    3  C6  UNL     1     -32.990 -56.548  11.160  1.00  0.00     0.044 C 
HETATM    4  C7  UNL     1     -31.939 -57.102  11.761  1.00  0.00     0.144 C 
HETATM    5  O4  UNL     1     -31.055 -57.747  10.928  1.00  0.00    -0.335 OA
HETATM    6  C9  UNL     1     -30.774 -57.259   9.651  1.00  0.00     0.185 C 
ENDROOT
BRANCH   6   7
HETATM    7  C10 UNL     1     -29.998 -58.183   8.790  1.00  0.00     0.180 C 
BRANCH   7   8
HETATM    8  O5  UNL     1     -30.870 -59.119   8.229  1.00  0.00    -0.390 OA
ATOM      9  H5  UNL     1     -30.447 -59.523   7.480  1.00  0.00     0.210 HD
ENDBRANCH   7   8
BRANCH   7  10
HETATM   10  C11 UNL     1     -28.773 -58.804   9.344  1.00  0.00     0.173 C 
BRANCH  10  11
HETATM   11  O6  UNL     1     -28.892 -59.501  10.511  1.00  0.00    -0.391 OA
ATOM     12  H6  UNL     1     -28.104 -59.631  11.026  1.00  0.00     0.210 HD
ENDBRANCH  10  11
BRANCH  10  13
HETATM   13  C12 UNL     1     -27.583 -57.862   9.328  1.00  0.00     0.198 C 
BRANCH  13  14
HETATM   14  O7  UNL     1     -26.836 -57.970   8.154  1.00  0.00    -0.398 OA
ATOM     15  H7  UNL     1     -25.901 -57.986   8.320  1.00  0.00     0.209 HD
ENDBRANCH  13  14
ENDBRANCH  10  13
ENDBRANCH   7  10
ENDBRANCH   6   7
BRANCH   1  16
HETATM   16  N1  UNL     1     -31.575 -55.283   8.504  1.00  0.00    -0.352 N 
HETATM   17  C2  UNL     1     -31.624 -54.920   7.136  1.00  0.00     0.214 C 
HETATM   18  C1  UNL     1     -31.260 -53.525   6.732  1.00  0.00     0.117 C 
HETATM   19  O1  UNL     1     -31.961 -55.734   6.275  1.00  0.00    -0.274 OA
ATOM     20  H1  UNL     1     -31.295 -54.593   9.201  1.00  0.00     0.163 HD
ENDBRANCH   1  16
BRANCH   2  21
HETATM   21  N2  UNL     1     -34.117 -57.674   9.350  1.00  0.00    -0.357 N 
HETATM   22  C5  UNL     1     -34.981 -57.613   8.428  1.00  0.00     0.197 C 
HETATM   23  N3  UNL     1     -35.819 -58.710   8.145  1.00  0.00    -0.067 NA
HETATM   24  N4  UNL     1     -35.116 -56.437   7.661  1.00  0.00    -0.067 NA
ATOM     25  H2  UNL     1     -34.053 -58.545   9.877  1.00  0.00     0.162 HD
ENDBRANCH   2  21
BRANCH   4  26
HETATM   26  C8  UNL     1     -31.780 -57.003  13.212  1.00  0.00     0.233 C 
HETATM   27  O2  UNL     1     -30.822 -57.518  13.825  1.00  0.00    -0.642 OA
HETATM   28  O3  UNL     1     -32.722 -56.311  13.954  1.00  0.00    -0.642 OA
ENDBRANCH   4  26
TORSDOF 9
ENDMDL
