MODEL 3
REMARK VINA RESULT: -7.083515247      1.672      4.941
REMARK  9 active torsions:
REMARK  status: ('A' for Active; 'I' for Inactive)
REMARK       I    between atoms: C2_2  and  N1_4 
REMARK    1  A    between atoms: N1_4  and  C3_6 
REMARK    2  A    between atoms: C4_7  and  N2_8 
REMARK    3  A    between atoms: C7_14  and  C8_15 
REMARK    4  A    between atoms: C9_19  and  C10_20 
REMARK    5  A    between atoms: C10_20  and  O5_21 
REMARK    6  A    between atoms: C10_20  and  C11_23 
REMARK    7  A    between atoms: C11_23  and  O6_24 
REMARK    8  A    between atoms: C11_23  and  C12_26 
REMARK    9  A    between atoms: C12_26  and  O7_27 
ROOT
HETATM    1  C3  UNL     1     -30.819 -57.051   9.083  1.00  0.00     0.143 C 
HETATM    2  C4  UNL     1     -31.619 -57.950  10.003  1.00  0.00     0.135 C 
HETATM    3  C6  UNL     1     -32.641 -58.721   9.292  1.00  0.00     0.044 C 
HETATM    4  C7  UNL     1     -33.267 -58.279   8.202  1.00  0.00     0.144 C 
HETATM    5  O4  UNL     1     -32.890 -57.028   7.773  1.00  0.00    -0.335 OA
HETATM    6  C9  UNL     1     -31.566 -56.596   7.870  1.00  0.00     0.185 C 
ENDROOT
BRANCH   6   7
HETATM    7  C10 UNL     1     -31.362 -55.154   7.593  1.00  0.00     0.180 C 
BRANCH   7   8
HETATM    8  O5  UNL     1     -31.818 -54.415   8.687  1.00  0.00    -0.390 OA
ATOM      9  H5  UNL     1     -32.720 -54.159   8.531  1.00  0.00     0.210 HD
ENDBRANCH   7   8
BRANCH   7  10
HETATM   10  C11 UNL     1     -31.832 -54.609   6.300  1.00  0.00     0.173 C 
BRANCH  10  11
HETATM   11  O6  UNL     1     -32.017 -55.490   5.274  1.00  0.00    -0.391 OA
ATOM     12  H6  UNL     1     -32.753 -55.339   4.694  1.00  0.00     0.210 HD
ENDBRANCH  10  11
BRANCH  10  13
HETATM   13  C12 UNL     1     -31.079 -53.358   5.885  1.00  0.00     0.198 C 
BRANCH  13  14
HETATM   14  O7  UNL     1     -30.966 -52.436   6.927  1.00  0.00    -0.398 OA
ATOM     15  H7  UNL     1     -30.357 -51.736   6.726  1.00  0.00     0.209 HD
ENDBRANCH  13  14
ENDBRANCH  10  13
ENDBRANCH   7  10
ENDBRANCH   6   7
BRANCH   1  16
HETATM   16  N1  UNL     1     -29.589 -57.732   8.685  1.00  0.00    -0.352 N 
HETATM   17  C2  UNL     1     -28.382 -57.499   9.386  1.00  0.00     0.214 C 
HETATM   18  C1  UNL     1     -27.134 -58.208   8.956  1.00  0.00     0.117 C 
HETATM   19  O1  UNL     1     -28.341 -56.724  10.341  1.00  0.00    -0.274 OA
ATOM     20  H1  UNL     1     -29.601 -58.379   7.897  1.00  0.00     0.163 HD
ENDBRANCH   1  16
BRANCH   2  21
HETATM   21  N2  UNL     1     -32.169 -57.239  11.135  1.00  0.00    -0.357 N 
HETATM   22  C5  UNL     1     -31.707 -57.281  12.313  1.00  0.00     0.197 C 
HETATM   23  N3  UNL     1     -32.313 -56.551  13.355  1.00  0.00    -0.067 NA
HETATM   24  N4  UNL     1     -30.568 -58.061  12.599  1.00  0.00    -0.067 NA
ATOM     25  H2  UNL     1     -32.992 -56.660  10.972  1.00  0.00     0.162 HD
ENDBRANCH   2  21
BRANCH   4  26
HETATM   26  C8  UNL     1     -34.278 -59.105   7.544  1.00  0.00     0.233 C 
HETATM   27  O2  UNL     1     -34.069 -59.700   6.467  1.00  0.00    -0.642 OA
HETATM   28  O3  UNL     1     -35.526 -59.247   8.127  1.00  0.00    -0.642 OA
ENDBRANCH   4  26
TORSDOF 9
ENDMDL
