MODEL 17
REMARK VINA RESULT: -5.809740698      2.129      4.257
REMARK  7 active torsions:
REMARK  status: ('A' for Active; 'I' for Inactive)
REMARK    1  A    between atoms: C2_2  and  C3_3 
REMARK    2  A    between atoms: C3_3  and  C4_4 
REMARK    3  A    between atoms: C3_3  and  O1_6 
REMARK    4  A    between atoms: O1_6  and  C6_7 
REMARK    5  A    between atoms: C8_9  and  C9_10 
REMARK    6  A    between atoms: C11_14  and  N1_15 
REMARK    7  A    between atoms: C12_19  and  N2_20 
REMARK       I    between atoms: N2_20  and  C13_22 
ROOT
HETATM    1  C6  UNL     1     -31.802 -56.290   8.398  1.00  0.00     0.170 C 
HETATM    2  C7  UNL     1     -31.654 -55.836   6.996  1.00  0.00     0.021 C 
HETATM    3  C8  UNL     1     -30.495 -55.316   6.683  1.00  0.00     0.019 C 
HETATM    4  C10 UNL     1     -29.498 -55.247   7.780  1.00  0.00     0.080 C 
HETATM    5  C11 UNL     1     -29.377 -56.508   8.592  1.00  0.00     0.213 C 
HETATM    6  C12 UNL     1     -30.655 -57.244   8.636  1.00  0.00     0.147 C 
ENDROOT
BRANCH   1   7
HETATM    7  O1  UNL     1     -33.037 -56.805   8.651  1.00  0.00    -0.375 OA
BRANCH   7   8
HETATM    8  C3  UNL     1     -33.631 -57.182   7.453  1.00  0.00     0.121 C 
BRANCH   8   9
HETATM    9  C2  UNL     1     -33.575 -58.697   7.266  1.00  0.00     0.027 C 
HETATM   10  C1  UNL     1     -34.146 -59.415   8.467  1.00  0.00     0.007 C 
ENDBRANCH   8   9
BRANCH   8  11
HETATM   11  C4  UNL     1     -35.066 -56.729   7.370  1.00  0.00     0.027 C 
HETATM   12  C5  UNL     1     -35.219 -55.324   7.907  1.00  0.00     0.007 C 
ENDBRANCH   8  11
ENDBRANCH   7   8
ENDBRANCH   1   7
BRANCH   6  13
HETATM   13  N2  UNL     1     -30.851 -58.115   9.738  1.00  0.00    -0.352 N 
HETATM   14  C13 UNL     1     -30.668 -59.517   9.650  1.00  0.00     0.214 C 
HETATM   15  C14 UNL     1     -30.889 -60.388  10.841  1.00  0.00     0.117 C 
HETATM   16  O4  UNL     1     -30.317 -59.960   8.530  1.00  0.00    -0.274 OA
ATOM     17  H2  UNL     1     -31.136 -57.714  10.631  1.00  0.00     0.163 HD
ENDBRANCH   6  13
BRANCH   3  18
HETATM   18  C9  UNL     1     -30.223 -54.835   5.349  1.00  0.00     0.205 C 
HETATM   19  O2  UNL     1     -29.112 -54.347   5.046  1.00  0.00    -0.644 OA
HETATM   20  O3  UNL     1     -31.226 -54.919   4.379  1.00  0.00    -0.644 OA
ENDBRANCH   3  18
BRANCH   5  21
HETATM   21  N1  UNL     1     -28.306 -57.285   7.938  1.00  0.00    -0.073 N 
ATOM     22  H13 UNL     1     -28.483 -57.483   6.954  1.00  0.00     0.274 HD
ATOM     23  H12 UNL     1     -27.443 -56.760   7.799  1.00  0.00     0.274 HD
ATOM     24  H11 UNL     1     -28.193 -58.119   8.514  1.00  0.00     0.274 HD
ENDBRANCH   5  21
TORSDOF 7
ENDMDL
