MODEL 16
REMARK VINA RESULT: -5.833228157      1.988      4.004
REMARK  7 active torsions:
REMARK  status: ('A' for Active; 'I' for Inactive)
REMARK    1  A    between atoms: C2_2  and  C3_3 
REMARK    2  A    between atoms: C3_3  and  C4_4 
REMARK    3  A    between atoms: C3_3  and  O1_6 
REMARK    4  A    between atoms: O1_6  and  C6_7 
REMARK    5  A    between atoms: C8_9  and  C9_10 
REMARK    6  A    between atoms: C11_14  and  N1_15 
REMARK    7  A    between atoms: C12_19  and  N2_20 
REMARK       I    between atoms: N2_20  and  C13_22 
ROOT
HETATM    1  C6  UNL     1     -31.668 -56.883   7.612  1.00  0.00     0.170 C 
HETATM    2  C7  UNL     1     -31.299 -55.921   6.547  1.00  0.00     0.021 C 
HETATM    3  C8  UNL     1     -30.254 -55.174   6.789  1.00  0.00     0.019 C 
HETATM    4  C10 UNL     1     -29.592 -55.390   8.100  1.00  0.00     0.080 C 
HETATM    5  C11 UNL     1     -29.377 -56.835   8.458  1.00  0.00     0.213 C 
HETATM    6  C12 UNL     1     -30.421 -57.696   7.869  1.00  0.00     0.147 C 
ENDROOT
BRANCH   1   7
HETATM    7  O1  UNL     1     -32.772 -57.614   7.294  1.00  0.00    -0.375 OA
BRANCH   7   8
HETATM    8  C3  UNL     1     -33.821 -57.250   8.129  1.00  0.00     0.121 C 
BRANCH   8   9
HETATM    9  C2  UNL     1     -34.917 -56.525   7.351  1.00  0.00     0.027 C 
HETATM   10  C1  UNL     1     -35.159 -55.143   7.912  1.00  0.00     0.007 C 
ENDBRANCH   8   9
BRANCH   8  11
HETATM   11  C4  UNL     1     -34.420 -58.441   8.831  1.00  0.00     0.027 C 
HETATM   12  C5  UNL     1     -34.232 -59.699   8.013  1.00  0.00     0.007 C 
ENDBRANCH   8  11
ENDBRANCH   7   8
ENDBRANCH   1   7
BRANCH   6  13
HETATM   13  N2  UNL     1     -30.666 -58.934   8.516  1.00  0.00    -0.352 N 
HETATM   14  C13 UNL     1     -30.952 -59.034   9.900  1.00  0.00     0.214 C 
HETATM   15  C14 UNL     1     -31.202 -60.363  10.530  1.00  0.00     0.117 C 
HETATM   16  O4  UNL     1     -30.980 -57.954  10.538  1.00  0.00    -0.274 OA
ATOM     17  H2  UNL     1     -30.635 -59.789   7.960  1.00  0.00     0.163 HD
ENDBRANCH   6  13
BRANCH   3  18
HETATM   18  C9  UNL     1     -29.790 -54.197   5.832  1.00  0.00     0.205 C 
HETATM   19  O2  UNL     1     -29.335 -54.540   4.719  1.00  0.00    -0.644 OA
HETATM   20  O3  UNL     1     -29.852 -52.840   6.164  1.00  0.00    -0.644 OA
ENDBRANCH   3  18
BRANCH   5  21
HETATM   21  N1  UNL     1     -28.030 -57.162   7.951  1.00  0.00    -0.073 N 
ATOM     22  H13 UNL     1     -27.776 -56.656   7.103  1.00  0.00     0.274 HD
ATOM     23  H12 UNL     1     -27.273 -56.805   8.533  1.00  0.00     0.274 HD
ATOM     24  H11 UNL     1     -28.025 -58.176   7.844  1.00  0.00     0.274 HD
ENDBRANCH   5  21
TORSDOF 7
ENDMDL
