MODEL 19
REMARK VINA RESULT: -5.732369651      1.965      4.249
REMARK  7 active torsions:
REMARK  status: ('A' for Active; 'I' for Inactive)
REMARK    1  A    between atoms: C2_2  and  C3_3 
REMARK    2  A    between atoms: C3_3  and  C4_4 
REMARK    3  A    between atoms: C3_3  and  O1_6 
REMARK    4  A    between atoms: O1_6  and  C6_7 
REMARK    5  A    between atoms: C8_9  and  C9_10 
REMARK    6  A    between atoms: C11_14  and  N1_15 
REMARK    7  A    between atoms: C12_19  and  N2_20 
REMARK       I    between atoms: N2_20  and  C13_22 
ROOT
HETATM    1  C6  UNL     1     -32.308 -56.595   7.340  1.00  0.00     0.170 C 
HETATM    2  C7  UNL     1     -31.912 -56.057   6.018  1.00  0.00     0.021 C 
HETATM    3  C8  UNL     1     -30.886 -55.246   6.015  1.00  0.00     0.019 C 
HETATM    4  C10 UNL     1     -30.271 -54.974   7.337  1.00  0.00     0.080 C 
HETATM    5  C11 UNL     1     -30.051 -56.198   8.185  1.00  0.00     0.213 C 
HETATM    6  C12 UNL     1     -31.061 -57.236   7.903  1.00  0.00     0.147 C 
ENDROOT
BRANCH   1   7
HETATM    7  O1  UNL     1     -33.390 -57.419   7.265  1.00  0.00    -0.375 OA
BRANCH   7   8
HETATM    8  C3  UNL     1     -34.344 -57.009   8.188  1.00  0.00     0.121 C 
BRANCH   8   9
HETATM    9  C2  UNL     1     -35.222 -55.898   7.616  1.00  0.00     0.027 C 
HETATM   10  C1  UNL     1     -35.751 -56.273   6.251  1.00  0.00     0.007 C 
ENDBRANCH   8   9
BRANCH   8  11
HETATM   11  C4  UNL     1     -35.222 -58.150   8.633  1.00  0.00     0.027 C 
HETATM   12  C5  UNL     1     -34.624 -59.480   8.228  1.00  0.00     0.007 C 
ENDBRANCH   8  11
ENDBRANCH   7   8
ENDBRANCH   1   7
BRANCH   6  13
HETATM   13  N2  UNL     1     -31.314 -58.176   8.935  1.00  0.00    -0.352 N 
HETATM   14  C13 UNL     1     -30.701 -59.453   8.977  1.00  0.00     0.214 C 
HETATM   15  C14 UNL     1     -31.003 -60.404  10.086  1.00  0.00     0.117 C 
HETATM   16  O4  UNL     1     -29.908 -59.717   8.041  1.00  0.00    -0.274 OA
ATOM     17  H2  UNL     1     -31.964 -57.922   9.678  1.00  0.00     0.163 HD
ENDBRANCH   6  13
BRANCH   3  18
HETATM   18  C9  UNL     1     -30.400 -54.654   4.791  1.00  0.00     0.205 C 
HETATM   19  O2  UNL     1     -29.178 -54.475   4.594  1.00  0.00    -0.644 OA
HETATM   20  O3  UNL     1     -31.320 -54.272   3.810  1.00  0.00    -0.644 OA
ENDBRANCH   3  18
BRANCH   5  21
HETATM   21  N1  UNL     1     -28.682 -56.647   7.865  1.00  0.00    -0.073 N 
ATOM     22  H13 UNL     1     -28.478 -56.667   6.867  1.00  0.00     0.274 HD
ATOM     23  H12 UNL     1     -27.958 -55.976   8.121  1.00  0.00     0.274 HD
ATOM     24  H11 UNL     1     -28.585 -57.553   8.324  1.00  0.00     0.274 HD
ENDBRANCH   5  21
TORSDOF 7
ENDMDL
