MODEL 2
REMARK VINA RESULT: -6.531548761      2.283      5.413
REMARK  7 active torsions:
REMARK  status: ('A' for Active; 'I' for Inactive)
REMARK    1  A    between atoms: C2_2  and  C3_3 
REMARK    2  A    between atoms: C3_3  and  C4_4 
REMARK    3  A    between atoms: C3_3  and  O1_6 
REMARK    4  A    between atoms: O1_6  and  C6_7 
REMARK    5  A    between atoms: C8_9  and  C9_10 
REMARK    6  A    between atoms: C11_14  and  N1_15 
REMARK    7  A    between atoms: C12_19  and  N2_20 
REMARK       I    between atoms: N2_20  and  C13_22 
ROOT
HETATM    1  C6  UNL     1     -31.286 -57.963   7.513  1.00  0.00     0.170 C 
HETATM    2  C7  UNL     1     -31.609 -58.268   8.926  1.00  0.00     0.021 C 
HETATM    3  C8  UNL     1     -30.611 -58.199   9.768  1.00  0.00     0.019 C 
HETATM    4  C10 UNL     1     -29.296 -57.834   9.186  1.00  0.00     0.080 C 
HETATM    5  C11 UNL     1     -29.338 -56.674   8.229  1.00  0.00     0.213 C 
HETATM    6  C12 UNL     1     -30.638 -56.598   7.534  1.00  0.00     0.147 C 
ENDROOT
BRANCH   1   7
HETATM    7  O1  UNL     1     -32.371 -58.069   6.696  1.00  0.00    -0.375 OA
BRANCH   7   8
HETATM    8  C3  UNL     1     -33.529 -57.921   7.449  1.00  0.00     0.121 C 
BRANCH   8   9
HETATM    9  C2  UNL     1     -34.229 -56.603   7.126  1.00  0.00     0.027 C 
HETATM   10  C1  UNL     1     -34.246 -55.688   8.329  1.00  0.00     0.007 C 
ENDBRANCH   8   9
BRANCH   8  11
HETATM   11  C4  UNL     1     -34.493 -59.057   7.226  1.00  0.00     0.027 C 
HETATM   12  C5  UNL     1     -35.162 -59.459   8.521  1.00  0.00     0.007 C 
ENDBRANCH   8  11
ENDBRANCH   7   8
ENDBRANCH   1   7
BRANCH   6  13
HETATM   13  N2  UNL     1     -30.652 -55.937   6.279  1.00  0.00    -0.352 N 
HETATM   14  C13 UNL     1     -31.061 -54.589   6.126  1.00  0.00     0.214 C 
HETATM   15  C14 UNL     1     -31.056 -53.941   4.783  1.00  0.00     0.117 C 
HETATM   16  O4  UNL     1     -31.416 -53.996   7.174  1.00  0.00    -0.274 OA
ATOM     17  H2  UNL     1     -30.355 -56.454   5.452  1.00  0.00     0.163 HD
ENDBRANCH   6  13
BRANCH   3  18
HETATM   18  C9  UNL     1     -30.794 -58.472  11.174  1.00  0.00     0.205 C 
HETATM   19  O2  UNL     1     -30.450 -59.565  11.676  1.00  0.00    -0.644 OA
HETATM   20  O3  UNL     1     -31.369 -57.491  11.987  1.00  0.00    -0.644 OA
ENDBRANCH   3  18
BRANCH   5  21
HETATM   21  N1  UNL     1     -29.077 -55.481   9.057  1.00  0.00    -0.073 N 
ATOM     22  H13 UNL     1     -29.909 -54.928   9.258  1.00  0.00     0.274 HD
ATOM     23  H12 UNL     1     -28.842 -55.696  10.026  1.00  0.00     0.274 HD
ATOM     24  H11 UNL     1     -28.350 -54.967   8.561  1.00  0.00     0.274 HD
ENDBRANCH   5  21
TORSDOF 7
ENDMDL
