MODEL 10
REMARK VINA RESULT: -5.969165408      1.705      4.860
REMARK  7 active torsions:
REMARK  status: ('A' for Active; 'I' for Inactive)
REMARK    1  A    between atoms: C2_2  and  C3_3 
REMARK    2  A    between atoms: C3_3  and  C4_4 
REMARK    3  A    between atoms: C3_3  and  O1_6 
REMARK    4  A    between atoms: O1_6  and  C6_7 
REMARK    5  A    between atoms: C8_9  and  C9_10 
REMARK    6  A    between atoms: C11_14  and  N1_15 
REMARK    7  A    between atoms: C12_19  and  N2_20 
REMARK       I    between atoms: N2_20  and  C13_22 
ROOT
HETATM    1  C6  UNL     1     -32.220 -57.530   8.072  1.00  0.00     0.170 C 
HETATM    2  C7  UNL     1     -33.237 -58.575   7.812  1.00  0.00     0.021 C 
HETATM    3  C8  UNL     1     -34.441 -58.322   8.254  1.00  0.00     0.019 C 
HETATM    4  C10 UNL     1     -34.615 -57.029   8.961  1.00  0.00     0.080 C 
HETATM    5  C11 UNL     1     -33.983 -55.851   8.270  1.00  0.00     0.213 C 
HETATM    6  C12 UNL     1     -32.794 -56.256   7.496  1.00  0.00     0.147 C 
ENDROOT
BRANCH   1   7
HETATM    7  O1  UNL     1     -30.990 -57.870   7.596  1.00  0.00    -0.375 OA
BRANCH   7   8
HETATM    8  C3  UNL     1     -30.145 -58.151   8.663  1.00  0.00     0.121 C 
BRANCH   8   9
HETATM    9  C2  UNL     1     -29.800 -59.638   8.713  1.00  0.00     0.027 C 
HETATM   10  C1  UNL     1     -30.545 -60.331   9.831  1.00  0.00     0.007 C 
ENDBRANCH   8   9
BRANCH   8  11
HETATM   11  C4  UNL     1     -28.870 -57.352   8.596  1.00  0.00     0.027 C 
HETATM   12  C5  UNL     1     -28.759 -56.413   9.776  1.00  0.00     0.007 C 
ENDBRANCH   8  11
ENDBRANCH   7   8
ENDBRANCH   1   7
BRANCH   6  13
HETATM   13  N2  UNL     1     -31.825 -55.252   7.244  1.00  0.00    -0.352 N 
HETATM   14  C13 UNL     1     -31.869 -54.410   6.105  1.00  0.00     0.214 C 
HETATM   15  C14 UNL     1     -30.823 -53.369   5.888  1.00  0.00     0.117 C 
HETATM   16  O4  UNL     1     -32.825 -54.600   5.315  1.00  0.00    -0.274 OA
ATOM     17  H2  UNL     1     -31.064 -55.130   7.912  1.00  0.00     0.163 HD
ENDBRANCH   6  13
BRANCH   3  18
HETATM   18  C9  UNL     1     -35.523 -59.259   8.064  1.00  0.00     0.205 C 
HETATM   19  O2  UNL     1     -35.908 -60.007   8.990  1.00  0.00    -0.644 OA
HETATM   20  O3  UNL     1     -36.150 -59.329   6.816  1.00  0.00    -0.644 OA
ENDBRANCH   3  18
BRANCH   5  21
HETATM   21  N1  UNL     1     -35.046 -55.294   7.411  1.00  0.00    -0.073 N 
ATOM     22  H13 UNL     1     -35.984 -55.602   7.664  1.00  0.00     0.274 HD
ATOM     23  H12 UNL     1     -35.208 -54.297   7.550  1.00  0.00     0.274 HD
ATOM     24  H11 UNL     1     -34.775 -55.539   6.459  1.00  0.00     0.274 HD
ENDBRANCH   5  21
TORSDOF 7
ENDMDL
