MODEL 11
REMARK VINA RESULT: -5.954658251      1.684      4.613
REMARK  7 active torsions:
REMARK  status: ('A' for Active; 'I' for Inactive)
REMARK    1  A    between atoms: C2_2  and  C3_3 
REMARK    2  A    between atoms: C3_3  and  C4_4 
REMARK    3  A    between atoms: C3_3  and  O1_6 
REMARK    4  A    between atoms: O1_6  and  C6_7 
REMARK    5  A    between atoms: C8_9  and  C9_10 
REMARK    6  A    between atoms: C11_14  and  N1_15 
REMARK    7  A    between atoms: C12_19  and  N2_20 
REMARK       I    between atoms: N2_20  and  C13_22 
ROOT
HETATM    1  C6  UNL     1     -31.912 -57.516   8.075  1.00  0.00     0.170 C 
HETATM    2  C7  UNL     1     -32.978 -58.513   7.822  1.00  0.00     0.021 C 
HETATM    3  C8  UNL     1     -34.136 -58.265   8.378  1.00  0.00     0.019 C 
HETATM    4  C10 UNL     1     -34.213 -57.025   9.189  1.00  0.00     0.080 C 
HETATM    5  C11 UNL     1     -33.603 -55.814   8.537  1.00  0.00     0.213 C 
HETATM    6  C12 UNL     1     -32.491 -56.189   7.642  1.00  0.00     0.147 C 
ENDROOT
BRANCH   1   7
HETATM    7  O1  UNL     1     -30.735 -57.849   7.477  1.00  0.00    -0.375 OA
BRANCH   7   8
HETATM    8  C3  UNL     1     -29.827 -58.258   8.446  1.00  0.00     0.121 C 
BRANCH   8   9
HETATM    9  C2  UNL     1     -30.032 -57.490   9.750  1.00  0.00     0.027 C 
HETATM   10  C1  UNL     1     -28.875 -56.557  10.019  1.00  0.00     0.007 C 
ENDBRANCH   8   9
BRANCH   8  11
HETATM   11  C4  UNL     1     -29.929 -59.735   8.723  1.00  0.00     0.027 C 
HETATM   12  C5  UNL     1     -30.219 -59.991  10.186  1.00  0.00     0.007 C 
ENDBRANCH   8  11
ENDBRANCH   7   8
ENDBRANCH   1   7
BRANCH   6  13
HETATM   13  N2  UNL     1     -31.514 -55.192   7.387  1.00  0.00    -0.352 N 
HETATM   14  C13 UNL     1     -31.585 -54.314   6.277  1.00  0.00     0.214 C 
HETATM   15  C14 UNL     1     -30.530 -53.283   6.056  1.00  0.00     0.117 C 
HETATM   16  O4  UNL     1     -32.572 -54.462   5.517  1.00  0.00    -0.274 OA
ATOM     17  H2  UNL     1     -30.728 -55.104   8.030  1.00  0.00     0.163 HD
ENDBRANCH   6  13
BRANCH   3  18
HETATM   18  C9  UNL     1     -35.258 -59.157   8.208  1.00  0.00     0.205 C 
HETATM   19  O2  UNL     1     -35.579 -59.976   9.096  1.00  0.00    -0.644 OA
HETATM   20  O3  UNL     1     -35.996 -59.102   7.021  1.00  0.00    -0.644 OA
ENDBRANCH   3  18
BRANCH   5  21
HETATM   21  N1  UNL     1     -34.712 -55.167   7.810  1.00  0.00    -0.073 N 
ATOM     22  H13 UNL     1     -35.605 -55.650   7.908  1.00  0.00     0.274 HD
ATOM     23  H12 UNL     1     -35.012 -54.282   8.219  1.00  0.00     0.274 HD
ATOM     24  H11 UNL     1     -34.389 -55.088   6.847  1.00  0.00     0.274 HD
ENDBRANCH   5  21
TORSDOF 7
ENDMDL
