MODEL 1
REMARK VINA RESULT: -6.063705460      0.000      0.000
REMARK  12 active torsions:
REMARK  status: ('A' for Active; 'I' for Inactive)
REMARK    1  A    between atoms: C2_2  and  C3_3 
REMARK    2  A    between atoms: C3_3  and  N1_4 
REMARK    3  A    between atoms: C3_3  and  C4_8 
REMARK    4  A    between atoms: C4_8  and  O1_9 
REMARK    5  A    between atoms: C4_8  and  N2_11 
REMARK    6  A    between atoms: N2_11  and  C5_13 
REMARK    7  A    between atoms: C10_20  and  C11_21 
REMARK       I    between atoms: C11_21  and  N4_23 
REMARK    8  A    between atoms: N4_23  and  C12_25 
REMARK    9  A    between atoms: C12_25  and  C13_26 
REMARK   10  A    between atoms: C12_25  and  C19_32 
REMARK   11  A    between atoms: C27_40  and  C28_41 
REMARK   12  A    between atoms: C28_41  and  N5_42 
ROOT
HETATM    1  C5  UNL     1     -19.744  10.052  41.406  1.00  0.00     0.181 C 
HETATM    2  C6  UNL     1     -19.702   8.877  42.372  1.00  0.00     0.244 C 
HETATM    3  O2  UNL     1     -20.623   8.033  42.284  1.00  0.00    -0.271 OA
HETATM    4  N3  UNL     1     -18.708   8.657  43.365  1.00  0.00    -0.332 N 
HETATM    5  C7  UNL     1     -17.286   8.849  43.319  1.00  0.00     0.088 C 
HETATM    6  C8  UNL     1     -16.703   8.123  44.510  1.00  0.00     0.028 C 
HETATM    7  C9  UNL     1     -17.870   7.440  45.134  1.00  0.00     0.037 C 
HETATM    8  C10 UNL     1     -19.107   8.122  44.676  1.00  0.00     0.179 C 
HETATM    9  C25 UNL     1     -16.911  10.272  43.283  1.00  0.00     0.026 C 
HETATM   10  C26 UNL     1     -17.742  11.142  42.401  1.00  0.00     0.011 C 
HETATM   11  C27 UNL     1     -18.336  10.469  41.182  1.00  0.00     0.043 C 
ENDROOT
BRANCH   8  12
HETATM   12  C11 UNL     1     -19.674   9.135  45.548  1.00  0.00     0.241 C 
HETATM   13  O3  UNL     1     -19.314  10.330  45.433  1.00  0.00    -0.271 OA
HETATM   14  N4  UNL     1     -20.633   8.774  46.524  1.00  0.00    -0.347 N 
ATOM     15  H4  UNL     1     -20.898   7.791  46.593  1.00  0.00     0.163 HD
BRANCH  14  16
HETATM   16  C12 UNL     1     -21.264   9.714  47.433  1.00  0.00     0.151 C 
BRANCH  16  17
HETATM   17  C13 UNL     1     -20.443   9.728  48.658  1.00  0.00    -0.031 A 
HETATM   18  C14 UNL     1     -20.664  10.656  49.646  1.00  0.00     0.009 A 
HETATM   19  C15 UNL     1     -19.889  10.663  50.817  1.00  0.00     0.001 A 
HETATM   20  C16 UNL     1     -18.896   9.748  50.997  1.00  0.00     0.000 A 
HETATM   21  C17 UNL     1     -18.673   8.815  50.005  1.00  0.00     0.001 A 
HETATM   22  C18 UNL     1     -19.431   8.806  48.861  1.00  0.00     0.009 A 
ENDBRANCH  16  17
BRANCH  16  23
HETATM   23  C19 UNL     1     -22.626   9.279  47.808  1.00  0.00    -0.031 A 
HETATM   24  C20 UNL     1     -23.743  10.068  47.677  1.00  0.00     0.009 A 
HETATM   25  C21 UNL     1     -24.986   9.579  48.055  1.00  0.00     0.001 A 
HETATM   26  C22 UNL     1     -25.134   8.310  48.567  1.00  0.00     0.000 A 
HETATM   27  C23 UNL     1     -24.026   7.521  48.700  1.00  0.00     0.001 A 
HETATM   28  C24 UNL     1     -22.791   8.016  48.320  1.00  0.00     0.009 A 
ENDBRANCH  16  23
ENDBRANCH  14  16
ENDBRANCH   8  12
BRANCH   1  29
HETATM   29  N2  UNL     1     -20.581  11.091  41.939  1.00  0.00    -0.359 N 
ATOM     30  H2  UNL     1     -20.256  12.045  41.783  1.00  0.00     0.162 HD
BRANCH  29  31
HETATM   31  C4  UNL     1     -21.778  10.969  42.642  1.00  0.00     0.143 C 
BRANCH  31  32
HETATM   32  C3  UNL     1     -22.089  11.461  43.978  1.00  0.00     0.256 C 
BRANCH  32  33
HETATM   33  C2  UNL     1     -23.465  11.826  44.341  1.00  0.00     0.037 C 
HETATM   34  C1  UNL     1     -23.911  13.236  44.230  1.00  0.00     0.007 C 
ENDBRANCH  32  33
BRANCH  32  35
HETATM   35  N1  UNL     1     -21.179  12.611  44.229  1.00  0.00    -0.068 N 
ATOM     36  H13 UNL     1     -20.228  12.309  44.439  1.00  0.00     0.275 HD
ATOM     37  H12 UNL     1     -20.983  13.136  43.377  1.00  0.00     0.275 HD
ATOM     38  H11 UNL     1     -21.565  13.204  44.964  1.00  0.00     0.275 HD
ENDBRANCH  32  35
ENDBRANCH  31  32
BRANCH  31  39
HETATM   39  O1  UNL     1     -22.702  10.323  41.977  1.00  0.00    -0.348 OA
ATOM     40  H1  UNL     1     -22.437   9.649  41.363  1.00  0.00     0.219 HD
ENDBRANCH  31  39
ENDBRANCH  29  31
ENDBRANCH   1  29
BRANCH  11  41
HETATM   41  C28 UNL     1     -18.156  11.352  39.971  1.00  0.00     0.236 C 
BRANCH  41  42
HETATM   42  N5  UNL     1     -17.801  12.692  40.337  1.00  0.00    -0.079 N 
ATOM     43  H53 UNL     1     -16.921  12.715  40.852  1.00  0.00     0.274 HD
ATOM     44  H52 UNL     1     -17.524  13.238  39.521  1.00  0.00     0.274 HD
ATOM     45  H51 UNL     1     -18.548  13.152  40.857  1.00  0.00     0.274 HD
ENDBRANCH  41  42
ENDBRANCH  11  41
TORSDOF 12
ENDMDL
