MODEL 3
REMARK VINA RESULT: -5.770464926      3.650      8.140
REMARK  12 active torsions:
REMARK  status: ('A' for Active; 'I' for Inactive)
REMARK    1  A    between atoms: C2_2  and  C3_3 
REMARK    2  A    between atoms: C3_3  and  N1_4 
REMARK    3  A    between atoms: C3_3  and  C4_8 
REMARK    4  A    between atoms: C4_8  and  O1_9 
REMARK    5  A    between atoms: C4_8  and  N2_11 
REMARK    6  A    between atoms: N2_11  and  C5_13 
REMARK    7  A    between atoms: C10_20  and  C11_21 
REMARK       I    between atoms: C11_21  and  N4_23 
REMARK    8  A    between atoms: N4_23  and  C12_25 
REMARK    9  A    between atoms: C12_25  and  C13_26 
REMARK   10  A    between atoms: C12_25  and  C19_32 
REMARK   11  A    between atoms: C27_40  and  C28_41 
REMARK   12  A    between atoms: C28_41  and  N5_42 
ROOT
HETATM    1  C5  UNL     1     -24.046   7.504  50.977  1.00  0.00     0.181 C 
HETATM    2  C6  UNL     1     -23.514   8.926  50.873  1.00  0.00     0.244 C 
HETATM    3  O2  UNL     1     -24.292   9.851  51.203  1.00  0.00    -0.271 OA
HETATM    4  N3  UNL     1     -22.213   9.293  50.434  1.00  0.00    -0.332 N 
HETATM    5  C7  UNL     1     -20.937   8.687  50.690  1.00  0.00     0.088 C 
HETATM    6  C8  UNL     1     -19.882   9.689  50.281  1.00  0.00     0.028 C 
HETATM    7  C9  UNL     1     -20.653  10.903  49.896  1.00  0.00     0.037 C 
HETATM    8  C10 UNL     1     -22.047  10.491  49.597  1.00  0.00     0.179 C 
HETATM    9  C25 UNL     1     -20.783   7.390  50.010  1.00  0.00     0.026 C 
HETATM   10  C26 UNL     1     -21.976   6.496  50.035  1.00  0.00     0.011 C 
HETATM   11  C27 UNL     1     -22.874   6.630  51.245  1.00  0.00     0.043 C 
ENDROOT
BRANCH   8  12
HETATM   12  C11 UNL     1     -22.390  10.257  48.204  1.00  0.00     0.241 C 
HETATM   13  O3  UNL     1     -23.342   9.494  47.916  1.00  0.00    -0.271 OA
HETATM   14  N4  UNL     1     -21.652  10.890  47.176  1.00  0.00    -0.347 N 
ATOM     15  H4  UNL     1     -20.880  11.500  47.448  1.00  0.00     0.163 HD
BRANCH  14  16
HETATM   16  C12 UNL     1     -21.923  10.728  45.760  1.00  0.00     0.151 C 
BRANCH  16  17
HETATM   17  C13 UNL     1     -20.626  10.842  45.068  1.00  0.00    -0.031 A 
HETATM   18  C14 UNL     1     -19.503  11.263  45.737  1.00  0.00     0.009 A 
HETATM   19  C15 UNL     1     -18.267  11.363  45.080  1.00  0.00     0.001 A 
HETATM   20  C16 UNL     1     -18.155  11.045  43.760  1.00  0.00     0.000 A 
HETATM   21  C17 UNL     1     -19.282  10.621  43.087  1.00  0.00     0.001 A 
HETATM   22  C18 UNL     1     -20.491  10.522  43.728  1.00  0.00     0.009 A 
ENDBRANCH  16  17
BRANCH  16  23
HETATM   23  C19 UNL     1     -22.803  11.799  45.247  1.00  0.00    -0.031 A 
HETATM   24  C20 UNL     1     -22.443  13.124  45.196  1.00  0.00     0.009 A 
HETATM   25  C21 UNL     1     -23.333  14.067  44.699  1.00  0.00     0.001 A 
HETATM   26  C22 UNL     1     -24.584  13.708  44.250  1.00  0.00     0.000 A 
HETATM   27  C23 UNL     1     -24.947  12.391  44.298  1.00  0.00     0.001 A 
HETATM   28  C24 UNL     1     -24.054  11.459  44.795  1.00  0.00     0.009 A 
ENDBRANCH  16  23
ENDBRANCH  14  16
ENDBRANCH   8  12
BRANCH   1  29
HETATM   29  N2  UNL     1     -24.762   7.163  49.778  1.00  0.00    -0.359 N 
ATOM     30  H2  UNL     1     -24.188   6.865  48.989  1.00  0.00     0.162 HD
BRANCH  29  31
HETATM   31  C4  UNL     1     -26.137   7.185  49.550  1.00  0.00     0.143 C 
BRANCH  31  32
HETATM   32  C3  UNL     1     -27.175   6.438  50.248  1.00  0.00     0.256 C 
BRANCH  32  33
HETATM   33  C2  UNL     1     -27.792   5.256  49.631  1.00  0.00     0.037 C 
HETATM   34  C1  UNL     1     -27.176   4.643  48.429  1.00  0.00     0.007 C 
ENDBRANCH  32  33
BRANCH  32  35
HETATM   35  N1  UNL     1     -28.228   7.422  50.618  1.00  0.00    -0.068 N 
ATOM     36  H13 UNL     1     -28.861   7.615  49.842  1.00  0.00     0.275 HD
ATOM     37  H12 UNL     1     -28.907   7.029  51.269  1.00  0.00     0.275 HD
ATOM     38  H11 UNL     1     -27.796   8.272  50.981  1.00  0.00     0.275 HD
ENDBRANCH  32  35
ENDBRANCH  31  32
BRANCH  31  39
HETATM   39  O1  UNL     1     -26.485   7.989  48.577  1.00  0.00    -0.348 OA
ATOM     40  H1  UNL     1     -25.912   8.071  47.824  1.00  0.00     0.219 HD
ENDBRANCH  31  39
ENDBRANCH  29  31
ENDBRANCH   1  29
BRANCH  11  41
HETATM   41  C28 UNL     1     -23.251   5.261  51.759  1.00  0.00     0.236 C 
BRANCH  41  42
HETATM   42  N5  UNL     1     -24.280   5.331  52.754  1.00  0.00    -0.079 N 
ATOM     43  H53 UNL     1     -24.155   6.142  53.361  1.00  0.00     0.274 HD
ATOM     44  H52 UNL     1     -25.180   5.577  52.342  1.00  0.00     0.274 HD
ATOM     45  H51 UNL     1     -24.341   4.469  53.296  1.00  0.00     0.274 HD
ENDBRANCH  41  42
ENDBRANCH  11  41
TORSDOF 12
ENDMDL
