MODEL 2
REMARK VINA RESULT: -6.030295872      9.929     13.059
REMARK  12 active torsions:
REMARK  status: ('A' for Active; 'I' for Inactive)
REMARK    1  A    between atoms: C2_2  and  C3_3 
REMARK    2  A    between atoms: C3_3  and  N1_4 
REMARK    3  A    between atoms: C3_3  and  C4_8 
REMARK    4  A    between atoms: C4_8  and  O1_9 
REMARK    5  A    between atoms: C4_8  and  N2_11 
REMARK    6  A    between atoms: N2_11  and  C5_13 
REMARK    7  A    between atoms: C10_20  and  C11_21 
REMARK       I    between atoms: C11_21  and  N4_23 
REMARK    8  A    between atoms: N4_23  and  C12_25 
REMARK    9  A    between atoms: C12_25  and  C13_26 
REMARK   10  A    between atoms: C12_25  and  C19_32 
REMARK   11  A    between atoms: C27_40  and  C28_41 
REMARK   12  A    between atoms: C28_41  and  N5_42 
ROOT
HETATM    1  C5  UNL     1     -29.063   5.558  51.071  1.00  0.00     0.181 C 
HETATM    2  C6  UNL     1     -29.253   5.303  52.559  1.00  0.00     0.244 C 
HETATM    3  O2  UNL     1     -30.121   4.462  52.887  1.00  0.00    -0.271 OA
HETATM    4  N3  UNL     1     -28.529   5.936  53.606  1.00  0.00    -0.332 N 
HETATM    5  C7  UNL     1     -27.139   6.284  53.702  1.00  0.00     0.088 C 
HETATM    6  C8  UNL     1     -26.861   6.596  55.154  1.00  0.00     0.028 C 
HETATM    7  C9  UNL     1     -28.142   6.294  55.850  1.00  0.00     0.037 C 
HETATM    8  C10 UNL     1     -29.233   6.309  54.843  1.00  0.00     0.179 C 
HETATM    9  C25 UNL     1     -26.773   7.390  52.802  1.00  0.00     0.026 C 
HETATM   10  C26 UNL     1     -27.368   7.342  51.435  1.00  0.00     0.011 C 
HETATM   11  C27 UNL     1     -27.644   5.959  50.885  1.00  0.00     0.043 C 
ENDROOT
BRANCH   8  12
HETATM   12  C11 UNL     1     -29.999   7.536  54.707  1.00  0.00     0.241 C 
HETATM   13  O3  UNL     1     -31.151   7.500  54.215  1.00  0.00    -0.271 OA
HETATM   14  N4  UNL     1     -29.446   8.767  55.131  1.00  0.00    -0.347 N 
ATOM     15  H4  UNL     1     -28.504   8.759  55.522  1.00  0.00     0.163 HD
BRANCH  14  16
HETATM   16  C12 UNL     1     -30.136  10.042  55.047  1.00  0.00     0.151 C 
BRANCH  16  17
HETATM   17  C13 UNL     1     -29.301  10.916  54.203  1.00  0.00    -0.031 A 
HETATM   18  C14 UNL     1     -29.774  12.123  53.750  1.00  0.00     0.009 A 
HETATM   19  C15 UNL     1     -28.975  12.959  52.954  1.00  0.00     0.001 A 
HETATM   20  C16 UNL     1     -27.710  12.588  52.611  1.00  0.00     0.000 A 
HETATM   21  C17 UNL     1     -27.234  11.375  53.065  1.00  0.00     0.001 A 
HETATM   22  C18 UNL     1     -28.013  10.558  53.844  1.00  0.00     0.009 A 
ENDBRANCH  16  17
BRANCH  16  23
HETATM   23  C19 UNL     1     -30.262  10.683  56.372  1.00  0.00    -0.031 A 
HETATM   24  C20 UNL     1     -29.189  11.079  57.134  1.00  0.00     0.009 A 
HETATM   25  C21 UNL     1     -29.399  11.674  58.371  1.00  0.00     0.001 A 
HETATM   26  C22 UNL     1     -30.667  11.880  58.865  1.00  0.00     0.000 A 
HETATM   27  C23 UNL     1     -31.738  11.488  58.111  1.00  0.00     0.001 A 
HETATM   28  C24 UNL     1     -31.520  10.896  56.879  1.00  0.00     0.009 A 
ENDBRANCH  16  23
ENDBRANCH  14  16
ENDBRANCH   8  12
BRANCH   1  29
HETATM   29  N2  UNL     1     -30.009   6.544  50.621  1.00  0.00    -0.359 N 
ATOM     30  H2  UNL     1     -29.617   7.327  50.099  1.00  0.00     0.162 HD
BRANCH  29  31
HETATM   31  C4  UNL     1     -31.390   6.570  50.805  1.00  0.00     0.143 C 
BRANCH  31  32
HETATM   32  C3  UNL     1     -32.361   5.539  50.462  1.00  0.00     0.256 C 
BRANCH  32  33
HETATM   33  C2  UNL     1     -33.515   5.850  49.607  1.00  0.00     0.037 C 
HETATM   34  C1  UNL     1     -33.922   4.904  48.541  1.00  0.00     0.007 C 
ENDBRANCH  32  33
BRANCH  32  35
HETATM   35  N1  UNL     1     -32.829   4.954  51.748  1.00  0.00    -0.068 N 
ATOM     36  H13 UNL     1     -33.095   5.672  52.421  1.00  0.00     0.275 HD
ATOM     37  H12 UNL     1     -33.734   4.496  51.653  1.00  0.00     0.275 HD
ATOM     38  H11 UNL     1     -32.118   4.324  52.121  1.00  0.00     0.275 HD
ENDBRANCH  32  35
ENDBRANCH  31  32
BRANCH  31  39
HETATM   39  O1  UNL     1     -31.816   7.681  51.352  1.00  0.00    -0.348 OA
ATOM     40  H1  UNL     1     -32.136   7.656  52.246  1.00  0.00     0.219 HD
ENDBRANCH  31  39
ENDBRANCH  29  31
ENDBRANCH   1  29
BRANCH  11  41
HETATM   41  C28 UNL     1     -27.179   5.875  49.452  1.00  0.00     0.236 C 
BRANCH  41  42
HETATM   42  N5  UNL     1     -26.779   7.155  48.946  1.00  0.00    -0.079 N 
ATOM     43  H53 UNL     1     -26.500   7.097  47.967  1.00  0.00     0.274 HD
ATOM     44  H52 UNL     1     -27.578   7.782  48.849  1.00  0.00     0.274 HD
ATOM     45  H51 UNL     1     -26.045   7.575  49.517  1.00  0.00     0.274 HD
ENDBRANCH  41  42
ENDBRANCH  11  41
TORSDOF 12
ENDMDL
