MODEL 7
REMARK VINA RESULT: -9.448194675      2.378      4.466
REMARK  10 active torsions:
REMARK  status: ('A' for Active; 'I' for Inactive)
REMARK    1  A    between atoms: C2_2  and  C5_5 
REMARK    2  A    between atoms: C5_5  and  O1_6 
REMARK    3  A    between atoms: C5_5  and  C6_8 
REMARK       I    between atoms: C6_8  and  N1_10 
REMARK    4  A    between atoms: N1_10  and  S1_12 
REMARK    5  A    between atoms: S1_12  and  O5_15 
REMARK    6  A    between atoms: O5_15  and  C7_16 
REMARK    7  A    between atoms: C7_16  and  C8_17 
REMARK    8  A    between atoms: C9_19  and  N2_20 
REMARK    9  A    between atoms: C15_33  and  O7_34 
REMARK   10  A    between atoms: C16_36  and  O8_37 
ROOT
HETATM    1  C8  UNL     1      12.963  10.262   2.399  1.00  0.00     0.180 C 
HETATM    2  O6  UNL     1      13.036  10.663   1.093  1.00  0.00    -0.353 OA
HETATM    3  C9  UNL     1      12.986   9.522   0.307  1.00  0.00     0.262 C 
HETATM    4  C15 UNL     1      13.916   8.595   1.097  1.00  0.00     0.198 C 
HETATM    5  C16 UNL     1      13.256   8.777   2.474  1.00  0.00     0.182 C 
ENDROOT
BRANCH   1   6
HETATM    6  C7  UNL     1      13.954  10.952   3.313  1.00  0.00     0.226 C 
BRANCH   6   7
HETATM    7  O5  UNL     1      15.114  11.229   2.615  1.00  0.00    -0.257 OA
BRANCH   7   8
HETATM    8  S1  UNL     1      16.427  11.588   3.555  1.00  0.00     0.364 S 
HETATM    9  O3  UNL     1      16.652  13.076   3.592  1.00  0.00    -0.175 OA
HETATM   10  O4  UNL     1      17.681  10.962   2.987  1.00  0.00    -0.175 OA
BRANCH   8  11
HETATM   11  N1  UNL     1      16.257  11.060   5.205  1.00  0.00    -0.229 N 
HETATM   12  C6  UNL     1      16.174   9.701   5.570  1.00  0.00     0.262 C 
HETATM   13  O2  UNL     1      16.237   8.853   4.623  1.00  0.00    -0.270 OA
ATOM     14  H1  UNL     1      16.217  11.765   5.940  1.00  0.00     0.183 HD
BRANCH  12  15
HETATM   15  C5  UNL     1      16.023   9.187   6.936  1.00  0.00     0.218 C 
BRANCH  15  16
HETATM   16  C2  UNL     1      14.558   9.106   7.348  1.00  0.00    -0.017 C 
HETATM   17  C1  UNL     1      14.474   8.150   8.541  1.00  0.00     0.017 C 
HETATM   18  C3  UNL     1      13.722   8.564   6.212  1.00  0.00     0.017 C 
HETATM   19  C4  UNL     1      14.052  10.447   7.776  1.00  0.00     0.017 C 
ENDBRANCH  15  16
BRANCH  15  20
HETATM   20  O1  UNL     1      16.571   7.888   7.028  1.00  0.00    -0.385 OA
ATOM     21  H1  UNL     1      15.881   7.300   7.314  1.00  0.00     0.210 HD
ENDBRANCH  15  20
ENDBRANCH  12  15
ENDBRANCH   8  11
ENDBRANCH   7   8
ENDBRANCH   6   7
ENDBRANCH   1   6
BRANCH   5  22
HETATM   22  O8  UNL     1      12.039   8.120   2.429  1.00  0.00    -0.390 OA
ATOM     23  H8  UNL     1      11.514   8.549   1.764  1.00  0.00     0.210 HD
ENDBRANCH   5  22
BRANCH   3  24
HETATM   24  N2  UNL     1      13.405   9.692  -1.042  1.00  0.00    -0.297 N 
HETATM   25  C10 UNL     1      12.611   9.471  -2.114  1.00  0.00     0.188 A 
HETATM   26  N3  UNL     1      13.257   9.707  -3.255  1.00  0.00    -0.346 N 
HETATM   27  C11 UNL     1      14.499  10.089  -2.911  1.00  0.00     0.119 A 
ATOM     28  H3  UNL     1      12.883   9.617  -4.199  1.00  0.00     0.167 HD
HETATM   29  C12 UNL     1      15.585  10.453  -3.716  1.00  0.00     0.148 A 
HETATM   30  C14 UNL     1      14.588  10.079  -1.542  1.00  0.00     0.142 A 
HETATM   31  N4  UNL     1      15.416  10.438  -5.119  1.00  0.00    -0.080 NA
HETATM   32  N5  UNL     1      16.717  10.792  -3.098  1.00  0.00    -0.339 N 
HETATM   33  C13 UNL     1      16.804  10.783  -1.746  1.00  0.00     0.183 A 
ATOM     34  H5  UNL     1      17.530  11.062  -3.652  1.00  0.00     0.167 HD
HETATM   35  N6  UNL     1      15.740  10.426  -0.970  1.00  0.00    -0.336 N 
ATOM     36  H6  UNL     1      15.827  10.426   0.046  1.00  0.00     0.168 HD
ENDBRANCH   3  24
BRANCH   4  37
HETATM   37  O7  UNL     1      13.868   7.294   0.673  1.00  0.00    -0.388 OA
ATOM     38  H7  UNL     1      13.377   6.728   1.256  1.00  0.00     0.210 HD
ENDBRANCH   4  37
TORSDOF 10
ENDMDL
