MODEL 11
REMARK VINA RESULT: -9.337786727      1.756      2.759
REMARK  10 active torsions:
REMARK  status: ('A' for Active; 'I' for Inactive)
REMARK    1  A    between atoms: C2_2  and  C5_5 
REMARK    2  A    between atoms: C5_5  and  O1_6 
REMARK    3  A    between atoms: C5_5  and  C6_8 
REMARK       I    between atoms: C6_8  and  N1_10 
REMARK    4  A    between atoms: N1_10  and  S1_12 
REMARK    5  A    between atoms: S1_12  and  O5_15 
REMARK    6  A    between atoms: O5_15  and  C7_16 
REMARK    7  A    between atoms: C7_16  and  C8_17 
REMARK    8  A    between atoms: C9_19  and  N2_20 
REMARK    9  A    between atoms: C15_33  and  O7_34 
REMARK   10  A    between atoms: C16_36  and  O8_37 
ROOT
HETATM    1  C8  UNL     1      14.456  10.648   3.445  1.00  0.00     0.180 C 
HETATM    2  O6  UNL     1      14.463  11.024   2.130  1.00  0.00    -0.353 OA
HETATM    3  C9  UNL     1      13.703  10.097   1.432  1.00  0.00     0.262 C 
HETATM    4  C15 UNL     1      14.185   8.794   2.078  1.00  0.00     0.198 C 
HETATM    5  C16 UNL     1      13.983   9.212   3.545  1.00  0.00     0.182 C 
ENDROOT
BRANCH   1   6
HETATM    6  C7  UNL     1      15.814  10.711   4.112  1.00  0.00     0.226 C 
BRANCH   6   7
HETATM    7  O5  UNL     1      16.697   9.883   3.446  1.00  0.00    -0.257 OA
BRANCH   7   8
HETATM    8  S1  UNL     1      17.997  10.648   2.766  1.00  0.00     0.364 S 
HETATM    9  O3  UNL     1      18.929  11.145   3.837  1.00  0.00    -0.175 OA
HETATM   10  O4  UNL     1      17.553  11.852   1.968  1.00  0.00    -0.175 OA
BRANCH   8  11
HETATM   11  N1  UNL     1      18.931   9.617   1.720  1.00  0.00    -0.229 N 
HETATM   12  C6  UNL     1      19.920  10.108   0.844  1.00  0.00     0.262 C 
HETATM   13  O2  UNL     1      20.116  11.366   0.854  1.00  0.00    -0.270 OA
ATOM     14  H1  UNL     1      18.755   8.613   1.741  1.00  0.00     0.183 HD
BRANCH  12  15
HETATM   15  C5  UNL     1      20.737   9.300  -0.068  1.00  0.00     0.218 C 
BRANCH  15  16
HETATM   16  C2  UNL     1      22.004   8.794   0.611  1.00  0.00    -0.017 C 
HETATM   17  C1  UNL     1      23.124   8.832  -0.433  1.00  0.00     0.017 C 
HETATM   18  C3  UNL     1      21.814   7.374   1.090  1.00  0.00     0.017 C 
HETATM   19  C4  UNL     1      22.387   9.684   1.751  1.00  0.00     0.017 C 
ENDBRANCH  15  16
BRANCH  15  20
HETATM   20  O1  UNL     1      20.003   8.174  -0.508  1.00  0.00    -0.385 OA
ATOM     21  H1  UNL     1      19.126   8.467  -0.729  1.00  0.00     0.210 HD
ENDBRANCH  15  20
ENDBRANCH  12  15
ENDBRANCH   8  11
ENDBRANCH   7   8
ENDBRANCH   6   7
ENDBRANCH   1   6
BRANCH   5  22
HETATM   22  O8  UNL     1      12.618   9.248   3.770  1.00  0.00    -0.390 OA
ATOM     23  H8  UNL     1      12.230   8.563   3.240  1.00  0.00     0.210 HD
ENDBRANCH   5  22
BRANCH   3  24
HETATM   24  N2  UNL     1      13.880  10.102   0.020  1.00  0.00    -0.297 N 
HETATM   25  C10 UNL     1      12.895   9.836  -0.866  1.00  0.00     0.188 A 
HETATM   26  N3  UNL     1      13.336   9.911  -2.121  1.00  0.00    -0.346 N 
HETATM   27  C11 UNL     1      14.639  10.233  -2.042  1.00  0.00     0.119 A 
ATOM     28  H3  UNL     1      12.794   9.755  -2.971  1.00  0.00     0.167 HD
HETATM   29  C12 UNL     1      15.580  10.436  -3.059  1.00  0.00     0.148 A 
HETATM   30  C14 UNL     1      14.973  10.352  -0.717  1.00  0.00     0.142 A 
HETATM   31  N4  UNL     1      15.160  10.295  -4.401  1.00  0.00    -0.080 NA
HETATM   32  N5  UNL     1      16.821  10.750  -2.688  1.00  0.00    -0.339 N 
HETATM   33  C13 UNL     1      17.150  10.868  -1.380  1.00  0.00     0.183 A 
ATOM     34  H5  UNL     1      17.535  10.905  -3.401  1.00  0.00     0.167 HD
HETATM   35  N6  UNL     1      16.226  10.668  -0.396  1.00  0.00    -0.336 N 
ATOM     36  H6  UNL     1      16.495  10.761   0.584  1.00  0.00     0.168 HD
ENDBRANCH   3  24
BRANCH   4  37
HETATM   37  O7  UNL     1      13.418   7.711   1.744  1.00  0.00    -0.388 OA
ATOM     38  H7  UNL     1      13.609   6.940   2.266  1.00  0.00     0.210 HD
ENDBRANCH   4  37
TORSDOF 10
ENDMDL
