MODEL 16
REMARK VINA RESULT: -9.218769059      3.171      5.189
REMARK  10 active torsions:
REMARK  status: ('A' for Active; 'I' for Inactive)
REMARK    1  A    between atoms: C2_2  and  C5_5 
REMARK    2  A    between atoms: C5_5  and  O1_6 
REMARK    3  A    between atoms: C5_5  and  C6_8 
REMARK       I    between atoms: C6_8  and  N1_10 
REMARK    4  A    between atoms: N1_10  and  S1_12 
REMARK    5  A    between atoms: S1_12  and  O5_15 
REMARK    6  A    between atoms: O5_15  and  C7_16 
REMARK    7  A    between atoms: C7_16  and  C8_17 
REMARK    8  A    between atoms: C9_19  and  N2_20 
REMARK    9  A    between atoms: C15_33  and  O7_34 
REMARK   10  A    between atoms: C16_36  and  O8_37 
ROOT
HETATM    1  C8  UNL     1      13.338  10.185   2.120  1.00  0.00     0.180 C 
HETATM    2  O6  UNL     1      13.645  10.701   0.891  1.00  0.00    -0.353 OA
HETATM    3  C9  UNL     1      13.558   9.664  -0.025  1.00  0.00     0.262 C 
HETATM    4  C15 UNL     1      14.241   8.538   0.759  1.00  0.00     0.198 C 
HETATM    5  C16 UNL     1      13.423   8.674   2.054  1.00  0.00     0.182 C 
ENDROOT
BRANCH   1   6
HETATM    6  C7  UNL     1      14.271  10.631   3.226  1.00  0.00     0.226 C 
BRANCH   6   7
HETATM    7  O5  UNL     1      14.556   9.561   4.052  1.00  0.00    -0.257 OA
BRANCH   7   8
HETATM    8  S1  UNL     1      16.096   9.535   4.658  1.00  0.00     0.364 S 
HETATM    9  O3  UNL     1      16.906  10.660   4.073  1.00  0.00    -0.175 OA
HETATM   10  O4  UNL     1      16.795   8.246   4.291  1.00  0.00    -0.175 OA
BRANCH   8  11
HETATM   11  N1  UNL     1      16.158   9.712   6.388  1.00  0.00    -0.229 N 
HETATM   12  C6  UNL     1      15.307   9.005   7.262  1.00  0.00     0.262 C 
HETATM   13  O2  UNL     1      14.476   8.205   6.724  1.00  0.00    -0.270 OA
ATOM     14  H1  UNL     1      16.840  10.356   6.788  1.00  0.00     0.183 HD
BRANCH  12  15
HETATM   15  C5  UNL     1      15.300   9.111   8.726  1.00  0.00     0.218 C 
BRANCH  15  16
HETATM   16  C2  UNL     1      14.206  10.052   9.216  1.00  0.00    -0.017 C 
HETATM   17  C1  UNL     1      14.809  10.906  10.334  1.00  0.00     0.017 C 
HETATM   18  C3  UNL     1      13.040   9.262   9.763  1.00  0.00     0.017 C 
HETATM   19  C4  UNL     1      13.753  10.959   8.116  1.00  0.00     0.017 C 
ENDBRANCH  15  16
BRANCH  15  20
HETATM   20  O1  UNL     1      15.070   7.841   9.303  1.00  0.00    -0.385 OA
ATOM     21  H1  UNL     1      15.911   7.488   9.572  1.00  0.00     0.210 HD
ENDBRANCH  15  20
ENDBRANCH  12  15
ENDBRANCH   8  11
ENDBRANCH   7   8
ENDBRANCH   6   7
ENDBRANCH   1   6
BRANCH   5  22
HETATM   22  O8  UNL     1      12.150   8.206   1.779  1.00  0.00    -0.390 OA
ATOM     23  H8  UNL     1      12.243   7.320   1.450  1.00  0.00     0.210 HD
ENDBRANCH   5  22
BRANCH   3  24
HETATM   24  N2  UNL     1      14.181   9.906  -1.282  1.00  0.00    -0.297 N 
HETATM   25  C10 UNL     1      15.436  10.387  -1.424  1.00  0.00     0.188 A 
HETATM   26  N3  UNL     1      15.766  10.517  -2.707  1.00  0.00    -0.346 N 
HETATM   27  C11 UNL     1      14.696  10.110  -3.413  1.00  0.00     0.119 A 
ATOM     28  H3  UNL     1      16.653  10.856  -3.080  1.00  0.00     0.167 HD
HETATM   29  C12 UNL     1      14.503  10.042  -4.798  1.00  0.00     0.148 A 
HETATM   30  C14 UNL     1      13.717   9.733  -2.529  1.00  0.00     0.142 A 
HETATM   31  N4  UNL     1      15.558  10.450  -5.644  1.00  0.00    -0.080 NA
HETATM   32  N5  UNL     1      13.323   9.594  -5.228  1.00  0.00    -0.339 N 
HETATM   33  C13 UNL     1      12.358   9.220  -4.355  1.00  0.00     0.183 A 
ATOM     34  H5  UNL     1      13.145   9.531  -6.231  1.00  0.00     0.167 HD
HETATM   35  N6  UNL     1      12.556   9.290  -3.006  1.00  0.00    -0.336 N 
ATOM     36  H6  UNL     1      11.815   9.004  -2.366  1.00  0.00     0.168 HD
ENDBRANCH   3  24
BRANCH   4  37
HETATM   37  O7  UNL     1      14.086   7.307   0.181  1.00  0.00    -0.388 OA
ATOM     38  H7  UNL     1      13.942   6.612   0.812  1.00  0.00     0.210 HD
ENDBRANCH   4  37
TORSDOF 10
ENDMDL
