MODEL 2
REMARK VINA RESULT: -9.733578266      2.557      4.111
REMARK  10 active torsions:
REMARK  status: ('A' for Active; 'I' for Inactive)
REMARK    1  A    between atoms: C2_2  and  C5_5 
REMARK    2  A    between atoms: C5_5  and  O1_6 
REMARK    3  A    between atoms: C5_5  and  C6_8 
REMARK       I    between atoms: C6_8  and  N1_10 
REMARK    4  A    between atoms: N1_10  and  S1_12 
REMARK    5  A    between atoms: S1_12  and  O5_15 
REMARK    6  A    between atoms: O5_15  and  C7_16 
REMARK    7  A    between atoms: C7_16  and  C8_17 
REMARK    8  A    between atoms: C9_19  and  N2_20 
REMARK    9  A    between atoms: C15_33  and  O7_34 
REMARK   10  A    between atoms: C16_36  and  O8_37 
ROOT
HETATM    1  C8  UNL     1      13.133  10.316   2.033  1.00  0.00     0.180 C 
HETATM    2  O6  UNL     1      13.448  10.777   0.784  1.00  0.00    -0.353 OA
HETATM    3  C9  UNL     1      13.453   9.683  -0.069  1.00  0.00     0.262 C 
HETATM    4  C15 UNL     1      14.176   8.650   0.801  1.00  0.00     0.198 C 
HETATM    5  C16 UNL     1      13.310   8.812   2.062  1.00  0.00     0.182 C 
ENDROOT
BRANCH   1   6
HETATM    6  C7  UNL     1      14.002  10.883   3.136  1.00  0.00     0.226 C 
BRANCH   6   7
HETATM    7  O5  UNL     1      15.239  11.226   2.623  1.00  0.00    -0.257 OA
BRANCH   7   8
HETATM    8  S1  UNL     1      16.310  11.836   3.727  1.00  0.00     0.364 S 
HETATM    9  O3  UNL     1      16.176  13.332   3.812  1.00  0.00    -0.175 OA
HETATM   10  O4  UNL     1      17.733  11.539   3.313  1.00  0.00    -0.175 OA
BRANCH   8  11
HETATM   11  N1  UNL     1      16.071  11.212   5.334  1.00  0.00    -0.229 N 
HETATM   12  C6  UNL     1      16.203   9.846   5.654  1.00  0.00     0.262 C 
HETATM   13  O2  UNL     1      16.520   9.066   4.699  1.00  0.00    -0.270 OA
ATOM     14  H1  UNL     1      15.824  11.864   6.078  1.00  0.00     0.183 HD
BRANCH  12  15
HETATM   15  C5  UNL     1      16.009   9.252   6.982  1.00  0.00     0.218 C 
BRANCH  15  16
HETATM   16  C2  UNL     1      14.531   9.117   7.327  1.00  0.00    -0.017 C 
HETATM   17  C1  UNL     1      14.425   8.115   8.480  1.00  0.00     0.017 C 
HETATM   18  C3  UNL     1      13.759   8.596   6.138  1.00  0.00     0.017 C 
HETATM   19  C4  UNL     1      13.970  10.427   7.783  1.00  0.00     0.017 C 
ENDBRANCH  15  16
BRANCH  15  20
HETATM   20  O1  UNL     1      16.584   7.961   7.024  1.00  0.00    -0.385 OA
ATOM     21  H1  UNL     1      16.989   7.795   6.181  1.00  0.00     0.210 HD
ENDBRANCH  15  20
ENDBRANCH  12  15
ENDBRANCH   8  11
ENDBRANCH   7   8
ENDBRANCH   6   7
ENDBRANCH   1   6
BRANCH   5  22
HETATM   22  O8  UNL     1      12.077   8.252   1.780  1.00  0.00    -0.390 OA
ATOM     23  H8  UNL     1      12.215   7.600   1.103  1.00  0.00     0.210 HD
ENDBRANCH   5  22
BRANCH   3  24
HETATM   24  N2  UNL     1      14.100   9.889  -1.320  1.00  0.00    -0.297 N 
HETATM   25  C10 UNL     1      15.376  10.317  -1.450  1.00  0.00     0.188 A 
HETATM   26  N3  UNL     1      15.726  10.422  -2.731  1.00  0.00    -0.346 N 
HETATM   27  C11 UNL     1      14.648  10.053  -3.446  1.00  0.00     0.119 A 
ATOM     28  H3  UNL     1      16.630  10.721  -3.096  1.00  0.00     0.167 HD
HETATM   29  C12 UNL     1      14.469   9.980  -4.833  1.00  0.00     0.148 A 
HETATM   30  C14 UNL     1      13.645   9.723  -2.571  1.00  0.00     0.142 A 
HETATM   31  N4  UNL     1      15.550  10.337  -5.669  1.00  0.00    -0.080 NA
HETATM   32  N5  UNL     1      13.278   9.576  -5.274  1.00  0.00    -0.339 N 
HETATM   33  C13 UNL     1      12.287   9.250  -4.410  1.00  0.00     0.183 A 
ATOM     34  H5  UNL     1      13.109   9.512  -6.278  1.00  0.00     0.167 HD
HETATM   35  N6  UNL     1      12.472   9.324  -3.059  1.00  0.00    -0.336 N 
ATOM     36  H6  UNL     1      11.712   9.075  -2.426  1.00  0.00     0.168 HD
ENDBRANCH   3  24
BRANCH   4  37
HETATM   37  O7  UNL     1      14.113   7.380   0.295  1.00  0.00    -0.388 OA
ATOM     38  H7  UNL     1      13.795   6.742   0.923  1.00  0.00     0.210 HD
ENDBRANCH   4  37
TORSDOF 10
ENDMDL
