MODEL 6
REMARK VINA RESULT: -9.531753470      4.978      8.026
REMARK  10 active torsions:
REMARK  status: ('A' for Active; 'I' for Inactive)
REMARK    1  A    between atoms: C2_2  and  C5_5 
REMARK    2  A    between atoms: C5_5  and  O1_6 
REMARK    3  A    between atoms: C5_5  and  C6_8 
REMARK       I    between atoms: C6_8  and  N1_10 
REMARK    4  A    between atoms: N1_10  and  S1_12 
REMARK    5  A    between atoms: S1_12  and  O5_15 
REMARK    6  A    between atoms: O5_15  and  C7_16 
REMARK    7  A    between atoms: C7_16  and  C8_17 
REMARK    8  A    between atoms: C9_19  and  N2_20 
REMARK    9  A    between atoms: C15_33  and  O7_34 
REMARK   10  A    between atoms: C16_36  and  O8_37 
ROOT
HETATM    1  C8  UNL     1      18.704  11.720   1.646  1.00  0.00     0.180 C 
HETATM    2  O6  UNL     1      19.345  10.873   2.508  1.00  0.00    -0.353 OA
HETATM    3  C9  UNL     1      20.427  10.334   1.828  1.00  0.00     0.262 C 
HETATM    4  C15 UNL     1      19.788  10.042   0.467  1.00  0.00     0.198 C 
HETATM    5  C16 UNL     1      19.172  11.432   0.234  1.00  0.00     0.182 C 
ENDROOT
BRANCH   1   6
HETATM    6  C7  UNL     1      17.196  11.577   1.648  1.00  0.00     0.226 C 
BRANCH   6   7
HETATM    7  O5  UNL     1      16.804  10.808   2.726  1.00  0.00    -0.257 OA
BRANCH   7   8
HETATM    8  S1  UNL     1      15.601  11.464   3.654  1.00  0.00     0.364 S 
HETATM    9  O3  UNL     1      14.254  11.042   3.135  1.00  0.00    -0.175 OA
HETATM   10  O4  UNL     1      15.647  12.974   3.601  1.00  0.00    -0.175 OA
BRANCH   8  11
HETATM   11  N1  UNL     1      15.677  10.978   5.323  1.00  0.00    -0.229 N 
HETATM   12  C6  UNL     1      15.824   9.635   5.725  1.00  0.00     0.262 C 
HETATM   13  O2  UNL     1      15.909   8.769   4.796  1.00  0.00    -0.270 OA
ATOM     14  H1  UNL     1      15.614  11.697   6.044  1.00  0.00     0.183 HD
BRANCH  12  15
HETATM   15  C5  UNL     1      15.888   9.155   7.111  1.00  0.00     0.218 C 
BRANCH  15  16
HETATM   16  C2  UNL     1      14.498   9.006   7.719  1.00  0.00    -0.017 C 
HETATM   17  C1  UNL     1      14.624   8.052   8.909  1.00  0.00     0.017 C 
HETATM   18  C3  UNL     1      13.542   8.421   6.707  1.00  0.00     0.017 C 
HETATM   19  C4  UNL     1      13.992  10.323   8.217  1.00  0.00     0.017 C 
ENDBRANCH  15  16
BRANCH  15  20
HETATM   20  O1  UNL     1      16.519   7.891   7.157  1.00  0.00    -0.385 OA
ATOM     21  H1  UNL     1      16.312   7.433   6.350  1.00  0.00     0.210 HD
ENDBRANCH  15  20
ENDBRANCH  12  15
ENDBRANCH   8  11
ENDBRANCH   7   8
ENDBRANCH   6   7
ENDBRANCH   1   6
BRANCH   5  22
HETATM   22  O8  UNL     1      20.218  12.297  -0.034  1.00  0.00    -0.390 OA
ATOM     23  H8  UNL     1      20.613  12.014  -0.849  1.00  0.00     0.210 HD
ENDBRANCH   5  22
BRANCH   3  24
HETATM   24  N2  UNL     1      21.002   9.174   2.419  1.00  0.00    -0.297 N 
HETATM   25  C10 UNL     1      22.313   8.854   2.337  1.00  0.00     0.188 A 
HETATM   26  N3  UNL     1      22.579   7.719   2.980  1.00  0.00    -0.346 N 
HETATM   27  C11 UNL     1      21.409   7.294   3.491  1.00  0.00     0.119 A 
ATOM     28  H3  UNL     1      23.487   7.263   3.068  1.00  0.00     0.167 HD
HETATM   29  C12 UNL     1      21.119   6.156   4.253  1.00  0.00     0.148 A 
HETATM   30  C14 UNL     1      20.436   8.197   3.143  1.00  0.00     0.142 A 
HETATM   31  N4  UNL     1      22.175   5.273   4.569  1.00  0.00    -0.080 NA
HETATM   32  N5  UNL     1      19.853   5.980   4.629  1.00  0.00    -0.339 N 
HETATM   33  C13 UNL     1      18.892   6.872   4.287  1.00  0.00     0.183 A 
ATOM     34  H5  UNL     1      19.602   5.162   5.185  1.00  0.00     0.167 HD
HETATM   35  N6  UNL     1      19.185   7.979   3.544  1.00  0.00    -0.336 N 
ATOM     36  H6  UNL     1      18.447   8.638   3.296  1.00  0.00     0.168 HD
ENDBRANCH   3  24
BRANCH   4  37
HETATM   37  O7  UNL     1      20.701   9.716  -0.499  1.00  0.00    -0.388 OA
ATOM     38  H7  UNL     1      20.500  10.095  -1.347  1.00  0.00     0.210 HD
ENDBRANCH   4  37
TORSDOF 10
ENDMDL
