MODEL 9
REMARK VINA RESULT: -9.363783335      2.958      7.584
REMARK  10 active torsions:
REMARK  status: ('A' for Active; 'I' for Inactive)
REMARK    1  A    between atoms: C2_2  and  C5_5 
REMARK    2  A    between atoms: C5_5  and  O1_6 
REMARK    3  A    between atoms: C5_5  and  C6_8 
REMARK       I    between atoms: C6_8  and  N1_10 
REMARK    4  A    between atoms: N1_10  and  S1_12 
REMARK    5  A    between atoms: S1_12  and  O5_15 
REMARK    6  A    between atoms: O5_15  and  C7_16 
REMARK    7  A    between atoms: C7_16  and  C8_17 
REMARK    8  A    between atoms: C9_19  and  N2_20 
REMARK    9  A    between atoms: C15_33  and  O7_34 
REMARK   10  A    between atoms: C16_36  and  O8_37 
ROOT
HETATM    1  C8  UNL     1      17.422  11.576  -0.471  1.00  0.00     0.180 C 
HETATM    2  O6  UNL     1      16.772  11.322   0.705  1.00  0.00    -0.353 OA
HETATM    3  C9  UNL     1      17.600  11.743   1.734  1.00  0.00     0.262 C 
HETATM    4  C15 UNL     1      18.954  11.227   1.236  1.00  0.00     0.198 C 
HETATM    5  C16 UNL     1      18.888  11.827  -0.178  1.00  0.00     0.182 C 
ENDROOT
BRANCH   1   6
HETATM    6  C7  UNL     1      17.361  10.438  -1.468  1.00  0.00     0.226 C 
BRANCH   6   7
HETATM    7  O5  UNL     1      16.300  10.632  -2.331  1.00  0.00    -0.257 OA
BRANCH   7   8
HETATM    8  S1  UNL     1      14.819  10.209  -1.726  1.00  0.00     0.364 S 
HETATM    9  O3  UNL     1      14.126   9.256  -2.661  1.00  0.00    -0.175 OA
HETATM   10  O4  UNL     1      13.929  11.423  -1.588  1.00  0.00    -0.175 OA
BRANCH   8  11
HETATM   11  N1  UNL     1      14.909   9.424  -0.175  1.00  0.00    -0.229 N 
HETATM   12  C6  UNL     1      13.774   8.935   0.504  1.00  0.00     0.262 C 
HETATM   13  O2  UNL     1      12.653   9.087  -0.080  1.00  0.00    -0.270 OA
ATOM     14  H1  UNL     1      15.823   9.311   0.262  1.00  0.00     0.183 HD
BRANCH  12  15
HETATM   15  C5  UNL     1      13.777   8.271   1.812  1.00  0.00     0.218 C 
BRANCH  15  16
HETATM   16  C2  UNL     1      13.130   9.140   2.884  1.00  0.00    -0.017 C 
HETATM   17  C1  UNL     1      11.648   8.761   2.942  1.00  0.00     0.017 C 
HETATM   18  C3  UNL     1      13.260  10.601   2.526  1.00  0.00     0.017 C 
HETATM   19  C4  UNL     1      13.741   8.873   4.224  1.00  0.00     0.017 C 
ENDBRANCH  15  16
BRANCH  15  20
HETATM   20  O1  UNL     1      13.053   7.059   1.742  1.00  0.00    -0.385 OA
ATOM     21  H1  UNL     1      13.676   6.344   1.803  1.00  0.00     0.210 HD
ENDBRANCH  15  20
ENDBRANCH  12  15
ENDBRANCH   8  11
ENDBRANCH   7   8
ENDBRANCH   6   7
ENDBRANCH   1   6
BRANCH   5  22
HETATM   22  O8  UNL     1      19.047  13.195  -0.044  1.00  0.00    -0.390 OA
ATOM     23  H8  UNL     1      19.981  13.367  -0.028  1.00  0.00     0.210 HD
ENDBRANCH   5  22
BRANCH   3  24
HETATM   24  N2  UNL     1      17.270  11.245   3.026  1.00  0.00    -0.297 N 
HETATM   25  C10 UNL     1      16.543  11.929   3.937  1.00  0.00     0.188 A 
HETATM   26  N3  UNL     1      16.383  11.229   5.059  1.00  0.00    -0.346 N 
HETATM   27  C11 UNL     1      17.025  10.062   4.867  1.00  0.00     0.119 A 
ATOM     28  H3  UNL     1      15.876  11.519   5.895  1.00  0.00     0.167 HD
HETATM   29  C12 UNL     1      17.173   8.965   5.723  1.00  0.00     0.148 A 
HETATM   30  C14 UNL     1      17.572  10.075   3.609  1.00  0.00     0.142 A 
HETATM   31  N4  UNL     1      16.581   9.027   7.004  1.00  0.00    -0.080 NA
HETATM   32  N5  UNL     1      17.872   7.925   5.267  1.00  0.00    -0.339 N 
HETATM   33  C13 UNL     1      18.411   7.937   4.024  1.00  0.00     0.183 A 
ATOM     34  H5  UNL     1      18.002   7.107   5.863  1.00  0.00     0.167 HD
HETATM   35  N6  UNL     1      18.260   9.012   3.197  1.00  0.00    -0.336 N 
ATOM     36  H6  UNL     1      18.675   9.001   2.265  1.00  0.00     0.168 HD
ENDBRANCH   3  24
BRANCH   4  37
HETATM   37  O7  UNL     1      20.014  11.714   1.952  1.00  0.00    -0.388 OA
ATOM     38  H7  UNL     1      20.795  11.178   1.876  1.00  0.00     0.210 HD
ENDBRANCH   4  37
TORSDOF 10
ENDMDL
