MODEL 5
REMARK VINA RESULT: -8.879467672      2.717      6.295
REMARK  10 active torsions:
REMARK  status: ('A' for Active; 'I' for Inactive)
REMARK    1  A    between atoms: C2_2  and  C5_5 
REMARK    2  A    between atoms: C5_5  and  N1_6 
REMARK    3  A    between atoms: C5_5  and  C6_10 
REMARK       I    between atoms: C6_10  and  N2_12 
REMARK    4  A    between atoms: N2_12  and  S1_14 
REMARK    5  A    between atoms: S1_14  and  O4_17 
REMARK    6  A    between atoms: O4_17  and  C7_18 
REMARK    7  A    between atoms: C7_18  and  C8_19 
REMARK    8  A    between atoms: C9_21  and  N3_22 
REMARK    9  A    between atoms: C15_35  and  O6_36 
REMARK   10  A    between atoms: C16_38  and  O7_39 
ROOT
HETATM    1  C8  UNL     1      15.882  10.260  -1.095  1.00  0.00     0.180 C 
HETATM    2  O5  UNL     1      15.861  10.020   0.272  1.00  0.00    -0.353 OA
HETATM    3  C9  UNL     1      14.591   9.473   0.451  1.00  0.00     0.262 C 
HETATM    4  C15 UNL     1      13.638  10.314  -0.383  1.00  0.00     0.198 C 
HETATM    5  C16 UNL     1      14.605  10.993  -1.336  1.00  0.00     0.182 C 
ENDROOT
BRANCH   1   6
HETATM    6  C7  UNL     1      17.103  11.036  -1.523  1.00  0.00     0.226 C 
BRANCH   6   7
HETATM    7  O4  UNL     1      17.167  12.286  -0.915  1.00  0.00    -0.257 OA
BRANCH   7   8
HETATM    8  S1  UNL     1      18.484  12.401   0.082  1.00  0.00     0.364 S 
HETATM    9  O2  UNL     1      18.012  12.901   1.423  1.00  0.00    -0.175 OA
HETATM   10  O3  UNL     1      19.432  13.417  -0.499  1.00  0.00    -0.175 OA
BRANCH   8  11
HETATM   11  N2  UNL     1      19.288  10.895   0.328  1.00  0.00    -0.230 N 
HETATM   12  C6  UNL     1      20.484  10.859   1.090  1.00  0.00     0.264 C 
HETATM   13  O1  UNL     1      20.904  11.954   1.554  1.00  0.00    -0.270 OA
ATOM     14  H2  UNL     1      18.907  10.037  -0.071  1.00  0.00     0.183 HD
BRANCH  12  15
HETATM   15  C5  UNL     1      21.228   9.587   1.340  1.00  0.00     0.283 C 
BRANCH  15  16
HETATM   16  C2  UNL     1      20.984   9.107   2.748  1.00  0.00    -0.014 C 
HETATM   17  C1  UNL     1      21.437   7.662   2.825  1.00  0.00     0.017 C 
HETATM   18  C3  UNL     1      19.529   9.149   3.136  1.00  0.00     0.017 C 
HETATM   19  C4  UNL     1      21.793   9.879   3.761  1.00  0.00     0.017 C 
ENDBRANCH  15  16
BRANCH  15  20
HETATM   20  N1  UNL     1      20.751   8.579   0.421  1.00  0.00    -0.066 N 
ATOM     21  H13 UNL     1      21.143   7.658   0.613  1.00  0.00     0.275 HD
ATOM     22  H12 UNL     1      19.769   8.347   0.570  1.00  0.00     0.275 HD
ATOM     23  H11 UNL     1      20.937   8.893  -0.531  1.00  0.00     0.275 HD
ENDBRANCH  15  20
ENDBRANCH  12  15
ENDBRANCH   8  11
ENDBRANCH   7   8
ENDBRANCH   6   7
ENDBRANCH   1   6
BRANCH   5  24
HETATM   24  O7  UNL     1      14.142  10.835  -2.639  1.00  0.00    -0.390 OA
ATOM     25  H7  UNL     1      13.585  10.072  -2.734  1.00  0.00     0.210 HD
ENDBRANCH   5  24
BRANCH   3  26
HETATM   26  N3  UNL     1      14.193   9.529   1.836  1.00  0.00    -0.297 N 
HETATM   27  C10 UNL     1      13.078   9.005   2.368  1.00  0.00     0.188 A 
HETATM   28  N4  UNL     1      13.067   9.270   3.707  1.00  0.00    -0.346 N 
HETATM   29  C11 UNL     1      14.175   9.964   4.032  1.00  0.00     0.119 A 
ATOM     30  H4  UNL     1      12.335   8.988   4.359  1.00  0.00     0.167 HD
HETATM   31  C12 UNL     1      14.657  10.479   5.227  1.00  0.00     0.148 A 
HETATM   32  C14 UNL     1      14.863  10.113   2.847  1.00  0.00     0.142 A 
HETATM   33  N5  UNL     1      13.939  10.317   6.437  1.00  0.00    -0.080 NA
HETATM   34  N6  UNL     1      15.830  11.128   5.161  1.00  0.00    -0.339 N 
HETATM   35  C13 UNL     1      16.521  11.289   4.021  1.00  0.00     0.183 A 
ATOM     36  H6  UNL     1      16.216  11.520   6.020  1.00  0.00     0.167 HD
HETATM   37  N7  UNL     1      16.035  10.783   2.877  1.00  0.00    -0.336 N 
ATOM     38  H7  UNL     1      16.562  10.906   2.013  1.00  0.00     0.168 HD
ENDBRANCH   3  26
BRANCH   4  39
HETATM   39  O6  UNL     1      12.776   9.447  -1.051  1.00  0.00    -0.388 OA
ATOM     40  H6  UNL     1      13.273   9.011  -1.734  1.00  0.00     0.210 HD
ENDBRANCH   4  39
TORSDOF 10
ENDMDL
