MODEL 4
REMARK VINA RESULT: -8.889892523      2.776      4.452
REMARK  10 active torsions:
REMARK  status: ('A' for Active; 'I' for Inactive)
REMARK    1  A    between atoms: C2_2  and  C5_5 
REMARK    2  A    between atoms: C5_5  and  N1_6 
REMARK    3  A    between atoms: C5_5  and  C6_10 
REMARK       I    between atoms: C6_10  and  N2_12 
REMARK    4  A    between atoms: N2_12  and  S1_14 
REMARK    5  A    between atoms: S1_14  and  O4_17 
REMARK    6  A    between atoms: O4_17  and  C7_18 
REMARK    7  A    between atoms: C7_18  and  C8_19 
REMARK    8  A    between atoms: C9_21  and  N3_22 
REMARK    9  A    between atoms: C15_35  and  O6_36 
REMARK   10  A    between atoms: C16_38  and  O7_39 
ROOT
HETATM    1  C8  UNL     1      14.799  10.340   1.975  1.00  0.00     0.180 C 
HETATM    2  O5  UNL     1      15.369  10.862   0.822  1.00  0.00    -0.353 OA
HETATM    3  C9  UNL     1      14.412  10.547  -0.142  1.00  0.00     0.262 C 
HETATM    4  C15 UNL     1      13.969   9.121   0.139  1.00  0.00     0.198 C 
HETATM    5  C16 UNL     1      14.426   8.952   1.577  1.00  0.00     0.182 C 
ENDROOT
BRANCH   1   6
HETATM    6  C7  UNL     1      15.741  10.388   3.153  1.00  0.00     0.226 C 
BRANCH   6   7
HETATM    7  O4  UNL     1      15.777   9.182   3.844  1.00  0.00    -0.257 OA
BRANCH   7   8
HETATM    8  S1  UNL     1      17.173   9.034   4.723  1.00  0.00     0.364 S 
HETATM    9  O2  UNL     1      18.132  10.100   4.257  1.00  0.00    -0.175 OA
HETATM   10  O3  UNL     1      17.778   7.687   4.429  1.00  0.00    -0.175 OA
BRANCH   8  11
HETATM   11  N2  UNL     1      16.935   9.234   6.419  1.00  0.00    -0.230 N 
HETATM   12  C6  UNL     1      15.699   8.849   7.000  1.00  0.00     0.264 C 
HETATM   13  O1  UNL     1      14.824   8.373   6.228  1.00  0.00    -0.270 OA
ATOM     14  H2  UNL     1      17.676   9.625   7.000  1.00  0.00     0.183 HD
BRANCH  12  15
HETATM   15  C5  UNL     1      15.431   8.996   8.464  1.00  0.00     0.283 C 
BRANCH  15  16
HETATM   16  C2  UNL     1      14.470  10.132   8.707  1.00  0.00    -0.014 C 
HETATM   17  C1  UNL     1      13.153   9.530   9.155  1.00  0.00     0.017 C 
HETATM   18  C3  UNL     1      14.201  10.946   7.469  1.00  0.00     0.017 C 
HETATM   19  C4  UNL     1      14.937  11.046   9.814  1.00  0.00     0.017 C 
ENDBRANCH  15  16
BRANCH  15  20
HETATM   20  N1  UNL     1      14.834   7.775   8.953  1.00  0.00    -0.066 N 
ATOM     21  H13 UNL     1      13.837   7.717   8.746  1.00  0.00     0.275 HD
ATOM     22  H12 UNL     1      15.134   6.954   8.427  1.00  0.00     0.275 HD
ATOM     23  H11 UNL     1      15.031   7.694   9.950  1.00  0.00     0.275 HD
ENDBRANCH  15  20
ENDBRANCH  12  15
ENDBRANCH   8  11
ENDBRANCH   7   8
ENDBRANCH   6   7
ENDBRANCH   1   6
BRANCH   5  24
HETATM   24  O7  UNL     1      13.369   8.451   2.332  1.00  0.00    -0.390 OA
ATOM     25  H7  UNL     1      12.930   7.726   1.903  1.00  0.00     0.210 HD
ENDBRANCH   5  24
BRANCH   3  26
HETATM   26  N3  UNL     1      14.969  10.623  -1.470  1.00  0.00    -0.297 N 
HETATM   27  C10 UNL     1      16.205  11.033  -1.797  1.00  0.00     0.188 A 
HETATM   28  N4  UNL     1      16.345  10.957  -3.152  1.00  0.00    -0.346 N 
HETATM   29  C11 UNL     1      15.200  10.499  -3.694  1.00  0.00     0.119 A 
ATOM     30  H4  UNL     1      17.185  11.209  -3.673  1.00  0.00     0.167 HD
HETATM   31  C12 UNL     1      14.805  10.236  -4.998  1.00  0.00     0.148 A 
HETATM   32  C14 UNL     1      14.356  10.296  -2.623  1.00  0.00     0.142 A 
HETATM   33  N5  UNL     1      15.684  10.449  -6.087  1.00  0.00    -0.080 NA
HETATM   34  N6  UNL     1      13.553   9.774  -5.155  1.00  0.00    -0.339 N 
HETATM   35  C13 UNL     1      12.710   9.568  -4.130  1.00  0.00     0.183 A 
ATOM     36  H6  UNL     1      13.228   9.569  -6.099  1.00  0.00     0.167 HD
HETATM   37  N7  UNL     1      13.114   9.830  -2.878  1.00  0.00    -0.336 N 
ATOM     38  H7  UNL     1      12.471   9.673  -2.103  1.00  0.00     0.168 HD
ENDBRANCH   3  26
BRANCH   4  39
HETATM   39  O6  UNL     1      12.581   9.075   0.030  1.00  0.00    -0.388 OA
ATOM     40  H6  UNL     1      12.226   8.889   0.892  1.00  0.00     0.210 HD
ENDBRANCH   4  39
TORSDOF 10
ENDMDL
