MODEL 7
REMARK VINA RESULT: -8.801331539      2.608      4.513
REMARK  10 active torsions:
REMARK  status: ('A' for Active; 'I' for Inactive)
REMARK    1  A    between atoms: C2_2  and  C5_5 
REMARK    2  A    between atoms: C5_5  and  N1_6 
REMARK    3  A    between atoms: C5_5  and  C6_10 
REMARK       I    between atoms: C6_10  and  N2_12 
REMARK    4  A    between atoms: N2_12  and  S1_14 
REMARK    5  A    between atoms: S1_14  and  O4_17 
REMARK    6  A    between atoms: O4_17  and  C7_18 
REMARK    7  A    between atoms: C7_18  and  C8_19 
REMARK    8  A    between atoms: C9_21  and  N3_22 
REMARK    9  A    between atoms: C15_35  and  O6_36 
REMARK   10  A    between atoms: C16_38  and  O7_39 
ROOT
HETATM    1  C8  UNL     1      19.835  10.270   1.753  1.00  0.00     0.180 C 
HETATM    2  O5  UNL     1      18.764   9.832   0.987  1.00  0.00    -0.353 OA
HETATM    3  C9  UNL     1      18.822  10.690  -0.110  1.00  0.00     0.262 C 
HETATM    4  C15 UNL     1      19.092  12.080   0.443  1.00  0.00     0.198 C 
HETATM    5  C16 UNL     1      19.628  11.746   1.822  1.00  0.00     0.182 C 
ENDROOT
BRANCH   1   6
HETATM    6  C7  UNL     1      19.877   9.611   3.110  1.00  0.00     0.226 C 
BRANCH   6   7
HETATM    7  O4  UNL     1      18.718   9.844   3.841  1.00  0.00    -0.257 OA
BRANCH   7   8
HETATM    8  S1  UNL     1      17.876   8.441   4.095  1.00  0.00     0.364 S 
HETATM    9  O2  UNL     1      18.815   7.285   3.866  1.00  0.00    -0.175 OA
HETATM   10  O3  UNL     1      16.767   8.363   3.079  1.00  0.00    -0.175 OA
BRANCH   8  11
HETATM   11  N2  UNL     1      17.242   8.305   5.693  1.00  0.00    -0.230 N 
HETATM   12  C6  UNL     1      16.353   9.298   6.178  1.00  0.00     0.264 C 
HETATM   13  O1  UNL     1      16.069  10.247   5.397  1.00  0.00    -0.270 OA
ATOM     14  H2  UNL     1      17.504   7.517   6.285  1.00  0.00     0.183 HD
BRANCH  12  15
HETATM   15  C5  UNL     1      15.769   9.238   7.553  1.00  0.00     0.283 C 
BRANCH  15  16
HETATM   16  C2  UNL     1      14.287   9.511   7.503  1.00  0.00    -0.014 C 
HETATM   17  C1  UNL     1      13.649   8.792   8.676  1.00  0.00     0.017 C 
HETATM   18  C3  UNL     1      13.638   8.995   6.245  1.00  0.00     0.017 C 
HETATM   19  C4  UNL     1      13.973  10.979   7.660  1.00  0.00     0.017 C 
ENDBRANCH  15  16
BRANCH  15  20
HETATM   20  N1  UNL     1      15.975   7.912   8.089  1.00  0.00    -0.066 N 
ATOM     21  H13 UNL     1      15.259   7.649   8.766  1.00  0.00     0.275 HD
ATOM     22  H12 UNL     1      15.795   7.180   7.402  1.00  0.00     0.275 HD
ATOM     23  H11 UNL     1      16.917   7.862   8.476  1.00  0.00     0.275 HD
ENDBRANCH  15  20
ENDBRANCH  12  15
ENDBRANCH   8  11
ENDBRANCH   7   8
ENDBRANCH   6   7
ENDBRANCH   1   6
BRANCH   5  24
HETATM   24  O7  UNL     1      20.819  12.438   2.025  1.00  0.00    -0.390 OA
ATOM     25  H7  UNL     1      20.761  13.345   1.750  1.00  0.00     0.210 HD
ENDBRANCH   5  24
BRANCH   3  26
HETATM   26  N3  UNL     1      17.574  10.695  -0.832  1.00  0.00    -0.297 N 
HETATM   27  C10 UNL     1      17.416  10.848  -2.156  1.00  0.00     0.188 A 
HETATM   28  N4  UNL     1      16.084  10.795  -2.446  1.00  0.00    -0.346 N 
HETATM   29  C11 UNL     1      15.388  10.608  -1.308  1.00  0.00     0.119 A 
ATOM     30  H4  UNL     1      15.679  10.883  -3.378  1.00  0.00     0.167 HD
HETATM   31  C12 UNL     1      14.033  10.483  -1.034  1.00  0.00     0.148 A 
HETATM   32  C14 UNL     1      16.340  10.549  -0.313  1.00  0.00     0.142 A 
HETATM   33  N5  UNL     1      13.067  10.546  -2.067  1.00  0.00    -0.080 NA
HETATM   34  N6  UNL     1      13.706  10.301   0.256  1.00  0.00    -0.339 N 
HETATM   35  C13 UNL     1      14.612  10.240   1.245  1.00  0.00     0.183 A 
ATOM     36  H6  UNL     1      12.719  10.205   0.496  1.00  0.00     0.167 HD
HETATM   37  N7  UNL     1      15.916  10.364   0.955  1.00  0.00    -0.336 N 
ATOM     38  H7  UNL     1      16.601  10.317   1.708  1.00  0.00     0.168 HD
ENDBRANCH   3  26
BRANCH   4  39
HETATM   39  O6  UNL     1      20.063  12.677  -0.358  1.00  0.00    -0.388 OA
ATOM     40  H6  UNL     1      19.648  12.941  -1.172  1.00  0.00     0.210 HD
ENDBRANCH   4  39
TORSDOF 10
ENDMDL
