MODEL 8
REMARK VINA RESULT: -8.785632793      2.694      7.668
REMARK  10 active torsions:
REMARK  status: ('A' for Active; 'I' for Inactive)
REMARK    1  A    between atoms: C2_2  and  C5_5 
REMARK    2  A    between atoms: C5_5  and  N1_6 
REMARK    3  A    between atoms: C5_5  and  C6_10 
REMARK       I    between atoms: C6_10  and  N2_12 
REMARK    4  A    between atoms: N2_12  and  S1_14 
REMARK    5  A    between atoms: S1_14  and  O4_17 
REMARK    6  A    between atoms: O4_17  and  C7_18 
REMARK    7  A    between atoms: C7_18  and  C8_19 
REMARK    8  A    between atoms: C9_21  and  N3_22 
REMARK    9  A    between atoms: C15_35  and  O6_36 
REMARK   10  A    between atoms: C16_38  and  O7_39 
ROOT
HETATM    1  C8  UNL     1      17.942  11.068   2.494  1.00  0.00     0.180 C 
HETATM    2  O5  UNL     1      17.855  10.011   3.389  1.00  0.00    -0.353 OA
HETATM    3  C9  UNL     1      16.633  10.259   4.012  1.00  0.00     0.262 C 
HETATM    4  C15 UNL     1      16.587  11.752   4.294  1.00  0.00     0.198 C 
HETATM    5  C16 UNL     1      17.652  12.261   3.340  1.00  0.00     0.182 C 
ENDROOT
BRANCH   1   6
HETATM    6  C7  UNL     1      19.286  11.134   1.813  1.00  0.00     0.226 C 
BRANCH   6   7
HETATM    7  O4  UNL     1      19.545   9.997   1.054  1.00  0.00    -0.257 OA
BRANCH   7   8
HETATM    8  S1  UNL     1      19.373  10.303  -0.564  1.00  0.00     0.364 S 
HETATM    9  O2  UNL     1      20.443   9.538  -1.300  1.00  0.00    -0.175 OA
HETATM   10  O3  UNL     1      19.596  11.775  -0.795  1.00  0.00    -0.175 OA
BRANCH   8  11
HETATM   11  N2  UNL     1      17.841   9.818  -1.192  1.00  0.00    -0.230 N 
HETATM   12  C6  UNL     1      16.798  10.773  -1.300  1.00  0.00     0.264 C 
HETATM   13  O1  UNL     1      17.052  11.949  -0.921  1.00  0.00    -0.270 OA
ATOM     14  H2  UNL     1      17.688   8.853  -1.483  1.00  0.00     0.183 HD
BRANCH  12  15
HETATM   15  C5  UNL     1      15.449  10.416  -1.836  1.00  0.00     0.283 C 
BRANCH  15  16
HETATM   16  C2  UNL     1      14.504  10.098  -0.704  1.00  0.00    -0.014 C 
HETATM   17  C1  UNL     1      14.267   8.600  -0.714  1.00  0.00     0.017 C 
HETATM   18  C3  UNL     1      13.166  10.772  -0.852  1.00  0.00     0.017 C 
HETATM   19  C4  UNL     1      15.092  10.444   0.642  1.00  0.00     0.017 C 
ENDBRANCH  15  16
BRANCH  15  20
HETATM   20  N1  UNL     1      14.924  11.545  -2.569  1.00  0.00    -0.066 N 
ATOM     21  H13 UNL     1      14.749  11.327  -3.550  1.00  0.00     0.275 HD
ATOM     22  H12 UNL     1      13.967  11.774  -2.302  1.00  0.00     0.275 HD
ATOM     23  H11 UNL     1      15.561  12.333  -2.451  1.00  0.00     0.275 HD
ENDBRANCH  15  20
ENDBRANCH  12  15
ENDBRANCH   8  11
ENDBRANCH   7   8
ENDBRANCH   6   7
ENDBRANCH   1   6
BRANCH   5  24
HETATM   24  O7  UNL     1      17.129  13.319   2.602  1.00  0.00    -0.390 OA
ATOM     25  H7  UNL     1      16.293  13.617   2.939  1.00  0.00     0.210 HD
ENDBRANCH   5  24
BRANCH   3  26
HETATM   26  N3  UNL     1      16.527   9.533   5.254  1.00  0.00    -0.297 N 
HETATM   27  C10 UNL     1      17.371   8.591   5.704  1.00  0.00     0.188 A 
HETATM   28  N4  UNL     1      16.924   8.148   6.916  1.00  0.00    -0.346 N 
HETATM   29  C11 UNL     1      15.795   8.807   7.242  1.00  0.00     0.119 A 
ATOM     30  H4  UNL     1      17.375   7.432   7.484  1.00  0.00     0.167 HD
HETATM   31  C12 UNL     1      14.946   8.750   8.338  1.00  0.00     0.148 A 
HETATM   32  C14 UNL     1      15.567   9.667   6.189  1.00  0.00     0.142 A 
HETATM   33  N5  UNL     1      15.193   7.861   9.411  1.00  0.00    -0.080 NA
HETATM   34  N6  UNL     1      13.891   9.581   8.312  1.00  0.00    -0.339 N 
HETATM   35  C13 UNL     1      13.645  10.429   7.300  1.00  0.00     0.183 A 
ATOM     36  H6  UNL     1      13.245   9.568   9.101  1.00  0.00     0.167 HD
HETATM   37  N7  UNL     1      14.480  10.465   6.250  1.00  0.00    -0.336 N 
ATOM     38  H7  UNL     1      14.290  11.110   5.483  1.00  0.00     0.168 HD
ENDBRANCH   3  26
BRANCH   4  39
HETATM   39  O6  UNL     1      15.319  12.214   3.948  1.00  0.00    -0.388 OA
ATOM     40  H6  UNL     1      15.425  13.036   3.484  1.00  0.00     0.210 HD
ENDBRANCH   4  39
TORSDOF 10
ENDMDL
