MODEL 9
REMARK VINA RESULT: -9.077564705      3.664      6.360
REMARK  10 active torsions:
REMARK  status: ('A' for Active; 'I' for Inactive)
REMARK    1  A    between atoms: C2_2  and  C4_4 
REMARK    2  A    between atoms: C4_4  and  N1_5 
REMARK    3  A    between atoms: C4_4  and  C5_9 
REMARK       I    between atoms: C5_9  and  N2_11 
REMARK    4  A    between atoms: N2_11  and  S1_13 
REMARK    5  A    between atoms: S1_13  and  O4_16 
REMARK    6  A    between atoms: O4_16  and  C6_17 
REMARK    7  A    between atoms: C6_17  and  C7_18 
REMARK    8  A    between atoms: C8_20  and  N3_21 
REMARK    9  A    between atoms: C14_34  and  O6_35 
REMARK   10  A    between atoms: C15_37  and  O7_38 
ROOT
HETATM    1  C7  UNL     1      15.304  10.773   2.217  1.00  0.00     0.180 C 
HETATM    2  O5  UNL     1      15.910  10.926   0.972  1.00  0.00    -0.353 OA
HETATM    3  C8  UNL     1      14.873  10.550   0.121  1.00  0.00     0.262 C 
HETATM    4  C14 UNL     1      14.519   9.185   0.674  1.00  0.00     0.198 C 
HETATM    5  C15 UNL     1      14.531   9.489   2.173  1.00  0.00     0.182 C 
ENDROOT
BRANCH   1   6
HETATM    6  C6  UNL     1      16.309  10.759   3.339  1.00  0.00     0.226 C 
BRANCH   6   7
HETATM    7  O4  UNL     1      17.078   9.597   3.338  1.00  0.00    -0.257 OA
BRANCH   7   8
HETATM    8  S1  UNL     1      18.690   9.914   3.102  1.00  0.00     0.364 S 
HETATM    9  O2  UNL     1      18.957  11.405   3.199  1.00  0.00    -0.175 OA
HETATM   10  O3  UNL     1      19.507   9.247   4.200  1.00  0.00    -0.175 OA
BRANCH   8  11
HETATM   11  N2  UNL     1      19.284   9.317   1.598  1.00  0.00    -0.230 N 
HETATM   12  C5  UNL     1      20.554   9.726   1.088  1.00  0.00     0.263 C 
HETATM   13  O1  UNL     1      21.197  10.541   1.804  1.00  0.00    -0.270 OA
ATOM     14  H2  UNL     1      18.717   8.659   1.062  1.00  0.00     0.183 HD
BRANCH  12  15
HETATM   15  C4  UNL     1      21.097   9.226  -0.211  1.00  0.00     0.279 C 
BRANCH  15  16
HETATM   16  C2  UNL     1      22.540   8.837   0.030  1.00  0.00     0.017 C 
HETATM   17  C1  UNL     1      22.577   7.554   0.821  1.00  0.00     0.012 C 
HETATM   18  C3  UNL     1      23.283   8.607  -1.269  1.00  0.00     0.012 C 
ENDBRANCH  15  16
BRANCH  15  19
HETATM   19  N1  UNL     1      20.375   8.056  -0.632  1.00  0.00    -0.066 N 
ATOM     20  H13 UNL     1      20.237   8.024  -1.642  1.00  0.00     0.275 HD
ATOM     21  H12 UNL     1      20.926   7.202  -0.540  1.00  0.00     0.275 HD
ATOM     22  H11 UNL     1      19.498   8.015  -0.115  1.00  0.00     0.275 HD
ENDBRANCH  15  19
ENDBRANCH  12  15
ENDBRANCH   8  11
ENDBRANCH   7   8
ENDBRANCH   6   7
ENDBRANCH   1   6
BRANCH   5  23
HETATM   23  O7  UNL     1      13.209   9.738   2.532  1.00  0.00    -0.390 OA
ATOM     24  H7  UNL     1      13.103   9.581   3.463  1.00  0.00     0.210 HD
ENDBRANCH   5  23
BRANCH   3  25
HETATM   25  N3  UNL     1      15.285  10.494  -1.264  1.00  0.00    -0.297 N 
HETATM   26  C9  UNL     1      16.543  10.784  -1.651  1.00  0.00     0.188 A 
HETATM   27  N4  UNL     1      16.599  10.636  -3.006  1.00  0.00    -0.346 N 
HETATM   28  C10 UNL     1      15.381  10.260  -3.422  1.00  0.00     0.119 A 
ATOM     29  H4  UNL     1      17.418  10.784  -3.595  1.00  0.00     0.167 HD
HETATM   30  C11 UNL     1      14.844   9.967  -4.660  1.00  0.00     0.148 A 
HETATM   31  C13 UNL     1      14.530  10.162  -2.335  1.00  0.00     0.142 A 
HETATM   32  N5  UNL     1      15.696  10.060  -5.778  1.00  0.00    -0.080 NA
HETATM   33  N6  UNL     1      13.552   9.612  -4.730  1.00  0.00    -0.339 N 
HETATM   34  C12 UNL     1      12.748   9.527  -3.651  1.00  0.00     0.183 A 
ATOM     35  H6  UNL     1      13.158   9.395  -5.645  1.00  0.00     0.167 HD
HETATM   36  N7  UNL     1      13.244   9.807  -2.431  1.00  0.00    -0.336 N 
ATOM     37  H7  UNL     1      12.654   9.748  -1.600  1.00  0.00     0.168 HD
ENDBRANCH   3  25
BRANCH   4  38
HETATM   38  O6  UNL     1      13.274   8.747   0.265  1.00  0.00    -0.388 OA
ATOM     39  H6  UNL     1      13.102   7.845   0.507  1.00  0.00     0.210 HD
ENDBRANCH   4  38
TORSDOF 10
ENDMDL
