MODEL 5
REMARK VINA RESULT: -9.224439906      3.403      6.472
REMARK  10 active torsions:
REMARK  status: ('A' for Active; 'I' for Inactive)
REMARK    1  A    between atoms: C2_2  and  C4_4 
REMARK    2  A    between atoms: C4_4  and  N1_5 
REMARK    3  A    between atoms: C4_4  and  C5_9 
REMARK       I    between atoms: C5_9  and  N2_11 
REMARK    4  A    between atoms: N2_11  and  S1_13 
REMARK    5  A    between atoms: S1_13  and  O4_16 
REMARK    6  A    between atoms: O4_16  and  C6_17 
REMARK    7  A    between atoms: C6_17  and  C7_18 
REMARK    8  A    between atoms: C8_20  and  N3_21 
REMARK    9  A    between atoms: C14_34  and  O6_35 
REMARK   10  A    between atoms: C15_37  and  O7_38 
ROOT
HETATM    1  C7  UNL     1      14.879  10.874   2.972  1.00  0.00     0.180 C 
HETATM    2  O5  UNL     1      15.089  11.076   1.610  1.00  0.00    -0.353 OA
HETATM    3  C8  UNL     1      13.996  10.403   1.068  1.00  0.00     0.262 C 
HETATM    4  C14 UNL     1      14.146   9.037   1.704  1.00  0.00     0.198 C 
HETATM    5  C15 UNL     1      14.465   9.443   3.145  1.00  0.00     0.182 C 
ENDROOT
BRANCH   1   6
HETATM    6  C6  UNL     1      16.108  11.181   3.787  1.00  0.00     0.226 C 
BRANCH   6   7
HETATM    7  O4  UNL     1      17.152  10.302   3.510  1.00  0.00    -0.257 OA
BRANCH   7   8
HETATM    8  S1  UNL     1      18.375  11.031   2.658  1.00  0.00     0.364 S 
HETATM    9  O2  UNL     1      17.897  12.342   2.061  1.00  0.00    -0.175 OA
HETATM   10  O3  UNL     1      19.522  11.368   3.601  1.00  0.00    -0.175 OA
BRANCH   8  11
HETATM   11  N2  UNL     1      19.024  10.029   1.414  1.00  0.00    -0.230 N 
HETATM   12  C5  UNL     1      20.139  10.454   0.627  1.00  0.00     0.263 C 
HETATM   13  O1  UNL     1      20.605  11.592   0.904  1.00  0.00    -0.270 OA
ATOM     14  H2  UNL     1      18.604   9.117   1.236  1.00  0.00     0.183 HD
BRANCH  12  15
HETATM   15  C4  UNL     1      20.724   9.609  -0.457  1.00  0.00     0.279 C 
BRANCH  15  16
HETATM   16  C2  UNL     1      22.105   9.191   0.001  1.00  0.00     0.017 C 
HETATM   17  C1  UNL     1      21.974   8.044   0.970  1.00  0.00     0.012 C 
HETATM   18  C3  UNL     1      22.964   8.728  -1.157  1.00  0.00     0.012 C 
ENDBRANCH  15  16
BRANCH  15  19
HETATM   19  N1  UNL     1      19.931   8.426  -0.646  1.00  0.00    -0.066 N 
ATOM     20  H13 UNL     1      19.130   8.385  -0.015  1.00  0.00     0.275 HD
ATOM     21  H12 UNL     1      19.414   8.436  -1.526  1.00  0.00     0.275 HD
ATOM     22  H11 UNL     1      20.539   7.612  -0.558  1.00  0.00     0.275 HD
ENDBRANCH  15  19
ENDBRANCH  12  15
ENDBRANCH   8  11
ENDBRANCH   7   8
ENDBRANCH   6   7
ENDBRANCH   1   6
BRANCH   5  23
HETATM   23  O7  UNL     1      13.260   9.396   3.840  1.00  0.00    -0.390 OA
ATOM     24  H7  UNL     1      12.622   9.944   3.398  1.00  0.00     0.210 HD
ENDBRANCH   5  23
BRANCH   3  25
HETATM   25  N3  UNL     1      14.040  10.346  -0.376  1.00  0.00    -0.297 N 
HETATM   26  C9  UNL     1      12.931  10.164  -1.121  1.00  0.00     0.188 A 
HETATM   27  N4  UNL     1      13.314  10.161  -2.431  1.00  0.00    -0.346 N 
HETATM   28  C10 UNL     1      14.643  10.340  -2.464  1.00  0.00     0.119 A 
ATOM     29  H4  UNL     1      12.702  10.044  -3.238  1.00  0.00     0.167 HD
HETATM   30  C11 UNL     1      15.569  10.423  -3.484  1.00  0.00     0.148 A 
HETATM   31  C13 UNL     1      15.126  10.461  -1.172  1.00  0.00     0.142 A 
HETATM   32  N5  UNL     1      15.096  10.303  -4.806  1.00  0.00    -0.080 NA
HETATM   33  N6  UNL     1      16.858  10.612  -3.165  1.00  0.00    -0.339 N 
HETATM   34  C12 UNL     1      17.298  10.725  -1.895  1.00  0.00     0.183 A 
ATOM     35  H6  UNL     1      17.540  10.674  -3.920  1.00  0.00     0.167 HD
HETATM   36  N7  UNL     1      16.418  10.649  -0.879  1.00  0.00    -0.336 N 
ATOM     37  H7  UNL     1      16.727  10.733   0.089  1.00  0.00     0.168 HD
ENDBRANCH   3  25
BRANCH   4  38
HETATM   38  O6  UNL     1      12.987   8.287   1.645  1.00  0.00    -0.388 OA
ATOM     39  H6  UNL     1      12.251   8.773   1.294  1.00  0.00     0.210 HD
ENDBRANCH   4  38
TORSDOF 10
ENDMDL
