MODEL 6
REMARK VINA RESULT: -9.199015828      2.818      4.814
REMARK  10 active torsions:
REMARK  status: ('A' for Active; 'I' for Inactive)
REMARK    1  A    between atoms: C2_2  and  C4_4 
REMARK    2  A    between atoms: C4_4  and  N1_5 
REMARK    3  A    between atoms: C4_4  and  C5_9 
REMARK       I    between atoms: C5_9  and  N2_11 
REMARK    4  A    between atoms: N2_11  and  S1_13 
REMARK    5  A    between atoms: S1_13  and  O4_16 
REMARK    6  A    between atoms: O4_16  and  C6_17 
REMARK    7  A    between atoms: C6_17  and  C7_18 
REMARK    8  A    between atoms: C8_20  and  N3_21 
REMARK    9  A    between atoms: C14_34  and  O6_35 
REMARK   10  A    between atoms: C15_37  and  O7_38 
ROOT
HETATM    1  C7  UNL     1      14.696  10.599  -0.367  1.00  0.00     0.180 C 
HETATM    2  O5  UNL     1      15.855  10.727   0.394  1.00  0.00    -0.353 OA
HETATM    3  C8  UNL     1      16.743  11.233  -0.553  1.00  0.00     0.262 C 
HETATM    4  C14 UNL     1      16.621  10.198  -1.652  1.00  0.00     0.198 C 
HETATM    5  C15 UNL     1      15.102  10.022  -1.690  1.00  0.00     0.182 C 
ENDROOT
BRANCH   1   6
HETATM    6  C6  UNL     1      13.667   9.729   0.307  1.00  0.00     0.226 C 
BRANCH   6   7
HETATM    7  O4  UNL     1      13.259  10.255   1.531  1.00  0.00    -0.257 OA
BRANCH   7   8
HETATM    8  S1  UNL     1      12.758   9.074   2.583  1.00  0.00     0.364 S 
HETATM    9  O2  UNL     1      11.242   8.993   2.607  1.00  0.00    -0.175 OA
HETATM   10  O3  UNL     1      13.265   7.719   2.109  1.00  0.00    -0.175 OA
BRANCH   8  11
HETATM   11  N2  UNL     1      13.351   9.300   4.186  1.00  0.00    -0.230 N 
HETATM   12  C5  UNL     1      14.753   9.325   4.461  1.00  0.00     0.263 C 
HETATM   13  O1  UNL     1      15.511   9.173   3.464  1.00  0.00    -0.270 OA
ATOM     14  H2  UNL     1      12.688   9.418   4.953  1.00  0.00     0.183 HD
BRANCH  12  15
HETATM   15  C4  UNL     1      15.298   9.520   5.837  1.00  0.00     0.279 C 
BRANCH  15  16
HETATM   16  C2  UNL     1      14.162   9.267   6.806  1.00  0.00     0.017 C 
HETATM   17  C1  UNL     1      14.424   7.979   7.544  1.00  0.00     0.012 C 
HETATM   18  C3  UNL     1      14.039  10.375   7.830  1.00  0.00     0.012 C 
ENDBRANCH  15  16
BRANCH  15  19
HETATM   19  N1  UNL     1      16.339   8.564   6.099  1.00  0.00    -0.066 N 
ATOM     20  H13 UNL     1      16.007   7.758   6.630  1.00  0.00     0.275 HD
ATOM     21  H12 UNL     1      16.633   8.064   5.259  1.00  0.00     0.275 HD
ATOM     22  H11 UNL     1      17.111   9.045   6.559  1.00  0.00     0.275 HD
ENDBRANCH  15  19
ENDBRANCH  12  15
ENDBRANCH   8  11
ENDBRANCH   7   8
ENDBRANCH   6   7
ENDBRANCH   1   6
BRANCH   5  23
HETATM   23  O7  UNL     1      14.638  10.846  -2.711  1.00  0.00    -0.390 OA
ATOM     24  H7  UNL     1      15.151  11.646  -2.725  1.00  0.00     0.210 HD
ENDBRANCH   5  23
BRANCH   3  25
HETATM   25  N3  UNL     1      18.093  11.342  -0.045  1.00  0.00    -0.297 N 
HETATM   26  C9  UNL     1      18.997  12.183  -0.586  1.00  0.00     0.188 A 
HETATM   27  N4  UNL     1      20.157  12.045   0.119  1.00  0.00    -0.346 N 
HETATM   28  C10 UNL     1      19.943  11.127   1.073  1.00  0.00     0.119 A 
ATOM     29  H4  UNL     1      21.028  12.548  -0.049  1.00  0.00     0.167 HD
HETATM   30  C11 UNL     1      20.732  10.585   2.068  1.00  0.00     0.148 A 
HETATM   31  C13 UNL     1      18.640  10.667   0.990  1.00  0.00     0.142 A 
HETATM   32  N5  UNL     1      22.060  11.041   2.169  1.00  0.00    -0.080 NA
HETATM   33  N6  UNL     1      20.194   9.660   2.879  1.00  0.00    -0.339 N 
HETATM   34  C12 UNL     1      18.920   9.232   2.770  1.00  0.00     0.183 A 
ATOM     35  H6  UNL     1      20.778   9.262   3.614  1.00  0.00     0.167 HD
HETATM   36  N7  UNL     1      18.127   9.743   1.810  1.00  0.00    -0.336 N 
ATOM     37  H7  UNL     1      17.160   9.435   1.710  1.00  0.00     0.168 HD
ENDBRANCH   3  25
BRANCH   4  38
HETATM   38  O6  UNL     1      17.100  10.648  -2.868  1.00  0.00    -0.388 OA
ATOM     39  H6  UNL     1      16.658  11.432  -3.171  1.00  0.00     0.210 HD
ENDBRANCH   4  38
TORSDOF 10
ENDMDL
