MODEL 17
REMARK VINA RESULT: -8.918579007      2.289      3.815
REMARK  10 active torsions:
REMARK  status: ('A' for Active; 'I' for Inactive)
REMARK    1  A    between atoms: C2_2  and  C4_4 
REMARK    2  A    between atoms: C4_4  and  N1_5 
REMARK    3  A    between atoms: C4_4  and  C5_9 
REMARK       I    between atoms: C5_9  and  N2_11 
REMARK    4  A    between atoms: N2_11  and  S1_13 
REMARK    5  A    between atoms: S1_13  and  O4_16 
REMARK    6  A    between atoms: O4_16  and  C6_17 
REMARK    7  A    between atoms: C6_17  and  C7_18 
REMARK    8  A    between atoms: C8_20  and  N3_21 
REMARK    9  A    between atoms: C14_34  and  O6_35 
REMARK   10  A    between atoms: C15_37  and  O7_38 
ROOT
HETATM    1  C7  UNL     1      13.461  10.203   2.166  1.00  0.00     0.180 C 
HETATM    2  O5  UNL     1      13.636  10.671   0.866  1.00  0.00    -0.353 OA
HETATM    3  C8  UNL     1      13.363   9.521   0.128  1.00  0.00     0.262 C 
HETATM    4  C14 UNL     1      14.325   8.534   0.755  1.00  0.00     0.198 C 
HETATM    5  C15 UNL     1      14.112   8.853   2.236  1.00  0.00     0.182 C 
ENDROOT
BRANCH   1   6
HETATM    6  C6  UNL     1      14.049  11.138   3.190  1.00  0.00     0.226 C 
BRANCH   6   7
HETATM    7  O4  UNL     1      15.195  11.774   2.720  1.00  0.00    -0.257 OA
BRANCH   7   8
HETATM    8  S1  UNL     1      16.534  11.404   3.627  1.00  0.00     0.364 S 
HETATM    9  O2  UNL     1      17.337  10.301   2.962  1.00  0.00    -0.175 OA
HETATM   10  O3  UNL     1      17.444  12.622   3.714  1.00  0.00    -0.175 OA
BRANCH   8  11
HETATM   11  N2  UNL     1      16.150  10.947   5.244  1.00  0.00    -0.230 N 
HETATM   12  C5  UNL     1      16.142   9.575   5.644  1.00  0.00     0.263 C 
HETATM   13  O1  UNL     1      16.431   8.739   4.745  1.00  0.00    -0.270 OA
ATOM     14  H2  UNL     1      15.924  11.669   5.929  1.00  0.00     0.183 HD
BRANCH  12  15
HETATM   15  C4  UNL     1      15.815   9.147   7.037  1.00  0.00     0.279 C 
BRANCH  15  16
HETATM   16  C2  UNL     1      14.320   8.908   7.090  1.00  0.00     0.017 C 
HETATM   17  C1  UNL     1      14.066   7.489   7.530  1.00  0.00     0.012 C 
HETATM   18  C3  UNL     1      13.638   9.832   8.076  1.00  0.00     0.012 C 
ENDBRANCH  15  16
BRANCH  15  19
HETATM   19  N1  UNL     1      16.483   7.913   7.347  1.00  0.00    -0.066 N 
ATOM     20  H13 UNL     1      16.677   7.353   6.517  1.00  0.00     0.275 HD
ATOM     21  H12 UNL     1      17.447   8.054   7.648  1.00  0.00     0.275 HD
ATOM     22  H11 UNL     1      15.926   7.410   8.038  1.00  0.00     0.275 HD
ENDBRANCH  15  19
ENDBRANCH  12  15
ENDBRANCH   8  11
ENDBRANCH   7   8
ENDBRANCH   6   7
ENDBRANCH   1   6
BRANCH   5  23
HETATM   23  O7  UNL     1      13.189   7.924   2.708  1.00  0.00    -0.390 OA
ATOM     24  H7  UNL     1      13.428   7.666   3.590  1.00  0.00     0.210 HD
ENDBRANCH   5  23
BRANCH   3  25
HETATM   25  N3  UNL     1      13.602   9.701  -1.287  1.00  0.00    -0.297 N 
HETATM   26  C9  UNL     1      12.632   9.523  -2.207  1.00  0.00     0.188 A 
HETATM   27  N4  UNL     1      13.180   9.769  -3.432  1.00  0.00    -0.346 N 
HETATM   28  C10 UNL     1      14.469  10.091  -3.242  1.00  0.00     0.119 A 
ATOM     29  H4  UNL     1      12.698   9.718  -4.329  1.00  0.00     0.167 HD
HETATM   30  C11 UNL     1      15.501  10.434  -4.091  1.00  0.00     0.148 A 
HETATM   31  C13 UNL     1      14.759  10.055  -1.888  1.00  0.00     0.142 A 
HETATM   32  N5  UNL     1      15.224  10.476  -5.471  1.00  0.00    -0.080 NA
HETATM   33  N6  UNL     1      16.703  10.706  -3.560  1.00  0.00    -0.339 N 
HETATM   34  C12 UNL     1      16.955  10.660  -2.236  1.00  0.00     0.183 A 
ATOM     35  H6  UNL     1      17.464  10.959  -4.189  1.00  0.00     0.167 HD
HETATM   36  N7  UNL     1      15.967  10.330  -1.383  1.00  0.00    -0.336 N 
ATOM     37  H7  UNL     1      16.135  10.291  -0.378  1.00  0.00     0.168 HD
ENDBRANCH   3  25
BRANCH   4  38
HETATM   38  O6  UNL     1      14.000   7.219   0.479  1.00  0.00    -0.388 OA
ATOM     39  H6  UNL     1      13.854   6.703   1.262  1.00  0.00     0.210 HD
ENDBRANCH   4  38
TORSDOF 10
ENDMDL
