MODEL 8
REMARK VINA RESULT: -9.142792926      2.354      3.352
REMARK  10 active torsions:
REMARK  status: ('A' for Active; 'I' for Inactive)
REMARK    1  A    between atoms: C2_2  and  C4_4 
REMARK    2  A    between atoms: C4_4  and  N1_5 
REMARK    3  A    between atoms: C4_4  and  C5_9 
REMARK       I    between atoms: C5_9  and  N2_11 
REMARK    4  A    between atoms: N2_11  and  S1_13 
REMARK    5  A    between atoms: S1_13  and  O4_16 
REMARK    6  A    between atoms: O4_16  and  C6_17 
REMARK    7  A    between atoms: C6_17  and  C7_18 
REMARK    8  A    between atoms: C8_20  and  N3_21 
REMARK    9  A    between atoms: C14_34  and  O6_35 
REMARK   10  A    between atoms: C15_37  and  O7_38 
ROOT
HETATM    1  C7  UNL     1      13.545  10.021   1.747  1.00  0.00     0.180 C 
HETATM    2  O5  UNL     1      14.084  10.588   0.595  1.00  0.00    -0.353 OA
HETATM    3  C8  UNL     1      13.983   9.525  -0.300  1.00  0.00     0.262 C 
HETATM    4  C14 UNL     1      14.702   8.431   0.461  1.00  0.00     0.198 C 
HETATM    5  C15 UNL     1      14.105   8.634   1.855  1.00  0.00     0.182 C 
ENDROOT
BRANCH   1   6
HETATM    6  C6  UNL     1      13.863  10.827   2.979  1.00  0.00     0.226 C 
BRANCH   6   7
HETATM    7  O4  UNL     1      14.069  10.019   4.094  1.00  0.00    -0.257 OA
BRANCH   7   8
HETATM    8  S1  UNL     1      15.358  10.528   5.008  1.00  0.00     0.364 S 
HETATM    9  O2  UNL     1      16.541   9.595   4.823  1.00  0.00    -0.175 OA
HETATM   10  O3  UNL     1      15.804  11.905   4.537  1.00  0.00    -0.175 OA
BRANCH   8  11
HETATM   11  N2  UNL     1      14.985  10.666   6.685  1.00  0.00    -0.230 N 
HETATM   12  C5  UNL     1      14.542   9.537   7.442  1.00  0.00     0.263 C 
HETATM   13  O1  UNL     1      14.446   8.453   6.804  1.00  0.00    -0.270 OA
ATOM     14  H2  UNL     1      15.083  11.571   7.147  1.00  0.00     0.183 HD
BRANCH  12  15
HETATM   15  C4  UNL     1      14.213   9.624   8.895  1.00  0.00     0.279 C 
BRANCH  15  16
HETATM   16  C2  UNL     1      14.332  11.080   9.293  1.00  0.00     0.017 C 
HETATM   17  C1  UNL     1      12.951  11.647   9.500  1.00  0.00     0.012 C 
HETATM   18  C3  UNL     1      15.105  11.248  10.583  1.00  0.00     0.012 C 
ENDBRANCH  15  16
BRANCH  15  19
HETATM   19  N1  UNL     1      12.858   9.201   9.123  1.00  0.00    -0.066 N 
ATOM     20  H13 UNL     1      12.514   9.468  10.046  1.00  0.00     0.275 HD
ATOM     21  H12 UNL     1      12.184   9.727   8.566  1.00  0.00     0.275 HD
ATOM     22  H11 UNL     1      12.803   8.196   8.961  1.00  0.00     0.275 HD
ENDBRANCH  15  19
ENDBRANCH  12  15
ENDBRANCH   8  11
ENDBRANCH   7   8
ENDBRANCH   6   7
ENDBRANCH   1   6
BRANCH   5  23
HETATM   23  O7  UNL     1      13.056   7.725   1.967  1.00  0.00    -0.390 OA
ATOM     24  H7  UNL     1      13.410   6.856   2.114  1.00  0.00     0.210 HD
ENDBRANCH   5  23
BRANCH   3  25
HETATM   25  N3  UNL     1      14.605   9.811  -1.574  1.00  0.00    -0.297 N 
HETATM   26  C9  UNL     1      15.884  10.227  -1.670  1.00  0.00     0.188 A 
HETATM   27  N4  UNL     1      16.157  10.404  -2.995  1.00  0.00    -0.346 N 
HETATM   28  C10 UNL     1      15.047  10.095  -3.682  1.00  0.00     0.119 A 
ATOM     29  H4  UNL     1      17.044  10.715  -3.392  1.00  0.00     0.167 HD
HETATM   30  C11 UNL     1      14.729  10.082  -5.026  1.00  0.00     0.148 A 
HETATM   31  C13 UNL     1      14.049   9.715  -2.802  1.00  0.00     0.142 A 
HETATM   32  N5  UNL     1      15.733  10.465  -5.937  1.00  0.00    -0.080 NA
HETATM   33  N6  UNL     1      13.492   9.710  -5.387  1.00  0.00    -0.339 N 
HETATM   34  C12 UNL     1      12.540   9.346  -4.504  1.00  0.00     0.183 A 
ATOM     35  H6  UNL     1      13.260   9.701  -6.380  1.00  0.00     0.167 HD
HETATM   36  N7  UNL     1      12.822   9.348  -3.187  1.00  0.00    -0.336 N 
ATOM     37  H7  UNL     1      12.118   9.075  -2.501  1.00  0.00     0.168 HD
ENDBRANCH   3  25
BRANCH   4  38
HETATM   38  O6  UNL     1      14.420   7.167  -0.022  1.00  0.00    -0.388 OA
ATOM     39  H6  UNL     1      13.791   6.700   0.514  1.00  0.00     0.210 HD
ENDBRANCH   4  38
TORSDOF 10
ENDMDL
