MODEL 2
REMARK VINA RESULT: -9.335891863      2.343      3.632
REMARK  10 active torsions:
REMARK  status: ('A' for Active; 'I' for Inactive)
REMARK    1  A    between atoms: C2_2  and  C4_4 
REMARK    2  A    between atoms: C4_4  and  N1_5 
REMARK    3  A    between atoms: C4_4  and  C5_9 
REMARK       I    between atoms: C5_9  and  N2_11 
REMARK    4  A    between atoms: N2_11  and  S1_13 
REMARK    5  A    between atoms: S1_13  and  O4_16 
REMARK    6  A    between atoms: O4_16  and  C6_17 
REMARK    7  A    between atoms: C6_17  and  C7_18 
REMARK    8  A    between atoms: C8_20  and  N3_21 
REMARK    9  A    between atoms: C14_34  and  O6_35 
REMARK   10  A    between atoms: C15_37  and  O7_38 
ROOT
HETATM    1  C7  UNL     1      13.539  10.065   1.880  1.00  0.00     0.180 C 
HETATM    2  O5  UNL     1      14.089  10.621   0.729  1.00  0.00    -0.353 OA
HETATM    3  C8  UNL     1      13.940   9.571  -0.175  1.00  0.00     0.262 C 
HETATM    4  C14 UNL     1      14.622   8.443   0.570  1.00  0.00     0.198 C 
HETATM    5  C15 UNL     1      14.045   8.656   1.971  1.00  0.00     0.182 C 
ENDROOT
BRANCH   1   6
HETATM    6  C6  UNL     1      13.899  10.846   3.117  1.00  0.00     0.226 C 
BRANCH   6   7
HETATM    7  O4  UNL     1      14.877  11.805   2.863  1.00  0.00    -0.257 OA
BRANCH   7   8
HETATM    8  S1  UNL     1      16.309  11.454   3.624  1.00  0.00     0.364 S 
HETATM    9  O2  UNL     1      17.052  10.360   2.879  1.00  0.00    -0.175 OA
HETATM   10  O3  UNL     1      17.208  12.683   3.613  1.00  0.00    -0.175 OA
BRANCH   8  11
HETATM   11  N2  UNL     1      16.105  10.995   5.273  1.00  0.00    -0.230 N 
HETATM   12  C5  UNL     1      16.062   9.620   5.661  1.00  0.00     0.263 C 
HETATM   13  O1  UNL     1      16.183   8.782   4.726  1.00  0.00    -0.270 OA
ATOM     14  H2  UNL     1      16.012  11.719   5.987  1.00  0.00     0.183 HD
BRANCH  12  15
HETATM   15  C4  UNL     1      15.887   9.191   7.080  1.00  0.00     0.279 C 
BRANCH  15  16
HETATM   16  C2  UNL     1      14.401   9.021   7.313  1.00  0.00     0.017 C 
HETATM   17  C1  UNL     1      14.099   7.556   7.503  1.00  0.00     0.012 C 
HETATM   18  C3  UNL     1      13.939   9.757   8.553  1.00  0.00     0.012 C 
ENDBRANCH  15  16
BRANCH  15  19
HETATM   19  N1  UNL     1      16.529   7.924   7.298  1.00  0.00    -0.066 N 
ATOM     20  H13 UNL     1      17.123   7.923   8.128  1.00  0.00     0.275 HD
ATOM     21  H12 UNL     1      15.875   7.199   7.595  1.00  0.00     0.275 HD
ATOM     22  H11 UNL     1      17.038   7.671   6.452  1.00  0.00     0.275 HD
ENDBRANCH  15  19
ENDBRANCH  12  15
ENDBRANCH   8  11
ENDBRANCH   7   8
ENDBRANCH   6   7
ENDBRANCH   1   6
BRANCH   5  23
HETATM   23  O7  UNL     1      12.963   7.787   2.084  1.00  0.00    -0.390 OA
ATOM     24  H7  UNL     1      12.311   8.173   2.656  1.00  0.00     0.210 HD
ENDBRANCH   5  23
BRANCH   3  25
HETATM   25  N3  UNL     1      14.562   9.845  -1.451  1.00  0.00    -0.297 N 
HETATM   26  C9  UNL     1      15.831  10.289  -1.551  1.00  0.00     0.188 A 
HETATM   27  N4  UNL     1      16.107  10.444  -2.878  1.00  0.00    -0.346 N 
HETATM   28  C10 UNL     1      15.009  10.094  -3.564  1.00  0.00     0.119 A 
ATOM     29  H4  UNL     1      16.989  10.767  -3.276  1.00  0.00     0.167 HD
HETATM   30  C11 UNL     1      14.698  10.046  -4.908  1.00  0.00     0.148 A 
HETATM   31  C13 UNL     1      14.015   9.710  -2.680  1.00  0.00     0.142 A 
HETATM   32  N5  UNL     1      15.698  10.433  -5.822  1.00  0.00    -0.080 NA
HETATM   33  N6  UNL     1      13.472   9.637  -5.267  1.00  0.00    -0.339 N 
HETATM   34  C12 UNL     1      12.524   9.270  -4.381  1.00  0.00     0.183 A 
ATOM     35  H6  UNL     1      13.245   9.601  -6.261  1.00  0.00     0.167 HD
HETATM   36  N7  UNL     1      12.799   9.306  -3.063  1.00  0.00    -0.336 N 
ATOM     37  H7  UNL     1      12.097   9.031  -2.375  1.00  0.00     0.168 HD
ENDBRANCH   3  25
BRANCH   4  38
HETATM   38  O6  UNL     1      14.287   7.196   0.078  1.00  0.00    -0.388 OA
ATOM     39  H6  UNL     1      13.555   6.803   0.537  1.00  0.00     0.210 HD
ENDBRANCH   4  38
TORSDOF 10
ENDMDL
