MODEL 3
REMARK VINA RESULT: -5.953081616      3.043      5.356
REMARK  6 active torsions:
REMARK  status: ('A' for Active; 'I' for Inactive)
REMARK       I    between atoms: C2_2  and  N1_4 
REMARK    1  A    between atoms: N1_4  and  C3_6 
REMARK    2  A    between atoms: C4_7  and  O2_8 
REMARK    3  A    between atoms: C5_11  and  C6_12 
REMARK    4  A    between atoms: C6_12  and  O4_13 
REMARK    5  A    between atoms: C7_15  and  O5_16 
REMARK    6  A    between atoms: C8_18  and  O6_19 
ROOT
HETATM    1  C3  UNL     1     -31.101  10.970  21.970  1.00  0.00     0.170 C 
HETATM    2  C4  UNL     1     -32.561  10.764  22.336  1.00  0.00     0.282 C 
HETATM    3  O3  UNL     1     -33.084   9.603  21.797  1.00  0.00    -0.349 OA
HETATM    4  C5  UNL     1     -32.441   8.455  22.156  1.00  0.00     0.179 C 
HETATM    5  C7  UNL     1     -31.080   8.682  22.773  1.00  0.00     0.180 C 
HETATM    6  C8  UNL     1     -30.366   9.665  21.835  1.00  0.00     0.177 C 
ENDROOT
BRANCH   1   7
HETATM    7  N1  UNL     1     -31.005  11.784  20.773  1.00  0.00    -0.349 N 
HETATM    8  C2  UNL     1     -30.550  13.115  20.751  1.00  0.00     0.214 C 
HETATM    9  C1  UNL     1     -30.451  13.949  19.529  1.00  0.00     0.117 C 
HETATM   10  O1  UNL     1     -30.202  13.643  21.839  1.00  0.00    -0.274 OA
ATOM     11  H1  UNL     1     -31.286  11.362  19.887  1.00  0.00     0.163 HD
ENDBRANCH   1   7
BRANCH   2  12
HETATM   12  O2  UNL     1     -32.760  10.862  23.715  1.00  0.00    -0.369 OA
ATOM     13  H2  UNL     1     -33.505  10.343  23.995  1.00  0.00     0.212 HD
ENDBRANCH   2  12
BRANCH   6  14
HETATM   14  O6  UNL     1     -29.024   9.746  22.122  1.00  0.00    -0.391 OA
ATOM     15  H6  UNL     1     -28.735   9.140  22.793  1.00  0.00     0.210 HD
ENDBRANCH   6  14
BRANCH   5  16
HETATM   16  O5  UNL     1     -30.403   7.485  22.862  1.00  0.00    -0.390 OA
ATOM     17  H5  UNL     1     -29.466   7.641  22.819  1.00  0.00     0.210 HD
ENDBRANCH   5  16
BRANCH   4  18
HETATM   18  C6  UNL     1     -33.303   7.551  23.016  1.00  0.00     0.198 C 
BRANCH  18  19
HETATM   19  O4  UNL     1     -33.832   8.229  24.086  1.00  0.00    -0.398 OA
ATOM     20  H4  UNL     1     -33.978   7.652  24.826  1.00  0.00     0.209 HD
ENDBRANCH  18  19
ENDBRANCH   4  18
TORSDOF 6
ENDMDL
