MODEL 2
REMARK VINA RESULT: -6.008154304      2.393      3.954
REMARK  6 active torsions:
REMARK  status: ('A' for Active; 'I' for Inactive)
REMARK       I    between atoms: C2_2  and  N1_4 
REMARK    1  A    between atoms: N1_4  and  C3_6 
REMARK    2  A    between atoms: C4_7  and  O2_8 
REMARK    3  A    between atoms: C5_11  and  C6_12 
REMARK    4  A    between atoms: C6_12  and  O4_13 
REMARK    5  A    between atoms: C7_15  and  O5_16 
REMARK    6  A    between atoms: C8_18  and  O6_19 
ROOT
HETATM    1  C3  UNL     1     -30.035  10.116  22.195  1.00  0.00     0.170 C 
HETATM    2  C4  UNL     1     -30.118   8.616  21.965  1.00  0.00     0.282 C 
HETATM    3  O3  UNL     1     -28.958   8.098  21.420  1.00  0.00    -0.349 OA
HETATM    4  C5  UNL     1     -27.828   8.303  22.156  1.00  0.00     0.179 C 
HETATM    5  C7  UNL     1     -27.980   9.353  23.233  1.00  0.00     0.180 C 
HETATM    6  C8  UNL     1     -28.639  10.555  22.541  1.00  0.00     0.177 C 
ENDROOT
BRANCH   1   7
HETATM    7  N1  UNL     1     -30.564  10.819  21.041  1.00  0.00    -0.349 N 
HETATM    8  C2  UNL     1     -31.153  12.095  21.091  1.00  0.00     0.214 C 
HETATM    9  C1  UNL     1     -31.695  12.817  19.913  1.00  0.00     0.117 C 
HETATM   10  O1  UNL     1     -31.231  12.673  22.206  1.00  0.00    -0.274 OA
ATOM     11  H1  UNL     1     -30.505  10.357  20.134  1.00  0.00     0.163 HD
ENDBRANCH   1   7
BRANCH   2  12
HETATM   12  O2  UNL     1     -30.523   7.945  23.121  1.00  0.00    -0.369 OA
ATOM     13  H2  UNL     1     -30.478   7.003  23.009  1.00  0.00     0.212 HD
ENDBRANCH   2  12
BRANCH   6  14
HETATM   14  O6  UNL     1     -28.585  11.679  23.330  1.00  0.00    -0.391 OA
ATOM     15  H6  UNL     1     -27.857  11.689  23.939  1.00  0.00     0.210 HD
ENDBRANCH   6  14
BRANCH   5  16
HETATM   16  O5  UNL     1     -26.743   9.679  23.745  1.00  0.00    -0.390 OA
ATOM     17  H5  UNL     1     -26.524  10.574  23.511  1.00  0.00     0.210 HD
ENDBRANCH   5  16
BRANCH   4  18
HETATM   18  C6  UNL     1     -27.251   7.014  22.707  1.00  0.00     0.198 C 
BRANCH  18  19
HETATM   19  O4  UNL     1     -27.700   6.766  23.981  1.00  0.00    -0.398 OA
ATOM     20  H4  UNL     1     -27.207   6.067  24.394  1.00  0.00     0.209 HD
ENDBRANCH  18  19
ENDBRANCH   4  18
TORSDOF 6
ENDMDL
