MODEL 17
REMARK VINA RESULT: -5.599238846      3.415      4.955
REMARK  6 active torsions:
REMARK  status: ('A' for Active; 'I' for Inactive)
REMARK       I    between atoms: C2_2  and  N1_4 
REMARK    1  A    between atoms: N1_4  and  C3_6 
REMARK    2  A    between atoms: C4_7  and  O2_8 
REMARK    3  A    between atoms: C5_11  and  C6_12 
REMARK    4  A    between atoms: C6_12  and  O4_13 
REMARK    5  A    between atoms: C7_15  and  O5_16 
REMARK    6  A    between atoms: C8_18  and  O6_19 
ROOT
HETATM    1  C3  UNL     1     -32.281  10.564  22.249  1.00  0.00     0.170 C 
HETATM    2  C4  UNL     1     -30.802  10.761  21.963  1.00  0.00     0.282 C 
HETATM    3  O3  UNL     1     -30.578  11.525  20.834  1.00  0.00    -0.349 OA
HETATM    4  C5  UNL     1     -31.125  12.774  20.860  1.00  0.00     0.179 C 
HETATM    5  C7  UNL     1     -32.165  12.966  21.940  1.00  0.00     0.180 C 
HETATM    6  C8  UNL     1     -33.098  11.753  21.827  1.00  0.00     0.177 C 
ENDROOT
BRANCH   1   7
HETATM    7  N1  UNL     1     -32.740   9.332  21.634  1.00  0.00    -0.349 N 
HETATM    8  C2  UNL     1     -32.786   8.087  22.287  1.00  0.00     0.214 C 
HETATM    9  C1  UNL     1     -33.255   6.827  21.660  1.00  0.00     0.117 C 
HETATM   10  O1  UNL     1     -32.405   8.028  23.484  1.00  0.00    -0.274 OA
ATOM     11  H1  UNL     1     -33.050   9.373  20.663  1.00  0.00     0.163 HD
ENDBRANCH   1   7
BRANCH   2  12
HETATM   12  O2  UNL     1     -30.125  11.238  23.088  1.00  0.00    -0.369 OA
ATOM     13  H2  UNL     1     -30.723  11.641  23.707  1.00  0.00     0.212 HD
ENDBRANCH   2  12
BRANCH   6  14
HETATM   14  O6  UNL     1     -34.246  11.933  22.562  1.00  0.00    -0.391 OA
ATOM     15  H6  UNL     1     -34.907  11.267  22.417  1.00  0.00     0.210 HD
ENDBRANCH   6  14
BRANCH   5  16
HETATM   16  O5  UNL     1     -32.842  14.147  21.732  1.00  0.00    -0.390 OA
ATOM     17  H5  UNL     1     -32.984  14.587  22.563  1.00  0.00     0.210 HD
ENDBRANCH   5  16
BRANCH   4  18
HETATM   18  C6  UNL     1     -30.075  13.868  20.891  1.00  0.00     0.198 C 
BRANCH  18  19
HETATM   19  O4  UNL     1     -29.770  14.236  22.179  1.00  0.00    -0.398 OA
ATOM     20  H4  UNL     1     -29.333  15.079  22.205  1.00  0.00     0.209 HD
ENDBRANCH  18  19
ENDBRANCH   4  18
TORSDOF 6
ENDMDL
