MODEL 1
REMARK VINA RESULT: -6.064861159      0.000      0.000
REMARK  6 active torsions:
REMARK  status: ('A' for Active; 'I' for Inactive)
REMARK       I    between atoms: C2_2  and  N1_4 
REMARK    1  A    between atoms: N1_4  and  C3_6 
REMARK    2  A    between atoms: C4_7  and  O2_8 
REMARK    3  A    between atoms: C5_11  and  C6_12 
REMARK    4  A    between atoms: C6_12  and  O4_13 
REMARK    5  A    between atoms: C7_15  and  O5_16 
REMARK    6  A    between atoms: C8_18  and  O6_19 
ROOT
HETATM    1  C3  UNL     1     -30.347   8.394  22.036  1.00  0.00     0.170 C 
HETATM    2  C4  UNL     1     -29.600   9.510  22.746  1.00  0.00     0.282 C 
HETATM    3  O3  UNL     1     -28.525   9.046  23.480  1.00  0.00    -0.349 OA
HETATM    4  C5  UNL     1     -27.586   8.361  22.767  1.00  0.00     0.179 C 
HETATM    5  C7  UNL     1     -28.055   7.924  21.398  1.00  0.00     0.180 C 
HETATM    6  C8  UNL     1     -29.428   7.277  21.624  1.00  0.00     0.177 C 
ENDROOT
BRANCH   1   7
HETATM    7  N1  UNL     1     -31.441   7.929  22.868  1.00  0.00    -0.349 N 
HETATM    8  C2  UNL     1     -32.623   7.348  22.375  1.00  0.00     0.214 C 
HETATM    9  C1  UNL     1     -33.743   6.872  23.223  1.00  0.00     0.117 C 
HETATM   10  O1  UNL     1     -32.749   7.219  21.129  1.00  0.00    -0.274 OA
ATOM     11  H1  UNL     1     -31.347   8.031  23.879  1.00  0.00     0.163 HD
ENDBRANCH   1   7
BRANCH   2  12
HETATM   12  O2  UNL     1     -29.254  10.534  21.861  1.00  0.00    -0.369 OA
ATOM     13  H2  UNL     1     -29.877  10.600  21.147  1.00  0.00     0.212 HD
ENDBRANCH   2  12
BRANCH   6  14
HETATM   14  O6  UNL     1     -29.848   6.589  20.510  1.00  0.00    -0.391 OA
ATOM     15  H6  UNL     1     -29.960   7.133  19.740  1.00  0.00     0.210 HD
ENDBRANCH   6  14
BRANCH   5  16
HETATM   16  O5  UNL     1     -27.156   7.029  20.860  1.00  0.00    -0.390 OA
ATOM     17  H5  UNL     1     -27.623   6.338  20.405  1.00  0.00     0.210 HD
ENDBRANCH   5  16
BRANCH   4  18
HETATM   18  C6  UNL     1     -26.260   9.092  22.699  1.00  0.00     0.198 C 
BRANCH  18  19
HETATM   19  O4  UNL     1     -26.150   9.829  21.545  1.00  0.00    -0.398 OA
ATOM     20  H4  UNL     1     -25.391   9.569  21.037  1.00  0.00     0.209 HD
ENDBRANCH  18  19
ENDBRANCH   4  18
TORSDOF 6
ENDMDL
