MODEL 3
REMARK VINA RESULT: -6.056920805      0.863      1.591
REMARK  10 active torsions:
REMARK  status: ('A' for Active; 'I' for Inactive)
REMARK    1  A    between atoms: N2_4  and  C3_5 
REMARK    2  A    between atoms: C4_7  and  C5_8 
REMARK    3  A    between atoms: C5_8  and  O2_9 
REMARK    4  A    between atoms: O2_9  and  P1_10 
REMARK    5  A    between atoms: P1_10  and  O5_13 
REMARK    6  A    between atoms: O5_13  and  P2_14 
REMARK    7  A    between atoms: P2_14  and  O8_17 
REMARK    8  A    between atoms: O8_17  and  P3_18 
REMARK    9  A    between atoms: C6_22  and  O12_23 
REMARK   10  A    between atoms: C7_25  and  O13_26 
ROOT
HETATM    1  C3  UNL     1      29.969  15.588  -2.938  1.00  0.00     0.262 C 
HETATM    2  O1  UNL     1      29.546  15.985  -4.222  1.00  0.00    -0.353 OA
HETATM    3  C4  UNL     1      29.090  14.882  -4.798  1.00  0.00     0.180 C 
HETATM    4  C6  UNL     1      28.269  14.193  -3.731  1.00  0.00     0.182 C 
HETATM    5  C7  UNL     1      29.403  14.186  -2.676  1.00  0.00     0.198 C 
ENDROOT
BRANCH   1   6
HETATM    6  N2  UNL     1      29.264  16.433  -1.975  1.00  0.00    -0.297 N 
HETATM    7  C2  UNL     1      28.297  15.965  -1.139  1.00  0.00     0.190 A 
HETATM    8  N1  UNL     1      27.863  16.964  -0.401  1.00  0.00    -0.340 N 
HETATM    9  C1  UNL     1      26.785  16.934   0.556  1.00  0.00     0.157 C 
HETATM   10  C11 UNL     1      28.524  18.082  -0.733  1.00  0.00     0.148 A 
HETATM   11  C8  UNL     1      29.426  17.717  -1.753  1.00  0.00     0.146 A 
HETATM   12  C10 UNL     1      28.530  19.404  -0.359  1.00  0.00     0.278 A 
HETATM   13  N3  UNL     1      30.216  18.648  -2.299  1.00  0.00    -0.314 N 
HETATM   14  C9  UNL     1      30.187  19.921  -1.913  1.00  0.00     0.196 A 
ATOM     15  H3  UNL     1      30.864  18.373  -3.037  1.00  0.00     0.170 HD
HETATM   16  N4  UNL     1      30.976  20.916  -2.600  1.00  0.00    -0.063 NA
HETATM   17  N5  UNL     1      29.351  20.306  -0.947  1.00  0.00    -0.295 N 
ATOM     18  H5  UNL     1      29.330  21.281  -0.651  1.00  0.00     0.171 HD
HETATM   19  O14 UNL     1      27.740  19.766   0.564  1.00  0.00    -0.265 OA
ENDBRANCH   1   6
BRANCH   5  20
HETATM   20  O13 UNL     1      30.299  13.242  -3.067  1.00  0.00    -0.388 OA
ATOM     21  H13 UNL     1      30.855  12.999  -2.337  1.00  0.00     0.210 HD
ENDBRANCH   5  20
BRANCH   3  22
HETATM   22  C5  UNL     1      28.537  14.860  -6.165  1.00  0.00     0.216 C 
BRANCH  22  23
HETATM   23  O2  UNL     1      27.156  15.143  -5.890  1.00  0.00    -0.287 OA
BRANCH  23  24
HETATM   24  P1  UNL     1      26.293  14.984  -7.307  1.00  0.00     0.417 P 
HETATM   25  O3  UNL     1      26.039  16.438  -7.861  1.00  0.00    -0.624 OA
HETATM   26  O4  UNL     1      27.113  14.196  -8.480  1.00  0.00    -0.624 OA
BRANCH  24  27
HETATM   27  O5  UNL     1      24.753  14.340  -7.049  1.00  0.00    -0.180 OA
BRANCH  27  28
HETATM   28  P2  UNL     1      24.859  13.074  -5.909  1.00  0.00     0.428 P 
HETATM   29  O6  UNL     1      26.070  12.263  -6.209  1.00  0.00    -0.624 OA
HETATM   30  O7  UNL     1      24.918  13.602  -4.331  1.00  0.00    -0.624 OA
BRANCH  28  31
HETATM   31  O8  UNL     1      23.440  12.127  -6.073  1.00  0.00    -0.173 OA
BRANCH  31  32
HETATM   32  P3  UNL     1      23.565  11.135  -7.424  1.00  0.00     0.431 P 
HETATM   33  O9  UNL     1      22.163  10.732  -7.857  1.00  0.00    -0.616 OA
HETATM   34  O10 UNL     1      24.281  11.960  -8.721  1.00  0.00    -0.616 OA
HETATM   35  O11 UNL     1      24.474   9.756  -7.123  1.00  0.00    -0.616 OA
ENDBRANCH  31  32
ENDBRANCH  28  31
ENDBRANCH  27  28
ENDBRANCH  24  27
ENDBRANCH  23  24
ENDBRANCH  22  23
ENDBRANCH   3  22
BRANCH   4  36
HETATM   36  O12 UNL     1      27.946  12.893  -4.088  1.00  0.00    -0.390 OA
ATOM     37  H12 UNL     1      27.700  12.370  -3.334  1.00  0.00     0.210 HD
ENDBRANCH   4  36
TORSDOF 10
ENDMDL
