MODEL 1
REMARK VINA RESULT: -6.415192433      0.000      0.000
REMARK  10 active torsions:
REMARK  status: ('A' for Active; 'I' for Inactive)
REMARK    1  A    between atoms: N2_4  and  C3_5 
REMARK    2  A    between atoms: C4_7  and  C5_8 
REMARK    3  A    between atoms: C5_8  and  O2_9 
REMARK    4  A    between atoms: O2_9  and  P1_10 
REMARK    5  A    between atoms: P1_10  and  O5_13 
REMARK    6  A    between atoms: O5_13  and  P2_14 
REMARK    7  A    between atoms: P2_14  and  O8_17 
REMARK    8  A    between atoms: O8_17  and  P3_18 
REMARK    9  A    between atoms: C6_22  and  O12_23 
REMARK   10  A    between atoms: C7_25  and  O13_26 
ROOT
HETATM    1  C3  UNL     1      29.991  15.590  -2.920  1.00  0.00     0.262 C 
HETATM    2  O1  UNL     1      29.586  15.993  -4.208  1.00  0.00    -0.353 OA
HETATM    3  C4  UNL     1      29.136  14.894  -4.796  1.00  0.00     0.180 C 
HETATM    4  C6  UNL     1      28.299  14.201  -3.744  1.00  0.00     0.182 C 
HETATM    5  C7  UNL     1      29.418  14.187  -2.673  1.00  0.00     0.198 C 
ENDROOT
BRANCH   1   6
HETATM    6  N2  UNL     1      29.273  16.431  -1.964  1.00  0.00    -0.297 N 
HETATM    7  C2  UNL     1      28.299  15.959  -1.138  1.00  0.00     0.190 A 
HETATM    8  N1  UNL     1      27.855  16.956  -0.402  1.00  0.00    -0.340 N 
HETATM    9  C1  UNL     1      26.768  16.921   0.544  1.00  0.00     0.157 C 
HETATM   10  C11 UNL     1      28.516  18.076  -0.726  1.00  0.00     0.148 A 
HETATM   11  C8  UNL     1      29.430  17.715  -1.738  1.00  0.00     0.146 A 
HETATM   12  C10 UNL     1      28.514  19.398  -0.350  1.00  0.00     0.278 A 
HETATM   13  N3  UNL     1      30.222  18.649  -2.274  1.00  0.00    -0.314 N 
HETATM   14  C9  UNL     1      30.186  19.921  -1.887  1.00  0.00     0.196 A 
ATOM     15  H3  UNL     1      30.878  18.376  -3.006  1.00  0.00     0.170 HD
HETATM   16  N4  UNL     1      30.979  20.919  -2.565  1.00  0.00    -0.063 NA
HETATM   17  N5  UNL     1      29.339  20.302  -0.929  1.00  0.00    -0.295 N 
ATOM     18  H5  UNL     1      29.313  21.277  -0.632  1.00  0.00     0.171 HD
HETATM   19  O14 UNL     1      27.715  19.756   0.566  1.00  0.00    -0.265 OA
ENDBRANCH   1   6
BRANCH   5  20
HETATM   20  O13 UNL     1      30.318  13.243  -3.057  1.00  0.00    -0.388 OA
ATOM     21  H13 UNL     1      30.358  12.550  -2.408  1.00  0.00     0.210 HD
ENDBRANCH   5  20
BRANCH   3  22
HETATM   22  C5  UNL     1      28.603  14.880  -6.171  1.00  0.00     0.216 C 
BRANCH  22  23
HETATM   23  O2  UNL     1      27.206  15.092  -5.908  1.00  0.00    -0.287 OA
BRANCH  23  24
HETATM   24  P1  UNL     1      26.390  15.090  -7.361  1.00  0.00     0.417 P 
HETATM   25  O3  UNL     1      25.981  16.582  -7.666  1.00  0.00    -0.624 OA
HETATM   26  O4  UNL     1      27.315  14.615  -8.623  1.00  0.00    -0.624 OA
BRANCH  24  27
HETATM   27  O5  UNL     1      24.931  14.245  -7.274  1.00  0.00    -0.180 OA
BRANCH  27  28
HETATM   28  P2  UNL     1      25.119  12.907  -6.233  1.00  0.00     0.428 P 
HETATM   29  O6  UNL     1      25.084  13.389  -4.826  1.00  0.00    -0.624 OA
HETATM   30  O7  UNL     1      23.962  11.728  -6.447  1.00  0.00    -0.624 OA
BRANCH  28  31
HETATM   31  O8  UNL     1      26.637  12.197  -6.592  1.00  0.00    -0.173 OA
BRANCH  31  32
HETATM   32  P3  UNL     1      26.470  11.080  -7.835  1.00  0.00     0.431 P 
HETATM   33  O9  UNL     1      27.818  10.914  -8.519  1.00  0.00    -0.616 OA
HETATM   34  O10 UNL     1      26.015   9.562  -7.232  1.00  0.00    -0.616 OA
HETATM   35  O11 UNL     1      25.324  11.550  -8.968  1.00  0.00    -0.616 OA
ENDBRANCH  31  32
ENDBRANCH  28  31
ENDBRANCH  27  28
ENDBRANCH  24  27
ENDBRANCH  23  24
ENDBRANCH  22  23
ENDBRANCH   3  22
BRANCH   4  36
HETATM   36  O12 UNL     1      27.978  12.903  -4.111  1.00  0.00    -0.390 OA
ATOM     37  H12 UNL     1      28.709  12.309  -3.985  1.00  0.00     0.210 HD
ENDBRANCH   4  36
TORSDOF 10
ENDMDL
