MODEL 2
REMARK VINA RESULT: -6.166015243      2.220      4.363
REMARK  10 active torsions:
REMARK  status: ('A' for Active; 'I' for Inactive)
REMARK    1  A    between atoms: N2_4  and  C3_5 
REMARK    2  A    between atoms: C4_7  and  C5_8 
REMARK    3  A    between atoms: C5_8  and  O2_9 
REMARK    4  A    between atoms: O2_9  and  P1_10 
REMARK    5  A    between atoms: P1_10  and  O5_13 
REMARK    6  A    between atoms: O5_13  and  P2_14 
REMARK    7  A    between atoms: P2_14  and  O8_17 
REMARK    8  A    between atoms: O8_17  and  P3_18 
REMARK    9  A    between atoms: C6_22  and  O12_23 
REMARK   10  A    between atoms: C7_25  and  O13_26 
ROOT
HETATM    1  C3  UNL     1      29.956  15.609  -2.968  1.00  0.00     0.262 C 
HETATM    2  O1  UNL     1      29.493  15.997  -4.241  1.00  0.00    -0.353 OA
HETATM    3  C4  UNL     1      29.052  14.885  -4.810  1.00  0.00     0.180 C 
HETATM    4  C6  UNL     1      28.274  14.172  -3.726  1.00  0.00     0.182 C 
HETATM    5  C7  UNL     1      29.432  14.192  -2.698  1.00  0.00     0.198 C 
ENDROOT
BRANCH   1   6
HETATM    6  N2  UNL     1      29.251  16.433  -1.987  1.00  0.00    -0.297 N 
HETATM    7  C2  UNL     1      28.271  15.951  -1.173  1.00  0.00     0.190 A 
HETATM    8  N1  UNL     1      27.842  16.933  -0.409  1.00  0.00    -0.340 N 
HETATM    9  C1  UNL     1      26.756  16.886   0.537  1.00  0.00     0.157 C 
HETATM   10  C11 UNL     1      28.517  18.053  -0.703  1.00  0.00     0.148 A 
HETATM   11  C8  UNL     1      29.425  17.708  -1.726  1.00  0.00     0.146 A 
HETATM   12  C10 UNL     1      28.534  19.364  -0.290  1.00  0.00     0.278 A 
HETATM   13  N3  UNL     1      30.230  18.646  -2.237  1.00  0.00    -0.314 N 
HETATM   14  C9  UNL     1      30.210  19.907  -1.815  1.00  0.00     0.196 A 
ATOM     15  H3  UNL     1      30.881  18.385  -2.978  1.00  0.00     0.170 HD
HETATM   16  N4  UNL     1      31.016  20.913  -2.465  1.00  0.00    -0.063 NA
HETATM   17  N5  UNL     1      29.370  20.273  -0.845  1.00  0.00    -0.295 N 
ATOM     18  H5  UNL     1      29.357  21.239  -0.520  1.00  0.00     0.171 HD
HETATM   19  O14 UNL     1      27.741  19.707   0.636  1.00  0.00    -0.265 OA
ENDBRANCH   1   6
BRANCH   5  20
HETATM   20  O13 UNL     1      30.343  13.272  -3.112  1.00  0.00    -0.388 OA
ATOM     21  H13 UNL     1      29.991  12.771  -3.839  1.00  0.00     0.210 HD
ENDBRANCH   5  20
BRANCH   3  22
HETATM   22  C5  UNL     1      28.470  14.852  -6.164  1.00  0.00     0.216 C 
BRANCH  22  23
HETATM   23  O2  UNL     1      27.071  14.928  -5.845  1.00  0.00    -0.287 OA
BRANCH  23  24
HETATM   24  P1  UNL     1      26.445  16.307  -6.541  1.00  0.00     0.417 P 
HETATM   25  O3  UNL     1      27.218  16.534  -7.897  1.00  0.00    -0.624 OA
HETATM   26  O4  UNL     1      24.867  16.170  -6.945  1.00  0.00    -0.624 OA
BRANCH  24  27
HETATM   27  O5  UNL     1      26.760  17.687  -5.621  1.00  0.00    -0.180 OA
BRANCH  27  28
HETATM   28  P2  UNL     1      25.686  17.735  -4.296  1.00  0.00     0.428 P 
HETATM   29  O6  UNL     1      24.364  18.226  -4.771  1.00  0.00    -0.624 OA
HETATM   30  O7  UNL     1      25.494  16.263  -3.541  1.00  0.00    -0.624 OA
BRANCH  28  31
HETATM   31  O8  UNL     1      26.354  18.812  -3.143  1.00  0.00    -0.173 OA
BRANCH  31  32
HETATM   32  P3  UNL     1      26.951  20.181  -3.913  1.00  0.00     0.431 P 
HETATM   33  O9  UNL     1      27.150  21.272  -2.872  1.00  0.00    -0.616 OA
HETATM   34  O10 UNL     1      28.461  19.870  -4.619  1.00  0.00    -0.616 OA
HETATM   35  O11 UNL     1      25.923  20.738  -5.117  1.00  0.00    -0.616 OA
ENDBRANCH  31  32
ENDBRANCH  28  31
ENDBRANCH  27  28
ENDBRANCH  24  27
ENDBRANCH  23  24
ENDBRANCH  22  23
ENDBRANCH   3  22
BRANCH   4  36
HETATM   36  O12 UNL     1      27.977  12.865  -4.079  1.00  0.00    -0.390 OA
ATOM     37  H12 UNL     1      28.627  12.253  -3.754  1.00  0.00     0.210 HD
ENDBRANCH   4  36
TORSDOF 10
ENDMDL
