MODEL 3
REMARK VINA RESULT: -5.693973343      0.913      4.006
REMARK  6 active torsions:
REMARK  status: ('A' for Active; 'I' for Inactive)
REMARK    1  A    between atoms: O1_1  and  C1_3 
REMARK    2  A    between atoms: C1_3  and  C2_4 
REMARK    3  A    between atoms: C3_5  and  O2_6 
REMARK    4  A    between atoms: C4_8  and  O3_9 
REMARK    5  A    between atoms: C6_12  and  O4_13 
REMARK    6  A    between atoms: C7_15  and  O5_16 
ROOT
HETATM    1  C2  UNL     1       1.800 -15.984  18.965  1.00  0.00     0.278 C 
HETATM    2  C3  UNL     1       0.618 -15.036  18.975  1.00  0.00     0.184 C 
HETATM    3  C4  UNL     1      -0.111 -15.564  20.212  1.00  0.00     0.185 C 
HETATM    4  C5  UNL     1       1.047 -15.793  21.146  1.00  0.00     0.285 C 
HETATM    5  C6  UNL     1       0.955 -17.074  21.916  1.00  0.00     0.184 C 
HETATM    6  C7  UNL     1       2.437 -17.400  22.137  1.00  0.00     0.177 C 
HETATM    7  C8  UNL     1       3.009 -16.988  20.787  1.00  0.00     0.308 C 
HETATM    8  N1  UNL     1       2.246 -15.847  20.348  1.00  0.00     0.110 N 
ENDROOT
BRANCH   1   9
HETATM    9  C1  UNL     1       2.861 -15.533  17.993  1.00  0.00     0.202 C 
BRANCH   9  10
HETATM   10  O1  UNL     1       3.591 -14.463  18.485  1.00  0.00    -0.399 OA
ATOM     11  H1  UNL     1       3.945 -13.924  17.787  1.00  0.00     0.209 HD
ENDBRANCH   9  10
ENDBRANCH   1   9
BRANCH   2  12
HETATM   12  O2  UNL     1      -0.146 -15.099  17.846  1.00  0.00    -0.391 OA
ATOM     13  H2  UNL     1      -0.852 -15.732  17.897  1.00  0.00     0.210 HD
ENDBRANCH   2  12
BRANCH   3  14
HETATM   14  O3  UNL     1      -1.043 -14.674  20.689  1.00  0.00    -0.391 OA
ATOM     15  H3  UNL     1      -1.396 -14.937  21.532  1.00  0.00     0.210 HD
ENDBRANCH   3  14
BRANCH   5  16
HETATM   16  O4  UNL     1       0.328 -16.845  23.145  1.00  0.00    -0.391 OA
ATOM     17  H4  UNL     1      -0.605 -17.000  23.065  1.00  0.00     0.210 HD
ENDBRANCH   5  16
BRANCH   6  18
HETATM   18  O5  UNL     1       2.588 -18.755  22.376  1.00  0.00    -0.391 OA
ATOM     19  H5  UNL     1       3.510 -18.983  22.362  1.00  0.00     0.210 HD
ENDBRANCH   6  18
TORSDOF 6
ENDMDL
