MODEL 5
REMARK VINA RESULT: -4.868006924      2.668      4.327
REMARK  6 active torsions:
REMARK  status: ('A' for Active; 'I' for Inactive)
REMARK    1  A    between atoms: O1_1  and  C1_3 
REMARK    2  A    between atoms: C1_3  and  C2_4 
REMARK    3  A    between atoms: C3_5  and  O2_6 
REMARK    4  A    between atoms: C4_8  and  O3_9 
REMARK    5  A    between atoms: C6_12  and  O4_13 
REMARK    6  A    between atoms: C7_15  and  O5_16 
ROOT
HETATM    1  C2  UNL     1       3.106 -19.740  19.628  1.00  0.00     0.278 C 
HETATM    2  C3  UNL     1       3.232 -20.543  20.907  1.00  0.00     0.184 C 
HETATM    3  C4  UNL     1       3.321 -19.393  21.913  1.00  0.00     0.185 C 
HETATM    4  C5  UNL     1       2.272 -18.461  21.368  1.00  0.00     0.285 C 
HETATM    5  C6  UNL     1       2.686 -17.022  21.373  1.00  0.00     0.184 C 
HETATM    6  C7  UNL     1       1.883 -16.474  20.185  1.00  0.00     0.177 C 
HETATM    7  C8  UNL     1       2.019 -17.636  19.209  1.00  0.00     0.308 C 
HETATM    8  N1  UNL     1       2.019 -18.840  20.001  1.00  0.00     0.110 N 
ENDROOT
BRANCH   1   9
HETATM    9  C1  UNL     1       2.725 -20.617  18.461  1.00  0.00     0.202 C 
BRANCH   9  10
HETATM   10  O1  UNL     1       3.766 -21.449  18.079  1.00  0.00    -0.399 OA
ATOM     11  H1  UNL     1       3.465 -22.160  17.525  1.00  0.00     0.209 HD
ENDBRANCH   9  10
ENDBRANCH   1   9
BRANCH   2  12
HETATM   12  O2  UNL     1       4.327 -21.358  20.939  1.00  0.00    -0.391 OA
ATOM     13  H2  UNL     1       4.130 -22.253  21.185  1.00  0.00     0.210 HD
ENDBRANCH   2  12
BRANCH   3  14
HETATM   14  O3  UNL     1       3.083 -19.807  23.202  1.00  0.00    -0.391 OA
ATOM     15  H3  UNL     1       3.611 -19.335  23.836  1.00  0.00     0.210 HD
ENDBRANCH   3  14
BRANCH   5  16
HETATM   16  O4  UNL     1       2.262 -16.410  22.557  1.00  0.00    -0.391 OA
ATOM     17  H4  UNL     1       2.468 -16.966  23.298  1.00  0.00     0.210 HD
ENDBRANCH   5  16
BRANCH   6  18
HETATM   18  O5  UNL     1       2.482 -15.320  19.709  1.00  0.00    -0.391 OA
ATOM     19  H5  UNL     1       2.197 -15.155  18.818  1.00  0.00     0.210 HD
ENDBRANCH   6  18
TORSDOF 6
ENDMDL
