MODEL 7
REMARK VINA RESULT: -4.456642088      2.887      5.012
REMARK  6 active torsions:
REMARK  status: ('A' for Active; 'I' for Inactive)
REMARK    1  A    between atoms: O1_1  and  C1_3 
REMARK    2  A    between atoms: C1_3  and  C2_4 
REMARK    3  A    between atoms: C3_5  and  O2_6 
REMARK    4  A    between atoms: C4_8  and  O3_9 
REMARK    5  A    between atoms: C6_12  and  O4_13 
REMARK    6  A    between atoms: C7_15  and  O5_16 
ROOT
HETATM    1  C2  UNL     1       2.220 -18.013  20.155  1.00  0.00     0.278 C 
HETATM    2  C3  UNL     1       2.898 -17.833  21.499  1.00  0.00     0.184 C 
HETATM    3  C4  UNL     1       2.719 -19.246  22.056  1.00  0.00     0.185 C 
HETATM    4  C5  UNL     1       3.029 -20.072  20.836  1.00  0.00     0.285 C 
HETATM    5  C6  UNL     1       2.101 -21.231  20.644  1.00  0.00     0.184 C 
HETATM    6  C7  UNL     1       2.129 -21.387  19.118  1.00  0.00     0.177 C 
HETATM    7  C8  UNL     1       2.134 -19.924  18.696  1.00  0.00     0.308 C 
HETATM    8  N1  UNL     1       2.904 -19.214  19.686  1.00  0.00     0.110 N 
ENDROOT
BRANCH   1   9
HETATM    9  C1  UNL     1       2.476 -16.837  19.245  1.00  0.00     0.202 C 
BRANCH   9  10
HETATM   10  O1  UNL     1       3.187 -15.834  19.885  1.00  0.00    -0.399 OA
ATOM     11  H1  UNL     1       3.883 -15.489  19.337  1.00  0.00     0.209 HD
ENDBRANCH   9  10
ENDBRANCH   1   9
BRANCH   2  12
HETATM   12  O2  UNL     1       2.317 -16.878  22.283  1.00  0.00    -0.391 OA
ATOM     13  H2  UNL     1       2.229 -17.134  23.193  1.00  0.00     0.210 HD
ENDBRANCH   2  12
BRANCH   3  14
HETATM   14  O3  UNL     1       3.549 -19.496  23.123  1.00  0.00    -0.391 OA
ATOM     15  H3  UNL     1       3.937 -20.362  23.085  1.00  0.00     0.210 HD
ENDBRANCH   3  14
BRANCH   5  16
HETATM   16  O4  UNL     1       2.635 -22.373  21.249  1.00  0.00    -0.391 OA
ATOM     17  H4  UNL     1       1.970 -22.800  21.775  1.00  0.00     0.210 HD
ENDBRANCH   5  16
BRANCH   6  18
HETATM   18  O5  UNL     1       0.988 -22.048  18.695  1.00  0.00    -0.391 OA
ATOM     19  H5  UNL     1       0.682 -22.631  19.380  1.00  0.00     0.210 HD
ENDBRANCH   6  18
TORSDOF 6
ENDMDL
