MODEL 9
REMARK VINA RESULT: -4.194251571      2.652      3.882
REMARK  6 active torsions:
REMARK  status: ('A' for Active; 'I' for Inactive)
REMARK    1  A    between atoms: O1_1  and  C1_3 
REMARK    2  A    between atoms: C1_3  and  C2_4 
REMARK    3  A    between atoms: C3_5  and  O2_6 
REMARK    4  A    between atoms: C4_8  and  O3_9 
REMARK    5  A    between atoms: C6_12  and  O4_13 
REMARK    6  A    between atoms: C7_15  and  O5_16 
ROOT
HETATM    1  C2  UNL     1       2.803 -19.746  21.388  1.00  0.00     0.278 C 
HETATM    2  C3  UNL     1       2.651 -20.624  20.162  1.00  0.00     0.184 C 
HETATM    3  C4  UNL     1       1.696 -19.748  19.349  1.00  0.00     0.185 C 
HETATM    4  C5  UNL     1       2.291 -18.386  19.586  1.00  0.00     0.285 C 
HETATM    5  C6  UNL     1       1.271 -17.321  19.844  1.00  0.00     0.184 C 
HETATM    6  C7  UNL     1       2.064 -16.355  20.734  1.00  0.00     0.177 C 
HETATM    7  C8  UNL     1       2.832 -17.349  21.595  1.00  0.00     0.308 C 
HETATM    8  N1  UNL     1       3.136 -18.476  20.749  1.00  0.00     0.110 N 
ENDROOT
BRANCH   1   9
HETATM    9  C1  UNL     1       3.921 -20.229  22.278  1.00  0.00     0.202 C 
BRANCH   9  10
HETATM   10  O1  UNL     1       3.571 -21.378  22.969  1.00  0.00    -0.399 OA
ATOM     11  H1  UNL     1       2.662 -21.616  22.822  1.00  0.00     0.209 HD
ENDBRANCH   9  10
ENDBRANCH   1   9
BRANCH   2  12
HETATM   12  O2  UNL     1       2.134 -21.858  20.432  1.00  0.00    -0.391 OA
ATOM     13  H2  UNL     1       2.264 -22.139  21.330  1.00  0.00     0.210 HD
ENDBRANCH   2  12
BRANCH   3  14
HETATM   14  O3  UNL     1       1.651 -20.114  18.025  1.00  0.00    -0.391 OA
ATOM     15  H3  UNL     1       0.851 -20.576  17.804  1.00  0.00     0.210 HD
ENDBRANCH   3  14
BRANCH   5  16
HETATM   16  O4  UNL     1       0.928 -16.691  18.644  1.00  0.00    -0.391 OA
ATOM     17  H4  UNL     1       0.064 -16.971  18.368  1.00  0.00     0.210 HD
ENDBRANCH   5  16
BRANCH   6  18
HETATM   18  O5  UNL     1       1.191 -15.583  21.481  1.00  0.00    -0.391 OA
ATOM     19  H5  UNL     1       1.299 -15.780  22.404  1.00  0.00     0.210 HD
ENDBRANCH   6  18
TORSDOF 6
ENDMDL
