MODEL 15
REMARK VINA RESULT: -5.580932797      3.363      4.457
REMARK  2 active torsions:
REMARK  status: ('A' for Active; 'I' for Inactive)
REMARK    1  A    between atoms: C1_2  and  C2_4 
REMARK    2  A    between atoms: C7_11  and  O3_12 
ROOT
HETATM    1  C2  UNL     1       1.840  26.196   5.170  1.00  0.00     0.077 A 
HETATM    2  C3  UNL     1       3.143  26.734   5.169  1.00  0.00     0.045 A 
HETATM    3  C4  UNL     1       3.585  27.548   4.155  1.00  0.00     0.036 A 
HETATM    4 CL1  UNL     1       5.213  28.211   4.170  1.00  0.00    -0.084 Cl
HETATM    5  C5  UNL     1       2.715  27.830   3.126  1.00  0.00     0.050 A 
HETATM    6  C6  UNL     1       1.454  27.343   3.072  1.00  0.00     0.069 A 
HETATM    7 CL2  UNL     1       0.375  27.723   1.748  1.00  0.00    -0.081 Cl
HETATM    8  C7  UNL     1       1.023  26.509   4.126  1.00  0.00     0.104 A 
ENDROOT
BRANCH   1   9
HETATM    9  C1  UNL     1       1.481  25.351   6.288  1.00  0.00     0.212 C 
HETATM   10  O1  UNL     1       1.878  25.631   7.457  1.00  0.00    -0.644 OA
HETATM   11  O2  UNL     1       0.705  24.237   6.098  1.00  0.00    -0.644 OA
ENDBRANCH   1   9
BRANCH   8  12
HETATM   12  O3  UNL     1      -0.241  26.044   4.036  1.00  0.00    -0.358 OA
ATOM     13  H3  UNL     1      -0.885  26.437   3.458  1.00  0.00     0.217 HD
ENDBRANCH   8  12
TORSDOF 2
ENDMDL
