MODEL 2
REMARK VINA RESULT: -6.329627744      3.052      4.262
REMARK  2 active torsions:
REMARK  status: ('A' for Active; 'I' for Inactive)
REMARK    1  A    between atoms: C1_2  and  C2_4 
REMARK    2  A    between atoms: C7_11  and  O3_12 
ROOT
HETATM    1  C2  UNL     1       0.780  24.303   9.373  1.00  0.00     0.077 A 
HETATM    2  C3  UNL     1       1.722  23.445   9.976  1.00  0.00     0.045 A 
HETATM    3  C4  UNL     1       2.164  23.648  11.261  1.00  0.00     0.036 A 
HETATM    4 CL1  UNL     1       3.338  22.567  11.996  1.00  0.00    -0.084 Cl
HETATM    5  C5  UNL     1       1.657  24.723  11.956  1.00  0.00     0.050 A 
HETATM    6  C6  UNL     1       0.752  25.580  11.431  1.00  0.00     0.069 A 
HETATM    7 CL2  UNL     1       0.129  26.937  12.344  1.00  0.00    -0.081 Cl
HETATM    8  C7  UNL     1       0.314  25.350  10.110  1.00  0.00     0.104 A 
ENDROOT
BRANCH   1   9
HETATM    9  C1  UNL     1       0.386  23.995   8.016  1.00  0.00     0.212 C 
HETATM   10  O1  UNL     1      -0.196  24.864   7.303  1.00  0.00    -0.644 OA
HETATM   11  O2  UNL     1       0.638  22.757   7.483  1.00  0.00    -0.644 OA
ENDBRANCH   1   9
BRANCH   8  12
HETATM   12  O3  UNL     1      -0.589  26.227   9.622  1.00  0.00    -0.358 OA
ATOM     13  H3  UNL     1      -0.554  27.155   9.825  1.00  0.00     0.217 HD
ENDBRANCH   8  12
TORSDOF 2
ENDMDL
