MODEL 1
REMARK VINA RESULT: -6.346795752      0.000      0.000
REMARK  2 active torsions:
REMARK  status: ('A' for Active; 'I' for Inactive)
REMARK    1  A    between atoms: C1_2  and  C2_4 
REMARK    2  A    between atoms: C7_11  and  O3_12 
ROOT
HETATM    1  C2  UNL     1       0.290  23.893   6.690  1.00  0.00     0.077 A 
HETATM    2  C3  UNL     1       0.269  24.096   8.085  1.00  0.00     0.045 A 
HETATM    3  C4  UNL     1       0.181  25.355   8.628  1.00  0.00     0.036 A 
HETATM    4 CL1  UNL     1       0.156  25.589  10.370  1.00  0.00    -0.084 Cl
HETATM    5  C5  UNL     1       0.113  26.427   7.767  1.00  0.00     0.050 A 
HETATM    6  C6  UNL     1       0.129  26.295   6.421  1.00  0.00     0.069 A 
HETATM    7 CL2  UNL     1       0.040  27.681   5.357  1.00  0.00    -0.081 Cl
HETATM    8  C7  UNL     1       0.220  24.992   5.888  1.00  0.00     0.104 A 
ENDROOT
BRANCH   1   9
HETATM    9  C1  UNL     1       0.384  22.525   6.228  1.00  0.00     0.212 C 
HETATM   10  O1  UNL     1       1.312  21.770   6.643  1.00  0.00    -0.644 OA
HETATM   11  O2  UNL     1      -0.529  22.028   5.336  1.00  0.00    -0.644 OA
ENDBRANCH   1   9
BRANCH   8  12
HETATM   12  O3  UNL     1       0.232  24.901   4.541  1.00  0.00    -0.358 OA
ATOM     13  H3  UNL     1       0.790  24.286   4.080  1.00  0.00     0.217 HD
ENDBRANCH   8  12
TORSDOF 2
ENDMDL
