MODEL 5
REMARK VINA RESULT: -5.901617001      0.911      2.971
REMARK  2 active torsions:
REMARK  status: ('A' for Active; 'I' for Inactive)
REMARK    1  A    between atoms: C1_2  and  C2_4 
REMARK    2  A    between atoms: C7_11  and  O3_12 
ROOT
HETATM    1  C2  UNL     1       0.318  23.750   6.833  1.00  0.00     0.077 A 
HETATM    2  C3  UNL     1       0.102  24.835   5.960  1.00  0.00     0.045 A 
HETATM    3  C4  UNL     1      -0.021  26.121   6.426  1.00  0.00     0.036 A 
HETATM    4 CL1  UNL     1      -0.289  27.462   5.322  1.00  0.00    -0.084 Cl
HETATM    5  C5  UNL     1       0.074  26.328   7.784  1.00  0.00     0.050 A 
HETATM    6  C6  UNL     1       0.279  25.327   8.670  1.00  0.00     0.069 A 
HETATM    7 CL2  UNL     1       0.394  25.628  10.390  1.00  0.00    -0.081 Cl
HETATM    8  C7  UNL     1       0.403  24.015   8.167  1.00  0.00     0.104 A 
ENDROOT
BRANCH   1   9
HETATM    9  C1  UNL     1       0.433  22.438   6.233  1.00  0.00     0.212 C 
HETATM   10  O1  UNL     1       1.391  21.671   6.544  1.00  0.00    -0.644 OA
HETATM   11  O2  UNL     1      -0.493  22.008   5.319  1.00  0.00    -0.644 OA
ENDBRANCH   1   9
BRANCH   8  12
HETATM   12  O3  UNL     1       0.608  23.045   9.082  1.00  0.00    -0.358 OA
ATOM     13  H3  UNL     1       1.474  22.701   9.270  1.00  0.00     0.217 HD
ENDBRANCH   8  12
TORSDOF 2
ENDMDL
