MODEL 9
REMARK VINA RESULT: -8.090751687      5.885      8.757
REMARK  0 active torsions:
REMARK  status: ('A' for Active; 'I' for Inactive)
ROOT
HETATM    1  C1  UNL     1     -16.323  33.012  -8.732  1.00  0.00     0.156 C 
HETATM    2  N1  UNL     1     -15.614  32.856  -7.475  1.00  0.00    -0.346 N 
HETATM    3  C2  UNL     1     -15.558  33.720  -6.436  1.00  0.00     0.111 A 
HETATM    4  C3  UNL     1     -14.782  33.204  -5.432  1.00  0.00     0.007 A 
HETATM    5  C4  UNL     1     -14.347  31.973  -5.878  1.00  0.00     0.001 A 
HETATM    6  C5  UNL     1     -13.550  30.977  -5.346  1.00  0.00     0.016 A 
HETATM    7  C6  UNL     1     -13.260  29.805  -6.018  1.00  0.00     0.025 A 
HETATM    8  C7  UNL     1     -13.782  29.620  -7.265  1.00  0.00     0.036 A 
HETATM    9 CL1  UNL     1     -13.413  28.139  -8.111  1.00  0.00    -0.084 Cl
HETATM   10  C8  UNL     1     -14.588  30.602  -7.831  1.00  0.00     0.054 A 
HETATM   11  C9  UNL     1     -14.878  31.774  -7.158  1.00  0.00     0.047 A 
HETATM   12  C10 UNL     1     -14.510  33.881  -4.158  1.00  0.00     0.157 C 
HETATM   13  C11 UNL     1     -13.084  34.271  -4.063  1.00  0.00     0.071 C 
HETATM   14  N2  UNL     1     -11.986  34.584  -3.995  1.00  0.00    -0.196 NA
HETATM   15  C12 UNL     1     -15.414  35.026  -3.874  1.00  0.00     0.056 C 
HETATM   16  C13 UNL     1     -16.590  34.558  -3.030  1.00  0.00     0.060 C 
HETATM   17  C14 UNL     1     -17.529  35.710  -2.801  1.00  0.00     0.235 C 
HETATM   18  N3  UNL     1     -16.825  36.899  -2.426  1.00  0.00    -0.075 N 
ATOM     19  H31 UNL     1     -17.354  37.427  -1.732  1.00  0.00     0.277 HD
ATOM     20  H32 UNL     1     -16.826  37.574  -3.191  1.00  0.00     0.277 HD
HETATM   21  C15 UNL     1     -15.479  36.657  -1.963  1.00  0.00     0.235 C 
HETATM   22  C16 UNL     1     -14.632  36.040  -3.043  1.00  0.00     0.060 C 
HETATM   23  N4  UNL     1     -15.915  35.708  -5.023  1.00  0.00    -0.345 N 
ATOM     24  H4  UNL     1     -16.102  36.709  -4.966  1.00  0.00     0.163 HD
HETATM   25  C17 UNL     1     -16.157  35.032  -6.233  1.00  0.00     0.269 C 
HETATM   26  O1  UNL     1     -16.887  35.566  -7.128  1.00  0.00    -0.266 OA
ENDROOT
TORSDOF 0
ENDMDL
