MODEL 3
REMARK VINA RESULT: -8.603439163      1.980      2.885
REMARK  0 active torsions:
REMARK  status: ('A' for Active; 'I' for Inactive)
ROOT
HETATM    1  C1  UNL     1     -20.072  36.788  -2.013  1.00  0.00     0.156 C 
HETATM    2  N1  UNL     1     -18.834  36.459  -1.331  1.00  0.00    -0.346 N 
HETATM    3  C2  UNL     1     -17.738  35.851  -1.839  1.00  0.00     0.111 A 
HETATM    4  C3  UNL     1     -16.778  35.720  -0.872  1.00  0.00     0.007 A 
HETATM    5  C4  UNL     1     -17.311  36.272   0.275  1.00  0.00     0.001 A 
HETATM    6  C5  UNL     1     -16.854  36.448   1.568  1.00  0.00     0.016 A 
HETATM    7  C6  UNL     1     -17.607  37.049   2.557  1.00  0.00     0.025 A 
HETATM    8  C7  UNL     1     -18.860  37.491   2.248  1.00  0.00     0.036 A 
HETATM    9 CL1  UNL     1     -19.809  38.250   3.500  1.00  0.00    -0.084 Cl
HETATM   10  C8  UNL     1     -19.352  37.330   0.956  1.00  0.00     0.054 A 
HETATM   11  C9  UNL     1     -18.598  36.729  -0.034  1.00  0.00     0.047 A 
HETATM   12  C10 UNL     1     -15.462  35.104  -1.082  1.00  0.00     0.157 C 
HETATM   13  C11 UNL     1     -15.349  33.832  -0.331  1.00  0.00     0.071 C 
HETATM   14  N2  UNL     1     -15.267  32.843   0.237  1.00  0.00    -0.196 NA
HETATM   15  C12 UNL     1     -15.093  34.934  -2.512  1.00  0.00     0.056 C 
HETATM   16  C13 UNL     1     -14.276  36.129  -2.979  1.00  0.00     0.060 C 
HETATM   17  C14 UNL     1     -13.961  35.976  -4.442  1.00  0.00     0.235 C 
HETATM   18  N3  UNL     1     -13.510  34.653  -4.751  1.00  0.00    -0.075 N 
ATOM     19  H31 UNL     1     -12.777  34.679  -5.460  1.00  0.00     0.277 HD
ATOM     20  H32 UNL     1     -14.226  34.138  -5.264  1.00  0.00     0.277 HD
HETATM   21  C15 UNL     1     -13.073  33.903  -3.595  1.00  0.00     0.235 C 
HETATM   22  C16 UNL     1     -14.199  33.701  -2.618  1.00  0.00     0.060 C 
HETATM   23  N4  UNL     1     -16.189  34.748  -3.407  1.00  0.00    -0.345 N 
ATOM     24  H4  UNL     1     -16.061  34.168  -4.236  1.00  0.00     0.163 HD
HETATM   25  C17 UNL     1     -17.440  35.345  -3.172  1.00  0.00     0.269 C 
HETATM   26  O1  UNL     1     -18.292  35.436  -4.114  1.00  0.00    -0.266 OA
ENDROOT
TORSDOF 0
ENDMDL
