MODEL 4
REMARK VINA RESULT: -8.399451594      3.308      6.428
REMARK  0 active torsions:
REMARK  status: ('A' for Active; 'I' for Inactive)
ROOT
HETATM    1  C1  UNL     1     -15.425  33.528   0.188  1.00  0.00     0.156 C 
HETATM    2  N1  UNL     1     -15.934  34.600  -0.646  1.00  0.00    -0.346 N 
HETATM    3  C2  UNL     1     -17.040  35.355  -0.452  1.00  0.00     0.111 A 
HETATM    4  C3  UNL     1     -17.177  36.264  -1.467  1.00  0.00     0.007 A 
HETATM    5  C4  UNL     1     -16.109  36.055  -2.316  1.00  0.00     0.001 A 
HETATM    6  C5  UNL     1     -15.683  36.633  -3.497  1.00  0.00     0.016 A 
HETATM    7  C6  UNL     1     -14.546  36.227  -4.167  1.00  0.00     0.025 A 
HETATM    8  C7  UNL     1     -13.806  35.208  -3.642  1.00  0.00     0.036 A 
HETATM    9 CL1  UNL     1     -12.369  34.698  -4.491  1.00  0.00    -0.084 Cl
HETATM   10  C8  UNL     1     -14.205  34.603  -2.454  1.00  0.00     0.054 A 
HETATM   11  C9  UNL     1     -15.343  35.010  -1.784  1.00  0.00     0.047 A 
HETATM   12  C10 UNL     1     -18.269  37.240  -1.570  1.00  0.00     0.157 C 
HETATM   13  C11 UNL     1     -19.150  36.925  -2.718  1.00  0.00     0.071 C 
HETATM   14  N2  UNL     1     -19.839  36.675  -3.596  1.00  0.00    -0.196 NA
HETATM   15  C12 UNL     1     -19.043  37.419  -0.314  1.00  0.00     0.056 C 
HETATM   16  C13 UNL     1     -18.476  38.585   0.480  1.00  0.00     0.060 C 
HETATM   17  C14 UNL     1     -19.225  38.718   1.777  1.00  0.00     0.235 C 
HETATM   18  N3  UNL     1     -20.641  38.625   1.580  1.00  0.00    -0.075 N 
ATOM     19  H31 UNL     1     -21.134  39.263   2.205  1.00  0.00     0.277 HD
ATOM     20  H32 UNL     1     -20.995  37.734   1.932  1.00  0.00     0.277 HD
HETATM   21  C15 UNL     1     -21.053  38.832   0.212  1.00  0.00     0.235 C 
HETATM   22  C16 UNL     1     -20.475  37.783  -0.698  1.00  0.00     0.060 C 
HETATM   23  N4  UNL     1     -19.104  36.272   0.533  1.00  0.00    -0.345 N 
ATOM     24  H4  UNL     1     -19.937  36.118   1.103  1.00  0.00     0.163 HD
HETATM   25  C17 UNL     1     -18.044  35.350   0.602  1.00  0.00     0.269 C 
HETATM   26  O1  UNL     1     -17.973  34.529   1.573  1.00  0.00    -0.266 OA
ENDROOT
TORSDOF 0
ENDMDL
