MODEL 2
REMARK VINA RESULT: -9.150599777      1.131      1.240
REMARK  0 active torsions:
REMARK  status: ('A' for Active; 'I' for Inactive)
ROOT
HETATM    1  C1  UNL     1     -20.669  38.118  -3.159  1.00  0.00     0.156 C 
HETATM    2  N1  UNL     1     -19.793  37.689  -2.086  1.00  0.00    -0.346 N 
HETATM    3  C2  UNL     1     -18.743  36.839  -2.156  1.00  0.00     0.111 A 
HETATM    4  C3  UNL     1     -18.170  36.691  -0.920  1.00  0.00     0.007 A 
HETATM    5  C4  UNL     1     -18.903  37.483  -0.060  1.00  0.00     0.001 A 
HETATM    6  C5  UNL     1     -18.836  37.764   1.292  1.00  0.00     0.016 A 
HETATM    7  C6  UNL     1     -19.715  38.619   1.927  1.00  0.00     0.025 A 
HETATM    8  C7  UNL     1     -20.697  39.215   1.191  1.00  0.00     0.036 A 
HETATM    9 CL1  UNL     1     -21.806  40.293   1.997  1.00  0.00    -0.084 Cl
HETATM   10  C8  UNL     1     -20.793  38.954  -0.173  1.00  0.00     0.054 A 
HETATM   11  C9  UNL     1     -19.913  38.099  -0.809  1.00  0.00     0.047 A 
HETATM   12  C10 UNL     1     -17.008  35.839  -0.638  1.00  0.00     0.157 C 
HETATM   13  C11 UNL     1     -17.392  34.688   0.212  1.00  0.00     0.071 C 
HETATM   14  N2  UNL     1     -17.691  33.792   0.855  1.00  0.00    -0.196 NA
HETATM   15  C12 UNL     1     -16.264  35.407  -1.849  1.00  0.00     0.056 C 
HETATM   16  C13 UNL     1     -15.117  36.368  -2.122  1.00  0.00     0.060 C 
HETATM   17  C14 UNL     1     -14.410  35.957  -3.383  1.00  0.00     0.235 C 
HETATM   18  N3  UNL     1     -14.166  34.546  -3.416  1.00  0.00    -0.075 N 
ATOM     19  H31 UNL     1     -13.264  34.347  -3.847  1.00  0.00     0.277 HD
ATOM     20  H32 UNL     1     -14.782  34.090  -4.091  1.00  0.00     0.277 HD
HETATM   21  C15 UNL     1     -14.266  33.908  -2.124  1.00  0.00     0.235 C 
HETATM   22  C16 UNL     1     -15.652  34.040  -1.555  1.00  0.00     0.060 C 
HETATM   23  N4  UNL     1     -17.049  35.279  -3.034  1.00  0.00    -0.345 N 
ATOM     24  H4  UNL     1     -16.795  34.573  -3.725  1.00  0.00     0.163 HD
HETATM   25  C17 UNL     1     -18.163  36.104  -3.271  1.00  0.00     0.269 C 
HETATM   26  O1  UNL     1     -18.650  36.200  -4.444  1.00  0.00    -0.266 OA
ENDROOT
TORSDOF 0
ENDMDL
