MODEL 6
REMARK VINA RESULT: -8.300008117      3.064      6.071
REMARK  0 active torsions:
REMARK  status: ('A' for Active; 'I' for Inactive)
ROOT
HETATM    1  C1  UNL     1     -15.412  36.917  -3.378  1.00  0.00     0.156 C 
HETATM    2  N1  UNL     1     -16.417  36.778  -2.342  1.00  0.00    -0.346 N 
HETATM    3  C2  UNL     1     -17.494  37.564  -2.113  1.00  0.00     0.111 A 
HETATM    4  C3  UNL     1     -18.201  37.098  -1.037  1.00  0.00     0.007 A 
HETATM    5  C4  UNL     1     -17.526  35.980  -0.589  1.00  0.00     0.001 A 
HETATM    6  C5  UNL     1     -17.722  35.078   0.439  1.00  0.00     0.016 A 
HETATM    7  C6  UNL     1     -16.874  34.015   0.679  1.00  0.00     0.025 A 
HETATM    8  C7  UNL     1     -15.792  33.844  -0.133  1.00  0.00     0.036 A 
HETATM    9 CL1  UNL     1     -14.723  32.500   0.172  1.00  0.00    -0.084 Cl
HETATM   10  C8  UNL     1     -15.564  34.734  -1.179  1.00  0.00     0.054 A 
HETATM   11  C9  UNL     1     -16.413  35.798  -1.419  1.00  0.00     0.047 A 
HETATM   12  C10 UNL     1     -19.427  37.715  -0.515  1.00  0.00     0.157 C 
HETATM   13  C11 UNL     1     -19.192  38.304   0.824  1.00  0.00     0.071 C 
HETATM   14  N2  UNL     1     -19.007  38.771   1.851  1.00  0.00    -0.196 NA
HETATM   15  C12 UNL     1     -20.059  38.688  -1.442  1.00  0.00     0.056 C 
HETATM   16  C13 UNL     1     -21.122  37.991  -2.278  1.00  0.00     0.060 C 
HETATM   17  C14 UNL     1     -21.710  38.971  -3.255  1.00  0.00     0.235 C 
HETATM   18  N3  UNL     1     -22.018  40.222  -2.629  1.00  0.00    -0.075 N 
ATOM     19  H31 UNL     1     -22.879  40.613  -3.011  1.00  0.00     0.277 HD
ATOM     20  H32 UNL     1     -21.358  40.942  -2.922  1.00  0.00     0.277 HD
HETATM   21  C15 UNL     1     -22.088  40.149  -1.188  1.00  0.00     0.235 C 
HETATM   22  C16 UNL     1     -20.765  39.745  -0.597  1.00  0.00     0.060 C 
HETATM   23  N4  UNL     1     -19.160  39.369  -2.317  1.00  0.00    -0.345 N 
ATOM     24  H4  UNL     1     -19.373  40.325  -2.604  1.00  0.00     0.163 HD
HETATM   25  C17 UNL     1     -17.988  38.754  -2.792  1.00  0.00     0.269 C 
HETATM   26  O1  UNL     1     -17.375  39.237  -3.799  1.00  0.00    -0.266 OA
ENDROOT
TORSDOF 0
ENDMDL
