MODEL 1
REMARK VINA RESULT: -9.324171652      0.000      0.000
REMARK  0 active torsions:
REMARK  status: ('A' for Active; 'I' for Inactive)
ROOT
HETATM    1  C1  UNL     1     -20.384  37.761  -3.387  1.00  0.00     0.156 C 
HETATM    2  N1  UNL     1     -19.759  37.552  -2.095  1.00  0.00    -0.346 N 
HETATM    3  C2  UNL     1     -18.837  36.622  -1.755  1.00  0.00     0.111 A 
HETATM    4  C3  UNL     1     -18.497  36.752  -0.435  1.00  0.00     0.007 A 
HETATM    5  C4  UNL     1     -19.242  37.807   0.051  1.00  0.00     0.001 A 
HETATM    6  C5  UNL     1     -19.355  38.427   1.281  1.00  0.00     0.016 A 
HETATM    7  C6  UNL     1     -20.200  39.495   1.511  1.00  0.00     0.025 A 
HETATM    8  C7  UNL     1     -20.960  39.963   0.479  1.00  0.00     0.036 A 
HETATM    9 CL1  UNL     1     -22.026  41.312   0.772  1.00  0.00    -0.084 Cl
HETATM   10  C8  UNL     1     -20.871  39.362  -0.774  1.00  0.00     0.054 A 
HETATM   11  C9  UNL     1     -20.025  38.293  -1.003  1.00  0.00     0.047 A 
HETATM   12  C10 UNL     1     -17.522  35.903   0.262  1.00  0.00     0.157 C 
HETATM   13  C11 UNL     1     -18.191  35.057   1.276  1.00  0.00     0.071 C 
HETATM   14  N2  UNL     1     -18.709  34.392   2.049  1.00  0.00    -0.196 NA
HETATM   15  C12 UNL     1     -16.659  35.101  -0.644  1.00  0.00     0.056 C 
HETATM   16  C13 UNL     1     -15.363  35.848  -0.918  1.00  0.00     0.060 C 
HETATM   17  C14 UNL     1     -14.526  35.056  -1.884  1.00  0.00     0.235 C 
HETATM   18  N3  UNL     1     -14.475  33.670  -1.526  1.00  0.00    -0.075 N 
ATOM     19  H31 UNL     1     -13.551  33.283  -1.716  1.00  0.00     0.277 HD
ATOM     20  H32 UNL     1     -15.031  33.111  -2.174  1.00  0.00     0.277 HD
HETATM   21  C15 UNL     1     -14.867  33.407  -0.161  1.00  0.00     0.235 C 
HETATM   22  C16 UNL     1     -16.295  33.810   0.085  1.00  0.00     0.060 C 
HETATM   23  N4  UNL     1     -17.254  34.738  -1.889  1.00  0.00    -0.345 N 
ATOM     24  H4  UNL     1     -16.992  33.854  -2.327  1.00  0.00     0.163 HD
HETATM   25  C17 UNL     1     -18.192  35.569  -2.527  1.00  0.00     0.269 C 
HETATM   26  O1  UNL     1     -18.466  35.396  -3.759  1.00  0.00    -0.266 OA
ENDROOT
TORSDOF 0
ENDMDL
