MODEL 7
REMARK VINA RESULT: -9.359924518      2.074      3.087
REMARK  13 active torsions:
REMARK  status: ('A' for Active; 'I' for Inactive)
REMARK    1  A    between atoms: C2_2  and  C4_4 
REMARK    2  A    between atoms: C4_4  and  N1_5 
REMARK    3  A    between atoms: N1_5  and  C5_6 
REMARK    4  A    between atoms: N1_5  and  S1_31 
REMARK    5  A    between atoms: C5_6  and  C6_7 
REMARK    6  A    between atoms: C6_7  and  O1_8 
REMARK    7  A    between atoms: C6_7  and  C7_10 
REMARK    8  A    between atoms: C7_10  and  C8_11 
REMARK    9  A    between atoms: C7_10  and  N2_18 
REMARK   10  A    between atoms: C8_11  and  C9_12 
REMARK       I    between atoms: N2_18  and  C15_20 
REMARK   11  A    between atoms: C15_20  and  O3_22 
REMARK   12  A    between atoms: O3_22  and  C16_23 
REMARK   13  A    between atoms: S1_31  and  C22_34 
ROOT
HETATM    1  C7  UNL     1     -11.595  18.800 -17.322  1.00  0.00     0.029 C 
ENDROOT
BRANCH   1   2
HETATM    2  C6  UNL     1     -12.869  19.229 -16.641  1.00  0.00     0.203 C 
BRANCH   2   3
HETATM    3  C5  UNL     1     -13.109  20.684 -16.606  1.00  0.00     0.119 C 
BRANCH   3   4
HETATM    4  N1  UNL     1     -14.388  21.127 -16.243  1.00  0.00    -0.262 N 
BRANCH   4   5
HETATM    5  C4  UNL     1     -15.403  21.310 -17.183  1.00  0.00     0.085 C 
BRANCH   5   6
HETATM    6  C2  UNL     1     -15.608  22.742 -17.660  1.00  0.00     0.017 C 
HETATM    7  C1  UNL     1     -15.087  22.991 -19.047  1.00  0.00     0.015 C 
HETATM    8  C3  UNL     1     -17.058  23.158 -17.571  1.00  0.00     0.015 C 
ENDBRANCH   5   6
ENDBRANCH   4   5
BRANCH   4   9
HETATM    9  S1  UNL     1     -14.812  20.849 -14.631  1.00  0.00     0.267 S 
HETATM   10  O6  UNL     1     -15.199  19.384 -14.494  1.00  0.00    -0.200 OA
HETATM   11  O7  UNL     1     -13.662  21.135 -13.674  1.00  0.00    -0.200 OA
BRANCH   9  12
HETATM   12  C22 UNL     1     -16.187  21.802 -14.087  1.00  0.00     0.080 A 
HETATM   13  C23 UNL     1     -17.497  21.446 -14.331  1.00  0.00     0.027 A 
HETATM   14  C24 UNL     1     -18.561  22.214 -13.898  1.00  0.00     0.028 A 
HETATM   15  C25 UNL     1     -18.350  23.380 -13.195  1.00  0.00     0.046 A 
HETATM   16  N3  UNL     1     -19.456  24.183 -12.742  1.00  0.00    -0.102 NA
HETATM   17  C26 UNL     1     -17.048  23.751 -12.943  1.00  0.00     0.028 A 
HETATM   18  C27 UNL     1     -15.992  22.982 -13.376  1.00  0.00     0.027 A 
ENDBRANCH   9  12
ENDBRANCH   4   9
ENDBRANCH   3   4
ENDBRANCH   2   3
BRANCH   2  19
HETATM   19  O1  UNL     1     -13.916  18.632 -17.386  1.00  0.00    -0.385 OA
ATOM     20  H1  UNL     1     -14.741  18.923 -17.015  1.00  0.00     0.211 HD
ENDBRANCH   2  19
ENDBRANCH   1   2
BRANCH   1  21
HETATM   21  C8  UNL     1     -11.730  18.698 -18.816  1.00  0.00     0.094 C 
BRANCH  21  22
HETATM   22  C9  UNL     1     -10.856  19.578 -19.591  1.00  0.00    -0.053 A 
HETATM   23  C10 UNL     1     -11.357  20.807 -20.023  1.00  0.00     0.007 A 
HETATM   24  C11 UNL     1     -10.645  21.698 -20.780  1.00  0.00     0.001 A 
HETATM   25  C12 UNL     1      -9.351  21.371 -21.142  1.00  0.00     0.000 A 
HETATM   26  C13 UNL     1      -8.814  20.172 -20.741  1.00  0.00     0.001 A 
HETATM   27  C14 UNL     1      -9.581  19.287 -19.966  1.00  0.00     0.007 A 
ENDBRANCH  21  22
ENDBRANCH   1  21
BRANCH   1  28
HETATM   28  N2  UNL     1     -10.846  17.815 -16.647  1.00  0.00    -0.307 N 
HETATM   29  C15 UNL     1      -9.972  18.061 -15.558  1.00  0.00     0.365 C 
HETATM   30  O2  UNL     1      -9.818  19.213 -15.138  1.00  0.00    -0.238 OA
ATOM     31  H2  UNL     1     -10.940  16.851 -16.966  1.00  0.00     0.170 HD
BRANCH  29  32
HETATM   32  O3  UNL     1      -9.275  17.015 -14.945  1.00  0.00    -0.296 OA
BRANCH  32  33
HETATM   33  C16 UNL     1      -8.394  16.183 -15.684  1.00  0.00     0.166 C 
HETATM   34  C17 UNL     1      -6.963  16.549 -15.471  1.00  0.00     0.204 C 
HETATM   35  O4  UNL     1      -6.226  15.407 -15.295  1.00  0.00    -0.358 OA
HETATM   36  C18 UNL     1      -7.061  14.304 -15.377  1.00  0.00     0.266 C 
HETATM   37  O5  UNL     1      -6.816  13.364 -14.384  1.00  0.00    -0.361 OA
HETATM   38  C21 UNL     1      -8.457  14.802 -15.064  1.00  0.00     0.075 C 
HETATM   39  C19 UNL     1      -7.355  13.817 -13.205  1.00  0.00     0.171 C 
HETATM   40  C20 UNL     1      -8.459  14.815 -13.570  1.00  0.00     0.038 C 
ENDBRANCH  32  33
ENDBRANCH  29  32
ENDBRANCH   1  28
TORSDOF 13
ENDMDL
