MODEL 4
REMARK VINA RESULT: -9.584347534      2.327      9.798
REMARK  13 active torsions:
REMARK  status: ('A' for Active; 'I' for Inactive)
REMARK    1  A    between atoms: C2_2  and  C4_4 
REMARK    2  A    between atoms: C4_4  and  N1_5 
REMARK    3  A    between atoms: N1_5  and  C5_6 
REMARK    4  A    between atoms: N1_5  and  S1_31 
REMARK    5  A    between atoms: C5_6  and  C6_7 
REMARK    6  A    between atoms: C6_7  and  O1_8 
REMARK    7  A    between atoms: C6_7  and  C7_10 
REMARK    8  A    between atoms: C7_10  and  C8_11 
REMARK    9  A    between atoms: C7_10  and  N2_18 
REMARK   10  A    between atoms: C8_11  and  C9_12 
REMARK       I    between atoms: N2_18  and  C15_20 
REMARK   11  A    between atoms: C15_20  and  O3_22 
REMARK   12  A    between atoms: O3_22  and  C16_23 
REMARK   13  A    between atoms: S1_31  and  C22_34 
ROOT
HETATM    1  C7  UNL     1     -13.596  19.850 -16.729  1.00  0.00     0.029 C 
ENDROOT
BRANCH   1   2
HETATM    2  C6  UNL     1     -13.153  18.830 -17.747  1.00  0.00     0.203 C 
BRANCH   2   3
HETATM    3  C5  UNL     1     -12.228  17.797 -17.248  1.00  0.00     0.119 C 
BRANCH   3   4
HETATM    4  N1  UNL     1     -10.886  18.155 -17.063  1.00  0.00    -0.262 N 
BRANCH   4   5
HETATM    5  C4  UNL     1     -10.217  19.001 -17.949  1.00  0.00     0.085 C 
BRANCH   5   6
HETATM    6  C2  UNL     1      -9.771  18.364 -19.259  1.00  0.00     0.017 C 
HETATM    7  C1  UNL     1     -10.581  18.805 -20.445  1.00  0.00     0.015 C 
HETATM    8  C3  UNL     1      -8.301  18.597 -19.522  1.00  0.00     0.015 C 
ENDBRANCH   5   6
ENDBRANCH   4   5
BRANCH   4   9
HETATM    9  S1  UNL     1     -10.321  18.027 -15.476  1.00  0.00     0.267 S 
HETATM   10  O6  UNL     1      -9.538  19.291 -15.155  1.00  0.00    -0.200 OA
HETATM   11  O7  UNL     1     -11.455  17.895 -14.468  1.00  0.00    -0.200 OA
BRANCH   9  12
HETATM   12  C22 UNL     1      -9.238  16.666 -15.218  1.00  0.00     0.080 A 
HETATM   13  C23 UNL     1      -8.393  16.176 -16.192  1.00  0.00     0.027 A 
HETATM   14  C24 UNL     1      -7.554  15.102 -15.967  1.00  0.00     0.028 A 
HETATM   15  C25 UNL     1      -7.529  14.470 -14.742  1.00  0.00     0.046 A 
HETATM   16  N3  UNL     1      -6.657  13.350 -14.504  1.00  0.00    -0.102 NA
HETATM   17  C26 UNL     1      -8.367  14.945 -13.758  1.00  0.00     0.028 A 
HETATM   18  C27 UNL     1      -9.200  16.016 -13.987  1.00  0.00     0.027 A 
ENDBRANCH   9  12
ENDBRANCH   4   9
ENDBRANCH   3   4
ENDBRANCH   2   3
BRANCH   2  19
HETATM   19  O1  UNL     1     -14.338  18.185 -18.177  1.00  0.00    -0.385 OA
ATOM     20  H1  UNL     1     -14.097  17.527 -18.819  1.00  0.00     0.211 HD
ENDBRANCH   2  19
ENDBRANCH   1   2
BRANCH   1  21
HETATM   21  C8  UNL     1     -14.057  19.231 -15.438  1.00  0.00     0.094 C 
BRANCH  21  22
HETATM   22  C9  UNL     1     -14.829  20.107 -14.557  1.00  0.00    -0.053 A 
HETATM   23  C10 UNL     1     -14.142  20.982 -13.715  1.00  0.00     0.007 A 
HETATM   24  C11 UNL     1     -14.753  21.825 -12.827  1.00  0.00     0.001 A 
HETATM   25  C12 UNL     1     -16.135  21.817 -12.752  1.00  0.00     0.000 A 
HETATM   26  C13 UNL     1     -16.854  20.973 -13.561  1.00  0.00     0.001 A 
HETATM   27  C14 UNL     1     -16.185  20.124 -14.458  1.00  0.00     0.007 A 
ENDBRANCH  21  22
ENDBRANCH   1  21
BRANCH   1  28
HETATM   28  N2  UNL     1     -14.312  20.950 -17.239  1.00  0.00    -0.307 N 
HETATM   29  C15 UNL     1     -13.863  22.294 -17.221  1.00  0.00     0.365 C 
HETATM   30  O2  UNL     1     -12.766  22.571 -16.722  1.00  0.00    -0.238 OA
ATOM     31  H2  UNL     1     -15.225  20.765 -17.655  1.00  0.00     0.170 HD
BRANCH  29  32
HETATM   32  O3  UNL     1     -14.643  23.321 -17.761  1.00  0.00    -0.296 OA
BRANCH  32  33
HETATM   33  C16 UNL     1     -16.058  23.230 -17.800  1.00  0.00     0.166 C 
HETATM   34  C17 UNL     1     -16.717  24.411 -17.168  1.00  0.00     0.204 C 
HETATM   35  O4  UNL     1     -17.759  24.822 -17.955  1.00  0.00    -0.358 OA
HETATM   36  C18 UNL     1     -17.847  24.000 -19.068  1.00  0.00     0.266 C 
HETATM   37  O5  UNL     1     -18.046  24.706 -20.248  1.00  0.00    -0.361 OA
HETATM   38  C21 UNL     1     -16.477  23.379 -19.248  1.00  0.00     0.075 C 
HETATM   39  C19 UNL     1     -16.856  25.274 -20.630  1.00  0.00     0.171 C 
HETATM   40  C20 UNL     1     -15.738  24.453 -19.978  1.00  0.00     0.038 C 
ENDBRANCH  32  33
ENDBRANCH  29  32
ENDBRANCH   1  28
TORSDOF 13
ENDMDL
