MODEL 5
REMARK VINA RESULT: -9.485789864      2.573      9.992
REMARK  13 active torsions:
REMARK  status: ('A' for Active; 'I' for Inactive)
REMARK    1  A    between atoms: C2_2  and  C4_4 
REMARK    2  A    between atoms: C4_4  and  N1_5 
REMARK    3  A    between atoms: N1_5  and  C5_6 
REMARK    4  A    between atoms: N1_5  and  S1_31 
REMARK    5  A    between atoms: C5_6  and  C6_7 
REMARK    6  A    between atoms: C6_7  and  O1_8 
REMARK    7  A    between atoms: C6_7  and  C7_10 
REMARK    8  A    between atoms: C7_10  and  C8_11 
REMARK    9  A    between atoms: C7_10  and  N2_18 
REMARK   10  A    between atoms: C8_11  and  C9_12 
REMARK       I    between atoms: N2_18  and  C15_20 
REMARK   11  A    between atoms: C15_20  and  O3_22 
REMARK   12  A    between atoms: O3_22  and  C16_23 
REMARK   13  A    between atoms: S1_31  and  C22_34 
ROOT
HETATM    1  C7  UNL     1     -13.653  20.752 -17.867  1.00  0.00     0.029 C 
ENDROOT
BRANCH   1   2
HETATM    2  C6  UNL     1     -12.384  20.218 -18.480  1.00  0.00     0.203 C 
BRANCH   2   3
HETATM    3  C5  UNL     1     -12.116  18.789 -18.236  1.00  0.00     0.119 C 
BRANCH   3   4
HETATM    4  N1  UNL     1     -10.864  18.439 -17.712  1.00  0.00    -0.262 N 
BRANCH   4   5
HETATM    5  C4  UNL     1      -9.671  18.890 -18.279  1.00  0.00     0.085 C 
BRANCH   5   6
HETATM    6  C2  UNL     1      -9.496  18.597 -19.764  1.00  0.00     0.017 C 
HETATM    7  C1  UNL     1      -9.163  19.815 -20.578  1.00  0.00     0.015 C 
HETATM    8  C3  UNL     1      -8.465  17.519 -20.004  1.00  0.00     0.015 C 
ENDBRANCH   5   6
ENDBRANCH   4   5
BRANCH   4   9
HETATM    9  S1  UNL     1     -10.871  17.982 -16.085  1.00  0.00     0.267 S 
HETATM   10  O6  UNL     1     -10.501  19.202 -15.255  1.00  0.00    -0.200 OA
HETATM   11  O7  UNL     1     -12.236  17.486 -15.630  1.00  0.00    -0.200 OA
BRANCH   9  12
HETATM   12  C22 UNL     1      -9.707  16.720 -15.700  1.00  0.00     0.080 A 
HETATM   13  C23 UNL     1      -8.850  16.172 -16.631  1.00  0.00     0.027 A 
HETATM   14  C24 UNL     1      -7.947  15.178 -16.306  1.00  0.00     0.028 A 
HETATM   15  C25 UNL     1      -7.868  14.690 -15.019  1.00  0.00     0.046 A 
HETATM   16  N3  UNL     1      -6.929  13.654 -14.677  1.00  0.00    -0.102 NA
HETATM   17  C26 UNL     1      -8.717  15.226 -14.076  1.00  0.00     0.028 A 
HETATM   18  C27 UNL     1      -9.614  16.216 -14.406  1.00  0.00     0.027 A 
ENDBRANCH   9  12
ENDBRANCH   4   9
ENDBRANCH   3   4
ENDBRANCH   2   3
BRANCH   2  19
HETATM   19  O1  UNL     1     -12.529  20.404 -19.876  1.00  0.00    -0.385 OA
ATOM     20  H1  UNL     1     -13.242  21.016 -20.017  1.00  0.00     0.211 HD
ENDBRANCH   2  19
ENDBRANCH   1   2
BRANCH   1  21
HETATM   21  C8  UNL     1     -14.456  19.695 -17.161  1.00  0.00     0.094 C 
BRANCH  21  22
HETATM   22  C9  UNL     1     -14.716  19.940 -15.742  1.00  0.00    -0.053 A 
HETATM   23  C10 UNL     1     -13.712  20.523 -14.969  1.00  0.00     0.007 A 
HETATM   24  C11 UNL     1     -13.828  20.771 -13.628  1.00  0.00     0.001 A 
HETATM   25  C12 UNL     1     -15.008  20.428 -12.992  1.00  0.00     0.000 A 
HETATM   26  C13 UNL     1     -16.025  19.852 -13.712  1.00  0.00     0.001 A 
HETATM   27  C14 UNL     1     -15.862  19.614 -15.086  1.00  0.00     0.007 A 
ENDBRANCH  21  22
ENDBRANCH   1  21
BRANCH   1  28
HETATM   28  N2  UNL     1     -14.339  21.718 -18.630  1.00  0.00    -0.307 N 
HETATM   29  C15 UNL     1     -14.735  22.995 -18.161  1.00  0.00     0.365 C 
HETATM   30  O2  UNL     1     -14.488  23.329 -16.996  1.00  0.00    -0.238 OA
ATOM     31  H2  UNL     1     -14.567  21.480 -19.595  1.00  0.00     0.170 HD
BRANCH  29  32
HETATM   32  O3  UNL     1     -15.406  23.893 -18.997  1.00  0.00    -0.296 OA
BRANCH  32  33
HETATM   33  C16 UNL     1     -16.798  23.771 -19.244  1.00  0.00     0.166 C 
HETATM   34  C17 UNL     1     -17.524  23.164 -18.089  1.00  0.00     0.204 C 
HETATM   35  O4  UNL     1     -18.680  23.863 -17.864  1.00  0.00    -0.358 OA
HETATM   36  C18 UNL     1     -18.781  24.892 -18.787  1.00  0.00     0.266 C 
HETATM   37  O5  UNL     1     -19.178  26.095 -18.215  1.00  0.00    -0.361 OA
HETATM   38  C21 UNL     1     -17.373  25.172 -19.270  1.00  0.00     0.075 C 
HETATM   39  C19 UNL     1     -18.105  26.647 -17.558  1.00  0.00     0.171 C 
HETATM   40  C20 UNL     1     -16.840  26.059 -18.192  1.00  0.00     0.038 C 
ENDBRANCH  32  33
ENDBRANCH  29  32
ENDBRANCH   1  28
TORSDOF 13
ENDMDL
