MODEL 1
REMARK VINA RESULT: -9.858618822      0.000      0.000
REMARK  13 active torsions:
REMARK  status: ('A' for Active; 'I' for Inactive)
REMARK    1  A    between atoms: C2_2  and  C4_4 
REMARK    2  A    between atoms: C4_4  and  N1_5 
REMARK    3  A    between atoms: N1_5  and  C5_6 
REMARK    4  A    between atoms: N1_5  and  S1_31 
REMARK    5  A    between atoms: C5_6  and  C6_7 
REMARK    6  A    between atoms: C6_7  and  O1_8 
REMARK    7  A    between atoms: C6_7  and  C7_10 
REMARK    8  A    between atoms: C7_10  and  C8_11 
REMARK    9  A    between atoms: C7_10  and  N2_18 
REMARK   10  A    between atoms: C8_11  and  C9_12 
REMARK       I    between atoms: N2_18  and  C15_20 
REMARK   11  A    between atoms: C15_20  and  O3_22 
REMARK   12  A    between atoms: O3_22  and  C16_23 
REMARK   13  A    between atoms: S1_31  and  C22_34 
ROOT
HETATM    1  C7  UNL     1     -11.595  18.293 -17.891  1.00  0.00     0.029 C 
ENDROOT
BRANCH   1   2
HETATM    2  C6  UNL     1     -13.038  18.180 -17.470  1.00  0.00     0.203 C 
BRANCH   2   3
HETATM    3  C5  UNL     1     -13.794  19.446 -17.455  1.00  0.00     0.119 C 
BRANCH   3   4
HETATM    4  N1  UNL     1     -13.878  20.142 -16.241  1.00  0.00    -0.262 N 
BRANCH   4   5
HETATM    5  C4  UNL     1     -13.574  19.539 -15.019  1.00  0.00     0.085 C 
BRANCH   5   6
HETATM    6  C2  UNL     1     -14.765  19.242 -14.117  1.00  0.00     0.017 C 
HETATM    7  C1  UNL     1     -14.725  19.983 -12.811  1.00  0.00     0.015 C 
HETATM    8  C3  UNL     1     -16.077  19.505 -14.819  1.00  0.00     0.015 C 
ENDBRANCH   5   6
ENDBRANCH   4   5
BRANCH   4   9
HETATM    9  S1  UNL     1     -13.768  21.823 -16.370  1.00  0.00     0.267 S 
HETATM   10  O6  UNL     1     -13.997  22.414 -14.987  1.00  0.00    -0.200 OA
HETATM   11  O7  UNL     1     -12.402  22.277 -16.867  1.00  0.00    -0.200 OA
BRANCH   9  12
HETATM   12  C22 UNL     1     -14.970  22.531 -17.442  1.00  0.00     0.080 A 
HETATM   13  C23 UNL     1     -14.679  22.981 -18.712  1.00  0.00     0.027 A 
HETATM   14  C24 UNL     1     -15.639  23.538 -19.535  1.00  0.00     0.028 A 
HETATM   15  C25 UNL     1     -16.944  23.666 -19.109  1.00  0.00     0.046 A 
HETATM   16  N3  UNL     1     -17.947  24.247 -19.963  1.00  0.00    -0.102 NA
HETATM   17  C26 UNL     1     -17.253  23.222 -17.843  1.00  0.00     0.028 A 
HETATM   18  C27 UNL     1     -16.292  22.668 -17.029  1.00  0.00     0.027 A 
ENDBRANCH   9  12
ENDBRANCH   4   9
ENDBRANCH   3   4
ENDBRANCH   2   3
BRANCH   2  19
HETATM   19  O1  UNL     1     -13.644  17.321 -18.419  1.00  0.00    -0.385 OA
ATOM     20  H1  UNL     1     -13.430  16.426 -18.182  1.00  0.00     0.211 HD
ENDBRANCH   2  19
ENDBRANCH   1   2
BRANCH   1  21
HETATM   21  C8  UNL     1     -11.415  18.285 -19.384  1.00  0.00     0.094 C 
BRANCH  21  22
HETATM   22  C9  UNL     1     -10.705  19.437 -19.941  1.00  0.00    -0.053 A 
HETATM   23  C10 UNL     1     -11.392  20.643 -20.080  1.00  0.00     0.007 A 
HETATM   24  C11 UNL     1     -10.843  21.777 -20.616  1.00  0.00     0.001 A 
HETATM   25  C12 UNL     1      -9.530  21.735 -21.047  1.00  0.00     0.000 A 
HETATM   26  C13 UNL     1      -8.812  20.569 -20.930  1.00  0.00     0.001 A 
HETATM   27  C14 UNL     1      -9.416  19.429 -20.375  1.00  0.00     0.007 A 
ENDBRANCH  21  22
ENDBRANCH   1  21
BRANCH   1  28
HETATM   28  N2  UNL     1     -10.672  17.580 -17.099  1.00  0.00    -0.307 N 
HETATM   29  C15 UNL     1      -9.981  18.107 -15.980  1.00  0.00     0.365 C 
HETATM   30  O2  UNL     1     -10.166  19.281 -15.638  1.00  0.00    -0.238 OA
ATOM     31  H2  UNL     1     -10.487  16.610 -17.352  1.00  0.00     0.170 HD
BRANCH  29  32
HETATM   32  O3  UNL     1      -9.087  17.319 -15.250  1.00  0.00    -0.296 OA
BRANCH  32  33
HETATM   33  C16 UNL     1      -8.271  16.348 -15.885  1.00  0.00     0.166 C 
HETATM   34  C17 UNL     1      -6.820  16.563 -15.606  1.00  0.00     0.204 C 
HETATM   35  O4  UNL     1      -6.232  15.359 -15.321  1.00  0.00    -0.358 OA
HETATM   36  C18 UNL     1      -7.184  14.354 -15.392  1.00  0.00     0.266 C 
HETATM   37  O5  UNL     1      -7.104  13.457 -14.335  1.00  0.00    -0.361 OA
HETATM   38  C21 UNL     1      -8.527  15.025 -15.193  1.00  0.00     0.075 C 
HETATM   39  C19 UNL     1      -7.650  14.041 -13.218  1.00  0.00     0.171 C 
HETATM   40  C20 UNL     1      -8.609  15.131 -13.706  1.00  0.00     0.038 C 
ENDBRANCH  32  33
ENDBRANCH  29  32
ENDBRANCH   1  28
TORSDOF 13
ENDMDL
