MODEL 8
REMARK VINA RESULT: -9.346958791      1.994      3.082
REMARK  13 active torsions:
REMARK  status: ('A' for Active; 'I' for Inactive)
REMARK    1  A    between atoms: C2_2  and  C4_4 
REMARK    2  A    between atoms: C4_4  and  N1_5 
REMARK    3  A    between atoms: N1_5  and  C5_6 
REMARK    4  A    between atoms: N1_5  and  S1_31 
REMARK    5  A    between atoms: C5_6  and  C6_7 
REMARK    6  A    between atoms: C6_7  and  O1_8 
REMARK    7  A    between atoms: C6_7  and  C7_10 
REMARK    8  A    between atoms: C7_10  and  C8_11 
REMARK    9  A    between atoms: C7_10  and  N2_18 
REMARK   10  A    between atoms: C8_11  and  C9_12 
REMARK       I    between atoms: N2_18  and  C15_20 
REMARK   11  A    between atoms: C15_20  and  O3_22 
REMARK   12  A    between atoms: O3_22  and  C16_23 
REMARK   13  A    between atoms: S1_31  and  C22_34 
ROOT
HETATM    1  C7  UNL     1     -11.917  18.905 -17.477  1.00  0.00     0.029 C 
ENDROOT
BRANCH   1   2
HETATM    2  C6  UNL     1     -13.331  18.426 -17.269  1.00  0.00     0.203 C 
BRANCH   2   3
HETATM    3  C5  UNL     1     -14.344  19.486 -17.127  1.00  0.00     0.119 C 
BRANCH   3   4
HETATM    4  N1  UNL     1     -14.020  20.598 -16.338  1.00  0.00    -0.262 N 
BRANCH   4   5
HETATM    5  C4  UNL     1     -13.844  21.870 -16.887  1.00  0.00     0.085 C 
BRANCH   5   6
HETATM    6  C2  UNL     1     -15.033  22.422 -17.664  1.00  0.00     0.017 C 
HETATM    7  C1  UNL     1     -15.532  23.737 -17.137  1.00  0.00     0.015 C 
HETATM    8  C3  UNL     1     -14.730  22.539 -19.140  1.00  0.00     0.015 C 
ENDBRANCH   5   6
ENDBRANCH   4   5
BRANCH   4   9
HETATM    9  S1  UNL     1     -14.439  20.467 -14.707  1.00  0.00     0.267 S 
HETATM   10  O6  UNL     1     -14.780  19.011 -14.427  1.00  0.00    -0.200 OA
HETATM   11  O7  UNL     1     -13.303  20.882 -13.783  1.00  0.00    -0.200 OA
BRANCH   9  12
HETATM   12  C22 UNL     1     -15.846  21.424 -14.258  1.00  0.00     0.080 A 
HETATM   13  C23 UNL     1     -17.130  21.109 -14.649  1.00  0.00     0.027 A 
HETATM   14  C24 UNL     1     -18.220  21.879 -14.288  1.00  0.00     0.028 A 
HETATM   15  C25 UNL     1     -18.060  23.007 -13.512  1.00  0.00     0.046 A 
HETATM   16  N3  UNL     1     -19.192  23.812 -13.135  1.00  0.00    -0.102 NA
HETATM   17  C26 UNL     1     -16.784  23.337 -13.114  1.00  0.00     0.028 A 
HETATM   18  C27 UNL     1     -15.703  22.566 -13.476  1.00  0.00     0.027 A 
ENDBRANCH   9  12
ENDBRANCH   4   9
ENDBRANCH   3   4
ENDBRANCH   2   3
BRANCH   2  19
HETATM   19  O1  UNL     1     -13.648  17.670 -18.424  1.00  0.00    -0.385 OA
ATOM     20  H1  UNL     1     -13.513  16.752 -18.220  1.00  0.00     0.211 HD
ENDBRANCH   2  19
ENDBRANCH   1   2
BRANCH   1  21
HETATM   21  C8  UNL     1     -11.663  19.404 -18.873  1.00  0.00     0.094 C 
BRANCH  21  22
HETATM   22  C9  UNL     1     -10.316  19.170 -19.393  1.00  0.00    -0.053 A 
HETATM   23  C10 UNL     1      -9.369  20.188 -19.281  1.00  0.00     0.007 A 
HETATM   24  C11 UNL     1      -8.089  20.096 -19.758  1.00  0.00     0.001 A 
HETATM   25  C12 UNL     1      -7.702  18.928 -20.389  1.00  0.00     0.000 A 
HETATM   26  C13 UNL     1      -8.600  17.897 -20.523  1.00  0.00     0.001 A 
HETATM   27  C14 UNL     1      -9.903  18.035 -20.020  1.00  0.00     0.007 A 
ENDBRANCH  21  22
ENDBRANCH   1  21
BRANCH   1  28
HETATM   28  N2  UNL     1     -10.915  18.142 -16.844  1.00  0.00    -0.307 N 
HETATM   29  C15 UNL     1     -10.207  18.532 -15.680  1.00  0.00     0.365 C 
HETATM   30  O2  UNL     1     -10.449  19.621 -15.148  1.00  0.00    -0.238 OA
ATOM     31  H2  UNL     1     -10.682  17.239 -17.256  1.00  0.00     0.170 HD
BRANCH  29  32
HETATM   32  O3  UNL     1      -9.233  17.702 -15.119  1.00  0.00    -0.296 OA
BRANCH  32  33
HETATM   33  C16 UNL     1      -8.611  16.677 -15.877  1.00  0.00     0.166 C 
HETATM   34  C17 UNL     1      -7.121  16.755 -15.814  1.00  0.00     0.204 C 
HETATM   35  O4  UNL     1      -6.611  15.497 -15.632  1.00  0.00    -0.358 OA
HETATM   36  C18 UNL     1      -7.651  14.583 -15.570  1.00  0.00     0.266 C 
HETATM   37  O5  UNL     1      -7.499  13.658 -14.545  1.00  0.00    -0.361 OA
HETATM   38  C21 UNL     1      -8.883  15.366 -15.168  1.00  0.00     0.075 C 
HETATM   39  C19 UNL     1      -7.819  14.263 -13.354  1.00  0.00     0.171 C 
HETATM   40  C20 UNL     1      -8.736  15.446 -13.684  1.00  0.00     0.038 C 
ENDBRANCH  32  33
ENDBRANCH  29  32
ENDBRANCH   1  28
TORSDOF 13
ENDMDL
