MODEL 15
REMARK VINA RESULT: -10.726101405      3.462     10.247
REMARK  14 active torsions:
REMARK  status: ('A' for Active; 'I' for Inactive)
REMARK    1  A    between atoms: C2_2  and  N1_5 
REMARK       I    between atoms: N1_5  and  C5_7 
REMARK    2  A    between atoms: C5_7  and  C6_9 
REMARK    3  A    between atoms: N2_18  and  C15_19 
REMARK    4  A    between atoms: C15_19  and  C16_20 
REMARK    5  A    between atoms: C16_20  and  O2_21 
REMARK    6  A    between atoms: C16_20  and  C17_23 
REMARK    7  A    between atoms: C17_23  and  C18_24 
REMARK    8  A    between atoms: C17_23  and  N3_31 
REMARK    9  A    between atoms: C18_24  and  C19_25 
REMARK       I    between atoms: N3_31  and  C25_33 
REMARK   10  A    between atoms: C25_33  and  C26_35 
REMARK   11  A    between atoms: C26_35  and  C27_36 
REMARK   12  A    between atoms: C26_35  and  N5_40 
REMARK   13  A    between atoms: C27_36  and  C28_37 
REMARK       I    between atoms: N5_40  and  C29_42 
REMARK   14  A    between atoms: C29_42  and  C30_44 
ROOT
HETATM    1  C17 UNL     1      16.930  23.328  18.320  1.00  0.00     0.119 C 
ENDROOT
BRANCH   1   2
HETATM    2  C16 UNL     1      15.594  23.953  17.969  1.00  0.00     0.169 C 
BRANCH   2   3
HETATM    3  C15 UNL     1      14.409  23.065  17.998  1.00  0.00     0.307 C 
BRANCH   3   4
HETATM    4  N2  UNL     1      14.324  21.976  17.094  1.00  0.00     0.105 N 
HETATM    5  C6  UNL     1      13.601  20.837  17.636  1.00  0.00     0.314 C 
HETATM    6  C7  UNL     1      13.525  19.782  16.555  1.00  0.00     0.050 C 
HETATM    7  C8  UNL     1      12.378  20.193  15.649  1.00  0.00    -0.006 C 
HETATM    8  C9  UNL     1      12.665  19.673  14.264  1.00  0.00     0.005 C 
HETATM    9  C13 UNL     1      12.296  21.704  15.697  1.00  0.00     0.018 C 
HETATM   10  C10 UNL     1      11.420  19.848  13.421  1.00  0.00     0.000 C 
HETATM   11  C11 UNL     1      10.763  21.137  13.874  1.00  0.00     0.000 C 
HETATM   12  C12 UNL     1      11.788  22.148  14.319  1.00  0.00     0.007 C 
HETATM   13  C14 UNL     1      13.645  22.338  15.859  1.00  0.00     0.278 C 
BRANCH   5  14
HETATM   14  C5  UNL     1      14.259  20.217  18.802  1.00  0.00     0.252 C 
HETATM   15  N1  UNL     1      13.560  19.551  19.828  1.00  0.00    -0.351 N 
ATOM     16  H1  UNL     1      12.544  19.500  19.749  1.00  0.00     0.163 HD
HETATM   17  O1  UNL     1      15.501  20.272  18.908  1.00  0.00    -0.271 OA
BRANCH  15  18
HETATM   18  C2  UNL     1      14.166  18.940  20.973  1.00  0.00     0.022 C 
HETATM   19  C1  UNL     1      13.157  18.141  21.774  1.00  0.00     0.037 C 
HETATM   20  C3  UNL     1      14.794  19.942  21.910  1.00  0.00     0.037 C 
HETATM   21  C4  UNL     1      15.241  17.970  20.541  1.00  0.00     0.037 C 
ENDBRANCH  15  18
ENDBRANCH   5  14
ENDBRANCH   3   4
ENDBRANCH   2   3
BRANCH   2  22
HETATM   22  O2  UNL     1      15.404  25.192  18.549  1.00  0.00    -0.392 OA
ATOM     23  H2  UNL     1      15.326  25.912  17.934  1.00  0.00     0.210 HD
ENDBRANCH   2  22
ENDBRANCH   1   2
BRANCH   1  24
HETATM   24  C18 UNL     1      16.974  23.144  19.832  1.00  0.00     0.066 C 
BRANCH  24  25
HETATM   25  C19 UNL     1      18.374  23.124  20.328  1.00  0.00    -0.056 A 
HETATM   26  C20 UNL     1      18.883  24.180  21.020  1.00  0.00     0.007 A 
HETATM   27  C21 UNL     1      20.178  24.191  21.495  1.00  0.00     0.001 A 
HETATM   28  C22 UNL     1      20.993  23.093  21.264  1.00  0.00     0.000 A 
HETATM   29  C23 UNL     1      20.470  22.022  20.559  1.00  0.00     0.001 A 
HETATM   30  C24 UNL     1      19.185  22.011  20.086  1.00  0.00     0.007 A 
ENDBRANCH  24  25
ENDBRANCH   1  24
BRANCH   1  31
HETATM   31  N3  UNL     1      17.985  24.353  18.096  1.00  0.00    -0.352 N 
HETATM   32  C25 UNL     1      18.461  24.663  16.808  1.00  0.00     0.241 C 
HETATM   33  O3  UNL     1      17.962  24.041  15.829  1.00  0.00    -0.271 OA
ATOM     34  H3  UNL     1      18.376  24.845  18.900  1.00  0.00     0.163 HD
BRANCH  32  35
HETATM   35  C26 UNL     1      19.532  25.704  16.600  1.00  0.00     0.185 C 
BRANCH  35  36
HETATM   36  C27 UNL     1      19.924  25.767  15.139  1.00  0.00     0.134 C 
BRANCH  36  37
HETATM   37  C28 UNL     1      20.786  26.946  14.840  1.00  0.00     0.233 C 
HETATM   38  N4  UNL     1      20.446  28.188  15.431  1.00  0.00    -0.062 NA
HETATM   39  O4  UNL     1      21.782  26.820  14.080  1.00  0.00    -0.277 OA
ENDBRANCH  36  37
ENDBRANCH  35  36
BRANCH  35  40
HETATM   40  N5  UNL     1      20.694  25.343  17.362  1.00  0.00    -0.342 N 
HETATM   41  C29 UNL     1      21.253  26.153  18.384  1.00  0.00     0.268 C 
HETATM   42  O5  UNL     1      20.703  27.239  18.638  1.00  0.00    -0.266 OA
ATOM     43  H5  UNL     1      21.145  24.452  17.156  1.00  0.00     0.163 HD
BRANCH  41  44
HETATM   44  C30 UNL     1      22.448  25.740  19.135  1.00  0.00     0.101 A 
HETATM   45  C31 UNL     1      22.912  26.535  20.161  1.00  0.00     0.036 A 
HETATM   46  C32 UNL     1      24.021  26.241  20.923  1.00  0.00     0.016 A 
HETATM   47  C33 UNL     1      24.689  25.060  20.609  1.00  0.00    -0.009 A 
HETATM   48  C34 UNL     1      25.816  24.702  21.336  1.00  0.00     0.013 A 
HETATM   49  C38 UNL     1      24.206  24.272  19.572  1.00  0.00     0.043 A 
HETATM   50  C35 UNL     1      26.453  23.530  20.998  1.00  0.00     0.001 A 
HETATM   51  C36 UNL     1      25.987  22.731  19.968  1.00  0.00     0.002 A 
HETATM   52  C37 UNL     1      24.867  23.095  19.253  1.00  0.00     0.030 A 
HETATM   53  N6  UNL     1      23.104  24.619  18.858  1.00  0.00    -0.351 N 
ATOM     54  H6  UNL     1      22.779  24.014  18.103  1.00  0.00     0.166 HD
ENDBRANCH  41  44
ENDBRANCH  35  40
ENDBRANCH  32  35
ENDBRANCH   1  31
TORSDOF 14
ENDMDL
