MODEL 3
REMARK VINA RESULT: -11.080731247      2.038      6.962
REMARK  14 active torsions:
REMARK  status: ('A' for Active; 'I' for Inactive)
REMARK    1  A    between atoms: C2_2  and  N1_5 
REMARK       I    between atoms: N1_5  and  C5_7 
REMARK    2  A    between atoms: C5_7  and  C6_9 
REMARK    3  A    between atoms: N2_18  and  C15_19 
REMARK    4  A    between atoms: C15_19  and  C16_20 
REMARK    5  A    between atoms: C16_20  and  O2_21 
REMARK    6  A    between atoms: C16_20  and  C17_23 
REMARK    7  A    between atoms: C17_23  and  C18_24 
REMARK    8  A    between atoms: C17_23  and  N3_31 
REMARK    9  A    between atoms: C18_24  and  C19_25 
REMARK       I    between atoms: N3_31  and  C25_33 
REMARK   10  A    between atoms: C25_33  and  C26_35 
REMARK   11  A    between atoms: C26_35  and  C27_36 
REMARK   12  A    between atoms: C26_35  and  N5_40 
REMARK   13  A    between atoms: C27_36  and  C28_37 
REMARK       I    between atoms: N5_40  and  C29_42 
REMARK   14  A    between atoms: C29_42  and  C30_44 
ROOT
HETATM    1  C17 UNL     1      16.622  21.760  18.738  1.00  0.00     0.119 C 
ENDROOT
BRANCH   1   2
HETATM    2  C16 UNL     1      16.930  21.861  17.258  1.00  0.00     0.169 C 
BRANCH   2   3
HETATM    3  C15 UNL     1      16.868  23.210  16.649  1.00  0.00     0.307 C 
BRANCH   3   4
HETATM    4  N2  UNL     1      17.788  23.563  15.630  1.00  0.00     0.105 N 
HETATM    5  C6  UNL     1      17.176  24.304  14.538  1.00  0.00     0.314 C 
HETATM    6  C7  UNL     1      18.271  24.676  13.563  1.00  0.00     0.050 C 
HETATM    7  C8  UNL     1      18.944  25.908  14.140  1.00  0.00    -0.006 C 
HETATM    8  C9  UNL     1      20.378  25.917  13.677  1.00  0.00     0.005 C 
HETATM    9  C13 UNL     1      18.819  25.817  15.646  1.00  0.00     0.018 C 
HETATM   10  C10 UNL     1      20.983  27.261  14.026  1.00  0.00     0.000 C 
HETATM   11  C11 UNL     1      20.368  27.688  15.344  1.00  0.00     0.000 C 
HETATM   12  C12 UNL     1      20.068  26.499  16.219  1.00  0.00     0.007 C 
HETATM   13  C14 UNL     1      18.869  24.399  16.131  1.00  0.00     0.278 C 
BRANCH   5  14
HETATM   14  C5  UNL     1      16.170  23.529  13.787  1.00  0.00     0.252 C 
HETATM   15  N1  UNL     1      15.289  22.607  14.387  1.00  0.00    -0.351 N 
ATOM     16  H1  UNL     1      15.360  22.477  15.396  1.00  0.00     0.163 HD
HETATM   17  O1  UNL     1      16.076  23.680  12.552  1.00  0.00    -0.271 OA
BRANCH  15  18
HETATM   18  C2  UNL     1      14.303  21.838  13.688  1.00  0.00     0.022 C 
HETATM   19  C1  UNL     1      14.329  20.384  14.116  1.00  0.00     0.037 C 
HETATM   20  C3  UNL     1      14.486  21.871  12.191  1.00  0.00     0.037 C 
HETATM   21  C4  UNL     1      12.919  22.356  13.999  1.00  0.00     0.037 C 
ENDBRANCH  15  18
ENDBRANCH   5  14
ENDBRANCH   3   4
ENDBRANCH   2   3
BRANCH   2  22
HETATM   22  O2  UNL     1      18.019  21.101  16.875  1.00  0.00    -0.392 OA
ATOM     23  H2  UNL     1      17.805  20.322  16.375  1.00  0.00     0.210 HD
ENDBRANCH   2  22
ENDBRANCH   1   2
BRANCH   1  24
HETATM   24  C18 UNL     1      17.826  21.122  19.420  1.00  0.00     0.066 C 
BRANCH  24  25
HETATM   25  C19 UNL     1      18.668  22.148  20.089  1.00  0.00    -0.056 A 
HETATM   26  C20 UNL     1      19.909  21.837  20.553  1.00  0.00     0.007 A 
HETATM   27  C21 UNL     1      20.715  22.767  21.176  1.00  0.00     0.001 A 
HETATM   28  C22 UNL     1      20.251  24.064  21.337  1.00  0.00     0.000 A 
HETATM   29  C23 UNL     1      18.988  24.375  20.862  1.00  0.00     0.001 A 
HETATM   30  C24 UNL     1      18.187  23.452  20.245  1.00  0.00     0.007 A 
ENDBRANCH  24  25
ENDBRANCH   1  24
BRANCH   1  31
HETATM   31  N3  UNL     1      15.572  20.721  18.916  1.00  0.00    -0.352 N 
HETATM   32  C25 UNL     1      14.200  21.034  18.872  1.00  0.00     0.241 C 
HETATM   33  O3  UNL     1      13.875  22.238  18.673  1.00  0.00    -0.271 OA
ATOM     34  H3  UNL     1      15.854  19.754  19.075  1.00  0.00     0.163 HD
BRANCH  32  35
HETATM   35  C26 UNL     1      13.149  19.968  19.056  1.00  0.00     0.185 C 
BRANCH  35  36
HETATM   36  C27 UNL     1      13.670  18.866  19.953  1.00  0.00     0.134 C 
BRANCH  36  37
HETATM   37  C28 UNL     1      12.666  18.451  20.973  1.00  0.00     0.233 C 
HETATM   38  N4  UNL     1      13.120  17.720  22.098  1.00  0.00    -0.062 NA
HETATM   39  O4  UNL     1      11.453  18.750  20.819  1.00  0.00    -0.277 OA
ENDBRANCH  36  37
ENDBRANCH  35  36
BRANCH  35  40
HETATM   40  N5  UNL     1      12.830  19.395  17.779  1.00  0.00    -0.342 N 
HETATM   41  C29 UNL     1      11.536  19.423  17.199  1.00  0.00     0.268 C 
HETATM   42  O5  UNL     1      10.621  19.979  17.833  1.00  0.00    -0.266 OA
ATOM     43  H5  UNL     1      13.579  18.941  17.257  1.00  0.00     0.163 HD
BRANCH  41  44
HETATM   44  C30 UNL     1      11.259  18.819  15.888  1.00  0.00     0.101 A 
HETATM   45  C31 UNL     1      10.715  19.592  14.886  1.00  0.00     0.036 A 
HETATM   46  C32 UNL     1      10.416  19.122  13.626  1.00  0.00     0.016 A 
HETATM   47  C33 UNL     1      10.694  17.780  13.386  1.00  0.00    -0.009 A 
HETATM   48  C34 UNL     1      10.416  17.239  12.138  1.00  0.00     0.013 A 
HETATM   49  C38 UNL     1      11.242  17.016  14.409  1.00  0.00     0.043 A 
HETATM   50  C35 UNL     1      10.701  15.908  11.936  1.00  0.00     0.001 A 
HETATM   51  C36 UNL     1      11.248  15.131  12.943  1.00  0.00     0.002 A 
HETATM   52  C37 UNL     1      11.520  15.676  14.178  1.00  0.00     0.030 A 
HETATM   53  N6  UNL     1      11.514  17.540  15.632  1.00  0.00    -0.351 N 
ATOM     54  H6  UNL     1      11.918  16.948  16.358  1.00  0.00     0.166 HD
ENDBRANCH  41  44
ENDBRANCH  35  40
ENDBRANCH  32  35
ENDBRANCH   1  31
TORSDOF 14
ENDMDL
