MODEL 2
REMARK VINA RESULT: -11.217364964      2.231      5.931
REMARK  14 active torsions:
REMARK  status: ('A' for Active; 'I' for Inactive)
REMARK    1  A    between atoms: C2_2  and  N1_5 
REMARK       I    between atoms: N1_5  and  C5_7 
REMARK    2  A    between atoms: C5_7  and  C6_9 
REMARK    3  A    between atoms: N2_18  and  C15_19 
REMARK    4  A    between atoms: C15_19  and  C16_20 
REMARK    5  A    between atoms: C16_20  and  O2_21 
REMARK    6  A    between atoms: C16_20  and  C17_23 
REMARK    7  A    between atoms: C17_23  and  C18_24 
REMARK    8  A    between atoms: C17_23  and  N3_31 
REMARK    9  A    between atoms: C18_24  and  C19_25 
REMARK       I    between atoms: N3_31  and  C25_33 
REMARK   10  A    between atoms: C25_33  and  C26_35 
REMARK   11  A    between atoms: C26_35  and  C27_36 
REMARK   12  A    between atoms: C26_35  and  N5_40 
REMARK   13  A    between atoms: C27_36  and  C28_37 
REMARK       I    between atoms: N5_40  and  C29_42 
REMARK   14  A    between atoms: C29_42  and  C30_44 
ROOT
HETATM    1  C17 UNL     1      16.768  22.092  18.815  1.00  0.00     0.119 C 
ENDROOT
BRANCH   1   2
HETATM    2  C16 UNL     1      16.994  22.341  17.337  1.00  0.00     0.169 C 
BRANCH   2   3
HETATM    3  C15 UNL     1      16.392  23.567  16.763  1.00  0.00     0.307 C 
BRANCH   3   4
HETATM    4  N2  UNL     1      15.713  23.501  15.520  1.00  0.00     0.105 N 
HETATM    5  C6  UNL     1      16.608  23.349  14.386  1.00  0.00     0.314 C 
HETATM    6  C7  UNL     1      15.759  23.222  13.141  1.00  0.00     0.050 C 
HETATM    7  C8  UNL     1      15.305  21.774  13.090  1.00  0.00    -0.006 C 
HETATM    8  C9  UNL     1      13.980  21.723  12.374  1.00  0.00     0.005 C 
HETATM    9  C13 UNL     1      15.210  21.289  14.521  1.00  0.00     0.018 C 
HETATM   10  C10 UNL     1      13.646  20.274  12.089  1.00  0.00     0.000 C 
HETATM   11  C11 UNL     1      14.165  19.468  13.264  1.00  0.00     0.000 C 
HETATM   12  C12 UNL     1      14.080  20.252  14.547  1.00  0.00     0.007 C 
HETATM   13  C14 UNL     1      14.787  22.379  15.460  1.00  0.00     0.278 C 
BRANCH   5  14
HETATM   14  C5  UNL     1      17.508  24.501  14.181  1.00  0.00     0.252 C 
HETATM   15  N1  UNL     1      18.644  24.752  14.975  1.00  0.00    -0.351 N 
ATOM     16  H1  UNL     1      18.847  24.095  15.728  1.00  0.00     0.163 HD
HETATM   17  O1  UNL     1      17.269  25.311  13.262  1.00  0.00    -0.271 OA
BRANCH  15  18
HETATM   18  C2  UNL     1      19.536  25.861  14.806  1.00  0.00     0.022 C 
HETATM   19  C1  UNL     1      20.089  26.335  16.135  1.00  0.00     0.037 C 
HETATM   20  C3  UNL     1      18.880  27.046  14.142  1.00  0.00     0.037 C 
HETATM   21  C4  UNL     1      20.723  25.453  13.964  1.00  0.00     0.037 C 
ENDBRANCH  15  18
ENDBRANCH   5  14
ENDBRANCH   3   4
ENDBRANCH   2   3
BRANCH   2  22
HETATM   22  O2  UNL     1      18.291  22.089  16.935  1.00  0.00    -0.392 OA
ATOM     23  H2  UNL     1      18.829  21.643  17.579  1.00  0.00     0.210 HD
ENDBRANCH   2  22
ENDBRANCH   1   2
BRANCH   1  24
HETATM   24  C18 UNL     1      18.025  21.435  19.372  1.00  0.00     0.066 C 
BRANCH  24  25
HETATM   25  C19 UNL     1      18.862  22.419  20.105  1.00  0.00    -0.056 A 
HETATM   26  C20 UNL     1      20.125  22.101  20.502  1.00  0.00     0.007 A 
HETATM   27  C21 UNL     1      20.928  22.993  21.182  1.00  0.00     0.001 A 
HETATM   28  C22 UNL     1      20.438  24.258  21.473  1.00  0.00     0.000 A 
HETATM   29  C23 UNL     1      19.153  24.576  21.067  1.00  0.00     0.001 A 
HETATM   30  C24 UNL     1      18.355  23.690  20.393  1.00  0.00     0.007 A 
ENDBRANCH  24  25
ENDBRANCH   1  24
BRANCH   1  31
HETATM   31  N3  UNL     1      15.759  21.006  18.945  1.00  0.00    -0.352 N 
HETATM   32  C25 UNL     1      14.379  21.274  19.008  1.00  0.00     0.241 C 
HETATM   33  O3  UNL     1      14.009  22.480  18.950  1.00  0.00    -0.271 OA
ATOM     34  H3  UNL     1      16.078  20.038  18.990  1.00  0.00     0.163 HD
BRANCH  32  35
HETATM   35  C26 UNL     1      13.371  20.161  19.141  1.00  0.00     0.185 C 
BRANCH  35  36
HETATM   36  C27 UNL     1      13.980  18.987  19.879  1.00  0.00     0.134 C 
BRANCH  36  37
HETATM   37  C28 UNL     1      13.107  18.505  20.985  1.00  0.00     0.233 C 
HETATM   38  N4  UNL     1      11.710  18.719  20.875  1.00  0.00    -0.062 NA
HETATM   39  O4  UNL     1      13.615  17.928  21.982  1.00  0.00    -0.277 OA
ENDBRANCH  36  37
ENDBRANCH  35  36
BRANCH  35  40
HETATM   40  N5  UNL     1      12.983  19.717  17.832  1.00  0.00    -0.342 N 
HETATM   41  C29 UNL     1      11.636  19.606  17.401  1.00  0.00     0.268 C 
HETATM   42  O5  UNL     1      10.736  19.914  18.203  1.00  0.00    -0.266 OA
ATOM     43  H5  UNL     1      13.719  19.466  17.173  1.00  0.00     0.163 HD
BRANCH  41  44
HETATM   44  C30 UNL     1      11.289  19.144  16.049  1.00  0.00     0.101 A 
HETATM   45  C31 UNL     1      10.631  19.995  15.189  1.00  0.00     0.036 A 
HETATM   46  C32 UNL     1      10.259  19.658  13.906  1.00  0.00     0.016 A 
HETATM   47  C33 UNL     1      10.585  18.371  13.487  1.00  0.00    -0.009 A 
HETATM   48  C34 UNL     1      10.239  17.965  12.206  1.00  0.00     0.013 A 
HETATM   49  C38 UNL     1      11.248  17.528  14.368  1.00  0.00     0.043 A 
HETATM   50  C35 UNL     1      10.574  16.686  11.825  1.00  0.00     0.001 A 
HETATM   51  C36 UNL     1      11.236  15.830  12.689  1.00  0.00     0.002 A 
HETATM   52  C37 UNL     1      11.575  16.243  13.958  1.00  0.00     0.030 A 
HETATM   53  N6  UNL     1      11.588  17.921  15.623  1.00  0.00    -0.351 N 
ATOM     54  H6  UNL     1      12.076  17.273  16.242  1.00  0.00     0.166 HD
ENDBRANCH  41  44
ENDBRANCH  35  40
ENDBRANCH  32  35
ENDBRANCH   1  31
TORSDOF 14
ENDMDL
