MODEL 1
REMARK VINA RESULT: -11.371717308      0.000      0.000
REMARK  14 active torsions:
REMARK  status: ('A' for Active; 'I' for Inactive)
REMARK    1  A    between atoms: C2_2  and  N1_5 
REMARK       I    between atoms: N1_5  and  C5_7 
REMARK    2  A    between atoms: C5_7  and  C6_9 
REMARK    3  A    between atoms: N2_18  and  C15_19 
REMARK    4  A    between atoms: C15_19  and  C16_20 
REMARK    5  A    between atoms: C16_20  and  O2_21 
REMARK    6  A    between atoms: C16_20  and  C17_23 
REMARK    7  A    between atoms: C17_23  and  C18_24 
REMARK    8  A    between atoms: C17_23  and  N3_31 
REMARK    9  A    between atoms: C18_24  and  C19_25 
REMARK       I    between atoms: N3_31  and  C25_33 
REMARK   10  A    between atoms: C25_33  and  C26_35 
REMARK   11  A    between atoms: C26_35  and  C27_36 
REMARK   12  A    between atoms: C26_35  and  N5_40 
REMARK   13  A    between atoms: C27_36  and  C28_37 
REMARK       I    between atoms: N5_40  and  C29_42 
REMARK   14  A    between atoms: C29_42  and  C30_44 
ROOT
HETATM    1  C17 UNL     1      15.976  22.486  14.839  1.00  0.00     0.119 C 
ENDROOT
BRANCH   1   2
HETATM    2  C16 UNL     1      16.297  21.995  16.236  1.00  0.00     0.169 C 
BRANCH   2   3
HETATM    3  C15 UNL     1      15.165  21.492  17.049  1.00  0.00     0.307 C 
BRANCH   3   4
HETATM    4  N2  UNL     1      15.417  20.635  18.150  1.00  0.00     0.105 N 
HETATM    5  C6  UNL     1      15.447  21.333  19.424  1.00  0.00     0.314 C 
HETATM    6  C7  UNL     1      15.652  20.302  20.511  1.00  0.00     0.050 C 
HETATM    7  C8  UNL     1      14.286  19.695  20.775  1.00  0.00    -0.006 C 
HETATM    8  C9  UNL     1      14.487  18.281  21.258  1.00  0.00     0.005 C 
HETATM    9  C13 UNL     1      13.514  19.760  19.475  1.00  0.00     0.018 C 
HETATM   10  C10 UNL     1      13.161  17.758  21.768  1.00  0.00     0.000 C 
HETATM   11  C11 UNL     1      12.086  18.354  20.881  1.00  0.00     0.000 C 
HETATM   12  C12 UNL     1      12.581  18.542  19.470  1.00  0.00     0.007 C 
HETATM   13  C14 UNL     1      14.405  19.597  18.280  1.00  0.00     0.278 C 
BRANCH   5  14
HETATM   14  C5  UNL     1      16.548  22.310  19.539  1.00  0.00     0.252 C 
HETATM   15  N1  UNL     1      17.880  21.951  19.827  1.00  0.00    -0.351 N 
ATOM     16  H1  UNL     1      18.083  20.960  19.959  1.00  0.00     0.163 HD
HETATM   17  O1  UNL     1      16.310  23.524  19.379  1.00  0.00    -0.271 OA
BRANCH  15  18
HETATM   18  C2  UNL     1      18.971  22.872  19.947  1.00  0.00     0.022 C 
HETATM   19  C1  UNL     1      18.629  24.017  20.879  1.00  0.00     0.037 C 
HETATM   20  C3  UNL     1      19.381  23.473  18.626  1.00  0.00     0.037 C 
HETATM   21  C4  UNL     1      20.177  22.179  20.538  1.00  0.00     0.037 C 
ENDBRANCH  15  18
ENDBRANCH   5  14
ENDBRANCH   3   4
ENDBRANCH   2   3
BRANCH   2  22
HETATM   22  O2  UNL     1      17.439  21.219  16.290  1.00  0.00    -0.392 OA
ATOM     23  H2  UNL     1      17.717  20.860  15.456  1.00  0.00     0.210 HD
ENDBRANCH   2  22
ENDBRANCH   1   2
BRANCH   1  24
HETATM   24  C18 UNL     1      15.981  24.010  14.870  1.00  0.00     0.066 C 
BRANCH  24  25
HETATM   25  C19 UNL     1      17.307  24.547  14.467  1.00  0.00    -0.056 A 
HETATM   26  C20 UNL     1      18.350  24.556  15.341  1.00  0.00     0.007 A 
HETATM   27  C21 UNL     1      19.593  25.046  14.996  1.00  0.00     0.001 A 
HETATM   28  C22 UNL     1      19.792  25.547  13.718  1.00  0.00     0.000 A 
HETATM   29  C23 UNL     1      18.726  25.536  12.834  1.00  0.00     0.001 A 
HETATM   30  C24 UNL     1      17.492  25.051  13.175  1.00  0.00     0.007 A 
ENDBRANCH  24  25
ENDBRANCH   1  24
BRANCH   1  31
HETATM   31  N3  UNL     1      14.545  22.181  14.566  1.00  0.00    -0.352 N 
HETATM   32  C25 UNL     1      14.154  21.068  13.799  1.00  0.00     0.241 C 
HETATM   33  O3  UNL     1      15.062  20.319  13.339  1.00  0.00    -0.271 OA
ATOM     34  H3  UNL     1      13.827  22.797  14.947  1.00  0.00     0.163 HD
BRANCH  32  35
HETATM   35  C26 UNL     1      12.699  20.775  13.531  1.00  0.00     0.185 C 
BRANCH  35  36
HETATM   36  C27 UNL     1      11.825  21.839  14.160  1.00  0.00     0.134 C 
BRANCH  36  37
HETATM   37  C28 UNL     1      10.559  21.274  14.706  1.00  0.00     0.233 C 
HETATM   38  N4  UNL     1       9.437  21.194  13.843  1.00  0.00    -0.062 NA
HETATM   39  O4  UNL     1      10.507  20.887  15.903  1.00  0.00    -0.277 OA
ENDBRANCH  36  37
ENDBRANCH  35  36
BRANCH  35  40
HETATM   40  N5  UNL     1      12.358  19.509  14.116  1.00  0.00    -0.342 N 
HETATM   41  C29 UNL     1      12.038  18.350  13.364  1.00  0.00     0.268 C 
HETATM   42  O5  UNL     1      12.056  18.432  12.123  1.00  0.00    -0.266 OA
ATOM     43  H5  UNL     1      12.345  19.439  15.133  1.00  0.00     0.163 HD
BRANCH  41  44
HETATM   44  C30 UNL     1      11.692  17.076  14.010  1.00  0.00     0.101 A 
HETATM   45  C31 UNL     1      11.717  15.912  13.273  1.00  0.00     0.036 A 
HETATM   46  C32 UNL     1      11.408  14.670  13.782  1.00  0.00     0.016 A 
HETATM   47  C33 UNL     1      11.054  14.626  15.128  1.00  0.00    -0.009 A 
HETATM   48  C34 UNL     1      10.729  13.406  15.706  1.00  0.00     0.013 A 
HETATM   49  C38 UNL     1      11.034  15.809  15.854  1.00  0.00     0.043 A 
HETATM   50  C35 UNL     1      10.381  13.399  17.037  1.00  0.00     0.001 A 
HETATM   51  C36 UNL     1      10.356  14.568  17.779  1.00  0.00     0.002 A 
HETATM   52  C37 UNL     1      10.680  15.773  17.196  1.00  0.00     0.030 A 
HETATM   53  N6  UNL     1      11.350  17.004  15.293  1.00  0.00    -0.351 N 
ATOM     54  H6  UNL     1      11.325  17.852  15.859  1.00  0.00     0.166 HD
ENDBRANCH  41  44
ENDBRANCH  35  40
ENDBRANCH  32  35
ENDBRANCH   1  31
TORSDOF 14
ENDMDL
