MODEL 17
REMARK VINA RESULT: -10.692329769      3.994     10.708
REMARK  14 active torsions:
REMARK  status: ('A' for Active; 'I' for Inactive)
REMARK    1  A    between atoms: C2_2  and  N1_5 
REMARK       I    between atoms: N1_5  and  C5_7 
REMARK    2  A    between atoms: C5_7  and  C6_9 
REMARK    3  A    between atoms: N2_18  and  C15_19 
REMARK    4  A    between atoms: C15_19  and  C16_20 
REMARK    5  A    between atoms: C16_20  and  O2_21 
REMARK    6  A    between atoms: C16_20  and  C17_23 
REMARK    7  A    between atoms: C17_23  and  C18_24 
REMARK    8  A    between atoms: C17_23  and  N3_31 
REMARK    9  A    between atoms: C18_24  and  C19_25 
REMARK       I    between atoms: N3_31  and  C25_33 
REMARK   10  A    between atoms: C25_33  and  C26_35 
REMARK   11  A    between atoms: C26_35  and  C27_36 
REMARK   12  A    between atoms: C26_35  and  N5_40 
REMARK   13  A    between atoms: C27_36  and  C28_37 
REMARK       I    between atoms: N5_40  and  C29_42 
REMARK   14  A    between atoms: C29_42  and  C30_44 
ROOT
HETATM    1  C17 UNL     1      17.337  23.979  18.552  1.00  0.00     0.119 C 
ENDROOT
BRANCH   1   2
HETATM    2  C16 UNL     1      15.885  24.301  18.262  1.00  0.00     0.169 C 
BRANCH   2   3
HETATM    3  C15 UNL     1      14.907  23.201  18.425  1.00  0.00     0.307 C 
BRANCH   3   4
HETATM    4  N2  UNL     1      14.892  22.130  17.497  1.00  0.00     0.105 N 
HETATM    5  C6  UNL     1      14.035  21.029  17.905  1.00  0.00     0.314 C 
HETATM    6  C7  UNL     1      14.056  19.993  16.803  1.00  0.00     0.050 C 
HETATM    7  C8  UNL     1      13.077  20.482  15.751  1.00  0.00    -0.006 C 
HETATM    8  C9  UNL     1      13.531  19.963  14.411  1.00  0.00     0.005 C 
HETATM    9  C13 UNL     1      13.074  21.995  15.817  1.00  0.00     0.018 C 
HETATM   10  C10 UNL     1      12.433  20.221  13.402  1.00  0.00     0.000 C 
HETATM   11  C11 UNL     1      11.791  21.541  13.783  1.00  0.00     0.000 C 
HETATM   12  C12 UNL     1      12.796  22.484  14.390  1.00  0.00     0.007 C 
HETATM   13  C14 UNL     1      14.420  22.546  16.185  1.00  0.00     0.278 C 
BRANCH   5  14
HETATM   14  C5  UNL     1      14.482  20.356  19.141  1.00  0.00     0.252 C 
HETATM   15  N1  UNL     1      13.677  19.465  19.877  1.00  0.00    -0.351 N 
ATOM     16  H1  UNL     1      12.737  19.281  19.527  1.00  0.00     0.163 HD
HETATM   17  O1  UNL     1      15.631  20.574  19.577  1.00  0.00    -0.271 OA
BRANCH  15  18
HETATM   18  C2  UNL     1      14.078  18.797  21.080  1.00  0.00     0.022 C 
HETATM   19  C1  UNL     1      12.977  17.900  21.609  1.00  0.00     0.037 C 
HETATM   20  C3  UNL     1      14.451  19.754  22.185  1.00  0.00     0.037 C 
HETATM   21  C4  UNL     1      15.270  17.908  20.811  1.00  0.00     0.037 C 
ENDBRANCH  15  18
ENDBRANCH   5  14
ENDBRANCH   3   4
ENDBRANCH   2   3
BRANCH   2  22
HETATM   22  O2  UNL     1      15.483  25.516  18.782  1.00  0.00    -0.392 OA
ATOM     23  H2  UNL     1      16.191  26.116  18.987  1.00  0.00     0.210 HD
ENDBRANCH   2  22
ENDBRANCH   1   2
BRANCH   1  24
HETATM   24  C18 UNL     1      17.532  24.030  20.062  1.00  0.00     0.066 C 
BRANCH  24  25
HETATM   25  C19 UNL     1      18.912  23.629  20.438  1.00  0.00    -0.056 A 
HETATM   26  C20 UNL     1      19.779  24.532  20.972  1.00  0.00     0.007 A 
HETATM   27  C21 UNL     1      21.066  24.191  21.333  1.00  0.00     0.001 A 
HETATM   28  C22 UNL     1      21.497  22.886  21.148  1.00  0.00     0.000 A 
HETATM   29  C23 UNL     1      20.610  21.971  20.603  1.00  0.00     0.001 A 
HETATM   30  C24 UNL     1      19.333  22.310  20.244  1.00  0.00     0.007 A 
ENDBRANCH  24  25
ENDBRANCH   1  24
BRANCH   1  31
HETATM   31  N3  UNL     1      18.161  25.127  18.088  1.00  0.00    -0.352 N 
HETATM   32  C25 UNL     1      18.776  25.139  16.822  1.00  0.00     0.241 C 
HETATM   33  O3  UNL     1      18.609  24.135  16.074  1.00  0.00    -0.271 OA
ATOM     34  H3  UNL     1      18.284  25.930  18.705  1.00  0.00     0.163 HD
BRANCH  32  35
HETATM   35  C26 UNL     1      19.609  26.312  16.368  1.00  0.00     0.185 C 
BRANCH  35  36
HETATM   36  C27 UNL     1      19.566  26.433  14.859  1.00  0.00     0.134 C 
BRANCH  36  37
HETATM   37  C28 UNL     1      20.854  26.029  14.228  1.00  0.00     0.233 C 
HETATM   38  N4  UNL     1      21.893  26.989  14.156  1.00  0.00    -0.062 NA
HETATM   39  O4  UNL     1      20.993  24.862  13.775  1.00  0.00    -0.277 OA
ENDBRANCH  36  37
ENDBRANCH  35  36
BRANCH  35  40
HETATM   40  N5  UNL     1      20.973  26.103  16.764  1.00  0.00    -0.342 N 
HETATM   41  C29 UNL     1      21.570  26.710  17.898  1.00  0.00     0.268 C 
HETATM   42  O5  UNL     1      20.871  27.468  18.594  1.00  0.00    -0.266 OA
ATOM     43  H5  UNL     1      21.547  25.480  16.196  1.00  0.00     0.163 HD
BRANCH  41  44
HETATM   44  C30 UNL     1      22.974  26.466  18.261  1.00  0.00     0.101 A 
HETATM   45  C31 UNL     1      23.352  26.522  19.585  1.00  0.00     0.036 A 
HETATM   46  C32 UNL     1      24.639  26.312  20.028  1.00  0.00     0.016 A 
HETATM   47  C33 UNL     1      25.589  26.029  19.051  1.00  0.00    -0.009 A 
HETATM   48  C34 UNL     1      26.907  25.807  19.428  1.00  0.00     0.013 A 
HETATM   49  C38 UNL     1      25.189  25.977  17.723  1.00  0.00     0.043 A 
HETATM   50  C35 UNL     1      27.821  25.532  18.436  1.00  0.00     0.001 A 
HETATM   51  C36 UNL     1      27.441  25.475  17.107  1.00  0.00     0.002 A 
HETATM   52  C37 UNL     1      26.131  25.696  16.743  1.00  0.00     0.030 A 
HETATM   53  N6  UNL     1      23.902  26.193  17.350  1.00  0.00    -0.351 N 
ATOM     54  H6  UNL     1      23.645  26.146  16.363  1.00  0.00     0.166 HD
ENDBRANCH  41  44
ENDBRANCH  35  40
ENDBRANCH  32  35
ENDBRANCH   1  31
TORSDOF 14
ENDMDL
