MODEL 8
REMARK VINA RESULT: -5.751336225      1.616      6.595
REMARK  7 active torsions:
REMARK  status: ('A' for Active; 'I' for Inactive)
REMARK    1  A    between atoms: C2_2  and  C3_4 
REMARK    2  A    between atoms: C3_4  and  C4_5 
REMARK    3  A    between atoms: C4_5  and  C5_6 
REMARK    4  A    between atoms: C5_6  and  C6_7 
REMARK    5  A    between atoms: C6_7  and  C7_8 
REMARK    6  A    between atoms: C7_8  and  C8_9 
REMARK    7  A    between atoms: C9_10  and  C10_11 
ROOT
HETATM    1  C6  UNL     1      19.609  -2.190  -4.187  1.00  0.00     0.004 C 
ENDROOT
BRANCH   1   2
HETATM    2  C5  UNL     1      20.290  -1.572  -5.386  1.00  0.00     0.001 C 
BRANCH   2   3
HETATM    3  C4  UNL     1      21.781  -1.488  -5.002  1.00  0.00     0.007 C 
BRANCH   3   4
HETATM    4  C3  UNL     1      21.985  -2.015  -3.600  1.00  0.00     0.077 C 
BRANCH   4   5
HETATM    5  C2  UNL     1      23.416  -2.327  -3.332  1.00  0.00     0.123 C 
HETATM    6  C1  UNL     1      24.373  -2.588  -4.439  1.00  0.00     0.091 C 
HETATM    7  O1  UNL     1      23.843  -2.376  -2.193  1.00  0.00    -0.298 OA
ENDBRANCH   4   5
ENDBRANCH   3   4
ENDBRANCH   2   3
ENDBRANCH   1   2
BRANCH   1   8
HETATM    8  C7  UNL     1      18.344  -1.425  -3.884  1.00  0.00     0.027 C 
BRANCH   8   9
HETATM    9  C8  UNL     1      17.506  -2.051  -2.872  1.00  0.00    -0.020 C 
HETATM   10  C9  UNL     1      17.447  -3.346  -2.621  1.00  0.00     0.080 C 
BRANCH  10  11
HETATM   11  C10 UNL     1      16.589  -3.905  -1.598  1.00  0.00     0.198 C 
HETATM   12  O2  UNL     1      15.432  -3.426  -1.469  1.00  0.00    -0.645 OA
HETATM   13  O3  UNL     1      17.069  -4.936  -0.810  1.00  0.00    -0.645 OA
ENDBRANCH  10  11
ENDBRANCH   8   9
ENDBRANCH   1   8
TORSDOF 7
ENDMDL
