MODEL 16
REMARK VINA RESULT: -5.628828244      2.826      4.090
REMARK  7 active torsions:
REMARK  status: ('A' for Active; 'I' for Inactive)
REMARK    1  A    between atoms: C2_2  and  C3_4 
REMARK    2  A    between atoms: C3_4  and  C4_5 
REMARK    3  A    between atoms: C4_5  and  C5_6 
REMARK    4  A    between atoms: C5_6  and  C6_7 
REMARK    5  A    between atoms: C6_7  and  C7_8 
REMARK    6  A    between atoms: C7_8  and  C8_9 
REMARK    7  A    between atoms: C9_10  and  C10_11 
ROOT
HETATM    1  C6  UNL     1      16.883  -2.719  -2.063  1.00  0.00     0.004 C 
ENDROOT
BRANCH   1   2
HETATM    2  C5  UNL     1      15.566  -3.418  -1.808  1.00  0.00     0.001 C 
BRANCH   2   3
HETATM    3  C4  UNL     1      15.306  -4.258  -3.075  1.00  0.00     0.007 C 
BRANCH   3   4
HETATM    4  C3  UNL     1      14.358  -5.392  -2.759  1.00  0.00     0.077 C 
BRANCH   4   5
HETATM    5  C2  UNL     1      13.430  -5.665  -3.890  1.00  0.00     0.123 C 
HETATM    6  C1  UNL     1      12.006  -6.024  -3.654  1.00  0.00     0.091 C 
HETATM    7  O1  UNL     1      13.813  -5.601  -5.044  1.00  0.00    -0.298 OA
ENDBRANCH   4   5
ENDBRANCH   3   4
ENDBRANCH   2   3
ENDBRANCH   1   2
BRANCH   1   8
HETATM    8  C7  UNL     1      17.940  -3.749  -2.376  1.00  0.00     0.027 C 
BRANCH   8   9
HETATM    9  C8  UNL     1      19.167  -3.185  -2.921  1.00  0.00    -0.020 C 
HETATM   10  C9  UNL     1      19.242  -2.381  -3.965  1.00  0.00     0.080 C 
BRANCH  10  11
HETATM   11  C10 UNL     1      20.498  -1.855  -4.457  1.00  0.00     0.198 C 
HETATM   12  O2  UNL     1      21.463  -1.778  -3.653  1.00  0.00    -0.645 OA
HETATM   13  O3  UNL     1      20.589  -1.462  -5.781  1.00  0.00    -0.645 OA
ENDBRANCH  10  11
ENDBRANCH   8   9
ENDBRANCH   1   8
TORSDOF 7
ENDMDL
