MODEL 3
REMARK VINA RESULT: -6.341579509      3.492      5.652
REMARK  5 active torsions:
REMARK  status: ('A' for Active; 'I' for Inactive)
REMARK    1  A    between atoms: C2_2  and  C3_3 
REMARK    2  A    between atoms: C3_3  and  C4_4 
REMARK    3  A    between atoms: C4_4  and  N1_5 
REMARK    4  A    between atoms: N1_5  and  S1_7 
REMARK    5  A    between atoms: S1_7  and  C5_10 
ROOT
HETATM    1  S1  UNL     1      21.354  -2.813  -4.279  1.00  0.00     0.258 S 
HETATM    2  O1  UNL     1      21.214  -1.343  -4.585  1.00  0.00    -0.201 OA
HETATM    3  O2  UNL     1      22.765  -3.039  -3.850  1.00  0.00    -0.201 OA
ENDROOT
BRANCH   1   4
HETATM    4  N1  UNL     1      20.319  -3.254  -2.954  1.00  0.00    -0.315 N 
ATOM      5  H1  UNL     1      20.601  -3.697  -2.080  1.00  0.00     0.172 HD
BRANCH   4   6
HETATM    6  C4  UNL     1      18.974  -2.868  -3.338  1.00  0.00     0.132 C 
BRANCH   6   7
HETATM    7  C3  UNL     1      17.925  -3.616  -2.541  1.00  0.00     0.020 C 
BRANCH   7   8
HETATM    8  C2  UNL     1      18.381  -5.081  -2.523  1.00  0.00    -0.003 C 
HETATM    9  C1  UNL     1      18.128  -5.707  -1.185  1.00  0.00     0.005 C 
ENDBRANCH   7   8
ENDBRANCH   6   7
ENDBRANCH   4   6
ENDBRANCH   1   4
BRANCH   1  10
HETATM   10  C5  UNL     1      20.959  -3.769  -5.675  1.00  0.00     0.079 A 
HETATM   11  C6  UNL     1      20.669  -3.220  -6.906  1.00  0.00     0.025 A 
HETATM   12  C7  UNL     1      20.360  -4.027  -7.978  1.00  0.00     0.002 A 
HETATM   13  C8  UNL     1      20.330  -5.401  -7.872  1.00  0.00     0.000 A 
HETATM   14  C9  UNL     1      20.623  -5.931  -6.632  1.00  0.00     0.002 A 
HETATM   15  C10 UNL     1      20.933  -5.141  -5.545  1.00  0.00     0.025 A 
ENDBRANCH   1  10
TORSDOF 5
ENDMDL
