MODEL 16
REMARK VINA RESULT: -6.074262835      3.544      6.074
REMARK  5 active torsions:
REMARK  status: ('A' for Active; 'I' for Inactive)
REMARK    1  A    between atoms: C2_2  and  C3_3 
REMARK    2  A    between atoms: C3_3  and  C4_4 
REMARK    3  A    between atoms: C4_4  and  N1_5 
REMARK    4  A    between atoms: N1_5  and  S1_7 
REMARK    5  A    between atoms: S1_7  and  C5_10 
ROOT
HETATM    1  S1  UNL     1      21.244  -2.585  -4.690  1.00  0.00     0.258 S 
HETATM    2  O1  UNL     1      21.458  -1.226  -5.308  1.00  0.00    -0.201 OA
HETATM    3  O2  UNL     1      22.485  -2.926  -3.937  1.00  0.00    -0.201 OA
ENDROOT
BRANCH   1   4
HETATM    4  N1  UNL     1      19.931  -2.529  -3.552  1.00  0.00    -0.315 N 
ATOM      5  H1  UNL     1      19.981  -2.725  -2.553  1.00  0.00     0.172 HD
BRANCH   4   6
HETATM    6  C4  UNL     1      18.751  -2.149  -4.306  1.00  0.00     0.132 C 
BRANCH   6   7
HETATM    7  C3  UNL     1      17.529  -2.933  -3.869  1.00  0.00     0.020 C 
BRANCH   7   8
HETATM    8  C2  UNL     1      16.864  -2.091  -2.772  1.00  0.00    -0.003 C 
HETATM    9  C1  UNL     1      15.691  -1.331  -3.313  1.00  0.00     0.005 C 
ENDBRANCH   7   8
ENDBRANCH   6   7
ENDBRANCH   4   6
ENDBRANCH   1   4
BRANCH   1  10
HETATM   10  C5  UNL     1      20.905  -3.769  -5.917  1.00  0.00     0.079 A 
HETATM   11  C6  UNL     1      20.622  -3.437  -7.225  1.00  0.00     0.025 A 
HETATM   12  C7  UNL     1      20.360  -4.418  -8.155  1.00  0.00     0.002 A 
HETATM   13  C8  UNL     1      20.370  -5.756  -7.827  1.00  0.00     0.000 A 
HETATM   14  C9  UNL     1      20.656  -6.067  -6.514  1.00  0.00     0.002 A 
HETATM   15  C10 UNL     1      20.920  -5.101  -5.566  1.00  0.00     0.025 A 
ENDBRANCH   1  10
TORSDOF 5
ENDMDL
