MODEL 7
REMARK VINA RESULT: -6.183616218      2.080      2.593
REMARK  5 active torsions:
REMARK  status: ('A' for Active; 'I' for Inactive)
REMARK    1  A    between atoms: C2_2  and  C3_3 
REMARK    2  A    between atoms: C3_3  and  C4_4 
REMARK    3  A    between atoms: C4_4  and  N1_5 
REMARK    4  A    between atoms: N1_5  and  S1_7 
REMARK    5  A    between atoms: S1_7  and  C5_10 
ROOT
HETATM    1  S1  UNL     1      20.603  -5.106  -5.823  1.00  0.00     0.258 S 
HETATM    2  O1  UNL     1      20.766  -6.466  -5.190  1.00  0.00    -0.201 OA
HETATM    3  O2  UNL     1      21.931  -4.430  -5.756  1.00  0.00    -0.201 OA
ENDROOT
BRANCH   1   4
HETATM    4  N1  UNL     1      20.173  -5.269  -7.498  1.00  0.00    -0.315 N 
ATOM      5  H1  UNL     1      19.740  -4.560  -8.089  1.00  0.00     0.172 HD
BRANCH   4   6
HETATM    6  C4  UNL     1      20.550  -6.615  -7.890  1.00  0.00     0.132 C 
BRANCH   6   7
HETATM    7  C3  UNL     1      20.767  -6.724  -9.386  1.00  0.00     0.020 C 
BRANCH   7   8
HETATM    8  C2  UNL     1      21.279  -8.150  -9.631  1.00  0.00    -0.003 C 
HETATM    9  C1  UNL     1      22.632  -8.133 -10.273  1.00  0.00     0.005 C 
ENDBRANCH   7   8
ENDBRANCH   6   7
ENDBRANCH   4   6
ENDBRANCH   1   4
BRANCH   1  10
HETATM   10  C5  UNL     1      19.385  -4.187  -4.991  1.00  0.00     0.079 A 
HETATM   11  C6  UNL     1      18.366  -4.769  -4.268  1.00  0.00     0.025 A 
HETATM   12  C7  UNL     1      17.426  -3.990  -3.630  1.00  0.00     0.002 A 
HETATM   13  C8  UNL     1      17.462  -2.614  -3.683  1.00  0.00     0.000 A 
HETATM   14  C9  UNL     1      18.490  -2.051  -4.411  1.00  0.00     0.002 A 
HETATM   15  C10 UNL     1      19.440  -2.812  -5.059  1.00  0.00     0.025 A 
ENDBRANCH   1  10
TORSDOF 5
ENDMDL
