MODEL 8
REMARK VINA RESULT: -6.164950290      3.466      4.043
REMARK  5 active torsions:
REMARK  status: ('A' for Active; 'I' for Inactive)
REMARK    1  A    between atoms: C2_2  and  C3_3 
REMARK    2  A    between atoms: C3_3  and  C4_4 
REMARK    3  A    between atoms: C4_4  and  N1_5 
REMARK    4  A    between atoms: N1_5  and  S1_7 
REMARK    5  A    between atoms: S1_7  and  C5_10 
ROOT
HETATM    1  S1  UNL     1      18.109  -3.954  -2.782  1.00  0.00     0.258 S 
HETATM    2  O1  UNL     1      17.042  -3.077  -2.175  1.00  0.00    -0.201 OA
HETATM    3  O2  UNL     1      18.736  -4.719  -1.666  1.00  0.00    -0.201 OA
ENDROOT
BRANCH   1   4
HETATM    4  N1  UNL     1      17.395  -5.100  -3.877  1.00  0.00    -0.315 N 
ATOM      5  H1  UNL     1      16.469  -5.045  -4.300  1.00  0.00     0.172 HD
BRANCH   4   6
HETATM    6  C4  UNL     1      18.378  -6.150  -4.071  1.00  0.00     0.132 C 
BRANCH   6   7
HETATM    7  C3  UNL     1      18.910  -6.167  -5.489  1.00  0.00     0.020 C 
BRANCH   7   8
HETATM    8  C2  UNL     1      20.433  -6.020  -5.367  1.00  0.00    -0.003 C 
HETATM    9  C1  UNL     1      20.958  -5.021  -6.352  1.00  0.00     0.005 C 
ENDBRANCH   7   8
ENDBRANCH   6   7
ENDBRANCH   4   6
ENDBRANCH   1   4
BRANCH   1  10
HETATM   10  C5  UNL     1      19.284  -2.991  -3.626  1.00  0.00     0.079 A 
HETATM   11  C6  UNL     1      20.595  -2.874  -3.216  1.00  0.00     0.025 A 
HETATM   12  C7  UNL     1      21.483  -2.094  -3.924  1.00  0.00     0.002 A 
HETATM   13  C8  UNL     1      21.107  -1.407  -5.058  1.00  0.00     0.000 A 
HETATM   14  C9  UNL     1      19.791  -1.537  -5.451  1.00  0.00     0.002 A 
HETATM   15  C10 UNL     1      18.886  -2.311  -4.757  1.00  0.00     0.025 A 
ENDBRANCH   1  10
TORSDOF 5
ENDMDL
