MODEL 2
REMARK VINA RESULT: -6.345644429      3.496      5.767
REMARK  5 active torsions:
REMARK  status: ('A' for Active; 'I' for Inactive)
REMARK    1  A    between atoms: C2_2  and  C3_3 
REMARK    2  A    between atoms: C3_3  and  C4_4 
REMARK    3  A    between atoms: C4_4  and  N1_5 
REMARK    4  A    between atoms: N1_5  and  S1_7 
REMARK    5  A    between atoms: S1_7  and  C5_10 
ROOT
HETATM    1  S1  UNL     1      21.354  -2.841  -4.277  1.00  0.00     0.258 S 
HETATM    2  O1  UNL     1      21.203  -1.383  -4.636  1.00  0.00    -0.201 OA
HETATM    3  O2  UNL     1      22.768  -3.042  -3.845  1.00  0.00    -0.201 OA
ENDROOT
BRANCH   1   4
HETATM    4  N1  UNL     1      20.327  -3.240  -2.934  1.00  0.00    -0.315 N 
ATOM      5  H1  UNL     1      20.617  -3.632  -2.038  1.00  0.00     0.172 HD
BRANCH   4   6
HETATM    6  C4  UNL     1      18.974  -2.906  -3.339  1.00  0.00     0.132 C 
BRANCH   6   7
HETATM    7  C3  UNL     1      17.941  -3.642  -2.509  1.00  0.00     0.020 C 
BRANCH   7   8
HETATM    8  C2  UNL     1      18.386  -5.111  -2.495  1.00  0.00    -0.003 C 
HETATM    9  C1  UNL     1      18.094  -5.749  -1.170  1.00  0.00     0.005 C 
ENDBRANCH   7   8
ENDBRANCH   6   7
ENDBRANCH   4   6
ENDBRANCH   1   4
BRANCH   1  10
HETATM   10  C5  UNL     1      20.961  -3.849  -5.636  1.00  0.00     0.079 A 
HETATM   11  C6  UNL     1      20.902  -5.224  -5.562  1.00  0.00     0.025 A 
HETATM   12  C7  UNL     1      20.585  -5.973  -6.673  1.00  0.00     0.002 A 
HETATM   13  C8  UNL     1      20.315  -5.391  -7.893  1.00  0.00     0.000 A 
HETATM   14  C9  UNL     1      20.379  -4.014  -7.947  1.00  0.00     0.002 A 
HETATM   15  C10 UNL     1      20.695  -3.245  -6.847  1.00  0.00     0.025 A 
ENDBRANCH   1  10
TORSDOF 5
ENDMDL
