MODEL 1
REMARK VINA RESULT: -6.481754282      0.000      0.000
REMARK  5 active torsions:
REMARK  status: ('A' for Active; 'I' for Inactive)
REMARK    1  A    between atoms: C2_2  and  C3_3 
REMARK    2  A    between atoms: C3_3  and  C4_4 
REMARK    3  A    between atoms: C4_4  and  N1_5 
REMARK    4  A    between atoms: N1_5  and  S1_7 
REMARK    5  A    between atoms: S1_7  and  C5_10 
ROOT
HETATM    1  S1  UNL     1      20.248  -5.375  -6.097  1.00  0.00     0.258 S 
HETATM    2  O1  UNL     1      18.901  -5.609  -5.460  1.00  0.00    -0.201 OA
HETATM    3  O2  UNL     1      21.168  -6.429  -5.578  1.00  0.00    -0.201 OA
ENDROOT
BRANCH   1   4
HETATM    4  N1  UNL     1      20.141  -5.564  -7.820  1.00  0.00    -0.315 N 
ATOM      5  H1  UNL     1      19.870  -4.852  -8.497  1.00  0.00     0.172 HD
BRANCH   4   6
HETATM    6  C4  UNL     1      20.512  -6.938  -8.106  1.00  0.00     0.132 C 
BRANCH   6   7
HETATM    7  C3  UNL     1      20.920  -7.120  -9.554  1.00  0.00     0.020 C 
BRANCH   7   8
HETATM    8  C2  UNL     1      21.652  -8.467  -9.617  1.00  0.00    -0.003 C 
HETATM    9  C1  UNL     1      22.743  -8.439 -10.644  1.00  0.00     0.005 C 
ENDBRANCH   7   8
ENDBRANCH   6   7
ENDBRANCH   4   6
ENDBRANCH   1   4
BRANCH   1  10
HETATM   10  C5  UNL     1      20.836  -3.783  -5.717  1.00  0.00     0.079 A 
HETATM   11  C6  UNL     1      20.403  -2.647  -6.367  1.00  0.00     0.025 A 
HETATM   12  C7  UNL     1      20.905  -1.411  -6.024  1.00  0.00     0.002 A 
HETATM   13  C8  UNL     1      21.848  -1.256  -5.031  1.00  0.00     0.000 A 
HETATM   14  C9  UNL     1      22.267  -2.405  -4.393  1.00  0.00     0.002 A 
HETATM   15  C10 UNL     1      21.779  -3.652  -4.721  1.00  0.00     0.025 A 
ENDBRANCH   1  10
TORSDOF 5
ENDMDL
