MODEL 19
REMARK VINA RESULT: -5.385778447      3.946      6.233
REMARK  3 active torsions:
REMARK  status: ('A' for Active; 'I' for Inactive)
REMARK       I    between atoms: C2_2  and  N1_4 
REMARK    1  A    between atoms: N1_4  and  C3_6 
REMARK    2  A    between atoms: C4_11  and  S1_12 
REMARK    3  A    between atoms: S1_12  and  N4_13 
ROOT
HETATM    1  C3  UNL     1      35.315  61.117  19.665  1.00  0.00     0.168 A 
HETATM    2  N2  UNL     1      35.658  60.609  18.484  1.00  0.00    -0.278 N 
ATOM      3  H2  UNL     1      36.622  60.673  18.159  1.00  0.00     0.189 HD
HETATM    4  N3  UNL     1      34.784  60.047  17.770  1.00  0.00    -0.281 N 
ATOM      5  H3  UNL     1      35.042  59.655  16.864  1.00  0.00     0.188 HD
HETATM    6  C4  UNL     1      33.529  59.965  18.196  1.00  0.00     0.208 A 
HETATM    7  S2  UNL     1      33.645  60.749  19.712  1.00  0.00    -0.020 SA
ENDROOT
BRANCH   6   8
HETATM    8  S1  UNL     1      32.144  59.228  17.370  1.00  0.00     0.280 S 
HETATM    9  O2  UNL     1      31.449  60.251  16.547  1.00  0.00    -0.199 OA
HETATM   10  O3  UNL     1      32.707  58.142  16.500  1.00  0.00    -0.199 OA
BRANCH   8  11
HETATM   11  N4  UNL     1      31.114  58.528  18.555  1.00  0.00    -0.323 N 
ATOM     12  H42 UNL     1      31.431  58.075  19.412  1.00  0.00     0.169 HD
ATOM     13  H41 UNL     1      30.147  58.646  18.252  1.00  0.00     0.169 HD
ENDBRANCH   8  11
ENDBRANCH   6   8
BRANCH   1  14
HETATM   14  N1  UNL     1      36.144  61.793  20.629  1.00  0.00    -0.306 N 
HETATM   15  C2  UNL     1      37.082  61.042  21.372  1.00  0.00     0.219 C 
HETATM   16  C1  UNL     1      37.974  61.659  22.384  1.00  0.00     0.117 C 
HETATM   17  O1  UNL     1      37.152  59.804  21.156  1.00  0.00    -0.274 OA
ATOM     18  H1  UNL     1      36.056  62.799  20.773  1.00  0.00     0.171 HD
ENDBRANCH   1  14
TORSDOF 3
ENDMDL
