MODEL 5
REMARK VINA RESULT: -5.900202272      3.761      5.866
REMARK  3 active torsions:
REMARK  status: ('A' for Active; 'I' for Inactive)
REMARK       I    between atoms: C2_2  and  N1_4 
REMARK    1  A    between atoms: N1_4  and  C3_6 
REMARK    2  A    between atoms: C4_11  and  S1_12 
REMARK    3  A    between atoms: S1_12  and  N4_13 
ROOT
HETATM    1  C3  UNL     1      35.610  61.443  19.974  1.00  0.00     0.168 A 
HETATM    2  N2  UNL     1      34.341  61.081  20.146  1.00  0.00    -0.278 N 
ATOM      3  H2  UNL     1      33.845  61.341  20.998  1.00  0.00     0.189 HD
HETATM    4  N3  UNL     1      33.756  60.415  19.249  1.00  0.00    -0.281 N 
ATOM      5  H3  UNL     1      32.784  60.135  19.375  1.00  0.00     0.188 HD
HETATM    6  C4  UNL     1      34.406  60.078  18.140  1.00  0.00     0.208 A 
HETATM    7  S2  UNL     1      35.940  60.774  18.435  1.00  0.00    -0.020 SA
ENDROOT
BRANCH   6   8
HETATM    8  S1  UNL     1      33.794  59.154  16.758  1.00  0.00     0.280 S 
HETATM    9  O2  UNL     1      34.399  59.670  15.503  1.00  0.00    -0.199 OA
HETATM   10  O3  UNL     1      34.201  57.728  16.994  1.00  0.00    -0.199 OA
BRANCH   8  11
HETATM   11  N4  UNL     1      32.078  59.259  16.750  1.00  0.00    -0.323 N 
ATOM     12  H42 UNL     1      31.520  59.679  16.006  1.00  0.00     0.169 HD
ATOM     13  H41 UNL     1      31.724  58.835  17.607  1.00  0.00     0.169 HD
ENDBRANCH   8  11
ENDBRANCH   6   8
BRANCH   1  14
HETATM   14  N1  UNL     1      36.458  62.198  20.860  1.00  0.00    -0.306 N 
HETATM   15  C2  UNL     1      35.914  63.302  21.554  1.00  0.00     0.219 C 
HETATM   16  C1  UNL     1      36.718  64.131  22.484  1.00  0.00     0.117 C 
HETATM   17  O1  UNL     1      34.701  63.579  21.365  1.00  0.00    -0.274 OA
ATOM     18  H1  UNL     1      37.436  61.939  20.985  1.00  0.00     0.171 HD
ENDBRANCH   1  14
TORSDOF 3
ENDMDL
