MODEL 2
REMARK VINA RESULT: -6.172795442      1.030      1.061
REMARK  3 active torsions:
REMARK  status: ('A' for Active; 'I' for Inactive)
REMARK       I    between atoms: C2_2  and  N1_4 
REMARK    1  A    between atoms: N1_4  and  C3_6 
REMARK    2  A    between atoms: C4_11  and  S1_12 
REMARK    3  A    between atoms: S1_12  and  N4_13 
ROOT
HETATM    1  C3  UNL     1      34.635  59.751  17.309  1.00  0.00     0.168 A 
HETATM    2  N2  UNL     1      34.899  59.648  16.009  1.00  0.00    -0.278 N 
ATOM      3  H2  UNL     1      34.309  59.072  15.410  1.00  0.00     0.189 HD
HETATM    4  N3  UNL     1      35.883  60.268  15.522  1.00  0.00    -0.281 N 
ATOM      5  H3  UNL     1      36.090  60.193  14.526  1.00  0.00     0.188 HD
HETATM    6  C4  UNL     1      36.651  61.018  16.306  1.00  0.00     0.208 A 
HETATM    7  S2  UNL     1      35.886  60.798  17.820  1.00  0.00    -0.020 SA
ENDROOT
BRANCH   6   8
HETATM    8  S1  UNL     1      38.073  61.970  15.847  1.00  0.00     0.280 S 
HETATM    9  O2  UNL     1      39.065  61.095  15.172  1.00  0.00    -0.199 OA
HETATM   10  O3  UNL     1      37.580  63.033  14.908  1.00  0.00    -0.199 OA
BRANCH   8  11
HETATM   11  N4  UNL     1      38.709  62.713  17.261  1.00  0.00    -0.323 N 
ATOM     12  H42 UNL     1      38.219  62.790  18.153  1.00  0.00     0.169 HD
ATOM     13  H41 UNL     1      39.646  63.057  17.052  1.00  0.00     0.169 HD
ENDBRANCH   8  11
ENDBRANCH   6   8
BRANCH   1  14
HETATM   14  N1  UNL     1      33.573  59.135  18.063  1.00  0.00    -0.306 N 
HETATM   15  C2  UNL     1      32.272  59.104  17.514  1.00  0.00     0.219 C 
HETATM   16  C1  UNL     1      31.123  58.490  18.224  1.00  0.00     0.117 C 
HETATM   17  O1  UNL     1      32.097  59.621  16.380  1.00  0.00    -0.274 OA
ATOM     18  H1  UNL     1      33.759  58.727  18.979  1.00  0.00     0.171 HD
ENDBRANCH   1  14
TORSDOF 3
ENDMDL
