MODEL 6
REMARK VINA RESULT: -5.785436734      4.250      6.284
REMARK  3 active torsions:
REMARK  status: ('A' for Active; 'I' for Inactive)
REMARK       I    between atoms: C2_2  and  N1_4 
REMARK    1  A    between atoms: N1_4  and  C3_6 
REMARK    2  A    between atoms: C4_11  and  S1_12 
REMARK    3  A    between atoms: S1_12  and  N4_13 
ROOT
HETATM    1  C3  UNL     1      35.086  61.350  20.176  1.00  0.00     0.168 A 
HETATM    2  N2  UNL     1      33.832  61.065  20.514  1.00  0.00    -0.278 N 
ATOM      3  H2  UNL     1      33.470  61.343  21.427  1.00  0.00     0.189 HD
HETATM    4  N3  UNL     1      33.091  60.449  19.701  1.00  0.00    -0.281 N 
ATOM      5  H3  UNL     1      32.128  60.228  19.954  1.00  0.00     0.188 HD
HETATM    6  C4  UNL     1      33.565  60.088  18.513  1.00  0.00     0.208 A 
HETATM    7  S2  UNL     1      35.166  60.683  18.603  1.00  0.00    -0.020 SA
ENDROOT
BRANCH   6   8
HETATM    8  S1  UNL     1      32.716  59.224  17.219  1.00  0.00     0.280 S 
HETATM    9  O2  UNL     1      31.953  58.086  17.794  1.00  0.00    -0.199 OA
HETATM   10  O3  UNL     1      31.785  60.220  16.591  1.00  0.00    -0.199 OA
BRANCH   8  11
HETATM   11  N4  UNL     1      33.874  58.715  16.054  1.00  0.00    -0.323 N 
ATOM     12  H42 UNL     1      33.966  57.764  15.698  1.00  0.00     0.169 HD
ATOM     13  H41 UNL     1      34.440  59.521  15.789  1.00  0.00     0.169 HD
ENDBRANCH   8  11
ENDBRANCH   6   8
BRANCH   1  14
HETATM   14  N1  UNL     1      36.091  62.038  20.945  1.00  0.00    -0.306 N 
HETATM   15  C2  UNL     1      35.759  63.262  21.569  1.00  0.00     0.219 C 
HETATM   16  C1  UNL     1      36.733  64.033  22.377  1.00  0.00     0.117 C 
HETATM   17  O1  UNL     1      34.588  63.700  21.422  1.00  0.00    -0.274 OA
ATOM     18  H1  UNL     1      37.028  61.647  21.039  1.00  0.00     0.171 HD
ENDBRANCH   1  14
TORSDOF 3
ENDMDL
