MODEL 10
REMARK VINA RESULT: -5.560338179      4.230      6.436
REMARK  3 active torsions:
REMARK  status: ('A' for Active; 'I' for Inactive)
REMARK       I    between atoms: C2_2  and  N1_4 
REMARK    1  A    between atoms: N1_4  and  C3_6 
REMARK    2  A    between atoms: C4_11  and  S1_12 
REMARK    3  A    between atoms: S1_12  and  N4_13 
ROOT
HETATM    1  C3  UNL     1      35.141  61.321  19.807  1.00  0.00     0.168 A 
HETATM    2  N2  UNL     1      33.923  61.181  20.323  1.00  0.00    -0.278 N 
ATOM      3  H2  UNL     1      33.706  61.575  21.238  1.00  0.00     0.189 HD
HETATM    4  N3  UNL     1      33.039  60.559  19.675  1.00  0.00    -0.281 N 
ATOM      5  H3  UNL     1      32.103  60.449  20.066  1.00  0.00     0.188 HD
HETATM    6  C4  UNL     1      33.325  60.046  18.483  1.00  0.00     0.208 A 
HETATM    7  S2  UNL     1      34.965  60.503  18.315  1.00  0.00    -0.020 SA
ENDROOT
BRANCH   6   8
HETATM    8  S1  UNL     1      32.252  59.141  17.401  1.00  0.00     0.280 S 
HETATM    9  O2  UNL     1      31.613  60.073  16.435  1.00  0.00    -0.199 OA
HETATM   10  O3  UNL     1      33.122  58.150  16.683  1.00  0.00    -0.199 OA
BRANCH   8  11
HETATM   11  N4  UNL     1      31.100  58.297  18.358  1.00  0.00    -0.323 N 
ATOM     12  H42 UNL     1      30.873  58.515  19.328  1.00  0.00     0.169 HD
ATOM     13  H41 UNL     1      30.693  57.553  17.792  1.00  0.00     0.169 HD
ENDBRANCH   8  11
ENDBRANCH   6   8
BRANCH   1  14
HETATM   14  N1  UNL     1      36.287  61.987  20.371  1.00  0.00    -0.306 N 
HETATM   15  C2  UNL     1      36.932  61.412  21.488  1.00  0.00     0.219 C 
HETATM   16  C1  UNL     1      38.117  62.032  22.129  1.00  0.00     0.117 C 
HETATM   17  O1  UNL     1      36.473  60.333  21.945  1.00  0.00    -0.274 OA
ATOM     18  H1  UNL     1      36.627  62.860  19.969  1.00  0.00     0.171 HD
ENDBRANCH   1  14
TORSDOF 3
ENDMDL
