MODEL 8
REMARK VINA RESULT: -5.746466616      4.378      6.512
REMARK  3 active torsions:
REMARK  status: ('A' for Active; 'I' for Inactive)
REMARK       I    between atoms: C2_2  and  N1_4 
REMARK    1  A    between atoms: N1_4  and  C3_6 
REMARK    2  A    between atoms: C4_11  and  S1_12 
REMARK    3  A    between atoms: S1_12  and  N4_13 
ROOT
HETATM    1  C3  UNL     1      35.065  61.272  20.093  1.00  0.00     0.168 A 
HETATM    2  N2  UNL     1      33.826  61.099  20.543  1.00  0.00    -0.278 N 
ATOM      3  H2  UNL     1      33.561  61.448  21.464  1.00  0.00     0.189 HD
HETATM    4  N3  UNL     1      32.979  60.501  19.825  1.00  0.00    -0.281 N 
ATOM      5  H3  UNL     1      32.027  60.367  20.165  1.00  0.00     0.188 HD
HETATM    6  C4  UNL     1      33.327  60.047  18.626  1.00  0.00     0.208 A 
HETATM    7  S2  UNL     1      34.968  60.524  18.558  1.00  0.00    -0.020 SA
ENDROOT
BRANCH   6   8
HETATM    8  S1  UNL     1      32.315  59.186  17.452  1.00  0.00     0.280 S 
HETATM    9  O2  UNL     1      31.707  60.158  16.507  1.00  0.00    -0.199 OA
HETATM   10  O3  UNL     1      33.229  58.243  16.725  1.00  0.00    -0.199 OA
BRANCH   8  11
HETATM   11  N4  UNL     1      31.134  58.281  18.313  1.00  0.00    -0.323 N 
ATOM     12  H42 UNL     1      31.221  57.296  18.564  1.00  0.00     0.169 HD
ATOM     13  H41 UNL     1      30.347  58.894  18.523  1.00  0.00     0.169 HD
ENDBRANCH   8  11
ENDBRANCH   6   8
BRANCH   1  14
HETATM   14  N1  UNL     1      36.176  61.919  20.742  1.00  0.00    -0.306 N 
HETATM   15  C2  UNL     1      35.954  63.126  21.440  1.00  0.00     0.219 C 
HETATM   16  C1  UNL     1      37.041  63.856  22.135  1.00  0.00     0.117 C 
HETATM   17  O1  UNL     1      34.782  63.587  21.465  1.00  0.00    -0.274 OA
ATOM     18  H1  UNL     1      37.110  61.511  20.697  1.00  0.00     0.171 HD
ENDBRANCH   1  14
TORSDOF 3
ENDMDL
