MODEL 3
REMARK VINA RESULT: -6.018553066      1.482      1.658
REMARK  3 active torsions:
REMARK  status: ('A' for Active; 'I' for Inactive)
REMARK       I    between atoms: C2_2  and  N1_4 
REMARK    1  A    between atoms: N1_4  and  C3_6 
REMARK    2  A    between atoms: C4_11  and  S1_12 
REMARK    3  A    between atoms: S1_12  and  N4_13 
ROOT
HETATM    1  C3  UNL     1      34.557  59.719  17.378  1.00  0.00     0.168 A 
HETATM    2  N2  UNL     1      34.848  59.623  16.084  1.00  0.00    -0.278 N 
ATOM      3  H2  UNL     1      34.283  59.033  15.474  1.00  0.00     0.189 HD
HETATM    4  N3  UNL     1      35.826  60.266  15.615  1.00  0.00    -0.281 N 
ATOM      5  H3  UNL     1      36.053  60.196  14.623  1.00  0.00     0.188 HD
HETATM    6  C4  UNL     1      36.560  61.034  16.413  1.00  0.00     0.208 A 
HETATM    7  S2  UNL     1      35.773  60.796  17.913  1.00  0.00    -0.020 SA
ENDROOT
BRANCH   6   8
HETATM    8  S1  UNL     1      37.968  62.020  15.981  1.00  0.00     0.280 S 
HETATM    9  O2  UNL     1      37.623  62.915  14.846  1.00  0.00    -0.199 OA
HETATM   10  O3  UNL     1      38.307  62.823  17.203  1.00  0.00    -0.199 OA
BRANCH   8  11
HETATM   11  N4  UNL     1      39.277  60.968  15.613  1.00  0.00    -0.323 N 
ATOM     12  H42 UNL     1      40.126  60.873  16.170  1.00  0.00     0.169 HD
ATOM     13  H41 UNL     1      39.056  60.466  14.753  1.00  0.00     0.169 HD
ENDBRANCH   8  11
ENDBRANCH   6   8
BRANCH   1  14
HETATM   14  N1  UNL     1      33.496  59.078  18.112  1.00  0.00    -0.306 N 
HETATM   15  C2  UNL     1      32.188  59.090  17.577  1.00  0.00     0.219 C 
HETATM   16  C1  UNL     1      31.040  58.455  18.268  1.00  0.00     0.117 C 
HETATM   17  O1  UNL     1      32.007  59.666  16.473  1.00  0.00    -0.274 OA
ATOM     18  H1  UNL     1      33.686  58.623  19.005  1.00  0.00     0.171 HD
ENDBRANCH   1  14
TORSDOF 3
ENDMDL
