MODEL 1
REMARK VINA RESULT: -6.211462260      0.000      0.000
REMARK  3 active torsions:
REMARK  status: ('A' for Active; 'I' for Inactive)
REMARK       I    between atoms: C2_2  and  N1_4 
REMARK    1  A    between atoms: N1_4  and  C3_6 
REMARK    2  A    between atoms: C4_11  and  S1_12 
REMARK    3  A    between atoms: S1_12  and  N4_13 
ROOT
HETATM    1  C3  UNL     1      35.287  60.303  17.359  1.00  0.00     0.168 A 
HETATM    2  N2  UNL     1      35.621  60.253  16.073  1.00  0.00    -0.278 N 
ATOM      3  H2  UNL     1      34.980  59.845  15.392  1.00  0.00     0.189 HD
HETATM    4  N3  UNL     1      36.733  60.714  15.699  1.00  0.00    -0.281 N 
ATOM      5  H3  UNL     1      36.994  60.679  14.713  1.00  0.00     0.188 HD
HETATM    6  C4  UNL     1      37.566  61.245  16.588  1.00  0.00     0.208 A 
HETATM    7  S2  UNL     1      36.668  61.056  18.031  1.00  0.00    -0.020 SA
ENDROOT
BRANCH   6   8
HETATM    8  S1  UNL     1      39.167  61.947  16.296  1.00  0.00     0.280 S 
HETATM    9  O2  UNL     1      40.134  60.868  15.965  1.00  0.00    -0.199 OA
HETATM   10  O3  UNL     1      39.006  62.887  15.137  1.00  0.00    -0.199 OA
BRANCH   8  11
HETATM   11  N4  UNL     1      39.632  62.839  17.690  1.00  0.00    -0.323 N 
ATOM     12  H42 UNL     1      39.411  62.579  18.652  1.00  0.00     0.169 HD
ATOM     13  H41 UNL     1      40.157  63.659  17.388  1.00  0.00     0.169 HD
ENDBRANCH   8  11
ENDBRANCH   6   8
BRANCH   1  14
HETATM   14  N1  UNL     1      34.080  59.841  17.994  1.00  0.00    -0.306 N 
HETATM   15  C2  UNL     1      33.066  59.261  17.200  1.00  0.00     0.219 C 
HETATM   16  C1  UNL     1      31.794  58.760  17.773  1.00  0.00     0.117 C 
HETATM   17  O1  UNL     1      33.265  59.175  15.960  1.00  0.00    -0.274 OA
ATOM     18  H1  UNL     1      33.960  59.930  19.003  1.00  0.00     0.171 HD
ENDBRANCH   1  14
TORSDOF 3
ENDMDL
