MODEL 1
REMARK VINA RESULT: -8.675201623      0.000      0.000
REMARK  4 active torsions:
REMARK  status: ('A' for Active; 'I' for Inactive)
REMARK    1  A    between atoms: O1_2  and  C2_3 
REMARK    2  A    between atoms: C4_5  and  O2_6 
REMARK    3  A    between atoms: C8_12  and  C9_13 
REMARK    4  A    between atoms: C12_16  and  O4_17 
ROOT
HETATM    1  C2  UNL     1      12.677  11.950  -5.503  1.00  0.00     0.073 A 
HETATM    2  C3  UNL     1      13.405  10.812  -5.269  1.00  0.00     0.074 A 
HETATM    3  C4  UNL     1      14.479  10.415  -6.085  1.00  0.00     0.085 A 
HETATM    4  C5  UNL     1      14.777  11.232  -7.150  1.00  0.00     0.076 A 
HETATM    5  C6  UNL     1      14.034  12.403  -7.397  1.00  0.00     0.089 A 
HETATM    6  C7  UNL     1      12.986  12.763  -6.577  1.00  0.00     0.074 A 
HETATM    7  O3  UNL     1      14.397  13.168  -8.486  1.00  0.00    -0.340 OA
HETATM    8  C8  UNL     1      15.607  12.967  -9.181  1.00  0.00     0.169 C 
HETATM    9  C15 UNL     1      15.875  11.507  -9.385  1.00  0.00     0.121 C 
HETATM   10  C16 UNL     1      15.882  10.889  -8.036  1.00  0.00     0.167 C 
HETATM   11  O5  UNL     1      16.797  10.120  -7.697  1.00  0.00    -0.292 OA
ENDROOT
BRANCH   8  12
HETATM   12  C9  UNL     1      15.646  13.774 -10.413  1.00  0.00    -0.028 A 
HETATM   13  C10 UNL     1      16.791  13.873 -11.161  1.00  0.00     0.012 A 
HETATM   14  C11 UNL     1      16.740  14.655 -12.308  1.00  0.00     0.037 A 
HETATM   15  C12 UNL     1      15.568  15.293 -12.651  1.00  0.00     0.065 A 
HETATM   16  C13 UNL     1      14.422  15.188 -11.894  1.00  0.00     0.037 A 
HETATM   17  C14 UNL     1      14.465  14.420 -10.763  1.00  0.00     0.012 A 
BRANCH  15  18
HETATM   18  O4  UNL     1      15.578  16.062 -13.811  1.00  0.00    -0.361 OA
ATOM     19  H4  UNL     1      15.462  17.000 -13.711  1.00  0.00     0.217 HD
ENDBRANCH  15  18
ENDBRANCH   8  12
BRANCH   3  20
HETATM   20  O2  UNL     1      15.158   9.278  -5.800  1.00  0.00    -0.360 OA
ATOM     21  H2  UNL     1      15.851   9.290  -5.151  1.00  0.00     0.217 HD
ENDBRANCH   3  20
BRANCH   1  22
HETATM   22  O1  UNL     1      11.625  12.277  -4.647  1.00  0.00    -0.356 OA
HETATM   23  C1  UNL     1      11.642  13.391  -3.803  1.00  0.00     0.210 C 
ENDBRANCH   1  22
TORSDOF 4
ENDMDL
