MODEL 3
REMARK VINA RESULT: -8.581624344      2.654      6.949
REMARK  4 active torsions:
REMARK  status: ('A' for Active; 'I' for Inactive)
REMARK    1  A    between atoms: O1_2  and  C2_3 
REMARK    2  A    between atoms: C4_5  and  O2_6 
REMARK    3  A    between atoms: C8_12  and  C9_13 
REMARK    4  A    between atoms: C12_16  and  O4_17 
ROOT
HETATM    1  C2  UNL     1      19.246  13.272 -10.578  1.00  0.00     0.073 A 
HETATM    2  C3  UNL     1      19.039  12.447 -11.654  1.00  0.00     0.074 A 
HETATM    3  C4  UNL     1      17.899  11.634 -11.780  1.00  0.00     0.085 A 
HETATM    4  C5  UNL     1      16.980  11.699 -10.759  1.00  0.00     0.076 A 
HETATM    5  C6  UNL     1      17.185  12.544  -9.650  1.00  0.00     0.089 A 
HETATM    6  C7  UNL     1      18.315  13.329  -9.558  1.00  0.00     0.074 A 
HETATM    7  O3  UNL     1      16.216  12.551  -8.670  1.00  0.00    -0.340 OA
HETATM    8  C8  UNL     1      14.948  11.964  -8.856  1.00  0.00     0.169 C 
HETATM    9  C15 UNL     1      15.064  10.638  -9.544  1.00  0.00     0.121 C 
HETATM   10  C16 UNL     1      15.770  10.890 -10.825  1.00  0.00     0.167 C 
HETATM   11  O5  UNL     1      15.333  10.426 -11.890  1.00  0.00    -0.292 OA
ENDROOT
BRANCH   8  12
HETATM   12  C9  UNL     1      14.192  11.934  -7.591  1.00  0.00    -0.028 A 
HETATM   13  C10 UNL     1      13.369  12.969  -7.232  1.00  0.00     0.012 A 
HETATM   14  C11 UNL     1      12.694  12.859  -6.022  1.00  0.00     0.037 A 
HETATM   15  C12 UNL     1      12.867  11.738  -5.240  1.00  0.00     0.065 A 
HETATM   16  C13 UNL     1      13.696  10.702  -5.611  1.00  0.00     0.037 A 
HETATM   17  C14 UNL     1      14.364  10.804  -6.799  1.00  0.00     0.012 A 
BRANCH  15  18
HETATM   18  O4  UNL     1      12.164  11.684  -4.041  1.00  0.00    -0.361 OA
ATOM     19  H4  UNL     1      11.421  12.269  -3.946  1.00  0.00     0.217 HD
ENDBRANCH  15  18
ENDBRANCH   8  12
BRANCH   3  20
HETATM   20  O2  UNL     1      17.754  10.840 -12.868  1.00  0.00    -0.360 OA
ATOM     21  H2  UNL     1      17.431   9.952 -12.767  1.00  0.00     0.217 HD
ENDBRANCH   3  20
BRANCH   1  22
HETATM   22  O1  UNL     1      20.403  14.050 -10.525  1.00  0.00    -0.356 OA
HETATM   23  C1  UNL     1      21.147  14.394 -11.656  1.00  0.00     0.210 C 
ENDBRANCH   1  22
TORSDOF 4
ENDMDL
