MODEL 2
REMARK VINA RESULT: -8.608632133      2.874      7.071
REMARK  4 active torsions:
REMARK  status: ('A' for Active; 'I' for Inactive)
REMARK    1  A    between atoms: O1_2  and  C2_3 
REMARK    2  A    between atoms: C4_5  and  O2_6 
REMARK    3  A    between atoms: C8_12  and  C9_13 
REMARK    4  A    between atoms: C12_16  and  O4_17 
ROOT
HETATM    1  C2  UNL     1      19.463  14.968 -11.844  1.00  0.00     0.073 A 
HETATM    2  C3  UNL     1      20.212  13.919 -12.312  1.00  0.00     0.074 A 
HETATM    3  C4  UNL     1      19.847  12.576 -12.114  1.00  0.00     0.085 A 
HETATM    4  C5  UNL     1      18.683  12.350 -11.418  1.00  0.00     0.076 A 
HETATM    5  C6  UNL     1      17.907  13.422 -10.934  1.00  0.00     0.089 A 
HETATM    6  C7  UNL     1      18.294  14.728 -11.145  1.00  0.00     0.074 A 
HETATM    7  O3  UNL     1      16.754  13.111 -10.245  1.00  0.00    -0.340 OA
HETATM    8  C8  UNL     1      16.206  11.812 -10.237  1.00  0.00     0.169 C 
HETATM    9  C15 UNL     1      17.276  10.776 -10.070  1.00  0.00     0.121 C 
HETATM   10  C16 UNL     1      18.237  10.983 -11.181  1.00  0.00     0.167 C 
HETATM   11  O5  UNL     1      18.629  10.024 -11.866  1.00  0.00    -0.292 OA
ENDROOT
BRANCH   8  12
HETATM   12  C9  UNL     1      15.102  11.713  -9.266  1.00  0.00    -0.028 A 
HETATM   13  C10 UNL     1      14.213  12.742  -9.095  1.00  0.00     0.012 A 
HETATM   14  C11 UNL     1      13.202  12.566  -8.158  1.00  0.00     0.037 A 
HETATM   15  C12 UNL     1      13.126  11.389  -7.445  1.00  0.00     0.065 A 
HETATM   16  C13 UNL     1      14.024  10.360  -7.624  1.00  0.00     0.037 A 
HETATM   17  C14 UNL     1      15.021  10.527  -8.544  1.00  0.00     0.012 A 
BRANCH  15  18
HETATM   18  O4  UNL     1      12.092  11.270  -6.522  1.00  0.00    -0.361 OA
ATOM     19  H4  UNL     1      11.835  10.391  -6.269  1.00  0.00     0.217 HD
ENDBRANCH  15  18
ENDBRANCH   8  12
BRANCH   3  20
HETATM   20  O2  UNL     1      20.632  11.585 -12.602  1.00  0.00    -0.360 OA
ATOM     21  H2  UNL     1      21.198  11.097 -12.014  1.00  0.00     0.217 HD
ENDBRANCH   3  20
BRANCH   1  22
HETATM   22  O1  UNL     1      19.891  16.274 -12.080  1.00  0.00    -0.356 OA
HETATM   23  C1  UNL     1      19.017  17.360 -12.186  1.00  0.00     0.210 C 
ENDBRANCH   1  22
TORSDOF 4
ENDMDL
