MODEL 5
REMARK VINA RESULT: -9.454541980      1.736      3.489
REMARK  6 active torsions:
REMARK  status: ('A' for Active; 'I' for Inactive)
REMARK    1  A    between atoms: O1_2  and  C2_3 
REMARK    2  A    between atoms: C2_3  and  C3_4 
REMARK    3  A    between atoms: C3_4  and  N1_5 
REMARK    4  A    between atoms: N1_5  and  C4_7 
REMARK    5  A    between atoms: C6_9  and  N2_10 
REMARK    6  A    between atoms: C21_26  and  C22_27 
ROOT
HETATM    1  C4  UNL     1       0.435 -12.235 -23.828  1.00  0.00     0.045 A 
HETATM    2  C5  UNL     1       1.818 -12.312 -23.706  1.00  0.00     0.060 A 
HETATM    3  C6  UNL     1       2.692 -11.492 -24.375  1.00  0.00     0.042 A 
HETATM    4  C19 UNL     1       2.124 -10.549 -25.208  1.00  0.00     0.031 A 
HETATM    5  C20 UNL     1       0.761 -10.440 -25.356  1.00  0.00     0.021 A 
HETATM    6  C21 UNL     1      -0.115 -11.280 -24.671  1.00  0.00     0.055 A 
ENDROOT
BRANCH   3   7
HETATM    7  N2  UNL     1       4.099 -11.593 -24.231  1.00  0.00    -0.314 N 
HETATM    8  C7  UNL     1       4.971 -10.668 -23.809  1.00  0.00     0.032 A 
HETATM    9  C8  UNL     1       6.235 -11.216 -23.835  1.00  0.00     0.045 A 
HETATM   10  C18 UNL     1       4.731  -9.274 -23.369  1.00  0.00     0.059 C 
HETATM   11  C9  UNL     1       6.152 -12.513 -24.283  1.00  0.00     0.007 A 
HETATM   12  C15 UNL     1       7.397 -10.440 -23.426  1.00  0.00     0.162 C 
HETATM   13  C10 UNL     1       7.075 -13.515 -24.503  1.00  0.00     0.015 A 
HETATM   14  C14 UNL     1       4.797 -12.718 -24.522  1.00  0.00     0.051 A 
HETATM   15  C11 UNL     1       6.663 -14.746 -24.971  1.00  0.00     0.001 A 
HETATM   16  C12 UNL     1       5.322 -14.963 -25.214  1.00  0.00     0.002 A 
HETATM   17  C13 UNL     1       4.399 -13.965 -24.994  1.00  0.00     0.031 A 
HETATM   18  O2  UNL     1       8.565 -10.925 -23.442  1.00  0.00    -0.292 OA
HETATM   19  C16 UNL     1       7.209  -9.026 -22.973  1.00  0.00     0.084 C 
HETATM   20  C17 UNL     1       5.964  -8.409 -23.551  1.00  0.00     0.014 C 
ENDBRANCH   3   7
BRANCH   1  21
HETATM   21  N1  UNL     1      -0.407 -13.097 -23.069  1.00  0.00    -0.387 N 
ATOM     22  H1  UNL     1      -1.067 -13.702 -23.557  1.00  0.00     0.159 HD
BRANCH  21  23
HETATM   23  C3  UNL     1      -0.349 -13.136 -21.610  1.00  0.00     0.146 C 
BRANCH  23  24
HETATM   24  C2  UNL     1      -1.688 -13.438 -20.983  1.00  0.00     0.186 C 
BRANCH  24  25
HETATM   25  O1  UNL     1      -2.745 -13.168 -21.837  1.00  0.00    -0.394 OA
HETATM   26  C1  UNL     1      -3.473 -14.271 -22.217  1.00  0.00     0.201 C 
ENDBRANCH  24  25
ENDBRANCH  23  24
ENDBRANCH  21  23
ENDBRANCH   1  21
BRANCH   6  27
HETATM   27  C22 UNL     1      -1.539 -11.108 -24.899  1.00  0.00     0.267 C 
HETATM   28  N3  UNL     1      -2.012 -11.081 -26.258  1.00  0.00    -0.057 NA
HETATM   29  O3  UNL     1      -2.426 -10.978 -24.031  1.00  0.00    -0.271 OA
ENDBRANCH   6  27
TORSDOF 6
ENDMDL
