MODEL 2
REMARK VINA RESULT: -11.023270391      0.928      3.120
REMARK  6 active torsions:
REMARK  status: ('A' for Active; 'I' for Inactive)
REMARK    1  A    between atoms: O1_2  and  C2_3 
REMARK    2  A    between atoms: C2_3  and  C3_4 
REMARK    3  A    between atoms: C3_4  and  N1_5 
REMARK    4  A    between atoms: N1_5  and  C4_7 
REMARK    5  A    between atoms: C6_9  and  N2_10 
REMARK    6  A    between atoms: C21_26  and  C22_27 
ROOT
HETATM    1  C4  UNL     1       0.615 -10.905 -24.837  1.00  0.00     0.045 A 
HETATM    2  C5  UNL     1       1.992 -11.093 -24.820  1.00  0.00     0.060 A 
HETATM    3  C6  UNL     1       2.624 -12.042 -24.056  1.00  0.00     0.042 A 
HETATM    4  C19 UNL     1       1.808 -12.836 -23.275  1.00  0.00     0.031 A 
HETATM    5  C20 UNL     1       0.442 -12.681 -23.264  1.00  0.00     0.021 A 
HETATM    6  C21 UNL     1      -0.187 -11.712 -24.044  1.00  0.00     0.055 A 
ENDROOT
BRANCH   3   7
HETATM    7  N2  UNL     1       4.032 -12.212 -24.058  1.00  0.00    -0.314 N 
HETATM    8  C7  UNL     1       4.759 -13.206 -24.585  1.00  0.00     0.032 A 
HETATM    9  C8  UNL     1       6.091 -12.948 -24.342  1.00  0.00     0.045 A 
HETATM   10  C18 UNL     1       4.317 -14.416 -25.317  1.00  0.00     0.059 C 
HETATM   11  C9  UNL     1       6.199 -11.766 -23.648  1.00  0.00     0.007 A 
HETATM   12  C15 UNL     1       7.128 -13.863 -24.801  1.00  0.00     0.162 C 
HETATM   13  C10 UNL     1       7.260 -11.037 -23.152  1.00  0.00     0.015 A 
HETATM   14  C14 UNL     1       4.888 -11.331 -23.487  1.00  0.00     0.051 A 
HETATM   15  C11 UNL     1       7.032  -9.853 -22.480  1.00  0.00     0.001 A 
HETATM   16  C12 UNL     1       5.737  -9.409 -22.311  1.00  0.00     0.002 A 
HETATM   17  C13 UNL     1       4.677 -10.135 -22.807  1.00  0.00     0.031 A 
HETATM   18  O2  UNL     1       8.355 -13.644 -24.589  1.00  0.00    -0.292 OA
HETATM   19  C16 UNL     1       6.734 -15.099 -25.546  1.00  0.00     0.084 C 
HETATM   20  C17 UNL     1       5.333 -15.538 -25.212  1.00  0.00     0.014 C 
ENDBRANCH   3   7
BRANCH   1  21
HETATM   21  N1  UNL     1       0.030  -9.923 -25.688  1.00  0.00    -0.387 N 
ATOM     22  H1  UNL     1      -0.853 -10.130 -26.153  1.00  0.00     0.159 HD
BRANCH  21  23
HETATM   23  C3  UNL     1       0.664  -8.625 -25.910  1.00  0.00     0.146 C 
BRANCH  23  24
HETATM   24  C2  UNL     1       0.317  -7.618 -24.842  1.00  0.00     0.186 C 
BRANCH  24  25
HETATM   25  O1  UNL     1      -0.465  -6.582 -25.327  1.00  0.00    -0.394 OA
HETATM   26  C1  UNL     1      -0.199  -6.219 -26.626  1.00  0.00     0.201 C 
ENDBRANCH  24  25
ENDBRANCH  23  24
ENDBRANCH  21  23
ENDBRANCH   1  21
BRANCH   6  27
HETATM   27  C22 UNL     1      -1.633 -11.605 -23.960  1.00  0.00     0.267 C 
HETATM   28  N3  UNL     1      -2.287 -12.132 -22.791  1.00  0.00    -0.057 NA
HETATM   29  O3  UNL     1      -2.397 -11.096 -24.805  1.00  0.00    -0.271 OA
ENDBRANCH   6  27
TORSDOF 6
ENDMDL
