MODEL 4
REMARK VINA RESULT: -9.541145819      1.905      7.627
REMARK  6 active torsions:
REMARK  status: ('A' for Active; 'I' for Inactive)
REMARK    1  A    between atoms: O1_2  and  C2_3 
REMARK    2  A    between atoms: C2_3  and  C3_4 
REMARK    3  A    between atoms: C3_4  and  N1_5 
REMARK    4  A    between atoms: N1_5  and  C4_7 
REMARK    5  A    between atoms: C6_9  and  N2_10 
REMARK    6  A    between atoms: C21_26  and  C22_27 
ROOT
HETATM    1  C4  UNL     1       5.414 -11.514 -24.047  1.00  0.00     0.045 A 
HETATM    2  C5  UNL     1       4.117 -11.489 -24.545  1.00  0.00     0.060 A 
HETATM    3  C6  UNL     1       3.225 -10.474 -24.303  1.00  0.00     0.042 A 
HETATM    4  C19 UNL     1       3.683  -9.437 -23.514  1.00  0.00     0.031 A 
HETATM    5  C20 UNL     1       4.960  -9.425 -23.003  1.00  0.00     0.021 A 
HETATM    6  C21 UNL     1       5.855 -10.463 -23.256  1.00  0.00     0.055 A 
ENDROOT
BRANCH   3   7
HETATM    7  N2  UNL     1       1.906 -10.474 -24.823  1.00  0.00    -0.314 N 
HETATM    8  C7  UNL     1       0.830 -11.143 -24.390  1.00  0.00     0.032 A 
HETATM    9  C8  UNL     1      -0.235 -10.834 -25.208  1.00  0.00     0.045 A 
HETATM   10  C18 UNL     1       0.693 -12.076 -23.247  1.00  0.00     0.059 C 
HETATM   11  C9  UNL     1       0.185  -9.951 -26.175  1.00  0.00     0.007 A 
HETATM   12  C15 UNL     1      -1.550 -11.417 -24.980  1.00  0.00     0.162 C 
HETATM   13  C10 UNL     1      -0.435  -9.318 -27.232  1.00  0.00     0.015 A 
HETATM   14  C14 UNL     1       1.534  -9.746 -25.904  1.00  0.00     0.051 A 
HETATM   15  C11 UNL     1       0.282  -8.465 -28.046  1.00  0.00     0.001 A 
HETATM   16  C12 UNL     1       1.620  -8.252 -27.790  1.00  0.00     0.002 A 
HETATM   17  C13 UNL     1       2.241  -8.882 -26.734  1.00  0.00     0.031 A 
HETATM   18  O2  UNL     1      -2.540 -11.146 -25.719  1.00  0.00    -0.292 OA
HETATM   19  C16 UNL     1      -1.741 -12.365 -23.839  1.00  0.00     0.084 C 
HETATM   20  C17 UNL     1      -0.456 -13.045 -23.448  1.00  0.00     0.014 C 
ENDBRANCH   3   7
BRANCH   1  21
HETATM   21  N1  UNL     1       6.294 -12.585 -24.376  1.00  0.00    -0.387 N 
ATOM     22  H1  UNL     1       7.301 -12.421 -24.372  1.00  0.00     0.159 HD
BRANCH  21  23
HETATM   23  C3  UNL     1       5.791 -13.913 -24.720  1.00  0.00     0.146 C 
BRANCH  23  24
HETATM   24  C2  UNL     1       6.665 -14.624 -25.724  1.00  0.00     0.186 C 
BRANCH  24  25
HETATM   25  O1  UNL     1       5.987 -15.628 -26.397  1.00  0.00    -0.394 OA
HETATM   26  C1  UNL     1       4.746 -15.927 -25.887  1.00  0.00     0.201 C 
ENDBRANCH  24  25
ENDBRANCH  23  24
ENDBRANCH  21  23
ENDBRANCH   1  21
BRANCH   6  27
HETATM   27  C22 UNL     1       7.178 -10.379 -22.663  1.00  0.00     0.267 C 
HETATM   28  N3  UNL     1       8.316 -10.652 -23.500  1.00  0.00    -0.057 NA
HETATM   29  O3  UNL     1       7.451 -10.088 -21.480  1.00  0.00    -0.271 OA
ENDBRANCH   6  27
TORSDOF 6
ENDMDL
