MODEL 6
REMARK VINA RESULT: -9.104677543      3.024      4.998
REMARK  6 active torsions:
REMARK  status: ('A' for Active; 'I' for Inactive)
REMARK    1  A    between atoms: O1_2  and  C2_3 
REMARK    2  A    between atoms: C2_3  and  C3_4 
REMARK    3  A    between atoms: C3_4  and  N1_5 
REMARK    4  A    between atoms: N1_5  and  C4_7 
REMARK    5  A    between atoms: C6_9  and  N2_10 
REMARK    6  A    between atoms: C21_26  and  C22_27 
ROOT
HETATM    1  C4  UNL     1       3.555  -7.496 -23.503  1.00  0.00     0.045 A 
HETATM    2  C5  UNL     1       3.700  -8.811 -23.929  1.00  0.00     0.060 A 
HETATM    3  C6  UNL     1       4.206  -9.818 -23.145  1.00  0.00     0.042 A 
HETATM    4  C19 UNL     1       4.581  -9.461 -21.864  1.00  0.00     0.031 A 
HETATM    5  C20 UNL     1       4.452  -8.171 -21.405  1.00  0.00     0.021 A 
HETATM    6  C21 UNL     1       3.938  -7.159 -22.213  1.00  0.00     0.055 A 
ENDROOT
BRANCH   3   7
HETATM    7  N2  UNL     1       4.344 -11.152 -23.606  1.00  0.00    -0.314 N 
HETATM    8  C7  UNL     1       3.393 -12.071 -23.817  1.00  0.00     0.032 A 
HETATM    9  C8  UNL     1       3.996 -13.227 -24.265  1.00  0.00     0.045 A 
HETATM   10  C18 UNL     1       1.926 -11.974 -23.634  1.00  0.00     0.059 C 
HETATM   11  C9  UNL     1       5.354 -13.025 -24.336  1.00  0.00     0.007 A 
HETATM   12  C15 UNL     1       3.208 -14.410 -24.581  1.00  0.00     0.162 C 
HETATM   13  C10 UNL     1       6.424 -13.812 -24.709  1.00  0.00     0.015 A 
HETATM   14  C14 UNL     1       5.538 -11.712 -23.915  1.00  0.00     0.051 A 
HETATM   15  C11 UNL     1       7.706 -13.302 -24.669  1.00  0.00     0.001 A 
HETATM   16  C12 UNL     1       7.904 -12.002 -24.254  1.00  0.00     0.002 A 
HETATM   17  C13 UNL     1       6.837 -11.214 -23.881  1.00  0.00     0.031 A 
HETATM   18  O2  UNL     1       3.741 -15.479 -24.993  1.00  0.00    -0.292 OA
HETATM   19  C16 UNL     1       1.722 -14.364 -24.413  1.00  0.00     0.084 C 
HETATM   20  C17 UNL     1       1.299 -13.336 -23.398  1.00  0.00     0.014 C 
ENDBRANCH   3   7
BRANCH   1  21
HETATM   21  N1  UNL     1       2.984  -6.516 -24.364  1.00  0.00    -0.387 N 
ATOM     22  H1  UNL     1       3.364  -5.570 -24.362  1.00  0.00     0.159 HD
BRANCH  21  23
HETATM   23  C3  UNL     1       1.867  -6.832 -25.252  1.00  0.00     0.146 C 
BRANCH  23  24
HETATM   24  C2  UNL     1       0.545  -6.883 -24.527  1.00  0.00     0.186 C 
BRANCH  24  25
HETATM   25  O1  UNL     1      -0.513  -6.484 -25.328  1.00  0.00    -0.394 OA
HETATM   26  C1  UNL     1      -0.181  -5.582 -26.312  1.00  0.00     0.201 C 
ENDBRANCH  24  25
ENDBRANCH  23  24
ENDBRANCH  21  23
ENDBRANCH   1  21
BRANCH   6  27
HETATM   27  C22 UNL     1       3.853  -5.821 -21.654  1.00  0.00     0.267 C 
HETATM   28  N3  UNL     1       4.794  -4.833 -22.111  1.00  0.00    -0.057 NA
HETATM   29  O3  UNL     1       3.037  -5.416 -20.801  1.00  0.00    -0.271 OA
ENDBRANCH   6  27
TORSDOF 6
ENDMDL
