MODEL 1
REMARK VINA RESULT: -9.662164053      0.000      0.000
REMARK  8 active torsions:
REMARK  status: ('A' for Active; 'I' for Inactive)
REMARK    1  A    between atoms: C2_2  and  N1_3 
REMARK    2  A    between atoms: C3_4  and  C4_5 
REMARK    3  A    between atoms: C7_16  and  C8_17 
REMARK    4  A    between atoms: C9_18  and  C10_19 
REMARK    5  A    between atoms: C10_19  and  O2_22 
REMARK    6  A    between atoms: C14_27  and  O3_28 
REMARK    7  A    between atoms: O3_28  and  C15_29 
REMARK    8  A    between atoms: C15_29  and  C16_30 
ROOT
HETATM    1  N1  UNL     1      22.623 -18.672   9.844  1.00  0.00    -0.327 N 
HETATM    2  C3  UNL     1      22.682 -17.372   9.607  1.00  0.00     0.141 A 
HETATM    3  N5  UNL     1      22.920 -17.201   8.254  1.00  0.00    -0.336 N 
ATOM      4  H5  UNL     1      23.019 -16.307   7.772  1.00  0.00     0.168 HD
HETATM    5  C6  UNL     1      22.999 -18.407   7.687  1.00  0.00     0.100 A 
HETATM    6  C7  UNL     1      23.219 -18.752   6.347  1.00  0.00     0.116 A 
HETATM    7  N6  UNL     1      23.235 -20.063   6.096  1.00  0.00    -0.354 N 
ATOM      8  H6  UNL     1      23.393 -20.359   5.133  1.00  0.00     0.166 HD
HETATM    9  C13 UNL     1      23.057 -21.020   7.021  1.00  0.00     0.128 A 
HETATM   10  C14 UNL     1      22.840 -20.696   8.344  1.00  0.00     0.113 A 
HETATM   11  C21 UNL     1      22.813 -19.351   8.670  1.00  0.00     0.101 A 
ENDROOT
BRANCH  10  12
HETATM   12  O3  UNL     1      22.658 -21.635   9.280  1.00  0.00    -0.347 OA
BRANCH  12  13
HETATM   13  C15 UNL     1      23.043 -22.928   9.476  1.00  0.00     0.182 C 
BRANCH  13  14
HETATM   14  C16 UNL     1      22.015 -23.928   9.876  1.00  0.00     0.036 C 
HETATM   15  C17 UNL     1      22.730 -24.963  10.752  1.00  0.00     0.010 C 
HETATM   16  C18 UNL     1      21.690 -25.941  11.257  1.00  0.00     0.028 C 
HETATM   17  C19 UNL     1      20.571 -25.225  11.953  1.00  0.00     0.232 C 
HETATM   18  N7  UNL     1      20.776 -23.788  11.996  1.00  0.00    -0.075 N 
HETATM   19  C20 UNL     1      20.940 -23.220  10.681  1.00  0.00     0.239 C 
ATOM     20  H72 UNL     1      20.025 -23.324  12.507  1.00  0.00     0.277 HD
ATOM     21  H71 UNL     1      21.559 -23.546  12.603  1.00  0.00     0.277 HD
ENDBRANCH  13  14
ENDBRANCH  12  13
ENDBRANCH  10  12
BRANCH   1  22
HETATM   22  C2  UNL     1      22.448 -19.367  11.077  1.00  0.00     0.126 C 
HETATM   23  C1  UNL     1      21.013 -19.554  11.444  1.00  0.00     0.027 C 
ENDBRANCH   1  22
BRANCH   6  24
HETATM   24  C8  UNL     1      23.406 -17.718   5.369  1.00  0.00    -0.043 C 
HETATM   25  C9  UNL     1      23.568 -16.863   4.534  1.00  0.00    -0.062 C 
BRANCH  25  26
HETATM   26  C10 UNL     1      23.756 -15.797   3.522  1.00  0.00     0.114 C 
HETATM   27  C11 UNL     1      25.235 -15.519   3.406  1.00  0.00     0.060 C 
HETATM   28  C12 UNL     1      22.975 -14.584   3.972  1.00  0.00     0.060 C 
BRANCH  26  29
HETATM   29  O2  UNL     1      23.320 -16.232   2.267  1.00  0.00    -0.378 OA
ATOM     30  H2  UNL     1      23.048 -15.493   1.734  1.00  0.00     0.211 HD
ENDBRANCH  26  29
ENDBRANCH  25  26
ENDBRANCH   6  24
BRANCH   2  31
HETATM   31  C4  UNL     1      22.557 -16.163  10.422  1.00  0.00     0.143 A 
HETATM   32  N2  UNL     1      22.840 -16.159  11.758  1.00  0.00    -0.235 N 
HETATM   33  O1  UNL     1      22.686 -14.990  12.222  1.00  0.00    -0.155 OA
ATOM     34  H2  UNL     1      23.132 -16.972  12.300  1.00  0.00     0.197 HD
HETATM   35  N3  UNL     1      22.317 -14.178  11.310  1.00  0.00    -0.225 N 
HETATM   36  C5  UNL     1      22.222 -14.890  10.138  1.00  0.00     0.170 A 
ATOM     37  H3  UNL     1      22.127 -13.183  11.428  1.00  0.00     0.198 HD
HETATM   38  N4  UNL     1      21.859 -14.274   8.936  1.00  0.00    -0.078 NA
ENDBRANCH   2  31
TORSDOF 8
ENDMDL
