MODEL 4
REMARK VINA RESULT: -8.188643845      3.441      9.699
REMARK  8 active torsions:
REMARK  status: ('A' for Active; 'I' for Inactive)
REMARK    1  A    between atoms: C2_2  and  N1_3 
REMARK    2  A    between atoms: C3_4  and  C4_5 
REMARK    3  A    between atoms: C7_16  and  C8_17 
REMARK    4  A    between atoms: C9_18  and  C10_19 
REMARK    5  A    between atoms: C10_19  and  O2_22 
REMARK    6  A    between atoms: C14_27  and  O3_28 
REMARK    7  A    between atoms: O3_28  and  C15_29 
REMARK    8  A    between atoms: C15_29  and  C16_30 
ROOT
HETATM    1  N1  UNL     1      21.293 -22.732   8.199  1.00  0.00    -0.327 N 
HETATM    2  C3  UNL     1      21.062 -23.898   7.619  1.00  0.00     0.141 A 
HETATM    3  N5  UNL     1      21.190 -24.881   8.585  1.00  0.00    -0.336 N 
ATOM      4  H5  UNL     1      21.072 -25.884   8.438  1.00  0.00     0.168 HD
HETATM    5  C6  UNL     1      21.496 -24.292   9.744  1.00  0.00     0.100 A 
HETATM    6  C7  UNL     1      21.717 -24.861  11.005  1.00  0.00     0.116 A 
HETATM    7  N6  UNL     1      21.999 -23.991  11.977  1.00  0.00    -0.354 N 
ATOM      8  H6  UNL     1      22.168 -24.362  12.911  1.00  0.00     0.166 HD
HETATM    9  C13 UNL     1      22.075 -22.660  11.811  1.00  0.00     0.128 A 
HETATM   10  C14 UNL     1      21.861 -22.085  10.576  1.00  0.00     0.113 A 
HETATM   11  C21 UNL     1      21.564 -22.936   9.525  1.00  0.00     0.101 A 
ENDROOT
BRANCH  10  12
HETATM   12  O3  UNL     1      21.931 -20.761  10.392  1.00  0.00    -0.347 OA
BRANCH  12  13
HETATM   13  C15 UNL     1      22.746 -19.745  10.793  1.00  0.00     0.182 C 
BRANCH  13  14
HETATM   14  C16 UNL     1      22.199 -18.361  10.831  1.00  0.00     0.036 C 
HETATM   15  C17 UNL     1      22.981 -17.612  11.917  1.00  0.00     0.010 C 
HETATM   16  C18 UNL     1      22.515 -16.171  11.913  1.00  0.00     0.028 C 
HETATM   17  C19 UNL     1      22.643 -15.567  10.546  1.00  0.00     0.232 C 
HETATM   18  N7  UNL     1      23.204 -16.497   9.582  1.00  0.00    -0.075 N 
HETATM   19  C20 UNL     1      22.433 -17.711   9.480  1.00  0.00     0.239 C 
ATOM     20  H72 UNL     1      23.320 -16.056   8.670  1.00  0.00     0.277 HD
ATOM     21  H71 UNL     1      24.182 -16.698   9.790  1.00  0.00     0.277 HD
ENDBRANCH  13  14
ENDBRANCH  12  13
ENDBRANCH  10  12
BRANCH   1  22
HETATM   22  C2  UNL     1      21.333 -21.423   7.631  1.00  0.00     0.126 C 
HETATM   23  C1  UNL     1      22.668 -21.073   7.061  1.00  0.00     0.027 C 
ENDBRANCH   1  22
BRANCH   6  24
HETATM   24  C8  UNL     1      21.630 -26.285  11.166  1.00  0.00    -0.043 C 
HETATM   25  C9  UNL     1      21.540 -27.482  11.291  1.00  0.00    -0.062 C 
BRANCH  25  26
HETATM   26  C10 UNL     1      21.453 -28.951  11.451  1.00  0.00     0.114 C 
HETATM   27  C11 UNL     1      20.971 -29.535  10.145  1.00  0.00     0.060 C 
HETATM   28  C12 UNL     1      20.508 -29.240  12.595  1.00  0.00     0.060 C 
BRANCH  26  29
HETATM   29  O2  UNL     1      22.717 -29.492  11.701  1.00  0.00    -0.378 OA
ATOM     30  H2  UNL     1      22.979 -30.069  10.992  1.00  0.00     0.211 HD
ENDBRANCH  26  29
ENDBRANCH  25  26
ENDBRANCH   6  24
BRANCH   2  31
HETATM   31  C4  UNL     1      20.724 -24.333   6.264  1.00  0.00     0.143 A 
HETATM   32  N2  UNL     1      19.725 -23.743   5.543  1.00  0.00    -0.235 N 
HETATM   33  O1  UNL     1      19.655 -24.277   4.396  1.00  0.00    -0.155 OA
ATOM     34  H2  UNL     1      19.127 -22.987   5.876  1.00  0.00     0.197 HD
HETATM   35  N3  UNL     1      20.531 -25.195   4.262  1.00  0.00    -0.225 N 
HETATM   36  C5  UNL     1      21.238 -25.264   5.438  1.00  0.00     0.170 A 
ATOM     37  H3  UNL     1      20.679 -25.773   3.434  1.00  0.00     0.198 HD
HETATM   38  N4  UNL     1      22.295 -26.165   5.604  1.00  0.00    -0.078 NA
ENDBRANCH   2  31
TORSDOF 8
ENDMDL
