MODEL 2
REMARK VINA RESULT: -9.591865719      1.188      1.364
REMARK  8 active torsions:
REMARK  status: ('A' for Active; 'I' for Inactive)
REMARK    1  A    between atoms: C2_2  and  N1_3 
REMARK    2  A    between atoms: C3_4  and  C4_5 
REMARK    3  A    between atoms: C7_16  and  C8_17 
REMARK    4  A    between atoms: C9_18  and  C10_19 
REMARK    5  A    between atoms: C10_19  and  O2_22 
REMARK    6  A    between atoms: C14_27  and  O3_28 
REMARK    7  A    between atoms: O3_28  and  C15_29 
REMARK    8  A    between atoms: C15_29  and  C16_30 
ROOT
HETATM    1  N1  UNL     1      22.608 -18.705   9.878  1.00  0.00    -0.327 N 
HETATM    2  C3  UNL     1      22.672 -17.405   9.645  1.00  0.00     0.141 A 
HETATM    3  N5  UNL     1      22.904 -17.230   8.291  1.00  0.00    -0.336 N 
ATOM      4  H5  UNL     1      23.005 -16.335   7.813  1.00  0.00     0.168 HD
HETATM    5  C6  UNL     1      22.973 -18.435   7.720  1.00  0.00     0.100 A 
HETATM    6  C7  UNL     1      23.183 -18.776   6.377  1.00  0.00     0.116 A 
HETATM    7  N6  UNL     1      23.190 -20.086   6.122  1.00  0.00    -0.354 N 
ATOM      8  H6  UNL     1      23.342 -20.380   5.157  1.00  0.00     0.166 HD
HETATM    9  C13 UNL     1      23.013 -21.045   7.045  1.00  0.00     0.128 A 
HETATM   10  C14 UNL     1      22.805 -20.725   8.370  1.00  0.00     0.113 A 
HETATM   11  C21 UNL     1      22.787 -19.381   8.700  1.00  0.00     0.101 A 
ENDROOT
BRANCH  10  12
HETATM   12  O3  UNL     1      22.624 -21.667   9.304  1.00  0.00    -0.347 OA
BRANCH  12  13
HETATM   13  C15 UNL     1      21.830 -22.762   9.467  1.00  0.00     0.182 C 
BRANCH  13  14
HETATM   14  C16 UNL     1      22.352 -24.093   9.053  1.00  0.00     0.036 C 
HETATM   15  C17 UNL     1      21.857 -25.101  10.097  1.00  0.00     0.010 C 
HETATM   16  C18 UNL     1      22.290 -26.482   9.651  1.00  0.00     0.028 C 
HETATM   17  C19 UNL     1      21.817 -26.770   8.256  1.00  0.00     0.232 C 
HETATM   18  N7  UNL     1      21.044 -25.675   7.698  1.00  0.00    -0.075 N 
HETATM   19  C20 UNL     1      21.779 -24.435   7.689  1.00  0.00     0.239 C 
ATOM     20  H72 UNL     1      20.699 -25.905   6.767  1.00  0.00     0.277 HD
ATOM     21  H71 UNL     1      20.151 -25.570   8.181  1.00  0.00     0.277 HD
ENDBRANCH  13  14
ENDBRANCH  12  13
ENDBRANCH  10  12
BRANCH   1  22
HETATM   22  C2  UNL     1      22.436 -19.404  11.110  1.00  0.00     0.126 C 
HETATM   23  C1  UNL     1      21.002 -19.597  11.477  1.00  0.00     0.027 C 
ENDBRANCH   1  22
BRANCH   6  24
HETATM   24  C8  UNL     1      23.370 -17.740   5.402  1.00  0.00    -0.043 C 
HETATM   25  C9  UNL     1      23.535 -16.882   4.570  1.00  0.00    -0.062 C 
BRANCH  25  26
HETATM   26  C10 UNL     1      23.723 -15.815   3.561  1.00  0.00     0.114 C 
HETATM   27  C11 UNL     1      25.201 -15.529   3.454  1.00  0.00     0.060 C 
HETATM   28  C12 UNL     1      22.933 -14.606   4.007  1.00  0.00     0.060 C 
BRANCH  26  29
HETATM   29  O2  UNL     1      23.296 -16.250   2.302  1.00  0.00    -0.378 OA
ATOM     30  H2  UNL     1      23.842 -16.965   1.994  1.00  0.00     0.211 HD
ENDBRANCH  26  29
ENDBRANCH  25  26
ENDBRANCH   6  24
BRANCH   2  31
HETATM   31  C4  UNL     1      22.559 -16.198  10.465  1.00  0.00     0.143 A 
HETATM   32  N2  UNL     1      22.844 -16.202  11.801  1.00  0.00    -0.235 N 
HETATM   33  O1  UNL     1      22.700 -15.033  12.270  1.00  0.00    -0.155 OA
ATOM     34  H2  UNL     1      23.130 -17.020  12.339  1.00  0.00     0.197 HD
HETATM   35  N3  UNL     1      22.337 -14.214  11.362  1.00  0.00    -0.225 N 
HETATM   36  C5  UNL     1      22.235 -14.921  10.187  1.00  0.00     0.170 A 
ATOM     37  H3  UNL     1      22.155 -13.218  11.484  1.00  0.00     0.198 HD
HETATM   38  N4  UNL     1      21.875 -14.298   8.988  1.00  0.00    -0.078 NA
ENDBRANCH   2  31
TORSDOF 8
ENDMDL
