MODEL 5
REMARK VINA RESULT: -8.068559665      3.498      9.819
REMARK  8 active torsions:
REMARK  status: ('A' for Active; 'I' for Inactive)
REMARK    1  A    between atoms: C2_2  and  N1_3 
REMARK    2  A    between atoms: C3_4  and  C4_5 
REMARK    3  A    between atoms: C7_16  and  C8_17 
REMARK    4  A    between atoms: C9_18  and  C10_19 
REMARK    5  A    between atoms: C10_19  and  O2_22 
REMARK    6  A    between atoms: C14_27  and  O3_28 
REMARK    7  A    between atoms: O3_28  and  C15_29 
REMARK    8  A    between atoms: C15_29  and  C16_30 
ROOT
HETATM    1  N1  UNL     1      22.248 -22.797   8.967  1.00  0.00    -0.327 N 
HETATM    2  C3  UNL     1      21.876 -23.973   8.489  1.00  0.00     0.141 A 
HETATM    3  N5  UNL     1      21.294 -24.683   9.525  1.00  0.00    -0.336 N 
ATOM      4  H5  UNL     1      20.912 -25.626   9.463  1.00  0.00     0.168 HD
HETATM    5  C6  UNL     1      21.318 -23.920  10.621  1.00  0.00     0.100 A 
HETATM    6  C7  UNL     1      20.843 -24.193  11.911  1.00  0.00     0.116 A 
HETATM    7  N6  UNL     1      21.011 -23.208  12.795  1.00  0.00    -0.354 N 
ATOM      8  H6  UNL     1      20.681 -23.365  13.747  1.00  0.00     0.166 HD
HETATM    9  C13 UNL     1      21.586 -22.025  12.521  1.00  0.00     0.128 A 
HETATM   10  C14 UNL     1      22.058 -21.742  11.257  1.00  0.00     0.113 A 
HETATM   11  C21 UNL     1      21.913 -22.725  10.293  1.00  0.00     0.101 A 
ENDROOT
BRANCH  10  12
HETATM   12  O3  UNL     1      22.631 -20.568  10.964  1.00  0.00    -0.347 OA
BRANCH  12  13
HETATM   13  C15 UNL     1      22.975 -19.436  11.640  1.00  0.00     0.182 C 
BRANCH  13  14
HETATM   14  C16 UNL     1      22.337 -18.149  11.251  1.00  0.00     0.036 C 
HETATM   15  C17 UNL     1      23.028 -17.053  12.072  1.00  0.00     0.010 C 
HETATM   16  C18 UNL     1      22.468 -15.718  11.627  1.00  0.00     0.028 C 
HETATM   17  C19 UNL     1      22.606 -15.544  10.143  1.00  0.00     0.232 C 
HETATM   18  N7  UNL     1      23.262 -16.675   9.513  1.00  0.00    -0.075 N 
HETATM   19  C20 UNL     1      22.577 -17.918   9.770  1.00  0.00     0.239 C 
ATOM     20  H72 UNL     1      23.382 -16.521   8.512  1.00  0.00     0.277 HD
ATOM     21  H71 UNL     1      24.243 -16.732   9.787  1.00  0.00     0.277 HD
ENDBRANCH  13  14
ENDBRANCH  12  13
ENDBRANCH  10  12
BRANCH   1  22
HETATM   22  C2  UNL     1      22.934 -21.725   8.320  1.00  0.00     0.126 C 
HETATM   23  C1  UNL     1      22.023 -20.833   7.544  1.00  0.00     0.027 C 
ENDBRANCH   1  22
BRANCH   6  24
HETATM   24  C8  UNL     1      20.231 -25.461  12.188  1.00  0.00    -0.043 C 
HETATM   25  C9  UNL     1      19.710 -26.528  12.402  1.00  0.00    -0.062 C 
BRANCH  25  26
HETATM   26  C10 UNL     1      19.083 -27.840  12.684  1.00  0.00     0.114 C 
HETATM   27  C11 UNL     1      18.168 -27.674  13.873  1.00  0.00     0.060 C 
HETATM   28  C12 UNL     1      20.187 -28.839  12.941  1.00  0.00     0.060 C 
BRANCH  26  29
HETATM   29  O2  UNL     1      18.287 -28.244  11.607  1.00  0.00    -0.378 OA
ATOM     30  H2  UNL     1      17.382 -27.990  11.748  1.00  0.00     0.211 HD
ENDBRANCH  26  29
ENDBRANCH  25  26
ENDBRANCH   6  24
BRANCH   2  31
HETATM   31  C4  UNL     1      21.949 -24.632   7.185  1.00  0.00     0.143 A 
HETATM   32  N2  UNL     1      22.417 -23.989   6.074  1.00  0.00    -0.235 N 
HETATM   33  O1  UNL     1      22.408 -24.784   5.088  1.00  0.00    -0.155 OA
ATOM     34  H2  UNL     1      22.725 -23.017   6.044  1.00  0.00     0.197 HD
HETATM   35  N3  UNL     1      21.971 -25.933   5.426  1.00  0.00    -0.225 N 
HETATM   36  C5  UNL     1      21.666 -25.880   6.765  1.00  0.00     0.170 A 
ATOM     37  H3  UNL     1      21.868 -26.744   4.816  1.00  0.00     0.198 HD
HETATM   38  N4  UNL     1      21.181 -26.998   7.449  1.00  0.00    -0.078 NA
ENDBRANCH   2  31
TORSDOF 8
ENDMDL
