MODEL 3
REMARK VINA RESULT: -9.332853426      0.899      1.195
REMARK  8 active torsions:
REMARK  status: ('A' for Active; 'I' for Inactive)
REMARK    1  A    between atoms: C2_2  and  N1_3 
REMARK    2  A    between atoms: C3_4  and  C4_5 
REMARK    3  A    between atoms: C7_16  and  C8_17 
REMARK    4  A    between atoms: C9_18  and  C10_19 
REMARK    5  A    between atoms: C10_19  and  O2_22 
REMARK    6  A    between atoms: C14_27  and  O3_28 
REMARK    7  A    between atoms: O3_28  and  C15_29 
REMARK    8  A    between atoms: C15_29  and  C16_30 
ROOT
HETATM    1  N1  UNL     1      22.307 -18.472   9.781  1.00  0.00    -0.327 N 
HETATM    2  C3  UNL     1      22.453 -17.182   9.526  1.00  0.00     0.141 A 
HETATM    3  N5  UNL     1      22.776 -17.052   8.186  1.00  0.00    -0.336 N 
ATOM      4  H5  UNL     1      22.953 -16.175   7.696  1.00  0.00     0.168 HD
HETATM    5  C6  UNL     1      22.817 -18.272   7.645  1.00  0.00     0.100 A 
HETATM    6  C7  UNL     1      23.092 -18.656   6.326  1.00  0.00     0.116 A 
HETATM    7  N6  UNL     1      23.046 -19.970   6.098  1.00  0.00    -0.354 N 
ATOM      8  H6  UNL     1      23.241 -20.294   5.151  1.00  0.00     0.166 HD
HETATM    9  C13 UNL     1      22.762 -20.896   7.028  1.00  0.00     0.128 A 
HETATM   10  C14 UNL     1      22.491 -20.534   8.331  1.00  0.00     0.113 A 
HETATM   11  C21 UNL     1      22.523 -19.184   8.631  1.00  0.00     0.101 A 
ENDROOT
BRANCH  10  12
HETATM   12  O3  UNL     1      22.203 -21.443   9.271  1.00  0.00    -0.347 OA
BRANCH  12  13
HETATM   13  C15 UNL     1      21.083 -22.043   9.761  1.00  0.00     0.182 C 
BRANCH  13  14
HETATM   14  C16 UNL     1      21.036 -23.530   9.826  1.00  0.00     0.036 C 
HETATM   15  C17 UNL     1      21.700 -24.044   8.543  1.00  0.00     0.010 C 
HETATM   16  C18 UNL     1      21.757 -25.555   8.624  1.00  0.00     0.028 C 
HETATM   17  C19 UNL     1      22.441 -26.001   9.883  1.00  0.00     0.232 C 
HETATM   18  N7  UNL     1      22.900 -24.884  10.688  1.00  0.00    -0.075 N 
HETATM   19  C20 UNL     1      21.828 -23.986  11.039  1.00  0.00     0.239 C 
ATOM     20  H72 UNL     1      23.397 -25.207  11.518  1.00  0.00     0.277 HD
ATOM     21  H71 UNL     1      23.662 -24.386  10.227  1.00  0.00     0.277 HD
ENDBRANCH  13  14
ENDBRANCH  12  13
ENDBRANCH  10  12
BRANCH   1  22
HETATM   22  C2  UNL     1      22.024 -19.131  11.014  1.00  0.00     0.126 C 
HETATM   23  C1  UNL     1      23.234 -19.315  11.870  1.00  0.00     0.027 C 
ENDBRANCH   1  22
BRANCH   6  24
HETATM   24  C8  UNL     1      23.392 -17.653   5.343  1.00  0.00    -0.043 C 
HETATM   25  C9  UNL     1      23.627 -16.815   4.508  1.00  0.00    -0.062 C 
BRANCH  25  26
HETATM   26  C10 UNL     1      23.933 -15.777   3.497  1.00  0.00     0.114 C 
HETATM   27  C11 UNL     1      25.434 -15.652   3.395  1.00  0.00     0.060 C 
HETATM   28  C12 UNL     1      23.276 -14.490   3.936  1.00  0.00     0.060 C 
BRANCH  26  29
HETATM   29  O2  UNL     1      23.467 -16.168   2.237  1.00  0.00    -0.378 OA
ATOM     30  H2  UNL     1      24.180 -16.507   1.709  1.00  0.00     0.211 HD
ENDBRANCH  26  29
ENDBRANCH  25  26
ENDBRANCH   6  24
BRANCH   2  31
HETATM   31  C4  UNL     1      22.353 -15.952  10.312  1.00  0.00     0.143 A 
HETATM   32  N2  UNL     1      22.623 -15.925  11.651  1.00  0.00    -0.235 N 
HETATM   33  O1  UNL     1      22.495 -14.742  12.087  1.00  0.00    -0.155 OA
ATOM     34  H2  UNL     1      22.888 -16.733  12.214  1.00  0.00     0.197 HD
HETATM   35  N3  UNL     1      22.156 -13.941  11.153  1.00  0.00    -0.225 N 
HETATM   36  C5  UNL     1      22.054 -14.677   9.997  1.00  0.00     0.170 A 
ATOM     37  H3  UNL     1      21.992 -12.939  11.247  1.00  0.00     0.198 HD
HETATM   38  N4  UNL     1      21.719 -14.080   8.777  1.00  0.00    -0.078 NA
ENDBRANCH   2  31
TORSDOF 8
ENDMDL
