MODEL 6
REMARK VINA RESULT: -7.938450446      4.695      9.163
REMARK  8 active torsions:
REMARK  status: ('A' for Active; 'I' for Inactive)
REMARK    1  A    between atoms: C2_2  and  N1_3 
REMARK    2  A    between atoms: C3_4  and  C4_5 
REMARK    3  A    between atoms: C7_16  and  C8_17 
REMARK    4  A    between atoms: C9_18  and  C10_19 
REMARK    5  A    between atoms: C10_19  and  O2_22 
REMARK    6  A    between atoms: C14_27  and  O3_28 
REMARK    7  A    between atoms: O3_28  and  C15_29 
REMARK    8  A    between atoms: C15_29  and  C16_30 
ROOT
HETATM    1  N1  UNL     1      21.987 -25.527   9.356  1.00  0.00    -0.327 N 
HETATM    2  C3  UNL     1      22.013 -26.685   8.718  1.00  0.00     0.141 A 
HETATM    3  N5  UNL     1      21.578 -26.462   7.423  1.00  0.00    -0.336 N 
ATOM      4  H5  UNL     1      21.487 -27.168   6.692  1.00  0.00     0.168 HD
HETATM    5  C6  UNL     1      21.296 -25.163   7.294  1.00  0.00     0.100 A 
HETATM    6  C7  UNL     1      20.832 -24.456   6.177  1.00  0.00     0.116 A 
HETATM    7  N6  UNL     1      20.653 -23.147   6.370  1.00  0.00    -0.354 N 
ATOM      8  H6  UNL     1      20.315 -22.594   5.584  1.00  0.00     0.166 HD
HETATM    9  C13 UNL     1      20.887 -22.508   7.528  1.00  0.00     0.128 A 
HETATM   10  C14 UNL     1      21.343 -23.190   8.636  1.00  0.00     0.113 A 
HETATM   11  C21 UNL     1      21.548 -24.552   8.500  1.00  0.00     0.101 A 
ENDROOT
BRANCH  10  12
HETATM   12  O3  UNL     1      21.584 -22.570   9.798  1.00  0.00    -0.347 OA
BRANCH  12  13
HETATM   13  C15 UNL     1      22.472 -21.648  10.265  1.00  0.00     0.182 C 
BRANCH  13  14
HETATM   14  C16 UNL     1      21.984 -20.276  10.575  1.00  0.00     0.036 C 
HETATM   15  C17 UNL     1      22.924 -19.710  11.646  1.00  0.00     0.010 C 
HETATM   16  C18 UNL     1      22.512 -18.277  11.913  1.00  0.00     0.028 C 
HETATM   17  C19 UNL     1      22.488 -17.479  10.643  1.00  0.00     0.232 C 
HETATM   18  N7  UNL     1      22.889 -18.263   9.489  1.00  0.00    -0.075 N 
HETATM   19  C20 UNL     1      22.069 -19.436   9.313  1.00  0.00     0.239 C 
ATOM     20  H72 UNL     1      22.904 -17.694   8.643  1.00  0.00     0.277 HD
ATOM     21  H71 UNL     1      23.878 -18.509   9.537  1.00  0.00     0.277 HD
ENDBRANCH  13  14
ENDBRANCH  12  13
ENDBRANCH  10  12
BRANCH   1  22
HETATM   22  C2  UNL     1      22.292 -25.229  10.718  1.00  0.00     0.126 C 
HETATM   23  C1  UNL     1      21.126 -25.415  11.632  1.00  0.00     0.027 C 
ENDBRANCH   1  22
BRANCH   6  24
HETATM   24  C8  UNL     1      20.588 -25.153   4.946  1.00  0.00    -0.043 C 
HETATM   25  C9  UNL     1      20.367 -25.728   3.908  1.00  0.00    -0.062 C 
BRANCH  25  26
HETATM   26  C10 UNL     1      20.117 -26.442   2.636  1.00  0.00     0.114 C 
HETATM   27  C11 UNL     1      20.441 -27.901   2.848  1.00  0.00     0.060 C 
HETATM   28  C12 UNL     1      20.981 -25.811   1.569  1.00  0.00     0.060 C 
BRANCH  26  29
HETATM   29  O2  UNL     1      18.765 -26.368   2.290  1.00  0.00    -0.378 OA
ATOM     30  H2  UNL     1      18.621 -25.675   1.655  1.00  0.00     0.211 HD
ENDBRANCH  26  29
ENDBRANCH  25  26
ENDBRANCH   6  24
BRANCH   2  31
HETATM   31  C4  UNL     1      22.380 -28.056   9.073  1.00  0.00     0.143 A 
HETATM   32  N2  UNL     1      22.352 -28.501  10.364  1.00  0.00    -0.235 N 
HETATM   33  O1  UNL     1      22.679 -29.725  10.399  1.00  0.00    -0.155 OA
ATOM     34  H2  UNL     1      22.104 -27.936  11.176  1.00  0.00     0.197 HD
HETATM   35  N3  UNL     1      22.934 -30.167   9.230  1.00  0.00    -0.225 N 
HETATM   36  C5  UNL     1      22.753 -29.128   8.349  1.00  0.00     0.170 A 
ATOM     37  H3  UNL     1      23.218 -31.118   8.992  1.00  0.00     0.198 HD
HETATM   38  N4  UNL     1      22.932 -29.298   6.972  1.00  0.00    -0.078 NA
ENDBRANCH   2  31
TORSDOF 8
ENDMDL
