MODEL 1
REMARK VINA RESULT: -11.181788671      0.000      0.000
REMARK  14 active torsions:
REMARK  status: ('A' for Active; 'I' for Inactive)
REMARK    1  A    between atoms: C2_2  and  N1_5 
REMARK       I    between atoms: N1_5  and  C5_7 
REMARK    2  A    between atoms: C5_7  and  C6_9 
REMARK    3  A    between atoms: N2_18  and  C15_19 
REMARK    4  A    between atoms: C15_19  and  C16_20 
REMARK    5  A    between atoms: C16_20  and  O2_21 
REMARK    6  A    between atoms: C16_20  and  C17_23 
REMARK    7  A    between atoms: C17_23  and  C18_24 
REMARK    8  A    between atoms: C17_23  and  N3_31 
REMARK    9  A    between atoms: C18_24  and  C19_25 
REMARK       I    between atoms: N3_31  and  C25_33 
REMARK   10  A    between atoms: C25_33  and  C26_35 
REMARK   11  A    between atoms: C26_35  and  C27_36 
REMARK   12  A    between atoms: C26_35  and  N5_40 
REMARK   13  A    between atoms: C27_36  and  C28_37 
REMARK       I    between atoms: N5_40  and  C29_42 
REMARK   14  A    between atoms: C29_42  and  C30_44 
ROOT
HETATM    1  C17 UNL     1      16.423  22.009  15.350  1.00  0.00     0.119 C 
ENDROOT
BRANCH   1   2
HETATM    2  C16 UNL     1      16.701  21.362  16.691  1.00  0.00     0.169 C 
BRANCH   2   3
HETATM    3  C15 UNL     1      15.651  20.473  17.240  1.00  0.00     0.307 C 
BRANCH   3   4
HETATM    4  N2  UNL     1      15.809  19.911  18.532  1.00  0.00     0.105 N 
HETATM    5  C6  UNL     1      15.488  20.840  19.603  1.00  0.00     0.314 C 
HETATM    6  C7  UNL     1      15.630  20.099  20.914  1.00  0.00     0.050 C 
HETATM    7  C8  UNL     1      14.344  19.312  21.091  1.00  0.00    -0.006 C 
HETATM    8  C9  UNL     1      14.656  18.085  21.908  1.00  0.00     0.005 C 
HETATM    9  C13 UNL     1      13.837  18.975  19.705  1.00  0.00     0.018 C 
HETATM   10  C10 UNL     1      13.349  17.434  22.309  1.00  0.00     0.000 C 
HETATM   11  C11 UNL     1      12.389  17.633  21.152  1.00  0.00     0.000 C 
HETATM   12  C12 UNL     1      13.114  17.628  19.832  1.00  0.00     0.007 C 
HETATM   13  C14 UNL     1      14.957  18.749  18.734  1.00  0.00     0.278 C 
BRANCH   5  14
HETATM   14  C5  UNL     1      16.389  22.008  19.665  1.00  0.00     0.252 C 
HETATM   15  N1  UNL     1      17.761  21.918  19.972  1.00  0.00    -0.351 N 
ATOM     16  H1  UNL     1      18.141  20.990  20.160  1.00  0.00     0.163 HD
HETATM   17  O1  UNL     1      15.933  23.147  19.436  1.00  0.00    -0.271 OA
BRANCH  15  18
HETATM   18  C2  UNL     1      18.661  23.030  20.043  1.00  0.00     0.022 C 
HETATM   19  C1  UNL     1      18.223  24.033  21.090  1.00  0.00     0.037 C 
HETATM   20  C3  UNL     1      18.785  23.769  18.734  1.00  0.00     0.037 C 
HETATM   21  C4  UNL     1      20.041  22.560  20.444  1.00  0.00     0.037 C 
ENDBRANCH  15  18
ENDBRANCH   5  14
ENDBRANCH   3   4
ENDBRANCH   2   3
BRANCH   2  22
HETATM   22  O2  UNL     1      17.989  20.875  16.804  1.00  0.00    -0.392 OA
ATOM     23  H2  UNL     1      18.633  21.514  17.086  1.00  0.00     0.210 HD
ENDBRANCH   2  22
ENDBRANCH   1   2
BRANCH   1  24
HETATM   24  C18 UNL     1      16.316  23.513  15.573  1.00  0.00     0.066 C 
BRANCH  24  25
HETATM   25  C19 UNL     1      17.401  24.237  14.863  1.00  0.00    -0.056 A 
HETATM   26  C20 UNL     1      18.629  24.383  15.431  1.00  0.00     0.007 A 
HETATM   27  C21 UNL     1      19.658  25.048  14.797  1.00  0.00     0.001 A 
HETATM   28  C22 UNL     1      19.440  25.588  13.538  1.00  0.00     0.000 A 
HETATM   29  C23 UNL     1      18.188  25.436  12.965  1.00  0.00     0.001 A 
HETATM   30  C24 UNL     1      17.166  24.777  13.594  1.00  0.00     0.007 A 
ENDBRANCH  24  25
ENDBRANCH   1  24
BRANCH   1  31
HETATM   31  N3  UNL     1      15.036  21.650  14.949  1.00  0.00    -0.352 N 
HETATM   32  C25 UNL     1      14.746  21.092  13.690  1.00  0.00     0.241 C 
HETATM   33  O3  UNL     1      15.707  20.900  12.893  1.00  0.00    -0.271 OA
ATOM     34  H3  UNL     1      14.273  21.812  15.606  1.00  0.00     0.163 HD
BRANCH  32  35
HETATM   35  C26 UNL     1      13.334  20.735  13.299  1.00  0.00     0.185 C 
BRANCH  35  36
HETATM   36  C27 UNL     1      12.375  21.818  13.746  1.00  0.00     0.134 C 
BRANCH  36  37
HETATM   37  C28 UNL     1      11.554  21.394  14.915  1.00  0.00     0.233 C 
HETATM   38  N4  UNL     1      10.159  21.228  14.726  1.00  0.00    -0.062 NA
HETATM   39  O4  UNL     1      12.103  21.194  16.030  1.00  0.00    -0.277 OA
ENDBRANCH  36  37
ENDBRANCH  35  36
BRANCH  35  40
HETATM   40  N5  UNL     1      12.961  19.509  13.948  1.00  0.00    -0.342 N 
HETATM   41  C29 UNL     1      12.313  18.432  13.291  1.00  0.00     0.268 C 
HETATM   42  O5  UNL     1      12.054  18.552  12.081  1.00  0.00    -0.266 OA
ATOM     43  H5  UNL     1      13.175  19.408  14.940  1.00  0.00     0.163 HD
BRANCH  41  44
HETATM   44  C30 UNL     1      11.949  17.196  14.001  1.00  0.00     0.101 A 
HETATM   45  C31 UNL     1      11.995  15.992  13.333  1.00  0.00     0.036 A 
HETATM   46  C32 UNL     1      11.671  14.781  13.905  1.00  0.00     0.016 A 
HETATM   47  C33 UNL     1      11.279  14.815  15.240  1.00  0.00    -0.009 A 
HETATM   48  C34 UNL     1      10.938  13.630  15.879  1.00  0.00     0.013 A 
HETATM   49  C38 UNL     1      11.238  16.038  15.896  1.00  0.00     0.043 A 
HETATM   50  C35 UNL     1      10.552  13.700  17.198  1.00  0.00     0.001 A 
HETATM   51  C36 UNL     1      10.506  14.910  17.869  1.00  0.00     0.002 A 
HETATM   52  C37 UNL     1      10.847  16.079  17.226  1.00  0.00     0.030 A 
HETATM   53  N6  UNL     1      11.571  17.199  15.275  1.00  0.00    -0.351 N 
ATOM     54  H6  UNL     1      11.530  18.079  15.790  1.00  0.00     0.166 HD
ENDBRANCH  41  44
ENDBRANCH  35  40
ENDBRANCH  32  35
ENDBRANCH   1  31
TORSDOF 14
ENDMDL
