MODEL 7
REMARK VINA RESULT: -10.745503276      3.814     10.407
REMARK  14 active torsions:
REMARK  status: ('A' for Active; 'I' for Inactive)
REMARK    1  A    between atoms: C2_2  and  N1_5 
REMARK       I    between atoms: N1_5  and  C5_7 
REMARK    2  A    between atoms: C5_7  and  C6_9 
REMARK    3  A    between atoms: N2_18  and  C15_19 
REMARK    4  A    between atoms: C15_19  and  C16_20 
REMARK    5  A    between atoms: C16_20  and  O2_21 
REMARK    6  A    between atoms: C16_20  and  C17_23 
REMARK    7  A    between atoms: C17_23  and  C18_24 
REMARK    8  A    between atoms: C17_23  and  N3_31 
REMARK    9  A    between atoms: C18_24  and  C19_25 
REMARK       I    between atoms: N3_31  and  C25_33 
REMARK   10  A    between atoms: C25_33  and  C26_35 
REMARK   11  A    between atoms: C26_35  and  C27_36 
REMARK   12  A    between atoms: C26_35  and  N5_40 
REMARK   13  A    between atoms: C27_36  and  C28_37 
REMARK       I    between atoms: N5_40  and  C29_42 
REMARK   14  A    between atoms: C29_42  and  C30_44 
ROOT
HETATM    1  C17 UNL     1      17.085  23.618  18.536  1.00  0.00     0.119 C 
ENDROOT
BRANCH   1   2
HETATM    2  C16 UNL     1      15.706  24.110  18.146  1.00  0.00     0.169 C 
BRANCH   2   3
HETATM    3  C15 UNL     1      14.599  23.127  18.208  1.00  0.00     0.307 C 
BRANCH   3   4
HETATM    4  N2  UNL     1      14.572  22.040  17.300  1.00  0.00     0.105 N 
HETATM    5  C6  UNL     1      13.770  20.922  17.768  1.00  0.00     0.314 C 
HETATM    6  C7  UNL     1      13.768  19.868  16.683  1.00  0.00     0.050 C 
HETATM    7  C8  UNL     1      12.725  20.309  15.672  1.00  0.00    -0.006 C 
HETATM    8  C9  UNL     1      13.130  19.779  14.321  1.00  0.00     0.005 C 
HETATM    9  C13 UNL     1      12.680  21.822  15.714  1.00  0.00     0.018 C 
HETATM   10  C10 UNL     1      11.976  19.987  13.362  1.00  0.00     0.000 C 
HETATM   11  C11 UNL     1      11.314  21.293  13.752  1.00  0.00     0.000 C 
HETATM   12  C12 UNL     1      12.319  22.277  14.294  1.00  0.00     0.007 C 
HETATM   13  C14 UNL     1      14.024  22.419  16.006  1.00  0.00     0.278 C 
BRANCH   5  14
HETATM   14  C5  UNL     1      14.296  20.285  18.991  1.00  0.00     0.252 C 
HETATM   15  N1  UNL     1      13.540  19.418  19.805  1.00  0.00    -0.351 N 
ATOM     16  H1  UNL     1      12.578  19.227  19.523  1.00  0.00     0.163 HD
HETATM   17  O1  UNL     1      15.471  20.512  19.345  1.00  0.00    -0.271 OA
BRANCH  15  18
HETATM   18  C2  UNL     1      14.018  18.786  20.998  1.00  0.00     0.022 C 
HETATM   19  C1  UNL     1      12.954  17.907  21.624  1.00  0.00     0.037 C 
HETATM   20  C3  UNL     1      14.463  19.773  22.048  1.00  0.00     0.037 C 
HETATM   21  C4  UNL     1      15.189  17.886  20.679  1.00  0.00     0.037 C 
ENDBRANCH  15  18
ENDBRANCH   5  14
ENDBRANCH   3   4
ENDBRANCH   2   3
BRANCH   2  22
HETATM   22  O2  UNL     1      15.405  25.355  18.663  1.00  0.00    -0.392 OA
ATOM     23  H2  UNL     1      15.530  26.078  18.059  1.00  0.00     0.210 HD
ENDBRANCH   2  22
ENDBRANCH   1   2
BRANCH   1  24
HETATM   24  C18 UNL     1      17.145  23.565  20.058  1.00  0.00     0.066 C 
BRANCH  24  25
HETATM   25  C19 UNL     1      18.533  23.322  20.530  1.00  0.00    -0.056 A 
HETATM   26  C20 UNL     1      19.194  24.259  21.263  1.00  0.00     0.007 A 
HETATM   27  C21 UNL     1      20.482  24.063  21.718  1.00  0.00     0.001 A 
HETATM   28  C22 UNL     1      21.129  22.872  21.422  1.00  0.00     0.000 A 
HETATM   29  C23 UNL     1      20.451  21.923  20.675  1.00  0.00     0.001 A 
HETATM   30  C24 UNL     1      19.174  22.118  20.223  1.00  0.00     0.007 A 
ENDBRANCH  24  25
ENDBRANCH   1  24
BRANCH   1  31
HETATM   31  N3  UNL     1      18.060  24.696  18.219  1.00  0.00    -0.352 N 
HETATM   32  C25 UNL     1      18.748  24.740  16.992  1.00  0.00     0.241 C 
HETATM   33  O3  UNL     1      18.513  23.828  16.150  1.00  0.00    -0.271 OA
ATOM     34  H3  UNL     1      18.236  25.424  18.911  1.00  0.00     0.163 HD
BRANCH  32  35
HETATM   35  C26 UNL     1      19.734  25.839  16.687  1.00  0.00     0.185 C 
BRANCH  35  36
HETATM   36  C27 UNL     1      20.055  25.861  15.207  1.00  0.00     0.134 C 
BRANCH  36  37
HETATM   37  C28 UNL     1      20.659  27.155  14.783  1.00  0.00     0.233 C 
HETATM   38  N4  UNL     1      20.526  28.269  15.648  1.00  0.00    -0.062 NA
HETATM   39  O4  UNL     1      21.265  27.236  13.682  1.00  0.00    -0.277 OA
ENDBRANCH  36  37
ENDBRANCH  35  36
BRANCH  35  40
HETATM   40  N5  UNL     1      20.952  25.594  17.407  1.00  0.00    -0.342 N 
HETATM   41  C29 UNL     1      21.390  26.370  18.509  1.00  0.00     0.268 C 
HETATM   42  O5  UNL     1      20.677  27.321  18.878  1.00  0.00    -0.266 OA
ATOM     43  H5  UNL     1      21.536  24.814  17.107  1.00  0.00     0.163 HD
BRANCH  41  44
HETATM   44  C30 UNL     1      22.647  26.080  19.214  1.00  0.00     0.101 A 
HETATM   45  C31 UNL     1      22.794  26.468  20.527  1.00  0.00     0.036 A 
HETATM   46  C32 UNL     1      23.931  26.246  21.274  1.00  0.00     0.016 A 
HETATM   47  C33 UNL     1      24.974  25.588  20.628  1.00  0.00    -0.009 A 
HETATM   48  C34 UNL     1      26.149  25.333  21.321  1.00  0.00     0.013 A 
HETATM   49  C38 UNL     1      24.807  25.205  19.304  1.00  0.00     0.043 A 
HETATM   50  C35 UNL     1      27.161  24.682  20.652  1.00  0.00     0.001 A 
HETATM   51  C36 UNL     1      27.014  24.292  19.332  1.00  0.00     0.002 A 
HETATM   52  C37 UNL     1      25.843  24.550  18.654  1.00  0.00     0.030 A 
HETATM   53  N6  UNL     1      23.659  25.453  18.622  1.00  0.00    -0.351 N 
ATOM     54  H6  UNL     1      23.573  25.156  17.650  1.00  0.00     0.166 HD
ENDBRANCH  41  44
ENDBRANCH  35  40
ENDBRANCH  32  35
ENDBRANCH   1  31
TORSDOF 14
ENDMDL
