MODEL 13
REMARK VINA RESULT: -10.550293665      3.979     10.518
REMARK  14 active torsions:
REMARK  status: ('A' for Active; 'I' for Inactive)
REMARK    1  A    between atoms: C2_2  and  N1_5 
REMARK       I    between atoms: N1_5  and  C5_7 
REMARK    2  A    between atoms: C5_7  and  C6_9 
REMARK    3  A    between atoms: N2_18  and  C15_19 
REMARK    4  A    between atoms: C15_19  and  C16_20 
REMARK    5  A    between atoms: C16_20  and  O2_21 
REMARK    6  A    between atoms: C16_20  and  C17_23 
REMARK    7  A    between atoms: C17_23  and  C18_24 
REMARK    8  A    between atoms: C17_23  and  N3_31 
REMARK    9  A    between atoms: C18_24  and  C19_25 
REMARK       I    between atoms: N3_31  and  C25_33 
REMARK   10  A    between atoms: C25_33  and  C26_35 
REMARK   11  A    between atoms: C26_35  and  C27_36 
REMARK   12  A    between atoms: C26_35  and  N5_40 
REMARK   13  A    between atoms: C27_36  and  C28_37 
REMARK       I    between atoms: N5_40  and  C29_42 
REMARK   14  A    between atoms: C29_42  and  C30_44 
ROOT
HETATM    1  C17 UNL     1      17.103  23.658  18.501  1.00  0.00     0.119 C 
ENDROOT
BRANCH   1   2
HETATM    2  C16 UNL     1      15.680  23.991  18.103  1.00  0.00     0.169 C 
BRANCH   2   3
HETATM    3  C15 UNL     1      14.662  22.932  18.297  1.00  0.00     0.307 C 
BRANCH   3   4
HETATM    4  N2  UNL     1      14.576  21.862  17.371  1.00  0.00     0.105 N 
HETATM    5  C6  UNL     1      13.740  20.768  17.836  1.00  0.00     0.314 C 
HETATM    6  C7  UNL     1      13.678  19.734  16.734  1.00  0.00     0.050 C 
HETATM    7  C8  UNL     1      12.635  20.232  15.751  1.00  0.00    -0.006 C 
HETATM    8  C9  UNL     1      12.994  19.710  14.383  1.00  0.00     0.005 C 
HETATM    9  C13 UNL     1      12.649  21.744  15.818  1.00  0.00     0.018 C 
HETATM   10  C10 UNL     1      11.832  19.978  13.450  1.00  0.00     0.000 C 
HETATM   11  C11 UNL     1      11.228  21.302  13.874  1.00  0.00     0.000 C 
HETATM   12  C12 UNL     1      12.280  22.237  14.413  1.00  0.00     0.007 C 
HETATM   13  C14 UNL     1      14.020  22.284  16.094  1.00  0.00     0.278 C 
BRANCH   5  14
HETATM   14  C5  UNL     1      14.263  20.091  19.038  1.00  0.00     0.252 C 
HETATM   15  N1  UNL     1      13.474  19.287  19.884  1.00  0.00    -0.351 N 
ATOM     16  H1  UNL     1      12.490  19.173  19.642  1.00  0.00     0.163 HD
HETATM   17  O1  UNL     1      15.466  20.224  19.343  1.00  0.00    -0.271 OA
BRANCH  15  18
HETATM   18  C2  UNL     1      13.949  18.618  21.059  1.00  0.00     0.022 C 
HETATM   19  C1  UNL     1      14.281  19.603  22.162  1.00  0.00     0.037 C 
HETATM   20  C3  UNL     1      15.185  17.791  20.805  1.00  0.00     0.037 C 
HETATM   21  C4  UNL     1      12.879  17.701  21.606  1.00  0.00     0.037 C 
ENDBRANCH  15  18
ENDBRANCH   5  14
ENDBRANCH   3   4
ENDBRANCH   2   3
BRANCH   2  22
HETATM   22  O2  UNL     1      15.286  25.254  18.502  1.00  0.00    -0.392 OA
ATOM     23  H2  UNL     1      14.601  25.644  17.971  1.00  0.00     0.210 HD
ENDBRANCH   2  22
ENDBRANCH   1   2
BRANCH   1  24
HETATM   24  C18 UNL     1      17.165  23.625  20.023  1.00  0.00     0.066 C 
BRANCH  24  25
HETATM   25  C19 UNL     1      18.548  23.359  20.496  1.00  0.00    -0.056 A 
HETATM   26  C20 UNL     1      19.228  24.290  21.220  1.00  0.00     0.007 A 
HETATM   27  C21 UNL     1      20.512  24.073  21.676  1.00  0.00     0.001 A 
HETATM   28  C22 UNL     1      21.136  22.867  21.391  1.00  0.00     0.000 A 
HETATM   29  C23 UNL     1      20.439  21.924  20.654  1.00  0.00     0.001 A 
HETATM   30  C24 UNL     1      19.165  22.139  20.201  1.00  0.00     0.007 A 
ENDBRANCH  24  25
ENDBRANCH   1  24
BRANCH   1  31
HETATM   31  N3  UNL     1      17.956  24.833  18.175  1.00  0.00    -0.352 N 
HETATM   32  C25 UNL     1      18.663  24.926  16.962  1.00  0.00     0.241 C 
HETATM   33  O3  UNL     1      18.556  23.973  16.141  1.00  0.00    -0.271 OA
ATOM     34  H3  UNL     1      18.029  25.593  18.851  1.00  0.00     0.163 HD
BRANCH  32  35
HETATM   35  C26 UNL     1      19.523  26.125  16.649  1.00  0.00     0.185 C 
BRANCH  35  36
HETATM   36  C27 UNL     1      19.603  26.336  15.152  1.00  0.00     0.134 C 
BRANCH  36  37
HETATM   37  C28 UNL     1      20.931  25.948  14.600  1.00  0.00     0.233 C 
HETATM   38  N4  UNL     1      21.967  26.914  14.608  1.00  0.00    -0.062 NA
HETATM   39  O4  UNL     1      21.107  24.788  14.142  1.00  0.00    -0.277 OA
ENDBRANCH  36  37
ENDBRANCH  35  36
BRANCH  35  40
HETATM   40  N5  UNL     1      20.852  25.893  17.141  1.00  0.00    -0.342 N 
HETATM   41  C29 UNL     1      21.453  26.647  18.181  1.00  0.00     0.268 C 
HETATM   42  O5  UNL     1      20.791  27.563  18.701  1.00  0.00    -0.266 OA
ATOM     43  H5  UNL     1      21.396  25.142  16.718  1.00  0.00     0.163 HD
BRANCH  41  44
HETATM   44  C30 UNL     1      22.820  26.373  18.649  1.00  0.00     0.101 A 
HETATM   45  C31 UNL     1      23.067  26.270  20.000  1.00  0.00     0.036 A 
HETATM   46  C32 UNL     1      24.309  26.019  20.541  1.00  0.00     0.016 A 
HETATM   47  C33 UNL     1      25.355  25.864  19.635  1.00  0.00    -0.009 A 
HETATM   48  C34 UNL     1      26.634  25.610  20.111  1.00  0.00     0.013 A 
HETATM   49  C38 UNL     1      25.087  25.972  18.277  1.00  0.00     0.043 A 
HETATM   50  C35 UNL     1      27.646  25.465  19.188  1.00  0.00     0.001 A 
HETATM   51  C36 UNL     1      27.398  25.568  17.830  1.00  0.00     0.002 A 
HETATM   52  C37 UNL     1      26.125  25.820  17.369  1.00  0.00     0.030 A 
HETATM   53  N6  UNL     1      23.837  26.221  17.807  1.00  0.00    -0.351 N 
ATOM     54  H6  UNL     1      23.679  26.292  16.802  1.00  0.00     0.166 HD
ENDBRANCH  41  44
ENDBRANCH  35  40
ENDBRANCH  32  35
ENDBRANCH   1  31
TORSDOF 14
ENDMDL
