MODEL 2
REMARK VINA RESULT: -11.100819646      3.947     10.450
REMARK  14 active torsions:
REMARK  status: ('A' for Active; 'I' for Inactive)
REMARK    1  A    between atoms: C2_2  and  N1_5 
REMARK       I    between atoms: N1_5  and  C5_7 
REMARK    2  A    between atoms: C5_7  and  C6_9 
REMARK    3  A    between atoms: N2_18  and  C15_19 
REMARK    4  A    between atoms: C15_19  and  C16_20 
REMARK    5  A    between atoms: C16_20  and  O2_21 
REMARK    6  A    between atoms: C16_20  and  C17_23 
REMARK    7  A    between atoms: C17_23  and  C18_24 
REMARK    8  A    between atoms: C17_23  and  N3_31 
REMARK    9  A    between atoms: C18_24  and  C19_25 
REMARK       I    between atoms: N3_31  and  C25_33 
REMARK   10  A    between atoms: C25_33  and  C26_35 
REMARK   11  A    between atoms: C26_35  and  C27_36 
REMARK   12  A    between atoms: C26_35  and  N5_40 
REMARK   13  A    between atoms: C27_36  and  C28_37 
REMARK       I    between atoms: N5_40  and  C29_42 
REMARK   14  A    between atoms: C29_42  and  C30_44 
ROOT
HETATM    1  C17 UNL     1      17.097  23.506  18.094  1.00  0.00     0.119 C 
ENDROOT
BRANCH   1   2
HETATM    2  C16 UNL     1      15.653  23.378  17.653  1.00  0.00     0.169 C 
BRANCH   2   3
HETATM    3  C15 UNL     1      15.178  22.022  17.291  1.00  0.00     0.307 C 
BRANCH   3   4
HETATM    4  N2  UNL     1      14.159  21.406  18.060  1.00  0.00     0.105 N 
HETATM    5  C6  UNL     1      13.693  20.152  17.494  1.00  0.00     0.314 C 
HETATM    6  C7  UNL     1      12.666  19.570  18.440  1.00  0.00     0.050 C 
HETATM    7  C8  UNL     1      13.454  18.883  19.541  1.00  0.00    -0.006 C 
HETATM    8  C9  UNL     1      12.625  18.914  20.799  1.00  0.00     0.005 C 
HETATM    9  C13 UNL     1      14.760  19.635  19.687  1.00  0.00     0.018 C 
HETATM   10  C10 UNL     1      13.280  18.013  21.824  1.00  0.00     0.000 C 
HETATM   11  C11 UNL     1      14.777  18.141  21.626  1.00  0.00     0.000 C 
HETATM   12  C12 UNL     1      15.153  19.526  21.166  1.00  0.00     0.007 C 
HETATM   13  C14 UNL     1      14.601  21.101  19.413  1.00  0.00     0.278 C 
BRANCH   5  14
HETATM   14  C5  UNL     1      13.036  20.302  16.180  1.00  0.00     0.252 C 
HETATM   15  N1  UNL     1      11.781  20.917  16.003  1.00  0.00    -0.351 N 
ATOM     16  H1  UNL     1      11.310  21.275  16.835  1.00  0.00     0.163 HD
HETATM   17  O1  UNL     1      13.604  19.868  15.157  1.00  0.00    -0.271 OA
BRANCH  15  18
HETATM   18  C2  UNL     1      11.115  21.077  14.745  1.00  0.00     0.022 C 
HETATM   19  C1  UNL     1       9.704  21.600  14.928  1.00  0.00     0.037 C 
HETATM   20  C3  UNL     1      11.021  19.791  13.962  1.00  0.00     0.037 C 
HETATM   21  C4  UNL     1      11.844  22.089  13.893  1.00  0.00     0.037 C 
ENDBRANCH  15  18
ENDBRANCH   5  14
ENDBRANCH   3   4
ENDBRANCH   2   3
BRANCH   2  22
HETATM   22  O2  UNL     1      14.779  24.109  18.433  1.00  0.00    -0.392 OA
ATOM     23  H2  UNL     1      13.876  23.815  18.403  1.00  0.00     0.210 HD
ENDBRANCH   2  22
ENDBRANCH   1   2
BRANCH   1  24
HETATM   24  C18 UNL     1      17.100  23.963  19.547  1.00  0.00     0.066 C 
BRANCH  24  25
HETATM   25  C19 UNL     1      18.297  23.454  20.265  1.00  0.00    -0.056 A 
HETATM   26  C20 UNL     1      18.878  24.185  21.256  1.00  0.00     0.007 A 
HETATM   27  C21 UNL     1      19.988  23.739  21.943  1.00  0.00     0.001 A 
HETATM   28  C22 UNL     1      20.536  22.507  21.618  1.00  0.00     0.000 A 
HETATM   29  C23 UNL     1      19.940  21.769  20.608  1.00  0.00     0.001 A 
HETATM   30  C24 UNL     1      18.839  22.211  19.926  1.00  0.00     0.007 A 
ENDBRANCH  24  25
ENDBRANCH   1  24
BRANCH   1  31
HETATM   31  N3  UNL     1      17.686  24.678  17.392  1.00  0.00    -0.352 N 
HETATM   32  C25 UNL     1      18.757  24.545  16.489  1.00  0.00     0.241 C 
HETATM   33  O3  UNL     1      19.216  23.386  16.283  1.00  0.00    -0.271 OA
ATOM     34  H3  UNL     1      17.302  25.606  17.571  1.00  0.00     0.163 HD
BRANCH  32  35
HETATM   35  C26 UNL     1      19.343  25.744  15.788  1.00  0.00     0.185 C 
BRANCH  35  36
HETATM   36  C27 UNL     1      19.237  25.578  14.286  1.00  0.00     0.134 C 
BRANCH  36  37
HETATM   37  C28 UNL     1      17.821  25.500  13.830  1.00  0.00     0.233 C 
HETATM   38  N4  UNL     1      17.570  25.084  12.498  1.00  0.00    -0.062 NA
HETATM   39  O4  UNL     1      16.887  25.802  14.620  1.00  0.00    -0.277 OA
ENDBRANCH  36  37
ENDBRANCH  35  36
BRANCH  35  40
HETATM   40  N5  UNL     1      20.733  25.859  16.130  1.00  0.00    -0.342 N 
HETATM   41  C29 UNL     1      21.427  27.092  16.219  1.00  0.00     0.268 C 
HETATM   42  O5  UNL     1      20.795  28.139  15.991  1.00  0.00    -0.266 OA
ATOM     43  H5  UNL     1      21.252  25.002  16.320  1.00  0.00     0.163 HD
BRANCH  41  44
HETATM   44  C30 UNL     1      22.853  27.158  16.571  1.00  0.00     0.101 A 
HETATM   45  C31 UNL     1      23.247  26.874  17.861  1.00  0.00     0.036 A 
HETATM   46  C32 UNL     1      24.555  26.910  18.292  1.00  0.00     0.016 A 
HETATM   47  C33 UNL     1      25.509  27.256  17.340  1.00  0.00    -0.009 A 
HETATM   48  C34 UNL     1      26.847  27.312  17.706  1.00  0.00     0.013 A 
HETATM   49  C38 UNL     1      25.092  27.538  16.046  1.00  0.00     0.043 A 
HETATM   50  C35 UNL     1      27.764  27.660  16.741  1.00  0.00     0.001 A 
HETATM   51  C36 UNL     1      27.368  27.944  15.445  1.00  0.00     0.002 A 
HETATM   52  C37 UNL     1      26.038  27.886  15.091  1.00  0.00     0.030 A 
HETATM   53  N6  UNL     1      23.785  27.486  15.683  1.00  0.00    -0.351 N 
ATOM     54  H6  UNL     1      23.517  27.699  14.722  1.00  0.00     0.166 HD
ENDBRANCH  41  44
ENDBRANCH  35  40
ENDBRANCH  32  35
ENDBRANCH   1  31
TORSDOF 14
ENDMDL
