MODEL 17
REMARK VINA RESULT: -10.510794872      4.034     10.854
REMARK  14 active torsions:
REMARK  status: ('A' for Active; 'I' for Inactive)
REMARK    1  A    between atoms: C2_2  and  N1_5 
REMARK       I    between atoms: N1_5  and  C5_7 
REMARK    2  A    between atoms: C5_7  and  C6_9 
REMARK    3  A    between atoms: N2_18  and  C15_19 
REMARK    4  A    between atoms: C15_19  and  C16_20 
REMARK    5  A    between atoms: C16_20  and  O2_21 
REMARK    6  A    between atoms: C16_20  and  C17_23 
REMARK    7  A    between atoms: C17_23  and  C18_24 
REMARK    8  A    between atoms: C17_23  and  N3_31 
REMARK    9  A    between atoms: C18_24  and  C19_25 
REMARK       I    between atoms: N3_31  and  C25_33 
REMARK   10  A    between atoms: C25_33  and  C26_35 
REMARK   11  A    between atoms: C26_35  and  C27_36 
REMARK   12  A    between atoms: C26_35  and  N5_40 
REMARK   13  A    between atoms: C27_36  and  C28_37 
REMARK       I    between atoms: N5_40  and  C29_42 
REMARK   14  A    between atoms: C29_42  and  C30_44 
ROOT
HETATM    1  C17 UNL     1      16.918  23.205  18.389  1.00  0.00     0.119 C 
ENDROOT
BRANCH   1   2
HETATM    2  C16 UNL     1      15.497  23.425  17.911  1.00  0.00     0.169 C 
BRANCH   2   3
HETATM    3  C15 UNL     1      14.594  22.251  17.926  1.00  0.00     0.307 C 
BRANCH   3   4
HETATM    4  N2  UNL     1      14.609  21.338  16.842  1.00  0.00     0.105 N 
HETATM    5  C6  UNL     1      13.282  20.889  16.453  1.00  0.00     0.314 C 
HETATM    6  C7  UNL     1      13.435  19.983  15.251  1.00  0.00     0.050 C 
HETATM    7  C8  UNL     1      13.574  20.901  14.050  1.00  0.00    -0.006 C 
HETATM    8  C9  UNL     1      14.396  20.188  13.008  1.00  0.00     0.005 C 
HETATM    9  C13 UNL     1      14.232  22.174  14.539  1.00  0.00     0.018 C 
HETATM   10  C10 UNL     1      14.322  20.978  11.719  1.00  0.00     0.000 C 
HETATM   11  C11 UNL     1      14.276  22.443  12.106  1.00  0.00     0.000 C 
HETATM   12  C12 UNL     1      15.064  22.703  13.364  1.00  0.00     0.007 C 
HETATM   13  C14 UNL     1      15.208  21.915  15.647  1.00  0.00     0.278 C 
BRANCH   5  14
HETATM   14  C5  UNL     1      12.589  20.111  17.498  1.00  0.00     0.252 C 
HETATM   15  N1  UNL     1      13.125  18.947  18.086  1.00  0.00    -0.351 N 
ATOM     16  H1  UNL     1      14.042  18.637  17.764  1.00  0.00     0.163 HD
HETATM   17  O1  UNL     1      11.468  20.483  17.899  1.00  0.00    -0.271 OA
BRANCH  15  18
HETATM   18  C2  UNL     1      12.479  18.167  19.100  1.00  0.00     0.022 C 
HETATM   19  C1  UNL     1      13.244  16.891  19.388  1.00  0.00     0.037 C 
HETATM   20  C3  UNL     1      11.070  17.775  18.731  1.00  0.00     0.037 C 
HETATM   21  C4  UNL     1      12.423  18.940  20.397  1.00  0.00     0.037 C 
ENDBRANCH  15  18
ENDBRANCH   5  14
ENDBRANCH   3   4
ENDBRANCH   2   3
BRANCH   2  22
HETATM   22  O2  UNL     1      14.937  24.594  18.389  1.00  0.00    -0.392 OA
ATOM     23  H2  UNL     1      15.546  25.316  18.490  1.00  0.00     0.210 HD
ENDBRANCH   2  22
ENDBRANCH   1   2
BRANCH   1  24
HETATM   24  C18 UNL     1      16.889  23.122  19.910  1.00  0.00     0.066 C 
BRANCH  24  25
HETATM   25  C19 UNL     1      18.265  23.093  20.470  1.00  0.00    -0.056 A 
HETATM   26  C20 UNL     1      18.707  24.089  21.286  1.00  0.00     0.007 A 
HETATM   27  C21 UNL     1      19.977  24.090  21.824  1.00  0.00     0.001 A 
HETATM   28  C22 UNL     1      20.838  23.044  21.527  1.00  0.00     0.000 A 
HETATM   29  C23 UNL     1      20.383  22.033  20.696  1.00  0.00     0.001 A 
HETATM   30  C24 UNL     1      19.123  22.032  20.162  1.00  0.00     0.007 A 
ENDBRANCH  24  25
ENDBRANCH   1  24
BRANCH   1  31
HETATM   31  N3  UNL     1      17.678  24.463  18.156  1.00  0.00    -0.352 N 
HETATM   32  C25 UNL     1      18.727  24.538  17.221  1.00  0.00     0.241 C 
HETATM   33  O3  UNL     1      19.016  23.493  16.572  1.00  0.00    -0.271 OA
ATOM     34  H3  UNL     1      17.429  25.297  18.689  1.00  0.00     0.163 HD
BRANCH  32  35
HETATM   35  C26 UNL     1      19.487  25.821  16.999  1.00  0.00     0.185 C 
BRANCH  35  36
HETATM   36  C27 UNL     1      19.543  26.148  15.521  1.00  0.00     0.134 C 
BRANCH  36  37
HETATM   37  C28 UNL     1      20.601  27.150  15.208  1.00  0.00     0.233 C 
HETATM   38  N4  UNL     1      21.771  26.701  14.547  1.00  0.00    -0.062 NA
HETATM   39  O4  UNL     1      20.440  28.356  15.532  1.00  0.00    -0.277 OA
ENDBRANCH  36  37
ENDBRANCH  35  36
BRANCH  35  40
HETATM   40  N5  UNL     1      20.832  25.662  17.476  1.00  0.00    -0.342 N 
HETATM   41  C29 UNL     1      21.438  26.515  18.433  1.00  0.00     0.268 C 
HETATM   42  O5  UNL     1      20.766  27.456  18.890  1.00  0.00    -0.266 OA
ATOM     43  H5  UNL     1      21.384  24.890  17.104  1.00  0.00     0.163 HD
BRANCH  41  44
HETATM   44  C30 UNL     1      22.822  26.312  18.888  1.00  0.00     0.101 A 
HETATM   45  C31 UNL     1      23.103  26.341  20.236  1.00  0.00     0.036 A 
HETATM   46  C32 UNL     1      24.364  26.165  20.765  1.00  0.00     0.016 A 
HETATM   47  C33 UNL     1      25.390  25.947  19.850  1.00  0.00    -0.009 A 
HETATM   48  C34 UNL     1      26.686  25.762  20.313  1.00  0.00     0.013 A 
HETATM   49  C38 UNL     1      25.087  25.921  18.495  1.00  0.00     0.043 A 
HETATM   50  C35 UNL     1      27.677  25.552  19.382  1.00  0.00     0.001 A 
HETATM   51  C36 UNL     1      27.394  25.522  18.028  1.00  0.00     0.002 A 
HETATM   52  C37 UNL     1      26.106  25.706  17.578  1.00  0.00     0.030 A 
HETATM   53  N6  UNL     1      23.821  26.102  18.038  1.00  0.00    -0.351 N 
ATOM     54  H6  UNL     1      23.637  26.075  17.035  1.00  0.00     0.166 HD
ENDBRANCH  41  44
ENDBRANCH  35  40
ENDBRANCH  32  35
ENDBRANCH   1  31
TORSDOF 14
ENDMDL
