MODEL 6
REMARK VINA RESULT: -10.853702676      2.576      4.553
REMARK  14 active torsions:
REMARK  status: ('A' for Active; 'I' for Inactive)
REMARK    1  A    between atoms: C2_2  and  N1_5 
REMARK       I    between atoms: N1_5  and  C5_7 
REMARK    2  A    between atoms: C5_7  and  C6_9 
REMARK    3  A    between atoms: N2_18  and  C15_19 
REMARK    4  A    between atoms: C15_19  and  C16_20 
REMARK    5  A    between atoms: C16_20  and  O2_21 
REMARK    6  A    between atoms: C16_20  and  C17_23 
REMARK    7  A    between atoms: C17_23  and  C18_24 
REMARK    8  A    between atoms: C17_23  and  N3_31 
REMARK    9  A    between atoms: C18_24  and  C19_25 
REMARK       I    between atoms: N3_31  and  C25_33 
REMARK   10  A    between atoms: C25_33  and  C26_35 
REMARK   11  A    between atoms: C26_35  and  C27_36 
REMARK   12  A    between atoms: C26_35  and  N5_40 
REMARK   13  A    between atoms: C27_36  and  C28_37 
REMARK       I    between atoms: N5_40  and  C29_42 
REMARK   14  A    between atoms: C29_42  and  C30_44 
ROOT
HETATM    1  C17 UNL     1      19.001  23.485  19.893  1.00  0.00     0.119 C 
ENDROOT
BRANCH   1   2
HETATM    2  C16 UNL     1      17.511  23.215  19.833  1.00  0.00     0.169 C 
BRANCH   2   3
HETATM    3  C15 UNL     1      17.091  21.825  19.539  1.00  0.00     0.307 C 
BRANCH   3   4
HETATM    4  N2  UNL     1      15.717  21.533  19.347  1.00  0.00     0.105 N 
HETATM    5  C6  UNL     1      15.465  20.716  18.171  1.00  0.00     0.314 C 
HETATM    6  C7  UNL     1      13.982  20.422  18.123  1.00  0.00     0.050 C 
HETATM    7  C8  UNL     1      13.753  19.268  19.083  1.00  0.00    -0.006 C 
HETATM    8  C9  UNL     1      12.349  19.376  19.619  1.00  0.00     0.005 C 
HETATM    9  C13 UNL     1      14.801  19.381  20.169  1.00  0.00     0.018 C 
HETATM   10  C10 UNL     1      12.024  18.101  20.367  1.00  0.00     0.000 C 
HETATM   11  C11 UNL     1      13.306  17.650  21.040  1.00  0.00     0.000 C 
HETATM   12  C12 UNL     1      14.155  18.826  21.445  1.00  0.00     0.007 C 
HETATM   13  C14 UNL     1      15.147  20.809  20.474  1.00  0.00     0.278 C 
BRANCH   5  14
HETATM   14  C5  UNL     1      15.817  21.381  16.901  1.00  0.00     0.252 C 
HETATM   15  N1  UNL     1      14.901  22.129  16.134  1.00  0.00    -0.351 N 
ATOM     16  H1  UNL     1      13.947  22.210  16.486  1.00  0.00     0.163 HD
HETATM   17  O1  UNL     1      16.981  21.289  16.462  1.00  0.00    -0.271 OA
BRANCH  15  18
HETATM   18  C2  UNL     1      15.208  22.785  14.898  1.00  0.00     0.022 C 
HETATM   19  C1  UNL     1      15.331  21.791  13.760  1.00  0.00     0.037 C 
HETATM   20  C3  UNL     1      16.496  23.569  14.953  1.00  0.00     0.037 C 
HETATM   21  C4  UNL     1      14.098  23.738  14.522  1.00  0.00     0.037 C 
ENDBRANCH  15  18
ENDBRANCH   5  14
ENDBRANCH   3   4
ENDBRANCH   2   3
BRANCH   2  22
HETATM   22  O2  UNL     1      16.806  23.831  20.849  1.00  0.00    -0.392 OA
ATOM     23  H2  UNL     1      15.948  24.154  20.600  1.00  0.00     0.210 HD
ENDBRANCH   2  22
ENDBRANCH   1   2
BRANCH   1  24
HETATM   24  C18 UNL     1      19.342  23.896  21.320  1.00  0.00     0.066 C 
BRANCH  24  25
HETATM   25  C19 UNL     1      20.704  24.487  21.395  1.00  0.00    -0.056 A 
HETATM   26  C20 UNL     1      20.879  25.790  21.747  1.00  0.00     0.007 A 
HETATM   27  C21 UNL     1      22.129  26.368  21.828  1.00  0.00     0.001 A 
HETATM   28  C22 UNL     1      23.248  25.600  21.542  1.00  0.00     0.000 A 
HETATM   29  C23 UNL     1      23.063  24.275  21.184  1.00  0.00     0.001 A 
HETATM   30  C24 UNL     1      21.823  23.702  21.103  1.00  0.00     0.007 A 
ENDBRANCH  24  25
ENDBRANCH   1  24
BRANCH   1  31
HETATM   31  N3  UNL     1      19.269  24.734  19.131  1.00  0.00    -0.352 N 
HETATM   32  C25 UNL     1      19.445  24.732  17.735  1.00  0.00     0.241 C 
HETATM   33  O3  UNL     1      19.368  23.625  17.131  1.00  0.00    -0.271 OA
ATOM     34  H3  UNL     1      19.327  25.619  19.636  1.00  0.00     0.163 HD
BRANCH  32  35
HETATM   35  C26 UNL     1      19.718  26.008  16.978  1.00  0.00     0.185 C 
BRANCH  35  36
HETATM   36  C27 UNL     1      19.151  25.918  15.577  1.00  0.00     0.134 C 
BRANCH  36  37
HETATM   37  C28 UNL     1      19.990  26.646  14.585  1.00  0.00     0.233 C 
HETATM   38  N4  UNL     1      19.860  28.055  14.505  1.00  0.00    -0.062 NA
HETATM   39  O4  UNL     1      20.787  26.009  13.846  1.00  0.00    -0.277 OA
ENDBRANCH  36  37
ENDBRANCH  35  36
BRANCH  35  40
HETATM   40  N5  UNL     1      21.136  26.203  16.878  1.00  0.00    -0.342 N 
HETATM   41  C29 UNL     1      21.879  27.064  17.724  1.00  0.00     0.268 C 
HETATM   42  O5  UNL     1      21.267  27.688  18.610  1.00  0.00    -0.266 OA
ATOM     43  H5  UNL     1      21.640  25.691  16.154  1.00  0.00     0.163 HD
BRANCH  41  44
HETATM   44  C30 UNL     1      23.333  27.233  17.580  1.00  0.00     0.101 A 
HETATM   45  C31 UNL     1      24.183  26.333  18.185  1.00  0.00     0.036 A 
HETATM   46  C32 UNL     1      25.557  26.403  18.112  1.00  0.00     0.016 A 
HETATM   47  C33 UNL     1      26.083  27.460  17.374  1.00  0.00    -0.009 A 
HETATM   48  C34 UNL     1      27.460  27.592  17.260  1.00  0.00     0.013 A 
HETATM   49  C38 UNL     1      25.209  28.356  16.772  1.00  0.00     0.043 A 
HETATM   50  C35 UNL     1      27.946  28.650  16.526  1.00  0.00     0.001 A 
HETATM   51  C36 UNL     1      27.091  29.553  15.917  1.00  0.00     0.002 A 
HETATM   52  C37 UNL     1      25.726  29.413  16.036  1.00  0.00     0.030 A 
HETATM   53  N6  UNL     1      23.862  28.232  16.881  1.00  0.00    -0.351 N 
ATOM     54  H6  UNL     1      23.251  28.909  16.423  1.00  0.00     0.166 HD
ENDBRANCH  41  44
ENDBRANCH  35  40
ENDBRANCH  32  35
ENDBRANCH   1  31
TORSDOF 14
ENDMDL
