MODEL 2
REMARK VINA RESULT: -11.234401893      1.482      1.725
REMARK  14 active torsions:
REMARK  status: ('A' for Active; 'I' for Inactive)
REMARK    1  A    between atoms: C2_2  and  N1_5 
REMARK       I    between atoms: N1_5  and  C5_7 
REMARK    2  A    between atoms: C5_7  and  C6_9 
REMARK    3  A    between atoms: N2_18  and  C15_19 
REMARK    4  A    between atoms: C15_19  and  C16_20 
REMARK    5  A    between atoms: C16_20  and  O2_21 
REMARK    6  A    between atoms: C16_20  and  C17_23 
REMARK    7  A    between atoms: C17_23  and  C18_24 
REMARK    8  A    between atoms: C17_23  and  N3_31 
REMARK    9  A    between atoms: C18_24  and  C19_25 
REMARK       I    between atoms: N3_31  and  C25_33 
REMARK   10  A    between atoms: C25_33  and  C26_35 
REMARK   11  A    between atoms: C26_35  and  C27_36 
REMARK   12  A    between atoms: C26_35  and  N5_40 
REMARK   13  A    between atoms: C27_36  and  C28_37 
REMARK       I    between atoms: N5_40  and  C29_42 
REMARK   14  A    between atoms: C29_42  and  C30_44 
ROOT
HETATM    1  C17 UNL     1      17.274  23.571  18.577  1.00  0.00     0.119 C 
ENDROOT
BRANCH   1   2
HETATM    2  C16 UNL     1      15.853  23.832  18.118  1.00  0.00     0.169 C 
BRANCH   2   3
HETATM    3  C15 UNL     1      14.939  22.667  18.067  1.00  0.00     0.307 C 
BRANCH   3   4
HETATM    4  N2  UNL     1      14.997  21.776  16.967  1.00  0.00     0.105 N 
HETATM    5  C6  UNL     1      13.718  21.155  16.664  1.00  0.00     0.314 C 
HETATM    6  C7  UNL     1      13.903  20.290  15.438  1.00  0.00     0.050 C 
HETATM    7  C8  UNL     1      13.830  21.229  14.248  1.00  0.00    -0.006 C 
HETATM    8  C9  UNL     1      14.662  20.643  13.137  1.00  0.00     0.005 C 
HETATM    9  C13 UNL     1      14.346  22.575  14.713  1.00  0.00     0.018 C 
HETATM   10  C10 UNL     1      14.390  21.428  11.871  1.00  0.00     0.000 C 
HETATM   11  C11 UNL     1      14.177  22.870  12.289  1.00  0.00     0.000 C 
HETATM   12  C12 UNL     1      15.012  23.222  13.492  1.00  0.00     0.007 C 
HETATM   13  C14 UNL     1      15.426  22.439  15.745  1.00  0.00     0.278 C 
BRANCH   5  14
HETATM   14  C5  UNL     1      13.213  20.281  17.741  1.00  0.00     0.252 C 
HETATM   15  N1  UNL     1      13.962  19.228  18.304  1.00  0.00    -0.351 N 
ATOM     16  H1  UNL     1      14.902  19.073  17.941  1.00  0.00     0.163 HD
HETATM   17  O1  UNL     1      12.064  20.463  18.192  1.00  0.00    -0.271 OA
BRANCH  15  18
HETATM   18  C2  UNL     1      13.502  18.360  19.347  1.00  0.00     0.022 C 
HETATM   19  C1  UNL     1      12.343  17.502  18.883  1.00  0.00     0.037 C 
HETATM   20  C3  UNL     1      13.047  19.108  20.576  1.00  0.00     0.037 C 
HETATM   21  C4  UNL     1      14.604  17.412  19.761  1.00  0.00     0.037 C 
ENDBRANCH  15  18
ENDBRANCH   5  14
ENDBRANCH   3   4
ENDBRANCH   2   3
BRANCH   2  22
HETATM   22  O2  UNL     1      15.305  24.976  18.667  1.00  0.00    -0.392 OA
ATOM     23  H2  UNL     1      15.852  25.750  18.601  1.00  0.00     0.210 HD
ENDBRANCH   2  22
ENDBRANCH   1   2
BRANCH   1  24
HETATM   24  C18 UNL     1      17.287  23.622  20.099  1.00  0.00     0.066 C 
BRANCH  24  25
HETATM   25  C19 UNL     1      18.653  23.377  20.631  1.00  0.00    -0.056 A 
HETATM   26  C20 UNL     1      19.261  24.290  21.436  1.00  0.00     0.007 A 
HETATM   27  C21 UNL     1      20.527  24.091  21.947  1.00  0.00     0.001 A 
HETATM   28  C22 UNL     1      21.208  22.924  21.633  1.00  0.00     0.000 A 
HETATM   29  C23 UNL     1      20.583  21.999  20.813  1.00  0.00     0.001 A 
HETATM   30  C24 UNL     1      19.327  22.196  20.305  1.00  0.00     0.007 A 
ENDBRANCH  24  25
ENDBRANCH   1  24
BRANCH   1  31
HETATM   31  N3  UNL     1      18.095  24.758  18.214  1.00  0.00    -0.352 N 
HETATM   32  C25 UNL     1      18.829  24.817  17.015  1.00  0.00     0.241 C 
HETATM   33  O3  UNL     1      18.774  23.823  16.238  1.00  0.00    -0.271 OA
ATOM     34  H3  UNL     1      18.127  25.552  18.854  1.00  0.00     0.163 HD
BRANCH  32  35
HETATM   35  C26 UNL     1      19.657  26.028  16.664  1.00  0.00     0.185 C 
BRANCH  35  36
HETATM   36  C27 UNL     1      19.799  26.149  15.161  1.00  0.00     0.134 C 
BRANCH  36  37
HETATM   37  C28 UNL     1      20.513  27.394  14.763  1.00  0.00     0.233 C 
HETATM   38  N4  UNL     1      21.342  27.351  13.615  1.00  0.00    -0.062 NA
HETATM   39  O4  UNL     1      20.372  28.445  15.443  1.00  0.00    -0.277 OA
ENDBRANCH  36  37
ENDBRANCH  35  36
BRANCH  35  40
HETATM   40  N5  UNL     1      20.969  25.881  17.228  1.00  0.00    -0.342 N 
HETATM   41  C29 UNL     1      21.474  26.691  18.277  1.00  0.00     0.268 C 
HETATM   42  O5  UNL     1      20.738  27.581  18.738  1.00  0.00    -0.266 OA
ATOM     43  H5  UNL     1      21.574  25.151  16.853  1.00  0.00     0.163 HD
BRANCH  41  44
HETATM   44  C30 UNL     1      22.828  26.504  18.820  1.00  0.00     0.101 A 
HETATM   45  C31 UNL     1      23.905  27.058  18.164  1.00  0.00     0.036 A 
HETATM   46  C32 UNL     1      25.211  26.939  18.588  1.00  0.00     0.016 A 
HETATM   47  C33 UNL     1      25.415  26.208  19.755  1.00  0.00    -0.009 A 
HETATM   48  C34 UNL     1      26.706  26.047  20.238  1.00  0.00     0.013 A 
HETATM   49  C38 UNL     1      24.317  25.657  20.402  1.00  0.00     0.043 A 
HETATM   50  C35 UNL     1      26.874  25.316  21.393  1.00  0.00     0.001 A 
HETATM   51  C36 UNL     1      25.791  24.759  22.052  1.00  0.00     0.002 A 
HETATM   52  C37 UNL     1      24.514  24.925  21.564  1.00  0.00     0.030 A 
HETATM   53  N6  UNL     1      23.053  25.811  19.931  1.00  0.00    -0.351 N 
ATOM     54  H6  UNL     1      22.270  25.392  20.435  1.00  0.00     0.166 HD
ENDBRANCH  41  44
ENDBRANCH  35  40
ENDBRANCH  32  35
ENDBRANCH   1  31
TORSDOF 14
ENDMDL
