MODEL 8
REMARK VINA RESULT: -10.826614298      2.285      5.409
REMARK  14 active torsions:
REMARK  status: ('A' for Active; 'I' for Inactive)
REMARK    1  A    between atoms: C2_2  and  N1_5 
REMARK       I    between atoms: N1_5  and  C5_7 
REMARK    2  A    between atoms: C5_7  and  C6_9 
REMARK    3  A    between atoms: N2_18  and  C15_19 
REMARK    4  A    between atoms: C15_19  and  C16_20 
REMARK    5  A    between atoms: C16_20  and  O2_21 
REMARK    6  A    between atoms: C16_20  and  C17_23 
REMARK    7  A    between atoms: C17_23  and  C18_24 
REMARK    8  A    between atoms: C17_23  and  N3_31 
REMARK    9  A    between atoms: C18_24  and  C19_25 
REMARK       I    between atoms: N3_31  and  C25_33 
REMARK   10  A    between atoms: C25_33  and  C26_35 
REMARK   11  A    between atoms: C26_35  and  C27_36 
REMARK   12  A    between atoms: C26_35  and  N5_40 
REMARK   13  A    between atoms: C27_36  and  C28_37 
REMARK       I    between atoms: N5_40  and  C29_42 
REMARK   14  A    between atoms: C29_42  and  C30_44 
ROOT
HETATM    1  C17 UNL     1      18.141  25.061  17.536  1.00  0.00     0.119 C 
ENDROOT
BRANCH   1   2
HETATM    2  C16 UNL     1      16.786  24.466  17.857  1.00  0.00     0.169 C 
BRANCH   2   3
HETATM    3  C15 UNL     1      16.769  23.093  18.414  1.00  0.00     0.307 C 
BRANCH   3   4
HETATM    4  N2  UNL     1      15.554  22.364  18.451  1.00  0.00     0.105 N 
HETATM    5  C6  UNL     1      15.544  21.221  17.554  1.00  0.00     0.314 C 
HETATM    6  C7  UNL     1      14.229  20.497  17.742  1.00  0.00     0.050 C 
HETATM    7  C8  UNL     1      14.399  19.636  18.981  1.00  0.00    -0.006 C 
HETATM    8  C9  UNL     1      13.046  19.465  19.621  1.00  0.00     0.005 C 
HETATM    9  C13 UNL     1      15.383  20.349  19.884  1.00  0.00     0.018 C 
HETATM   10  C10 UNL     1      13.157  18.406  20.697  1.00  0.00     0.000 C 
HETATM   11  C11 UNL     1      14.531  18.558  21.319  1.00  0.00     0.000 C 
HETATM   12  C12 UNL     1      14.976  19.998  21.321  1.00  0.00     0.007 C 
HETATM   13  C14 UNL     1      15.268  21.840  19.779  1.00  0.00     0.278 C 
BRANCH   5  14
HETATM   14  C5  UNL     1      15.638  21.586  16.127  1.00  0.00     0.252 C 
HETATM   15  N1  UNL     1      14.516  21.827  15.309  1.00  0.00    -0.351 N 
ATOM     16  H1  UNL     1      13.594  21.743  15.738  1.00  0.00     0.163 HD
HETATM   17  O1  UNL     1      16.761  21.692  15.593  1.00  0.00    -0.271 OA
BRANCH  15  18
HETATM   18  C2  UNL     1      14.570  22.181  13.922  1.00  0.00     0.022 C 
HETATM   19  C1  UNL     1      14.867  20.975  13.054  1.00  0.00     0.037 C 
HETATM   20  C3  UNL     1      15.621  23.222  13.623  1.00  0.00     0.037 C 
HETATM   21  C4  UNL     1      13.235  22.723  13.468  1.00  0.00     0.037 C 
ENDBRANCH  15  18
ENDBRANCH   5  14
ENDBRANCH   3   4
ENDBRANCH   2   3
BRANCH   2  22
HETATM   22  O2  UNL     1      15.935  25.355  18.485  1.00  0.00    -0.392 OA
ATOM     23  H2  UNL     1      15.017  25.253  18.263  1.00  0.00     0.210 HD
ENDBRANCH   2  22
ENDBRANCH   1   2
BRANCH   1  24
HETATM   24  C18 UNL     1      18.615  24.457  16.220  1.00  0.00     0.066 C 
BRANCH  24  25
HETATM   25  C19 UNL     1      19.445  25.423  15.456  1.00  0.00    -0.056 A 
HETATM   26  C20 UNL     1      20.628  25.040  14.902  1.00  0.00     0.007 A 
HETATM   27  C21 UNL     1      21.420  25.912  14.184  1.00  0.00     0.001 A 
HETATM   28  C22 UNL     1      21.003  27.224  14.019  1.00  0.00     0.000 A 
HETATM   29  C23 UNL     1      19.799  27.608  14.585  1.00  0.00     0.001 A 
HETATM   30  C24 UNL     1      19.012  26.743  15.298  1.00  0.00     0.007 A 
ENDBRANCH  24  25
ENDBRANCH   1  24
BRANCH   1  31
HETATM   31  N3  UNL     1      19.124  24.510  18.508  1.00  0.00    -0.352 N 
HETATM   32  C25 UNL     1      20.251  25.243  18.925  1.00  0.00     0.241 C 
HETATM   33  O3  UNL     1      20.413  26.401  18.446  1.00  0.00    -0.271 OA
ATOM     34  H3  UNL     1      18.976  23.574  18.884  1.00  0.00     0.163 HD
BRANCH  32  35
HETATM   35  C26 UNL     1      21.237  24.669  19.910  1.00  0.00     0.185 C 
BRANCH  35  36
HETATM   36  C27 UNL     1      21.049  25.305  21.272  1.00  0.00     0.134 C 
BRANCH  36  37
HETATM   37  C28 UNL     1      22.005  26.423  21.505  1.00  0.00     0.233 C 
HETATM   38  N4  UNL     1      21.585  27.738  21.185  1.00  0.00    -0.062 NA
HETATM   39  O4  UNL     1      23.150  26.186  21.972  1.00  0.00    -0.277 OA
ENDBRANCH  36  37
ENDBRANCH  35  36
BRANCH  35  40
HETATM   40  N5  UNL     1      22.571  24.952  19.462  1.00  0.00    -0.342 N 
HETATM   41  C29 UNL     1      23.613  23.991  19.421  1.00  0.00     0.268 C 
HETATM   42  O5  UNL     1      23.358  22.831  19.793  1.00  0.00    -0.266 OA
ATOM     43  H5  UNL     1      22.782  25.901  19.155  1.00  0.00     0.163 HD
BRANCH  41  44
HETATM   44  C30 UNL     1      24.966  24.331  18.955  1.00  0.00     0.101 A 
HETATM   45  C31 UNL     1      26.057  23.951  19.706  1.00  0.00     0.036 A 
HETATM   46  C32 UNL     1      27.363  24.223  19.360  1.00  0.00     0.016 A 
HETATM   47  C33 UNL     1      27.553  24.924  18.173  1.00  0.00    -0.009 A 
HETATM   48  C34 UNL     1      28.843  25.232  17.764  1.00  0.00     0.013 A 
HETATM   49  C38 UNL     1      26.441  25.297  17.430  1.00  0.00     0.043 A 
HETATM   50  C35 UNL     1      28.995  25.928  16.587  1.00  0.00     0.001 A 
HETATM   51  C36 UNL     1      27.899  26.309  15.832  1.00  0.00     0.002 A 
HETATM   52  C37 UNL     1      26.623  25.998  16.246  1.00  0.00     0.030 A 
HETATM   53  N6  UNL     1      25.177  24.999  17.826  1.00  0.00    -0.351 N 
ATOM     54  H6  UNL     1      24.384  25.290  17.253  1.00  0.00     0.166 HD
ENDBRANCH  41  44
ENDBRANCH  35  40
ENDBRANCH  32  35
ENDBRANCH   1  31
TORSDOF 14
ENDMDL
