MODEL 10
REMARK VINA RESULT: -10.668420116      1.616      5.129
REMARK  14 active torsions:
REMARK  status: ('A' for Active; 'I' for Inactive)
REMARK    1  A    between atoms: C2_2  and  N1_5 
REMARK       I    between atoms: N1_5  and  C5_7 
REMARK    2  A    between atoms: C5_7  and  C6_9 
REMARK    3  A    between atoms: N2_18  and  C15_19 
REMARK    4  A    between atoms: C15_19  and  C16_20 
REMARK    5  A    between atoms: C16_20  and  O2_21 
REMARK    6  A    between atoms: C16_20  and  C17_23 
REMARK    7  A    between atoms: C17_23  and  C18_24 
REMARK    8  A    between atoms: C17_23  and  N3_31 
REMARK    9  A    between atoms: C18_24  and  C19_25 
REMARK       I    between atoms: N3_31  and  C25_33 
REMARK   10  A    between atoms: C25_33  and  C26_35 
REMARK   11  A    between atoms: C26_35  and  C27_36 
REMARK   12  A    between atoms: C26_35  and  N5_40 
REMARK   13  A    between atoms: C27_36  and  C28_37 
REMARK       I    between atoms: N5_40  and  C29_42 
REMARK   14  A    between atoms: C29_42  and  C30_44 
ROOT
HETATM    1  C17 UNL     1      16.265  23.639  15.522  1.00  0.00     0.119 C 
ENDROOT
BRANCH   1   2
HETATM    2  C16 UNL     1      16.522  22.561  16.555  1.00  0.00     0.169 C 
BRANCH   2   3
HETATM    3  C15 UNL     1      15.347  22.041  17.291  1.00  0.00     0.307 C 
BRANCH   3   4
HETATM    4  N2  UNL     1      15.508  20.973  18.209  1.00  0.00     0.105 N 
HETATM    5  C6  UNL     1      15.582  21.414  19.592  1.00  0.00     0.314 C 
HETATM    6  C7  UNL     1      15.683  20.182  20.465  1.00  0.00     0.050 C 
HETATM    7  C8  UNL     1      14.266  19.659  20.614  1.00  0.00    -0.006 C 
HETATM    8  C9  UNL     1      14.336  18.168  20.821  1.00  0.00     0.005 C 
HETATM    9  C13 UNL     1      13.519  20.036  19.352  1.00  0.00     0.018 C 
HETATM   10  C10 UNL     1      12.963  17.677  21.228  1.00  0.00     0.000 C 
HETATM   11  C11 UNL     1      11.956  18.522  20.474  1.00  0.00     0.000 C 
HETATM   12  C12 UNL     1      12.483  18.927  19.122  1.00  0.00     0.007 C 
HETATM   13  C14 UNL     1      14.408  20.022  18.145  1.00  0.00     0.278 C 
BRANCH   5  14
HETATM   14  C5  UNL     1      16.763  22.250  19.886  1.00  0.00     0.252 C 
HETATM   15  N1  UNL     1      18.071  21.739  19.997  1.00  0.00    -0.351 N 
ATOM     16  H1  UNL     1      18.197  20.736  19.865  1.00  0.00     0.163 HD
HETATM   17  O1  UNL     1      16.619  23.479  20.048  1.00  0.00    -0.271 OA
BRANCH  15  18
HETATM   18  C2  UNL     1      19.237  22.522  20.283  1.00  0.00     0.022 C 
HETATM   19  C1  UNL     1      20.346  21.670  20.866  1.00  0.00     0.037 C 
HETATM   20  C3  UNL     1      18.968  23.642  21.257  1.00  0.00     0.037 C 
HETATM   21  C4  UNL     1      19.781  23.131  19.012  1.00  0.00     0.037 C 
ENDBRANCH  15  18
ENDBRANCH   5  14
ENDBRANCH   3   4
ENDBRANCH   2   3
BRANCH   2  22
HETATM   22  O2  UNL     1      17.410  21.594  16.123  1.00  0.00    -0.392 OA
ATOM     23  H2  UNL     1      17.010  20.859  15.673  1.00  0.00     0.210 HD
ENDBRANCH   2  22
ENDBRANCH   1   2
BRANCH   1  24
HETATM   24  C18 UNL     1      16.142  22.961  14.163  1.00  0.00     0.066 C 
BRANCH  24  25
HETATM   25  C19 UNL     1      14.807  22.331  13.999  1.00  0.00    -0.056 A 
HETATM   26  C20 UNL     1      14.692  21.035  13.598  1.00  0.00     0.007 A 
HETATM   27  C21 UNL     1      13.468  20.420  13.439  1.00  0.00     0.001 A 
HETATM   28  C22 UNL     1      12.311  21.141  13.695  1.00  0.00     0.000 A 
HETATM   29  C23 UNL     1      12.434  22.459  14.103  1.00  0.00     0.001 A 
HETATM   30  C24 UNL     1      13.649  23.070  14.261  1.00  0.00     0.007 A 
ENDBRANCH  24  25
ENDBRANCH   1  24
BRANCH   1  31
HETATM   31  N3  UNL     1      17.516  24.431  15.368  1.00  0.00    -0.352 N 
HETATM   32  C25 UNL     1      17.982  25.292  16.379  1.00  0.00     0.241 C 
HETATM   33  O3  UNL     1      17.303  25.379  17.441  1.00  0.00    -0.271 OA
ATOM     34  H3  UNL     1      18.051  24.347  14.504  1.00  0.00     0.163 HD
BRANCH  32  35
HETATM   35  C26 UNL     1      19.251  26.087  16.205  1.00  0.00     0.185 C 
BRANCH  35  36
HETATM   36  C27 UNL     1      19.805  25.894  14.809  1.00  0.00     0.134 C 
BRANCH  36  37
HETATM   37  C28 UNL     1      20.757  26.975  14.429  1.00  0.00     0.233 C 
HETATM   38  N4  UNL     1      22.145  26.716  14.552  1.00  0.00    -0.062 NA
HETATM   39  O4  UNL     1      20.320  28.080  14.013  1.00  0.00    -0.277 OA
ENDBRANCH  36  37
ENDBRANCH  35  36
BRANCH  35  40
HETATM   40  N5  UNL     1      20.231  25.623  17.146  1.00  0.00    -0.342 N 
HETATM   41  C29 UNL     1      20.993  26.478  17.982  1.00  0.00     0.268 C 
HETATM   42  O5  UNL     1      20.801  27.704  17.899  1.00  0.00    -0.266 OA
ATOM     43  H5  UNL     1      20.389  24.618  17.217  1.00  0.00     0.163 HD
BRANCH  41  44
HETATM   44  C30 UNL     1      21.989  25.954  18.929  1.00  0.00     0.101 A 
HETATM   45  C31 UNL     1      21.729  25.999  20.281  1.00  0.00     0.036 A 
HETATM   46  C32 UNL     1      22.594  25.538  21.248  1.00  0.00     0.016 A 
HETATM   47  C33 UNL     1      23.795  25.000  20.795  1.00  0.00    -0.009 A 
HETATM   48  C34 UNL     1      24.715  24.517  21.715  1.00  0.00     0.013 A 
HETATM   49  C38 UNL     1      24.040  24.963  19.428  1.00  0.00     0.043 A 
HETATM   50  C35 UNL     1      25.893  23.994  21.233  1.00  0.00     0.001 A 
HETATM   51  C36 UNL     1      26.155  23.948  19.875  1.00  0.00     0.002 A 
HETATM   52  C37 UNL     1      25.236  24.430  18.969  1.00  0.00     0.030 A 
HETATM   53  N6  UNL     1      23.143  25.435  18.524  1.00  0.00    -0.351 N 
ATOM     54  H6  UNL     1      23.358  25.390  17.527  1.00  0.00     0.166 HD
ENDBRANCH  41  44
ENDBRANCH  35  40
ENDBRANCH  32  35
ENDBRANCH   1  31
TORSDOF 14
ENDMDL
