MODEL 3
REMARK VINA RESULT: -11.215734558      1.776      1.876
REMARK  14 active torsions:
REMARK  status: ('A' for Active; 'I' for Inactive)
REMARK    1  A    between atoms: C2_2  and  N1_5 
REMARK       I    between atoms: N1_5  and  C5_7 
REMARK    2  A    between atoms: C5_7  and  C6_9 
REMARK    3  A    between atoms: N2_18  and  C15_19 
REMARK    4  A    between atoms: C15_19  and  C16_20 
REMARK    5  A    between atoms: C16_20  and  O2_21 
REMARK    6  A    between atoms: C16_20  and  C17_23 
REMARK    7  A    between atoms: C17_23  and  C18_24 
REMARK    8  A    between atoms: C17_23  and  N3_31 
REMARK    9  A    between atoms: C18_24  and  C19_25 
REMARK       I    between atoms: N3_31  and  C25_33 
REMARK   10  A    between atoms: C25_33  and  C26_35 
REMARK   11  A    between atoms: C26_35  and  C27_36 
REMARK   12  A    between atoms: C26_35  and  N5_40 
REMARK   13  A    between atoms: C27_36  and  C28_37 
REMARK       I    between atoms: N5_40  and  C29_42 
REMARK   14  A    between atoms: C29_42  and  C30_44 
ROOT
HETATM    1  C17 UNL     1      17.155  23.483  18.585  1.00  0.00     0.119 C 
ENDROOT
BRANCH   1   2
HETATM    2  C16 UNL     1      15.719  23.668  18.140  1.00  0.00     0.169 C 
BRANCH   2   3
HETATM    3  C15 UNL     1      14.861  22.460  18.120  1.00  0.00     0.307 C 
BRANCH   3   4
HETATM    4  N2  UNL     1      14.890  21.595  16.998  1.00  0.00     0.105 N 
HETATM    5  C6  UNL     1      13.582  21.069  16.646  1.00  0.00     0.314 C 
HETATM    6  C7  UNL     1      13.743  20.225  15.401  1.00  0.00     0.050 C 
HETATM    7  C8  UNL     1      13.763  21.197  14.236  1.00  0.00    -0.006 C 
HETATM    8  C9  UNL     1      14.585  20.587  13.131  1.00  0.00     0.005 C 
HETATM    9  C13 UNL     1      14.353  22.493  14.751  1.00  0.00     0.018 C 
HETATM   10  C10 UNL     1      14.398  21.420  11.881  1.00  0.00     0.000 C 
HETATM   11  C11 UNL     1      14.268  22.861  12.333  1.00  0.00     0.000 C 
HETATM   12  C12 UNL     1      15.092  23.127  13.565  1.00  0.00     0.007 C 
HETATM   13  C14 UNL     1      15.394  22.260  15.805  1.00  0.00     0.278 C 
BRANCH   5  14
HETATM   14  C5  UNL     1      12.992  20.201  17.685  1.00  0.00     0.252 C 
HETATM   15  N1  UNL     1      13.701  19.169  18.331  1.00  0.00    -0.351 N 
ATOM     16  H1  UNL     1      14.673  19.024  18.059  1.00  0.00     0.163 HD
HETATM   17  O1  UNL     1      11.804  20.372  18.026  1.00  0.00    -0.271 OA
BRANCH  15  18
HETATM   18  C2  UNL     1      13.160  18.309  19.341  1.00  0.00     0.022 C 
HETATM   19  C1  UNL     1      12.216  17.283  18.748  1.00  0.00     0.037 C 
HETATM   20  C3  UNL     1      12.399  19.059  20.406  1.00  0.00     0.037 C 
HETATM   21  C4  UNL     1      14.269  17.536  20.018  1.00  0.00     0.037 C 
ENDBRANCH  15  18
ENDBRANCH   5  14
ENDBRANCH   3   4
ENDBRANCH   2   3
BRANCH   2  22
HETATM   22  O2  UNL     1      15.123  24.793  18.676  1.00  0.00    -0.392 OA
ATOM     23  H2  UNL     1      15.181  25.571  18.133  1.00  0.00     0.210 HD
ENDBRANCH   2  22
ENDBRANCH   1   2
BRANCH   1  24
HETATM   24  C18 UNL     1      17.180  23.535  20.107  1.00  0.00     0.066 C 
BRANCH  24  25
HETATM   25  C19 UNL     1      18.557  23.326  20.627  1.00  0.00    -0.056 A 
HETATM   26  C20 UNL     1      19.139  24.244  21.446  1.00  0.00     0.007 A 
HETATM   27  C21 UNL     1      20.413  24.078  21.947  1.00  0.00     0.001 A 
HETATM   28  C22 UNL     1      21.131  22.940  21.608  1.00  0.00     0.000 A 
HETATM   29  C23 UNL     1      20.533  22.010  20.774  1.00  0.00     0.001 A 
HETATM   30  C24 UNL     1      19.268  22.174  20.276  1.00  0.00     0.007 A 
ENDBRANCH  24  25
ENDBRANCH   1  24
BRANCH   1  31
HETATM   31  N3  UNL     1      17.909  24.711  18.215  1.00  0.00    -0.352 N 
HETATM   32  C25 UNL     1      18.779  24.747  17.109  1.00  0.00     0.241 C 
HETATM   33  O3  UNL     1      18.907  23.693  16.424  1.00  0.00    -0.271 OA
ATOM     34  H3  UNL     1      17.792  25.553  18.779  1.00  0.00     0.163 HD
BRANCH  32  35
HETATM   35  C26 UNL     1      19.536  26.001  16.749  1.00  0.00     0.185 C 
BRANCH  35  36
HETATM   36  C27 UNL     1      19.469  26.243  15.256  1.00  0.00     0.134 C 
BRANCH  36  37
HETATM   37  C28 UNL     1      20.388  27.333  14.823  1.00  0.00     0.233 C 
HETATM   38  N4  UNL     1      21.349  27.039  13.825  1.00  0.00    -0.062 NA
HETATM   39  O4  UNL     1      20.297  28.476  15.344  1.00  0.00    -0.277 OA
ENDBRANCH  36  37
ENDBRANCH  35  36
BRANCH  35  40
HETATM   40  N5  UNL     1      20.914  25.842  17.118  1.00  0.00    -0.342 N 
HETATM   41  C29 UNL     1      21.563  26.621  18.108  1.00  0.00     0.268 C 
HETATM   42  O5  UNL     1      20.901  27.495  18.696  1.00  0.00    -0.266 OA
ATOM     43  H5  UNL     1      21.459  25.125  16.638  1.00  0.00     0.163 HD
BRANCH  41  44
HETATM   44  C30 UNL     1      22.980  26.422  18.448  1.00  0.00     0.101 A 
HETATM   45  C31 UNL     1      23.369  26.435  19.770  1.00  0.00     0.036 A 
HETATM   46  C32 UNL     1      24.668  26.261  20.194  1.00  0.00     0.016 A 
HETATM   47  C33 UNL     1      25.619  26.062  19.197  1.00  0.00    -0.009 A 
HETATM   48  C34 UNL     1      26.949  25.880  19.553  1.00  0.00     0.013 A 
HETATM   49  C38 UNL     1      25.209  26.052  17.871  1.00  0.00     0.043 A 
HETATM   50  C35 UNL     1      27.864  25.688  18.543  1.00  0.00     0.001 A 
HETATM   51  C36 UNL     1      27.474  25.674  17.215  1.00  0.00     0.002 A 
HETATM   52  C37 UNL     1      26.152  25.855  16.872  1.00  0.00     0.030 A 
HETATM   53  N6  UNL     1      23.909  26.229  17.518  1.00  0.00    -0.351 N 
ATOM     54  H6  UNL     1      23.645  26.215  16.533  1.00  0.00     0.166 HD
ENDBRANCH  41  44
ENDBRANCH  35  40
ENDBRANCH  32  35
ENDBRANCH   1  31
TORSDOF 14
ENDMDL
