MODEL 1
REMARK VINA RESULT: -11.268230198      0.000      0.000
REMARK  14 active torsions:
REMARK  status: ('A' for Active; 'I' for Inactive)
REMARK    1  A    between atoms: C2_2  and  N1_5 
REMARK       I    between atoms: N1_5  and  C5_7 
REMARK    2  A    between atoms: C5_7  and  C6_9 
REMARK    3  A    between atoms: N2_18  and  C15_19 
REMARK    4  A    between atoms: C15_19  and  C16_20 
REMARK    5  A    between atoms: C16_20  and  O2_21 
REMARK    6  A    between atoms: C16_20  and  C17_23 
REMARK    7  A    between atoms: C17_23  and  C18_24 
REMARK    8  A    between atoms: C17_23  and  N3_31 
REMARK    9  A    between atoms: C18_24  and  C19_25 
REMARK       I    between atoms: N3_31  and  C25_33 
REMARK   10  A    between atoms: C25_33  and  C26_35 
REMARK   11  A    between atoms: C26_35  and  C27_36 
REMARK   12  A    between atoms: C26_35  and  N5_40 
REMARK   13  A    between atoms: C27_36  and  C28_37 
REMARK       I    between atoms: N5_40  and  C29_42 
REMARK   14  A    between atoms: C29_42  and  C30_44 
ROOT
HETATM    1  C17 UNL     1      17.221  23.676  18.639  1.00  0.00     0.119 C 
ENDROOT
BRANCH   1   2
HETATM    2  C16 UNL     1      15.880  24.251  18.230  1.00  0.00     0.169 C 
BRANCH   2   3
HETATM    3  C15 UNL     1      14.724  23.325  18.225  1.00  0.00     0.307 C 
BRANCH   3   4
HETATM    4  N2  UNL     1      14.684  22.257  17.294  1.00  0.00     0.105 N 
HETATM    5  C6  UNL     1      13.841  21.154  17.724  1.00  0.00     0.314 C 
HETATM    6  C7  UNL     1      13.831  20.121  16.618  1.00  0.00     0.050 C 
HETATM    7  C8  UNL     1      12.821  20.612  15.597  1.00  0.00    -0.006 C 
HETATM    8  C9  UNL     1      13.237  20.098  14.243  1.00  0.00     0.005 C 
HETATM    9  C13 UNL     1      12.818  22.125  15.668  1.00  0.00     0.018 C 
HETATM   10  C10 UNL     1      12.109  20.358  13.266  1.00  0.00     0.000 C 
HETATM   11  C11 UNL     1      11.477  21.675  13.670  1.00  0.00     0.000 C 
HETATM   12  C12 UNL     1      12.499  22.618  14.251  1.00  0.00     0.007 C 
HETATM   13  C14 UNL     1      14.173  22.677  15.998  1.00  0.00     0.278 C 
BRANCH   5  14
HETATM   14  C5  UNL     1      14.324  20.478  18.944  1.00  0.00     0.252 C 
HETATM   15  N1  UNL     1      13.525  19.623  19.729  1.00  0.00    -0.351 N 
ATOM     16  H1  UNL     1      12.563  19.469  19.427  1.00  0.00     0.163 HD
HETATM   17  O1  UNL     1      15.500  20.659  19.321  1.00  0.00    -0.271 OA
BRANCH  15  18
HETATM   18  C2  UNL     1      13.961  18.953  20.918  1.00  0.00     0.022 C 
HETATM   19  C1  UNL     1      12.841  18.144  21.541  1.00  0.00     0.037 C 
HETATM   20  C3  UNL     1      14.471  19.903  21.973  1.00  0.00     0.037 C 
HETATM   21  C4  UNL     1      15.070  17.980  20.593  1.00  0.00     0.037 C 
ENDBRANCH  15  18
ENDBRANCH   5  14
ENDBRANCH   3   4
ENDBRANCH   2   3
BRANCH   2  22
HETATM   22  O2  UNL     1      15.627  25.491  18.787  1.00  0.00    -0.392 OA
ATOM     23  H2  UNL     1      16.311  25.819  19.358  1.00  0.00     0.210 HD
ENDBRANCH   2  22
ENDBRANCH   1   2
BRANCH   1  24
HETATM   24  C18 UNL     1      17.229  23.551  20.158  1.00  0.00     0.066 C 
BRANCH  24  25
HETATM   25  C19 UNL     1      18.605  23.324  20.669  1.00  0.00    -0.056 A 
HETATM   26  C20 UNL     1      19.183  24.204  21.531  1.00  0.00     0.007 A 
HETATM   27  C21 UNL     1      20.458  24.021  22.025  1.00  0.00     0.001 A 
HETATM   28  C22 UNL     1      21.180  22.903  21.633  1.00  0.00     0.000 A 
HETATM   29  C23 UNL     1      20.587  22.011  20.755  1.00  0.00     0.001 A 
HETATM   30  C24 UNL     1      19.322  22.194  20.264  1.00  0.00     0.007 A 
ENDBRANCH  24  25
ENDBRANCH   1  24
BRANCH   1  31
HETATM   31  N3  UNL     1      18.255  24.719  18.403  1.00  0.00    -0.352 N 
HETATM   32  C25 UNL     1      18.919  24.844  17.168  1.00  0.00     0.241 C 
HETATM   33  O3  UNL     1      18.609  24.036  16.247  1.00  0.00    -0.271 OA
ATOM     34  H3  UNL     1      18.491  25.362  19.159  1.00  0.00     0.163 HD
BRANCH  32  35
HETATM   35  C26 UNL     1      19.966  25.906  16.946  1.00  0.00     0.185 C 
BRANCH  35  36
HETATM   36  C27 UNL     1      20.257  26.055  15.468  1.00  0.00     0.134 C 
BRANCH  36  37
HETATM   37  C28 UNL     1      20.369  27.484  15.060  1.00  0.00     0.233 C 
HETATM   38  N4  UNL     1      21.039  28.377  15.933  1.00  0.00    -0.062 NA
HETATM   39  O4  UNL     1      19.875  27.867  13.967  1.00  0.00    -0.277 OA
ENDBRANCH  36  37
ENDBRANCH  35  36
BRANCH  35  40
HETATM   40  N5  UNL     1      21.180  25.516  17.606  1.00  0.00    -0.342 N 
HETATM   41  C29 UNL     1      21.517  25.892  18.931  1.00  0.00     0.268 C 
HETATM   42  O5  UNL     1      20.713  26.601  19.563  1.00  0.00    -0.266 OA
ATOM     43  H5  UNL     1      21.840  24.933  17.091  1.00  0.00     0.163 HD
BRANCH  41  44
HETATM   44  C30 UNL     1      22.776  25.469  19.562  1.00  0.00     0.101 A 
HETATM   45  C31 UNL     1      23.267  26.178  20.637  1.00  0.00     0.036 A 
HETATM   46  C32 UNL     1      24.436  25.866  21.296  1.00  0.00     0.016 A 
HETATM   47  C33 UNL     1      25.137  24.761  20.820  1.00  0.00    -0.009 A 
HETATM   48  C34 UNL     1      26.324  24.391  21.437  1.00  0.00     0.013 A 
HETATM   49  C38 UNL     1      24.625  24.060  19.736  1.00  0.00     0.043 A 
HETATM   50  C35 UNL     1      26.992  23.296  20.940  1.00  0.00     0.001 A 
HETATM   51  C36 UNL     1      26.498  22.583  19.861  1.00  0.00     0.002 A 
HETATM   52  C37 UNL     1      25.319  22.958  19.256  1.00  0.00     0.030 A 
HETATM   53  N6  UNL     1      23.465  24.419  19.129  1.00  0.00    -0.351 N 
ATOM     54  H6  UNL     1      23.120  23.878  18.335  1.00  0.00     0.166 HD
ENDBRANCH  41  44
ENDBRANCH  35  40
ENDBRANCH  32  35
ENDBRANCH   1  31
TORSDOF 14
ENDMDL
