MODEL 2
REMARK VINA RESULT: -9.764600761      2.083      3.245
REMARK  13 active torsions:
REMARK  status: ('A' for Active; 'I' for Inactive)
REMARK    1  A    between atoms: C2_2  and  C4_4 
REMARK    2  A    between atoms: C4_4  and  N1_5 
REMARK    3  A    between atoms: N1_5  and  C5_6 
REMARK    4  A    between atoms: N1_5  and  S1_31 
REMARK    5  A    between atoms: C5_6  and  C6_7 
REMARK    6  A    between atoms: C6_7  and  O1_8 
REMARK    7  A    between atoms: C6_7  and  C7_10 
REMARK    8  A    between atoms: C7_10  and  C8_11 
REMARK    9  A    between atoms: C7_10  and  N2_18 
REMARK   10  A    between atoms: C8_11  and  C9_12 
REMARK       I    between atoms: N2_18  and  C15_20 
REMARK   11  A    between atoms: C15_20  and  O3_22 
REMARK   12  A    between atoms: O3_22  and  C16_23 
REMARK   13  A    between atoms: S1_31  and  C22_34 
ROOT
HETATM    1  C7  UNL     1      17.397  24.160  18.171  1.00  0.00     0.029 C 
ENDROOT
BRANCH   1   2
HETATM    2  C6  UNL     1      16.094  23.673  17.590  1.00  0.00     0.203 C 
BRANCH   2   3
HETATM    3  C5  UNL     1      15.858  22.222  17.694  1.00  0.00     0.119 C 
BRANCH   3   4
HETATM    4  N1  UNL     1      14.721  21.698  17.065  1.00  0.00    -0.262 N 
BRANCH   4   5
HETATM    5  C4  UNL     1      13.593  21.301  17.785  1.00  0.00     0.085 C 
BRANCH   5   6
HETATM    6  C2  UNL     1      13.473  19.805  18.048  1.00  0.00     0.017 C 
HETATM    7  C1  UNL     1      13.875  19.408  19.440  1.00  0.00     0.015 C 
HETATM    8  C3  UNL     1      12.083  19.295  17.747  1.00  0.00     0.015 C 
ENDBRANCH   5   6
ENDBRANCH   4   5
BRANCH   4   9
HETATM    9  S1  UNL     1      14.540  22.123  15.439  1.00  0.00     0.267 S 
HETATM   10  O6  UNL     1      14.201  23.605  15.379  1.00  0.00    -0.200 OA
HETATM   11  O7  UNL     1      15.812  21.887  14.636  1.00  0.00    -0.200 OA
BRANCH   9  12
HETATM   12  C22 UNL     1      13.243  21.260  14.622  1.00  0.00     0.080 A 
HETATM   13  C23 UNL     1      11.916  21.618  14.724  1.00  0.00     0.027 A 
HETATM   14  C24 UNL     1      10.913  20.921  14.076  1.00  0.00     0.028 A 
HETATM   15  C25 UNL     1      11.209  19.827  13.292  1.00  0.00     0.046 A 
HETATM   16  N3  UNL     1      10.167  19.098  12.616  1.00  0.00    -0.102 NA
HETATM   17  C26 UNL     1      12.530  19.455  13.180  1.00  0.00     0.028 A 
HETATM   18  C27 UNL     1      13.524  20.153  13.827  1.00  0.00     0.027 A 
ENDBRANCH   9  12
ENDBRANCH   4   9
ENDBRANCH   3   4
ENDBRANCH   2   3
BRANCH   2  19
HETATM   19  O1  UNL     1      15.081  24.334  18.326  1.00  0.00    -0.385 OA
ATOM     20  H1  UNL     1      15.432  24.544  19.184  1.00  0.00     0.211 HD
ENDBRANCH   2  19
ENDBRANCH   1   2
BRANCH   1  21
HETATM   21  C8  UNL     1      17.320  24.429  19.649  1.00  0.00     0.094 C 
BRANCH  21  22
HETATM   22  C9  UNL     1      18.280  23.697  20.475  1.00  0.00    -0.053 A 
HETATM   23  C10 UNL     1      18.206  22.304  20.512  1.00  0.00     0.007 A 
HETATM   24  C11 UNL     1      19.029  21.516  21.271  1.00  0.00     0.001 A 
HETATM   25  C12 UNL     1      19.993  22.127  22.052  1.00  0.00     0.000 A 
HETATM   26  C13 UNL     1      20.104  23.496  22.049  1.00  0.00     0.001 A 
HETATM   27  C14 UNL     1      19.238  24.266  21.255  1.00  0.00     0.007 A 
ENDBRANCH  21  22
ENDBRANCH   1  21
BRANCH   1  28
HETATM   28  N2  UNL     1      18.128  25.055  17.364  1.00  0.00    -0.307 N 
HETATM   29  C15 UNL     1      19.162  24.685  16.468  1.00  0.00     0.365 C 
HETATM   30  O2  UNL     1      19.487  23.497  16.358  1.00  0.00    -0.238 OA
ATOM     31  H2  UNL     1      17.894  26.045  17.429  1.00  0.00     0.170 HD
BRANCH  29  32
HETATM   32  O3  UNL     1      19.827  25.646  15.700  1.00  0.00    -0.296 OA
BRANCH  32  33
HETATM   33  C16 UNL     1      20.753  26.546  16.286  1.00  0.00     0.166 C 
HETATM   34  C17 UNL     1      22.165  26.207  15.939  1.00  0.00     0.204 C 
HETATM   35  O4  UNL     1      22.839  27.355  15.616  1.00  0.00    -0.358 OA
HETATM   36  C18 UNL     1      21.981  28.438  15.724  1.00  0.00     0.266 C 
HETATM   37  O5  UNL     1      22.085  29.320  14.655  1.00  0.00    -0.361 OA
HETATM   38  C21 UNL     1      20.577  27.883  15.596  1.00  0.00     0.075 C 
HETATM   39  C19 UNL     1      21.437  28.779  13.571  1.00  0.00     0.171 C 
HETATM   40  C20 UNL     1      20.413  27.777  14.115  1.00  0.00     0.038 C 
ENDBRANCH  32  33
ENDBRANCH  29  32
ENDBRANCH   1  28
TORSDOF 13
ENDMDL
