MODEL 3
REMARK VINA RESULT: -9.753123499      2.283      3.459
REMARK  13 active torsions:
REMARK  status: ('A' for Active; 'I' for Inactive)
REMARK    1  A    between atoms: C2_2  and  C4_4 
REMARK    2  A    between atoms: C4_4  and  N1_5 
REMARK    3  A    between atoms: N1_5  and  C5_6 
REMARK    4  A    between atoms: N1_5  and  S1_31 
REMARK    5  A    between atoms: C5_6  and  C6_7 
REMARK    6  A    between atoms: C6_7  and  O1_8 
REMARK    7  A    between atoms: C6_7  and  C7_10 
REMARK    8  A    between atoms: C7_10  and  C8_11 
REMARK    9  A    between atoms: C7_10  and  N2_18 
REMARK   10  A    between atoms: C8_11  and  C9_12 
REMARK       I    between atoms: N2_18  and  C15_20 
REMARK   11  A    between atoms: C15_20  and  O3_22 
REMARK   12  A    between atoms: O3_22  and  C16_23 
REMARK   13  A    between atoms: S1_31  and  C22_34 
ROOT
HETATM    1  C7  UNL     1      16.916  23.349  18.165  1.00  0.00     0.029 C 
ENDROOT
BRANCH   1   2
HETATM    2  C6  UNL     1      15.651  23.946  17.603  1.00  0.00     0.203 C 
BRANCH   2   3
HETATM    3  C5  UNL     1      14.509  23.020  17.490  1.00  0.00     0.119 C 
BRANCH   3   4
HETATM    4  N1  UNL     1      14.679  21.865  16.715  1.00  0.00    -0.262 N 
BRANCH   4   5
HETATM    5  C4  UNL     1      14.513  20.585  17.246  1.00  0.00     0.085 C 
BRANCH   5   6
HETATM    6  C2  UNL     1      13.476  20.462  18.356  1.00  0.00     0.017 C 
HETATM    7  C1  UNL     1      12.187  19.838  17.903  1.00  0.00     0.015 C 
HETATM    8  C3  UNL     1      14.022  19.713  19.549  1.00  0.00     0.015 C 
ENDBRANCH   5   6
ENDBRANCH   4   5
BRANCH   4   9
HETATM    9  S1  UNL     1      14.494  22.086  15.050  1.00  0.00     0.267 S 
HETATM   10  O6  UNL     1      14.129  23.543  14.809  1.00  0.00    -0.200 OA
HETATM   11  O7  UNL     1      15.771  21.776  14.280  1.00  0.00    -0.200 OA
BRANCH   9  12
HETATM   12  C22 UNL     1      13.214  21.107  14.344  1.00  0.00     0.080 A 
HETATM   13  C23 UNL     1      13.454  20.027  13.521  1.00  0.00     0.027 A 
HETATM   14  C24 UNL     1      12.431  19.276  12.974  1.00  0.00     0.028 A 
HETATM   15  C25 UNL     1      11.113  19.582  13.236  1.00  0.00     0.046 A 
HETATM   16  N3  UNL     1      10.045  18.802  12.668  1.00  0.00    -0.102 NA
HETATM   17  C26 UNL     1      10.855  20.658  14.056  1.00  0.00     0.028 A 
HETATM   18  C27 UNL     1      11.878  21.402  14.598  1.00  0.00     0.027 A 
ENDBRANCH   9  12
ENDBRANCH   4   9
ENDBRANCH   3   4
ENDBRANCH   2   3
BRANCH   2  19
HETATM   19  O1  UNL     1      15.288  24.979  18.502  1.00  0.00    -0.385 OA
ATOM     20  H1  UNL     1      16.074  25.262  18.954  1.00  0.00     0.211 HD
ENDBRANCH   2  19
ENDBRANCH   1   2
BRANCH   1  21
HETATM   21  C8  UNL     1      16.767  22.887  19.588  1.00  0.00     0.094 C 
BRANCH  21  22
HETATM   22  C9  UNL     1      17.974  22.975  20.411  1.00  0.00    -0.053 A 
HETATM   23  C10 UNL     1      18.646  21.797  20.740  1.00  0.00     0.007 A 
HETATM   24  C11 UNL     1      19.765  21.752  21.527  1.00  0.00     0.001 A 
HETATM   25  C12 UNL     1      20.268  22.938  22.030  1.00  0.00     0.000 A 
HETATM   26  C13 UNL     1      19.641  24.123  21.733  1.00  0.00     0.001 A 
HETATM   27  C14 UNL     1      18.494  24.123  20.922  1.00  0.00     0.007 A 
ENDBRANCH  21  22
ENDBRANCH   1  21
BRANCH   1  28
HETATM   28  N2  UNL     1      18.112  23.990  17.788  1.00  0.00    -0.307 N 
HETATM   29  C15 UNL     1      18.757  23.841  16.536  1.00  0.00     0.365 C 
HETATM   30  O2  UNL     1      18.273  23.094  15.677  1.00  0.00    -0.238 OA
ATOM     31  H2  UNL     1      18.548  24.611  18.470  1.00  0.00     0.170 HD
BRANCH  29  32
HETATM   32  O3  UNL     1      19.942  24.527  16.250  1.00  0.00    -0.296 OA
BRANCH  32  33
HETATM   33  C16 UNL     1      20.056  25.354  15.103  1.00  0.00     0.166 C 
HETATM   34  C17 UNL     1      19.078  26.482  15.121  1.00  0.00     0.204 C 
HETATM   35  O4  UNL     1      19.710  27.634  14.736  1.00  0.00    -0.358 OA
HETATM   36  C18 UNL     1      21.039  27.358  14.458  1.00  0.00     0.266 C 
HETATM   37  O5  UNL     1      21.911  28.299  14.992  1.00  0.00    -0.361 OA
HETATM   38  C21 UNL     1      21.377  26.088  15.210  1.00  0.00     0.075 C 
HETATM   39  C19 UNL     1      22.035  28.070  16.341  1.00  0.00     0.171 C 
HETATM   40  C20 UNL     1      21.669  26.601  16.581  1.00  0.00     0.038 C 
ENDBRANCH  32  33
ENDBRANCH  29  32
ENDBRANCH   1  28
TORSDOF 13
ENDMDL
