MODEL 1
REMARK VINA RESULT: -9.933234583      0.000      0.000
REMARK  13 active torsions:
REMARK  status: ('A' for Active; 'I' for Inactive)
REMARK    1  A    between atoms: C2_2  and  C4_4 
REMARK    2  A    between atoms: C4_4  and  N1_5 
REMARK    3  A    between atoms: N1_5  and  C5_6 
REMARK    4  A    between atoms: N1_5  and  S1_31 
REMARK    5  A    between atoms: C5_6  and  C6_7 
REMARK    6  A    between atoms: C6_7  and  O1_8 
REMARK    7  A    between atoms: C6_7  and  C7_10 
REMARK    8  A    between atoms: C7_10  and  C8_11 
REMARK    9  A    between atoms: C7_10  and  N2_18 
REMARK   10  A    between atoms: C8_11  and  C9_12 
REMARK       I    between atoms: N2_18  and  C15_20 
REMARK   11  A    between atoms: C15_20  and  O3_22 
REMARK   12  A    between atoms: O3_22  and  C16_23 
REMARK   13  A    between atoms: S1_31  and  C22_34 
ROOT
HETATM    1  C7  UNL     1      17.575  24.542  18.491  1.00  0.00     0.029 C 
ENDROOT
BRANCH   1   2
HETATM    2  C6  UNL     1      16.188  24.793  17.955  1.00  0.00     0.203 C 
BRANCH   2   3
HETATM    3  C5  UNL     1      15.222  23.700  18.164  1.00  0.00     0.119 C 
BRANCH   3   4
HETATM    4  N1  UNL     1      15.311  22.580  17.326  1.00  0.00    -0.262 N 
BRANCH   4   5
HETATM    5  C4  UNL     1      15.603  22.695  15.966  1.00  0.00     0.085 C 
BRANCH   5   6
HETATM    6  C2  UNL     1      14.529  22.182  15.015  1.00  0.00     0.017 C 
HETATM    7  C1  UNL     1      13.383  23.137  14.837  1.00  0.00     0.015 C 
HETATM    8  C3  UNL     1      15.105  21.810  13.669  1.00  0.00     0.015 C 
ENDBRANCH   5   6
ENDBRANCH   4   5
BRANCH   4   9
HETATM    9  S1  UNL     1      15.645  21.122  18.110  1.00  0.00     0.267 S 
HETATM   10  O6  UNL     1      16.393  20.226  17.134  1.00  0.00    -0.200 OA
HETATM   11  O7  UNL     1      16.513  21.316  19.346  1.00  0.00    -0.200 OA
BRANCH   9  12
HETATM   12  C22 UNL     1      14.207  20.246  18.621  1.00  0.00     0.080 A 
HETATM   13  C23 UNL     1      14.156  19.477  19.764  1.00  0.00     0.027 A 
HETATM   14  C24 UNL     1      13.015  18.794  20.142  1.00  0.00     0.028 A 
HETATM   15  C25 UNL     1      11.869  18.858  19.378  1.00  0.00     0.046 A 
HETATM   16  N3  UNL     1      10.680  18.148  19.769  1.00  0.00    -0.102 NA
HETATM   17  C26 UNL     1      11.903  19.622  18.233  1.00  0.00     0.028 A 
HETATM   18  C27 UNL     1      13.042  20.300  17.862  1.00  0.00     0.027 A 
ENDBRANCH   9  12
ENDBRANCH   4   9
ENDBRANCH   3   4
ENDBRANCH   2   3
BRANCH   2  19
HETATM   19  O1  UNL     1      15.715  25.933  18.649  1.00  0.00    -0.385 OA
ATOM     20  H1  UNL     1      14.925  26.233  18.215  1.00  0.00     0.211 HD
ENDBRANCH   2  19
ENDBRANCH   1   2
BRANCH   1  21
HETATM   21  C8  UNL     1      17.645  24.597  19.992  1.00  0.00     0.094 C 
BRANCH  21  22
HETATM   22  C9  UNL     1      18.930  24.217  20.579  1.00  0.00    -0.053 A 
HETATM   23  C10 UNL     1      19.151  22.875  20.895  1.00  0.00     0.007 A 
HETATM   24  C11 UNL     1      20.299  22.407  21.475  1.00  0.00     0.001 A 
HETATM   25  C12 UNL     1      21.306  23.308  21.769  1.00  0.00     0.000 A 
HETATM   26  C13 UNL     1      21.135  24.639  21.477  1.00  0.00     0.001 A 
HETATM   27  C14 UNL     1      19.940  25.076  20.883  1.00  0.00     0.007 A 
ENDBRANCH  21  22
ENDBRANCH   1  21
BRANCH   1  28
HETATM   28  N2  UNL     1      18.628  25.113  17.748  1.00  0.00    -0.307 N 
HETATM   29  C15 UNL     1      19.339  24.461  16.710  1.00  0.00     0.365 C 
HETATM   30  O2  UNL     1      19.053  23.298  16.402  1.00  0.00    -0.238 OA
ATOM     31  H2  UNL     1      18.899  26.069  17.975  1.00  0.00     0.170 HD
BRANCH  29  32
HETATM   32  O3  UNL     1      20.366  25.113  16.022  1.00  0.00    -0.296 OA
BRANCH  32  33
HETATM   33  C16 UNL     1      20.985  26.276  16.550  1.00  0.00     0.166 C 
HETATM   34  C17 UNL     1      22.447  26.321  16.249  1.00  0.00     0.204 C 
HETATM   35  O4  UNL     1      22.786  27.586  15.848  1.00  0.00    -0.358 OA
HETATM   36  C18 UNL     1      21.658  28.390  15.861  1.00  0.00     0.266 C 
HETATM   37  O5  UNL     1      21.549  29.190  14.729  1.00  0.00    -0.361 OA
HETATM   38  C21 UNL     1      20.468  27.458  15.757  1.00  0.00     0.075 C 
HETATM   39  C19 UNL     1      21.115  28.415  13.681  1.00  0.00     0.171 C 
HETATM   40  C20 UNL     1      20.392  27.207  14.286  1.00  0.00     0.038 C 
ENDBRANCH  32  33
ENDBRANCH  29  32
ENDBRANCH   1  28
TORSDOF 13
ENDMDL
