MODEL 12
REMARK VINA RESULT: -9.232322398      2.344      9.964
REMARK  13 active torsions:
REMARK  status: ('A' for Active; 'I' for Inactive)
REMARK    1  A    between atoms: C2_2  and  C4_4 
REMARK    2  A    between atoms: C4_4  and  N1_5 
REMARK    3  A    between atoms: N1_5  and  C5_6 
REMARK    4  A    between atoms: N1_5  and  S1_31 
REMARK    5  A    between atoms: C5_6  and  C6_7 
REMARK    6  A    between atoms: C6_7  and  O1_8 
REMARK    7  A    between atoms: C6_7  and  C7_10 
REMARK    8  A    between atoms: C7_10  and  C8_11 
REMARK    9  A    between atoms: C7_10  and  N2_18 
REMARK   10  A    between atoms: C8_11  and  C9_12 
REMARK       I    between atoms: N2_18  and  C15_20 
REMARK   11  A    between atoms: C15_20  and  O3_22 
REMARK   12  A    between atoms: O3_22  and  C16_23 
REMARK   13  A    between atoms: S1_31  and  C22_34 
ROOT
HETATM    1  C7  UNL     1      15.928  23.451  17.346  1.00  0.00     0.029 C 
ENDROOT
BRANCH   1   2
HETATM    2  C6  UNL     1      16.592  24.617  18.033  1.00  0.00     0.203 C 
BRANCH   2   3
HETATM    3  C5  UNL     1      17.418  25.477  17.166  1.00  0.00     0.119 C 
BRANCH   3   4
HETATM    4  N1  UNL     1      18.785  25.184  17.067  1.00  0.00    -0.262 N 
BRANCH   4   5
HETATM    5  C4  UNL     1      19.451  24.424  18.030  1.00  0.00     0.085 C 
BRANCH   5   6
HETATM    6  C2  UNL     1      19.838  25.166  19.303  1.00  0.00     0.017 C 
HETATM    7  C1  UNL     1      19.319  24.518  20.554  1.00  0.00     0.015 C 
HETATM    8  C3  UNL     1      21.333  25.360  19.404  1.00  0.00     0.015 C 
ENDBRANCH   5   6
ENDBRANCH   4   5
BRANCH   4   9
HETATM    9  S1  UNL     1      19.423  25.258  15.504  1.00  0.00     0.267 S 
HETATM   10  O6  UNL     1      20.151  23.949  15.233  1.00  0.00    -0.200 OA
HETATM   11  O7  UNL     1      18.341  25.435  14.446  1.00  0.00    -0.200 OA
BRANCH   9  12
HETATM   12  C22 UNL     1      20.587  26.556  15.275  1.00  0.00     0.080 A 
HETATM   13  C23 UNL     1      20.419  27.570  14.355  1.00  0.00     0.027 A 
HETATM   14  C24 UNL     1      21.351  28.577  14.190  1.00  0.00     0.028 A 
HETATM   15  C25 UNL     1      22.500  28.606  14.951  1.00  0.00     0.046 A 
HETATM   16  N3  UNL     1      23.473  29.653  14.782  1.00  0.00    -0.102 NA
HETATM   17  C26 UNL     1      22.684  27.602  15.875  1.00  0.00     0.028 A 
HETATM   18  C27 UNL     1      21.753  26.601  16.034  1.00  0.00     0.027 A 
ENDBRANCH   9  12
ENDBRANCH   4   9
ENDBRANCH   3   4
ENDBRANCH   2   3
BRANCH   2  19
HETATM   19  O1  UNL     1      15.535  25.405  18.550  1.00  0.00    -0.385 OA
ATOM     20  H1  UNL     1      14.718  24.958  18.362  1.00  0.00     0.211 HD
ENDBRANCH   2  19
ENDBRANCH   1   2
BRANCH   1  21
HETATM   21  C8  UNL     1      15.590  23.731  15.907  1.00  0.00     0.094 C 
BRANCH  21  22
HETATM   22  C9  UNL     1      14.706  22.758  15.265  1.00  0.00    -0.053 A 
HETATM   23  C10 UNL     1      13.345  23.051  15.171  1.00  0.00     0.007 A 
HETATM   24  C11 UNL     1      12.419  22.206  14.620  1.00  0.00     0.001 A 
HETATM   25  C12 UNL     1      12.848  20.989  14.124  1.00  0.00     0.000 A 
HETATM   26  C13 UNL     1      14.179  20.656  14.194  1.00  0.00     0.001 A 
HETATM   27  C14 UNL     1      15.094  21.553  14.768  1.00  0.00     0.007 A 
ENDBRANCH  21  22
ENDBRANCH   1  21
BRANCH   1  28
HETATM   28  N2  UNL     1      15.002  22.731  18.126  1.00  0.00    -0.307 N 
HETATM   29  C15 UNL     1      15.174  21.396  18.568  1.00  0.00     0.365 C 
HETATM   30  O2  UNL     1      16.197  20.772  18.265  1.00  0.00    -0.238 OA
ATOM     31  H2  UNL     1      14.141  23.208  18.393  1.00  0.00     0.170 HD
BRANCH  29  32
HETATM   32  O3  UNL     1      14.199  20.765  19.347  1.00  0.00    -0.296 OA
BRANCH  32  33
HETATM   33  C16 UNL     1      14.053  19.354  19.346  1.00  0.00     0.166 C 
HETATM   34  C17 UNL     1      13.167  18.878  20.449  1.00  0.00     0.204 C 
HETATM   35  O4  UNL     1      12.311  17.927  19.962  1.00  0.00    -0.358 OA
HETATM   36  C18 UNL     1      12.561  17.730  18.613  1.00  0.00     0.266 C 
HETATM   37  O5  UNL     1      11.402  17.663  17.851  1.00  0.00    -0.361 OA
HETATM   38  C21 UNL     1      13.244  18.989  18.118  1.00  0.00     0.075 C 
HETATM   39  C19 UNL     1      10.910  18.935  17.683  1.00  0.00     0.171 C 
HETATM   40  C20 UNL     1      12.086  19.899  17.871  1.00  0.00     0.038 C 
ENDBRANCH  32  33
ENDBRANCH  29  32
ENDBRANCH   1  28
TORSDOF 13
ENDMDL
