MODEL 8
REMARK VINA RESULT: -9.363175684      2.355      9.902
REMARK  13 active torsions:
REMARK  status: ('A' for Active; 'I' for Inactive)
REMARK    1  A    between atoms: C2_2  and  C4_4 
REMARK    2  A    between atoms: C4_4  and  N1_5 
REMARK    3  A    between atoms: N1_5  and  C5_6 
REMARK    4  A    between atoms: N1_5  and  S1_31 
REMARK    5  A    between atoms: C5_6  and  C6_7 
REMARK    6  A    between atoms: C6_7  and  O1_8 
REMARK    7  A    between atoms: C6_7  and  C7_10 
REMARK    8  A    between atoms: C7_10  and  C8_11 
REMARK    9  A    between atoms: C7_10  and  N2_18 
REMARK   10  A    between atoms: C8_11  and  C9_12 
REMARK       I    between atoms: N2_18  and  C15_20 
REMARK   11  A    between atoms: C15_20  and  O3_22 
REMARK   12  A    between atoms: O3_22  and  C16_23 
REMARK   13  A    between atoms: S1_31  and  C22_34 
ROOT
HETATM    1  C7  UNL     1      14.726  22.749  17.260  1.00  0.00     0.029 C 
ENDROOT
BRANCH   1   2
HETATM    2  C6  UNL     1      15.360  23.873  18.039  1.00  0.00     0.203 C 
BRANCH   2   3
HETATM    3  C5  UNL     1      16.355  24.673  17.301  1.00  0.00     0.119 C 
BRANCH   3   4
HETATM    4  N1  UNL     1      17.704  24.319  17.431  1.00  0.00    -0.262 N 
BRANCH   4   5
HETATM    5  C4  UNL     1      18.173  23.571  18.512  1.00  0.00     0.085 C 
BRANCH   5   6
HETATM    6  C2  UNL     1      18.958  24.350  19.561  1.00  0.00     0.017 C 
HETATM    7  C1  UNL     1      18.301  24.362  20.912  1.00  0.00     0.015 C 
HETATM    8  C3  UNL     1      20.378  23.848  19.681  1.00  0.00     0.015 C 
ENDBRANCH   5   6
ENDBRANCH   4   5
BRANCH   4   9
HETATM    9  S1  UNL     1      18.584  24.302  15.988  1.00  0.00     0.267 S 
HETATM   10  O6  UNL     1      19.581  23.155  16.061  1.00  0.00    -0.200 OA
HETATM   11  O7  UNL     1      17.693  24.089  14.771  1.00  0.00    -0.200 OA
BRANCH   9  12
HETATM   12  C22 UNL     1      19.505  25.774  15.704  1.00  0.00     0.080 A 
HETATM   13  C23 UNL     1      20.303  26.363  16.662  1.00  0.00     0.027 A 
HETATM   14  C24 UNL     1      21.014  27.522  16.417  1.00  0.00     0.028 A 
HETATM   15  C25 UNL     1      20.951  28.141  15.187  1.00  0.00     0.046 A 
HETATM   16  N3  UNL     1      21.690  29.349  14.929  1.00  0.00    -0.102 NA
HETATM   17  C26 UNL     1      20.159  27.567  14.219  1.00  0.00     0.028 A 
HETATM   18  C27 UNL     1      19.453  26.412  14.469  1.00  0.00     0.027 A 
ENDBRANCH   9  12
ENDBRANCH   4   9
ENDBRANCH   3   4
ENDBRANCH   2   3
BRANCH   2  19
HETATM   19  O1  UNL     1      14.294  24.731  18.403  1.00  0.00    -0.385 OA
ATOM     20  H1  UNL     1      13.481  24.317  18.137  1.00  0.00     0.211 HD
ENDBRANCH   2  19
ENDBRANCH   1   2
BRANCH   1  21
HETATM   21  C8  UNL     1      14.279  23.164  15.885  1.00  0.00     0.094 C 
BRANCH  21  22
HETATM   22  C9  UNL     1      14.018  22.072  14.948  1.00  0.00    -0.053 A 
HETATM   23  C10 UNL     1      14.953  21.812  13.946  1.00  0.00     0.007 A 
HETATM   24  C11 UNL     1      14.802  20.838  12.995  1.00  0.00     0.001 A 
HETATM   25  C12 UNL     1      13.659  20.060  13.023  1.00  0.00     0.000 A 
HETATM   26  C13 UNL     1      12.710  20.278  13.991  1.00  0.00     0.001 A 
HETATM   27  C14 UNL     1      12.905  21.289  14.946  1.00  0.00     0.007 A 
ENDBRANCH  21  22
ENDBRANCH   1  21
BRANCH   1  28
HETATM   28  N2  UNL     1      13.897  21.885  18.003  1.00  0.00    -0.307 N 
HETATM   29  C15 UNL     1      14.352  20.937  18.952  1.00  0.00     0.365 C 
HETATM   30  O2  UNL     1      15.562  20.818  19.174  1.00  0.00    -0.238 OA
ATOM     31  H2  UNL     1      12.891  21.947  17.845  1.00  0.00     0.170 HD
BRANCH  29  32
HETATM   32  O3  UNL     1      13.450  20.126  19.648  1.00  0.00    -0.296 OA
BRANCH  32  33
HETATM   33  C16 UNL     1      13.482  18.713  19.524  1.00  0.00     0.166 C 
HETATM   34  C17 UNL     1      12.587  18.040  20.512  1.00  0.00     0.204 C 
HETATM   35  O4  UNL     1      11.892  17.041  19.885  1.00  0.00    -0.358 OA
HETATM   36  C18 UNL     1      12.258  16.994  18.549  1.00  0.00     0.266 C 
HETATM   37  O5  UNL     1      11.172  16.858  17.694  1.00  0.00    -0.361 OA
HETATM   38  C21 UNL     1      12.812  18.363  18.211  1.00  0.00     0.075 C 
HETATM   39  C19 UNL     1      10.538  18.072  17.588  1.00  0.00     0.171 C 
HETATM   40  C20 UNL     1      11.569  19.148  17.944  1.00  0.00     0.038 C 
ENDBRANCH  32  33
ENDBRANCH  29  32
ENDBRANCH   1  28
TORSDOF 13
ENDMDL
