MODEL 5
REMARK VINA RESULT: -5.780557331      2.696      4.009
REMARK  5 active torsions:
REMARK  status: ('A' for Active; 'I' for Inactive)
REMARK    1  A    between atoms: O1_1  and  C1_3 
REMARK    2  A    between atoms: C1_3  and  C2_4 
REMARK    3  A    between atoms: C3_5  and  O2_6 
REMARK    4  A    between atoms: C4_8  and  O3_9 
REMARK    5  A    between atoms: C5_11  and  O4_12 
ROOT
HETATM    1  C2  UNL     1      28.789  65.544   9.600  1.00  0.00     0.145 C 
HETATM    2  C3  UNL     1      29.384  64.473  10.481  1.00  0.00     0.175 C 
HETATM    3  C4  UNL     1      28.662  64.645  11.825  1.00  0.00     0.185 C 
HETATM    4  C5  UNL     1      27.265  64.122  11.610  1.00  0.00     0.217 C 
HETATM    5  C6  UNL     1      26.749  64.526  10.294  1.00  0.00     0.115 A 
HETATM    6  N1  UNL     1      25.484  64.294   9.827  1.00  0.00    -0.352 N 
ATOM      7  H1  UNL     1      24.749  63.810  10.343  1.00  0.00     0.166 HD
HETATM    8  C7  UNL     1      25.354  64.794   8.598  1.00  0.00     0.106 A 
HETATM    9  C8  UNL     1      26.578  65.353   8.297  1.00  0.00     0.110 A 
HETATM   10  N2  UNL     1      27.425  65.184   9.343  1.00  0.00    -0.334 N 
ENDROOT
BRANCH   1  11
HETATM   11  C1  UNL     1      29.602  65.831   8.386  1.00  0.00     0.192 C 
BRANCH  11  12
HETATM   12  O1  UNL     1      30.011  64.631   7.824  1.00  0.00    -0.399 OA
ATOM     13  H1  UNL     1      30.837  64.373   8.215  1.00  0.00     0.209 HD
ENDBRANCH  11  12
ENDBRANCH   1  11
BRANCH   2  14
HETATM   14  O2  UNL     1      30.746  64.577  10.616  1.00  0.00    -0.391 OA
ATOM     15  H2  UNL     1      31.072  65.456  10.464  1.00  0.00     0.210 HD
ENDBRANCH   2  14
BRANCH   3  16
HETATM   16  O3  UNL     1      29.334  64.041  12.853  1.00  0.00    -0.390 OA
ATOM     17  H3  UNL     1      29.396  64.601  13.618  1.00  0.00     0.210 HD
ENDBRANCH   3  16
BRANCH   4  18
HETATM   18  O4  UNL     1      27.307  62.712  11.617  1.00  0.00    -0.385 OA
ATOM     19  H4  UNL     1      26.438  62.385  11.818  1.00  0.00     0.210 HD
ENDBRANCH   4  18
TORSDOF 5
ENDMDL
