MODEL 8
REMARK VINA RESULT: -5.447160903      6.059      7.214
REMARK  5 active torsions:
REMARK  status: ('A' for Active; 'I' for Inactive)
REMARK    1  A    between atoms: O1_1  and  C1_3 
REMARK    2  A    between atoms: C1_3  and  C2_4 
REMARK    3  A    between atoms: C3_5  and  O2_6 
REMARK    4  A    between atoms: C4_8  and  O3_9 
REMARK    5  A    between atoms: C5_11  and  O4_12 
ROOT
HETATM    1  C2  UNL     1      25.436  62.924  12.032  1.00  0.00     0.145 C 
HETATM    2  C3  UNL     1      26.145  62.251  10.883  1.00  0.00     0.175 C 
HETATM    3  C4  UNL     1      25.016  61.596  10.074  1.00  0.00     0.185 C 
HETATM    4  C5  UNL     1      24.305  62.724   9.374  1.00  0.00     0.217 C 
HETATM    5  C6  UNL     1      24.168  63.889  10.260  1.00  0.00     0.115 A 
HETATM    6  N1  UNL     1      23.492  65.042   9.965  1.00  0.00    -0.352 N 
ATOM      7  H1  UNL     1      23.002  65.226   9.090  1.00  0.00     0.166 HD
HETATM    8  C7  UNL     1      23.569  65.890  10.992  1.00  0.00     0.106 A 
HETATM    9  C8  UNL     1      24.315  65.239  11.951  1.00  0.00     0.110 A 
HETATM   10  N2  UNL     1      24.677  64.014  11.492  1.00  0.00    -0.334 N 
ENDROOT
BRANCH   1  11
HETATM   11  C1  UNL     1      26.342  63.284  13.157  1.00  0.00     0.192 C 
BRANCH  11  12
HETATM   12  O1  UNL     1      26.374  62.236  14.063  1.00  0.00    -0.399 OA
ATOM     13  H1  UNL     1      26.084  61.443  13.628  1.00  0.00     0.209 HD
ENDBRANCH  11  12
ENDBRANCH   1  11
BRANCH   2  14
HETATM   14  O2  UNL     1      27.083  61.334  11.286  1.00  0.00    -0.391 OA
ATOM     15  H2  UNL     1      27.823  61.726  11.734  1.00  0.00     0.210 HD
ENDBRANCH   2  14
BRANCH   3  16
HETATM   16  O3  UNL     1      25.483  60.622   9.232  1.00  0.00    -0.390 OA
ATOM     17  H3  UNL     1      26.361  60.341   9.462  1.00  0.00     0.210 HD
ENDBRANCH   3  16
BRANCH   4  18
HETATM   18  O4  UNL     1      25.086  63.137   8.275  1.00  0.00    -0.385 OA
ATOM     19  H4  UNL     1      25.192  62.399   7.685  1.00  0.00     0.210 HD
ENDBRANCH   4  18
TORSDOF 5
ENDMDL
