MODEL 7
REMARK VINA RESULT: -5.642498311      4.927      6.724
REMARK  5 active torsions:
REMARK  status: ('A' for Active; 'I' for Inactive)
REMARK    1  A    between atoms: O1_1  and  C1_3 
REMARK    2  A    between atoms: C1_3  and  C2_4 
REMARK    3  A    between atoms: C3_5  and  O2_6 
REMARK    4  A    between atoms: C4_8  and  O3_9 
REMARK    5  A    between atoms: C5_11  and  O4_12 
ROOT
HETATM    1  C2  UNL     1      26.160  62.925  11.250  1.00  0.00     0.145 C 
HETATM    2  C3  UNL     1      26.059  61.987  10.072  1.00  0.00     0.175 C 
HETATM    3  C4  UNL     1      24.549  61.857   9.821  1.00  0.00     0.185 C 
HETATM    4  C5  UNL     1      24.121  63.165   9.207  1.00  0.00     0.217 C 
HETATM    5  C6  UNL     1      24.793  64.298   9.861  1.00  0.00     0.115 A 
HETATM    6  N1  UNL     1      24.559  65.621   9.605  1.00  0.00    -0.352 N 
ATOM      7  H1  UNL     1      23.885  65.976   8.927  1.00  0.00     0.166 HD
HETATM    8  C7  UNL     1      25.341  66.379  10.375  1.00  0.00     0.106 A 
HETATM    9  C8  UNL     1      26.081  65.495  11.130  1.00  0.00     0.110 A 
HETATM   10  N2  UNL     1      25.738  64.222  10.807  1.00  0.00    -0.334 N 
ENDROOT
BRANCH   1  11
HETATM   11  C1  UNL     1      27.488  62.891  11.921  1.00  0.00     0.192 C 
BRANCH  11  12
HETATM   12  O1  UNL     1      28.481  62.987  10.958  1.00  0.00    -0.399 OA
ATOM     13  H1  UNL     1      28.088  62.888  10.099  1.00  0.00     0.209 HD
ENDBRANCH  11  12
ENDBRANCH   1  11
BRANCH   2  14
HETATM   14  O2  UNL     1      26.646  60.768  10.298  1.00  0.00    -0.391 OA
ATOM     15  H2  UNL     1      27.594  60.792  10.247  1.00  0.00     0.210 HD
ENDBRANCH   2  14
BRANCH   3  16
HETATM   16  O3  UNL     1      24.245  60.758   9.064  1.00  0.00    -0.390 OA
ATOM     17  H3  UNL     1      23.310  60.669   8.922  1.00  0.00     0.210 HD
ENDBRANCH   3  16
BRANCH   4  18
HETATM   18  O4  UNL     1      24.519  63.179   7.855  1.00  0.00    -0.385 OA
ATOM     19  H4  UNL     1      24.036  62.506   7.390  1.00  0.00     0.210 HD
ENDBRANCH   4  18
TORSDOF 5
ENDMDL
