MODEL 1
REMARK VINA RESULT: -7.043468444      0.000      0.000
REMARK  5 active torsions:
REMARK  status: ('A' for Active; 'I' for Inactive)
REMARK    1  A    between atoms: O1_1  and  C1_3 
REMARK    2  A    between atoms: C1_3  and  C2_4 
REMARK    3  A    between atoms: C3_5  and  O2_6 
REMARK    4  A    between atoms: C4_8  and  O3_9 
REMARK    5  A    between atoms: C5_11  and  O4_12 
ROOT
HETATM    1  C2  UNL     1      29.873  66.118   8.178  1.00  0.00     0.145 C 
HETATM    2  C3  UNL     1      31.237  65.564   7.843  1.00  0.00     0.175 C 
HETATM    3  C4  UNL     1      32.176  66.233   8.858  1.00  0.00     0.185 C 
HETATM    4  C5  UNL     1      31.893  65.567  10.179  1.00  0.00     0.217 C 
HETATM    5  C6  UNL     1      30.451  65.341  10.356  1.00  0.00     0.115 A 
HETATM    6  N1  UNL     1      29.854  64.842  11.482  1.00  0.00    -0.352 N 
ATOM      7  H1  UNL     1      30.344  64.568  12.332  1.00  0.00     0.166 HD
HETATM    8  C7  UNL     1      28.534  64.767  11.301  1.00  0.00     0.106 A 
HETATM    9  C8  UNL     1      28.311  65.235  10.024  1.00  0.00     0.110 A 
HETATM   10  N2  UNL     1      29.492  65.584   9.454  1.00  0.00    -0.334 N 
ENDROOT
BRANCH   1  11
HETATM   11  C1  UNL     1      28.874  65.926   7.092  1.00  0.00     0.192 C 
BRANCH  11  12
HETATM   12  O1  UNL     1      28.996  64.640   6.590  1.00  0.00    -0.399 OA
ATOM     13  H1  UNL     1      29.212  64.689   5.666  1.00  0.00     0.209 HD
ENDBRANCH  11  12
ENDBRANCH   1  11
BRANCH   2  14
HETATM   14  O2  UNL     1      31.621  65.815   6.550  1.00  0.00    -0.391 OA
ATOM     15  H2  UNL     1      32.319  66.455   6.483  1.00  0.00     0.210 HD
ENDBRANCH   2  14
BRANCH   3  16
HETATM   16  O3  UNL     1      33.487  66.168   8.468  1.00  0.00    -0.390 OA
ATOM     17  H3  UNL     1      33.772  66.966   8.037  1.00  0.00     0.210 HD
ENDBRANCH   3  16
BRANCH   4  18
HETATM   18  O4  UNL     1      32.509  64.299  10.185  1.00  0.00    -0.385 OA
ATOM     19  H4  UNL     1      32.444  63.934  11.060  1.00  0.00     0.210 HD
ENDBRANCH   4  18
TORSDOF 5
ENDMDL
