MODEL 6
REMARK VINA RESULT: -5.665508288      3.604      5.010
REMARK  5 active torsions:
REMARK  status: ('A' for Active; 'I' for Inactive)
REMARK    1  A    between atoms: O1_1  and  C1_3 
REMARK    2  A    between atoms: C1_3  and  C2_4 
REMARK    3  A    between atoms: C3_5  and  O2_6 
REMARK    4  A    between atoms: C4_8  and  O3_9 
REMARK    5  A    between atoms: C5_11  and  O4_12 
ROOT
HETATM    1  C2  UNL     1      27.442  65.146  10.538  1.00  0.00     0.145 C 
HETATM    2  C3  UNL     1      28.675  64.465  11.119  1.00  0.00     0.175 C 
HETATM    3  C4  UNL     1      28.218  64.057  12.525  1.00  0.00     0.185 C 
HETATM    4  C5  UNL     1      27.339  62.855  12.335  1.00  0.00     0.217 C 
HETATM    5  C6  UNL     1      26.413  63.096  11.206  1.00  0.00     0.115 A 
HETATM    6  N1  UNL     1      25.376  62.290  10.835  1.00  0.00    -0.352 N 
ATOM      7  H1  UNL     1      25.120  61.419  11.300  1.00  0.00     0.166 HD
HETATM    8  C7  UNL     1      24.744  62.805   9.771  1.00  0.00     0.106 A 
HETATM    9  C8  UNL     1      25.420  63.970   9.482  1.00  0.00     0.110 A 
HETATM   10  N2  UNL     1      26.443  64.138  10.370  1.00  0.00    -0.334 N 
ENDROOT
BRANCH   1  11
HETATM   11  C1  UNL     1      27.752  65.967   9.342  1.00  0.00     0.192 C 
BRANCH  11  12
HETATM   12  O1  UNL     1      28.657  65.272   8.544  1.00  0.00    -0.399 OA
ATOM     13  H1  UNL     1      28.172  64.736   7.927  1.00  0.00     0.209 HD
ENDBRANCH  11  12
ENDBRANCH   1  11
BRANCH   2  14
HETATM   14  O2  UNL     1      29.768  65.297  11.149  1.00  0.00    -0.391 OA
ATOM     15  H2  UNL     1      29.648  66.072  10.612  1.00  0.00     0.210 HD
ENDBRANCH   2  14
BRANCH   3  16
HETATM   16  O3  UNL     1      29.307  63.808  13.348  1.00  0.00    -0.390 OA
ATOM     17  H3  UNL     1      29.052  63.822  14.264  1.00  0.00     0.210 HD
ENDBRANCH   3  16
BRANCH   4  18
HETATM   18  O4  UNL     1      26.628  62.596  13.506  1.00  0.00    -0.385 OA
ATOM     19  H4  UNL     1      25.852  62.084  13.307  1.00  0.00     0.210 HD
ENDBRANCH   4  18
TORSDOF 5
ENDMDL
