MODEL 7
REMARK VINA RESULT: -5.511097650      2.365      4.673
REMARK  5 active torsions:
REMARK  status: ('A' for Active; 'I' for Inactive)
REMARK    1  A    between atoms: O1_1  and  C1_3 
REMARK    2  A    between atoms: C1_3  and  C2_4 
REMARK    3  A    between atoms: C3_5  and  O2_6 
REMARK    4  A    between atoms: C4_8  and  O3_9 
REMARK    5  A    between atoms: C5_11  and  O4_12 
ROOT
HETATM    1  C2  UNL     1      29.951  66.094   9.831  1.00  0.00     0.145 C 
HETATM    2  C3  UNL     1      29.100  65.108  10.619  1.00  0.00     0.175 C 
HETATM    3  C4  UNL     1      27.761  65.841  10.764  1.00  0.00     0.185 C 
HETATM    4  C5  UNL     1      27.089  65.732   9.425  1.00  0.00     0.217 C 
HETATM    5  C6  UNL     1      28.073  66.017   8.357  1.00  0.00     0.115 A 
HETATM    6  N1  UNL     1      27.794  66.153   7.028  1.00  0.00    -0.352 N 
ATOM      7  H1  UNL     1      26.864  66.073   6.616  1.00  0.00     0.166 HD
HETATM    8  C7  UNL     1      28.917  66.408   6.341  1.00  0.00     0.106 A 
HETATM    9  C8  UNL     1      29.919  66.427   7.286  1.00  0.00     0.110 A 
HETATM   10  N2  UNL     1      29.389  66.186   8.521  1.00  0.00    -0.334 N 
ENDROOT
BRANCH   1  11
HETATM   11  C1  UNL     1      31.400  65.783   9.901  1.00  0.00     0.192 C 
BRANCH  11  12
HETATM   12  O1  UNL     1      31.584  64.437   9.599  1.00  0.00    -0.399 OA
ATOM     13  H1  UNL     1      32.333  64.352   9.020  1.00  0.00     0.209 HD
ENDBRANCH  11  12
ENDBRANCH   1  11
BRANCH   2  14
HETATM   14  O2  UNL     1      29.654  64.793  11.836  1.00  0.00    -0.391 OA
ATOM     15  H2  UNL     1      29.081  64.251  12.366  1.00  0.00     0.210 HD
ENDBRANCH   2  14
BRANCH   3  16
HETATM   16  O3  UNL     1      27.006  65.298  11.794  1.00  0.00    -0.390 OA
ATOM     17  H3  UNL     1      27.233  65.694  12.628  1.00  0.00     0.210 HD
ENDBRANCH   3  16
BRANCH   4  18
HETATM   18  O4  UNL     1      26.018  66.621   9.357  1.00  0.00    -0.385 OA
ATOM     19  H4  UNL     1      26.207  67.308   8.727  1.00  0.00     0.210 HD
ENDBRANCH   4  18
TORSDOF 5
ENDMDL
