MODEL 1
REMARK VINA RESULT: -6.399123678      0.000      0.000
REMARK  5 active torsions:
REMARK  status: ('A' for Active; 'I' for Inactive)
REMARK    1  A    between atoms: O1_1  and  C1_3 
REMARK    2  A    between atoms: C1_3  and  C2_4 
REMARK    3  A    between atoms: C3_5  and  O2_6 
REMARK    4  A    between atoms: C4_8  and  O3_9 
REMARK    5  A    between atoms: C5_11  and  O4_12 
ROOT
HETATM    1  C2  UNL     1      29.678  66.606   7.832  1.00  0.00     0.145 C 
HETATM    2  C3  UNL     1      30.935  65.930   7.301  1.00  0.00     0.175 C 
HETATM    3  C4  UNL     1      32.011  66.353   8.310  1.00  0.00     0.185 C 
HETATM    4  C5  UNL     1      31.776  65.514   9.533  1.00  0.00     0.217 C 
HETATM    5  C6  UNL     1      30.327  65.483   9.837  1.00  0.00     0.115 A 
HETATM    6  N1  UNL     1      29.756  64.942  10.952  1.00  0.00    -0.352 N 
ATOM      7  H1  UNL     1      30.269  64.494  11.711  1.00  0.00     0.166 HD
HETATM    8  C7  UNL     1      28.423  65.085  10.908  1.00  0.00     0.106 A 
HETATM    9  C8  UNL     1      28.173  65.737   9.721  1.00  0.00     0.110 A 
HETATM   10  N2  UNL     1      29.350  65.977   9.072  1.00  0.00    -0.334 N 
ENDROOT
BRANCH   1  11
HETATM   11  C1  UNL     1      28.593  66.669   6.822  1.00  0.00     0.192 C 
BRANCH  11  12
HETATM   12  O1  UNL     1      28.479  65.424   6.209  1.00  0.00    -0.399 OA
ATOM     13  H1  UNL     1      28.493  64.750   6.879  1.00  0.00     0.209 HD
ENDBRANCH  11  12
ENDBRANCH   1  11
BRANCH   2  14
HETATM   14  O2  UNL     1      31.241  66.322   6.021  1.00  0.00    -0.391 OA
ATOM     15  H2  UNL     1      31.960  66.943   5.994  1.00  0.00     0.210 HD
ENDBRANCH   2  14
BRANCH   3  16
HETATM   16  O3  UNL     1      33.282  66.192   7.778  1.00  0.00    -0.390 OA
ATOM     17  H3  UNL     1      33.949  66.391   8.425  1.00  0.00     0.210 HD
ENDBRANCH   3  16
BRANCH   4  18
HETATM   18  O4  UNL     1      32.492  66.033  10.610  1.00  0.00    -0.385 OA
ATOM     19  H4  UNL     1      32.666  65.347  11.244  1.00  0.00     0.210 HD
ENDBRANCH   4  18
TORSDOF 5
ENDMDL
