MODEL 9
REMARK VINA RESULT: -5.478771579      2.776      4.046
REMARK  5 active torsions:
REMARK  status: ('A' for Active; 'I' for Inactive)
REMARK    1  A    between atoms: O1_1  and  C1_3 
REMARK    2  A    between atoms: C1_3  and  C2_4 
REMARK    3  A    between atoms: C3_5  and  O2_6 
REMARK    4  A    between atoms: C4_8  and  O3_9 
REMARK    5  A    between atoms: C5_11  and  O4_12 
ROOT
HETATM    1  C2  UNL     1      28.860  65.928   9.194  1.00  0.00     0.145 C 
HETATM    2  C3  UNL     1      29.425  64.872  10.135  1.00  0.00     0.175 C 
HETATM    3  C4  UNL     1      28.659  65.121  11.441  1.00  0.00     0.185 C 
HETATM    4  C5  UNL     1      27.288  64.550  11.224  1.00  0.00     0.217 C 
HETATM    5  C6  UNL     1      26.792  64.952   9.888  1.00  0.00     0.115 A 
HETATM    6  N1  UNL     1      25.534  64.742   9.404  1.00  0.00    -0.352 N 
ATOM      7  H1  UNL     1      24.783  64.279   9.916  1.00  0.00     0.166 HD
HETATM    8  C7  UNL     1      25.425  65.232   8.161  1.00  0.00     0.106 A 
HETATM    9  C8  UNL     1      26.664  65.761   7.875  1.00  0.00     0.110 A 
HETATM   10  N2  UNL     1      27.496  65.583   8.943  1.00  0.00    -0.334 N 
ENDROOT
BRANCH   1  11
HETATM   11  C1  UNL     1      29.711  66.144   7.999  1.00  0.00     0.192 C 
BRANCH  11  12
HETATM   12  O1  UNL     1      30.143  64.907   7.527  1.00  0.00    -0.399 OA
ATOM     13  H1  UNL     1      30.024  64.259   8.211  1.00  0.00     0.209 HD
ENDBRANCH  11  12
ENDBRANCH   1  11
BRANCH   2  14
HETATM   14  O2  UNL     1      30.784  64.990  10.300  1.00  0.00    -0.391 OA
ATOM     15  H2  UNL     1      31.044  64.936  11.213  1.00  0.00     0.210 HD
ENDBRANCH   2  14
BRANCH   3  16
HETATM   16  O3  UNL     1      29.318  64.553  12.520  1.00  0.00    -0.390 OA
ATOM     17  H3  UNL     1      30.126  64.134  12.244  1.00  0.00     0.210 HD
ENDBRANCH   3  16
BRANCH   4  18
HETATM   18  O4  UNL     1      26.423  64.997  12.222  1.00  0.00    -0.385 OA
ATOM     19  H4  UNL     1      26.385  65.946  12.217  1.00  0.00     0.210 HD
ENDBRANCH   4  18
TORSDOF 5
ENDMDL
