MODEL 8
REMARK VINA RESULT: -7.053825117      3.259      6.499
REMARK  13 active torsions:
REMARK  status: ('A' for Active; 'I' for Inactive)
REMARK    1  A    between atoms: C2_2  and  C3_3 
REMARK    2  A    between atoms: C3_3  and  C4_4 
REMARK    3  A    between atoms: C4_4  and  C5_5 
REMARK    4  A    between atoms: C5_5  and  C6_6 
REMARK    5  A    between atoms: C6_6  and  C7_7 
REMARK    6  A    between atoms: C7_7  and  C8_8 
REMARK    7  A    between atoms: C8_8  and  N1_9 
REMARK    8  A    between atoms: N1_9  and  C9_11 
REMARK    9  A    between atoms: C11_13  and  C12_14 
REMARK   10  A    between atoms: C12_14  and  O1_15 
REMARK   11  A    between atoms: C13_17  and  O2_18 
REMARK   12  A    between atoms: C14_20  and  O3_21 
REMARK   13  A    between atoms: C15_23  and  O4_24 
ROOT
HETATM    1  C9  UNL     1      27.691  63.457  11.375  1.00  0.00     0.131 C 
HETATM    2  C10 UNL     1      27.837  62.132  10.669  1.00  0.00     0.008 C 
HETATM    3  C11 UNL     1      26.915  61.632   9.872  1.00  0.00    -0.027 C 
HETATM    4  C13 UNL     1      25.631  62.309   9.577  1.00  0.00     0.180 C 
HETATM    5  C14 UNL     1      25.366  63.195  10.783  1.00  0.00     0.182 C 
HETATM    6  C15 UNL     1      26.554  64.171  10.772  1.00  0.00     0.175 C 
ENDROOT
BRANCH   1   7
HETATM    7  N1  UNL     1      28.957  64.103  11.312  1.00  0.00    -0.411 N 
ATOM      8  H1  UNL     1      29.597  64.109  12.106  1.00  0.00     0.153 HD
BRANCH   7   9
HETATM    9  C8  UNL     1      29.283  64.739  10.083  1.00  0.00     0.114 C 
BRANCH   9  10
HETATM   10  C7  UNL     1      30.677  65.207   9.935  1.00  0.00     0.019 C 
BRANCH  10  11
HETATM   11  C6  UNL     1      30.841  66.640   9.554  1.00  0.00     0.002 C 
BRANCH  11  12
HETATM   12  C5  UNL     1      31.890  66.776   8.409  1.00  0.00     0.000 C 
BRANCH  12  13
HETATM   13  C4  UNL     1      31.172  67.281   7.210  1.00  0.00     0.000 C 
BRANCH  13  14
HETATM   14  C3  UNL     1      30.068  66.431   6.714  1.00  0.00    -0.000 C 
BRANCH  14  15
HETATM   15  C2  UNL     1      28.749  67.075   6.581  1.00  0.00    -0.005 C 
HETATM   16  C1  UNL     1      27.670  66.618   7.495  1.00  0.00     0.005 C 
ENDBRANCH  14  15
ENDBRANCH  13  14
ENDBRANCH  12  13
ENDBRANCH  11  12
ENDBRANCH  10  11
ENDBRANCH   9  10
ENDBRANCH   7   9
ENDBRANCH   1   7
BRANCH   6  17
HETATM   17  O4  UNL     1      26.132  65.305  11.410  1.00  0.00    -0.391 OA
ATOM     18  H4  UNL     1      25.266  65.278  11.799  1.00  0.00     0.210 HD
ENDBRANCH   6  17
BRANCH   3  19
HETATM   19  C12 UNL     1      27.183  60.318   9.238  1.00  0.00     0.201 C 
BRANCH  19  20
HETATM   20  O1  UNL     1      28.290  60.434   8.368  1.00  0.00    -0.397 OA
ATOM     21  H1  UNL     1      28.880  59.703   8.508  1.00  0.00     0.209 HD
ENDBRANCH  19  20
ENDBRANCH   3  19
BRANCH   5  22
HETATM   22  O3  UNL     1      24.167  63.855  10.704  1.00  0.00    -0.390 OA
ATOM     23  H3  UNL     1      24.085  64.377   9.914  1.00  0.00     0.210 HD
ENDBRANCH   5  22
BRANCH   4  24
HETATM   24  O2  UNL     1      24.575  61.428   9.404  1.00  0.00    -0.388 OA
ATOM     25  H2  UNL     1      23.770  61.856   9.140  1.00  0.00     0.210 HD
ENDBRANCH   4  24
TORSDOF 13
ENDMDL
