MODEL 12
REMARK VINA RESULT: -6.933229652      1.153      2.747
REMARK  13 active torsions:
REMARK  status: ('A' for Active; 'I' for Inactive)
REMARK    1  A    between atoms: C2_2  and  C3_3 
REMARK    2  A    between atoms: C3_3  and  C4_4 
REMARK    3  A    between atoms: C4_4  and  C5_5 
REMARK    4  A    between atoms: C5_5  and  C6_6 
REMARK    5  A    between atoms: C6_6  and  C7_7 
REMARK    6  A    between atoms: C7_7  and  C8_8 
REMARK    7  A    between atoms: C8_8  and  N1_9 
REMARK    8  A    between atoms: N1_9  and  C9_11 
REMARK    9  A    between atoms: C11_13  and  C12_14 
REMARK   10  A    between atoms: C12_14  and  O1_15 
REMARK   11  A    between atoms: C13_17  and  O2_18 
REMARK   12  A    between atoms: C14_20  and  O3_21 
REMARK   13  A    between atoms: C15_23  and  O4_24 
ROOT
HETATM    1  C9  UNL     1      29.556  66.111  10.228  1.00  0.00     0.131 C 
HETATM    2  C10 UNL     1      30.957  66.257   9.689  1.00  0.00     0.008 C 
HETATM    3  C11 UNL     1      31.233  66.844   8.542  1.00  0.00    -0.027 C 
HETATM    4  C13 UNL     1      30.203  67.425   7.650  1.00  0.00     0.180 C 
HETATM    5  C14 UNL     1      28.930  66.655   7.962  1.00  0.00     0.182 C 
HETATM    6  C15 UNL     1      28.672  66.985   9.442  1.00  0.00     0.175 C 
ENDROOT
BRANCH   1   7
HETATM    7  N1  UNL     1      29.621  66.360  11.627  1.00  0.00    -0.411 N 
ATOM      8  H1  UNL     1      30.344  66.954  12.033  1.00  0.00     0.153 HD
BRANCH   7   9
HETATM    9  C8  UNL     1      28.625  65.738  12.429  1.00  0.00     0.114 C 
BRANCH   9  10
HETATM   10  C7  UNL     1      28.951  64.397  12.958  1.00  0.00     0.019 C 
BRANCH  10  11
HETATM   11  C6  UNL     1      28.058  63.290  12.507  1.00  0.00     0.002 C 
BRANCH  11  12
HETATM   12  C5  UNL     1      28.150  63.122  10.960  1.00  0.00     0.000 C 
BRANCH  12  13
HETATM   13  C4  UNL     1      26.760  63.061  10.439  1.00  0.00     0.000 C 
BRANCH  13  14
HETATM   14  C3  UNL     1      26.375  61.798   9.774  1.00  0.00    -0.000 C 
BRANCH  14  15
HETATM   15  C2  UNL     1      27.441  60.795   9.598  1.00  0.00    -0.005 C 
HETATM   16  C1  UNL     1      27.187  59.691   8.635  1.00  0.00     0.005 C 
ENDBRANCH  14  15
ENDBRANCH  13  14
ENDBRANCH  12  13
ENDBRANCH  11  12
ENDBRANCH  10  11
ENDBRANCH   9  10
ENDBRANCH   7   9
ENDBRANCH   1   7
BRANCH   6  17
HETATM   17  O4  UNL     1      27.327  66.841   9.643  1.00  0.00    -0.391 OA
ATOM     18  H4  UNL     1      26.859  67.604   9.961  1.00  0.00     0.210 HD
ENDBRANCH   6  17
BRANCH   3  19
HETATM   19  C12 UNL     1      32.654  66.922   8.126  1.00  0.00     0.201 C 
BRANCH  19  20
HETATM   20  O1  UNL     1      32.858  66.104   6.993  1.00  0.00    -0.397 OA
ATOM     21  H1  UNL     1      32.034  65.702   6.741  1.00  0.00     0.209 HD
ENDBRANCH  19  20
ENDBRANCH   3  19
BRANCH   5  22
HETATM   22  O3  UNL     1      27.876  67.027   7.168  1.00  0.00    -0.390 OA
ATOM     23  H3  UNL     1      27.765  67.970   7.121  1.00  0.00     0.210 HD
ENDBRANCH   5  22
BRANCH   4  24
HETATM   24  O2  UNL     1      30.508  67.297   6.305  1.00  0.00    -0.388 OA
ATOM     25  H2  UNL     1      29.918  67.778   5.738  1.00  0.00     0.210 HD
ENDBRANCH   4  24
TORSDOF 13
ENDMDL
