MODEL 7
REMARK VINA RESULT: -7.188508947      2.072      3.706
REMARK  13 active torsions:
REMARK  status: ('A' for Active; 'I' for Inactive)
REMARK    1  A    between atoms: C2_2  and  C3_3 
REMARK    2  A    between atoms: C3_3  and  C4_4 
REMARK    3  A    between atoms: C4_4  and  C5_5 
REMARK    4  A    between atoms: C5_5  and  C6_6 
REMARK    5  A    between atoms: C6_6  and  C7_7 
REMARK    6  A    between atoms: C7_7  and  C8_8 
REMARK    7  A    between atoms: C8_8  and  N1_9 
REMARK    8  A    between atoms: N1_9  and  C9_11 
REMARK    9  A    between atoms: C11_13  and  C12_14 
REMARK   10  A    between atoms: C12_14  and  O1_15 
REMARK   11  A    between atoms: C13_17  and  O2_18 
REMARK   12  A    between atoms: C14_20  and  O3_21 
REMARK   13  A    between atoms: C15_23  and  O4_24 
ROOT
HETATM    1  C9  UNL     1      28.525  66.590   8.904  1.00  0.00     0.131 C 
HETATM    2  C10 UNL     1      29.793  67.059   8.233  1.00  0.00     0.008 C 
HETATM    3  C11 UNL     1      30.987  66.594   8.540  1.00  0.00    -0.027 C 
HETATM    4  C13 UNL     1      31.225  65.563   9.576  1.00  0.00     0.180 C 
HETATM    5  C14 UNL     1      30.057  65.696  10.541  1.00  0.00     0.182 C 
HETATM    6  C15 UNL     1      28.837  65.369   9.664  1.00  0.00     0.175 C 
ENDROOT
BRANCH   1   7
HETATM    7  N1  UNL     1      27.536  66.476   7.889  1.00  0.00    -0.411 N 
ATOM      8  H1  UNL     1      27.785  66.409   6.902  1.00  0.00     0.153 HD
BRANCH   7   9
HETATM    9  C8  UNL     1      26.182  66.461   8.323  1.00  0.00     0.114 C 
BRANCH   9  10
HETATM   10  C7  UNL     1      25.389  65.267   7.960  1.00  0.00     0.019 C 
BRANCH  10  11
HETATM   11  C6  UNL     1      24.634  64.629   9.077  1.00  0.00     0.002 C 
BRANCH  11  12
HETATM   12  C5  UNL     1      24.584  63.084   8.879  1.00  0.00     0.000 C 
BRANCH  12  13
HETATM   13  C4  UNL     1      25.217  62.464  10.072  1.00  0.00     0.000 C 
BRANCH  13  14
HETATM   14  C3  UNL     1      26.494  61.759   9.831  1.00  0.00    -0.000 C 
BRANCH  14  15
HETATM   15  C2  UNL     1      26.426  60.531   9.019  1.00  0.00    -0.005 C 
HETATM   16  C1  UNL     1      27.700  59.810   8.764  1.00  0.00     0.005 C 
ENDBRANCH  14  15
ENDBRANCH  13  14
ENDBRANCH  12  13
ENDBRANCH  11  12
ENDBRANCH  10  11
ENDBRANCH   9  10
ENDBRANCH   7   9
ENDBRANCH   1   7
BRANCH   6  17
HETATM   17  O4  UNL     1      27.865  64.905  10.507  1.00  0.00    -0.391 OA
ATOM     18  H4  UNL     1      27.017  64.723  10.121  1.00  0.00     0.210 HD
ENDBRANCH   6  17
BRANCH   3  19
HETATM   19  C12 UNL     1      32.154  67.139   7.804  1.00  0.00     0.201 C 
BRANCH  19  20
HETATM   20  O1  UNL     1      33.145  66.139   7.688  1.00  0.00    -0.397 OA
ATOM     21  H1  UNL     1      33.296  65.948   6.770  1.00  0.00     0.209 HD
ENDBRANCH  19  20
ENDBRANCH   3  19
BRANCH   5  22
HETATM   22  O3  UNL     1      30.154  64.846  11.612  1.00  0.00    -0.390 OA
ATOM     23  H3  UNL     1      29.995  65.279  12.442  1.00  0.00     0.210 HD
ENDBRANCH   5  22
BRANCH   4  24
HETATM   24  O2  UNL     1      32.417  65.739  10.260  1.00  0.00    -0.388 OA
ATOM     25  H2  UNL     1      32.914  64.936  10.362  1.00  0.00     0.210 HD
ENDBRANCH   4  24
TORSDOF 13
ENDMDL
