MODEL 8
REMARK VINA RESULT: -5.432336621      2.551      4.604
REMARK  6 active torsions:
REMARK  status: ('A' for Active; 'I' for Inactive)
REMARK    1  A    between atoms: O1_1  and  C1_3 
REMARK    2  A    between atoms: C1_3  and  C2_4 
REMARK    3  A    between atoms: N2_8  and  O2_10 
REMARK    4  A    between atoms: C4_12  and  O3_13 
REMARK    5  A    between atoms: C5_15  and  O4_16 
REMARK    6  A    between atoms: C6_18  and  O5_19 
ROOT
HETATM    1  C2  UNL     1      28.103  64.470  11.913  1.00  0.00     0.137 C 
HETATM    2  N1  UNL     1      29.419  64.617  11.320  1.00  0.00    -0.367 N 
ATOM      3  H1  UNL     1      30.265  64.546  11.885  1.00  0.00     0.161 HD
HETATM    4  C3  UNL     1      29.481  64.862   9.923  1.00  0.00     0.129 C 
HETATM    5  N2  UNL     1      30.495  64.489   9.199  1.00  0.00    -0.255 N 
ATOM      6  H2  UNL     1      31.273  64.004   9.647  1.00  0.00     0.195 HD
HETATM    7  C4  UNL     1      28.370  65.565   9.242  1.00  0.00     0.218 C 
HETATM    8  C5  UNL     1      27.031  65.324   9.904  1.00  0.00     0.185 C 
HETATM    9  C6  UNL     1      27.166  64.084  10.764  1.00  0.00     0.174 C 
ENDROOT
BRANCH   5  10
HETATM   10  O2  UNL     1      30.547  64.729   7.856  1.00  0.00    -0.288 OA
ATOM     11  H2  UNL     1      31.173  64.289   7.293  1.00  0.00     0.244 HD
ENDBRANCH   5  10
BRANCH   7  12
HETATM   12  O3  UNL     1      28.584  66.945   9.261  1.00  0.00    -0.385 OA
ATOM     13  H3  UNL     1      27.764  67.404   9.405  1.00  0.00     0.210 HD
ENDBRANCH   7  12
BRANCH   1  14
HETATM   14  C1  UNL     1      28.091  63.406  12.990  1.00  0.00     0.191 C 
BRANCH  14  15
HETATM   15  O1  UNL     1      29.272  63.378  13.693  1.00  0.00    -0.399 OA
ATOM     16  H1  UNL     1      29.123  63.318  14.630  1.00  0.00     0.209 HD
ENDBRANCH  14  15
ENDBRANCH   1  14
BRANCH   8  17
HETATM   17  O4  UNL     1      26.024  65.143   8.948  1.00  0.00    -0.390 OA
ATOM     18  H4  UNL     1      25.670  65.978   8.666  1.00  0.00     0.210 HD
ENDBRANCH   8  17
BRANCH   9  19
HETATM   19  O5  UNL     1      25.932  63.684  11.212  1.00  0.00    -0.391 OA
ATOM     20  H5  UNL     1      25.721  62.798  10.944  1.00  0.00     0.210 HD
ENDBRANCH   9  19
TORSDOF 6
ENDMDL
