MODEL 3
REMARK VINA RESULT: -5.797211713      5.894      6.980
REMARK  6 active torsions:
REMARK  status: ('A' for Active; 'I' for Inactive)
REMARK    1  A    between atoms: O1_1  and  C1_3 
REMARK    2  A    between atoms: C1_3  and  C2_4 
REMARK    3  A    between atoms: N2_8  and  O2_10 
REMARK    4  A    between atoms: C4_12  and  O3_13 
REMARK    5  A    between atoms: C5_15  and  O4_16 
REMARK    6  A    between atoms: C6_18  and  O5_19 
ROOT
HETATM    1  C2  UNL     1      25.510  63.466  11.618  1.00  0.00     0.137 C 
HETATM    2  N1  UNL     1      25.722  62.283  10.806  1.00  0.00    -0.367 N 
ATOM      3  H1  UNL     1      26.393  61.565  11.080  1.00  0.00     0.161 HD
HETATM    4  C3  UNL     1      24.960  62.164   9.615  1.00  0.00     0.129 C 
HETATM    5  N2  UNL     1      24.639  61.010   9.110  1.00  0.00    -0.255 N 
ATOM      6  H2  UNL     1      24.945  60.159   9.583  1.00  0.00     0.195 HD
HETATM    7  C4  UNL     1      24.501  63.379   8.902  1.00  0.00     0.218 C 
HETATM    8  C5  UNL     1      24.268  64.550   9.832  1.00  0.00     0.185 C 
HETATM    9  C6  UNL     1      24.126  63.995  11.235  1.00  0.00     0.174 C 
ENDROOT
BRANCH   5  10
HETATM   10  O2  UNL     1      23.905  60.904   7.964  1.00  0.00    -0.288 OA
ATOM     11  H2  UNL     1      24.121  60.273   7.287  1.00  0.00     0.244 HD
ENDBRANCH   5  10
BRANCH   7  12
HETATM   12  O3  UNL     1      25.460  63.789   7.974  1.00  0.00    -0.385 OA
ATOM     13  H3  UNL     1      26.223  64.139   8.420  1.00  0.00     0.210 HD
ENDBRANCH   7  12
BRANCH   1  14
HETATM   14  C1  UNL     1      25.567  63.146  13.098  1.00  0.00     0.191 C 
BRANCH  14  15
HETATM   15  O1  UNL     1      24.513  62.355  13.489  1.00  0.00    -0.399 OA
ATOM     16  H1  UNL     1      24.808  61.571  13.936  1.00  0.00     0.209 HD
ENDBRANCH  14  15
ENDBRANCH   1  14
BRANCH   8  17
HETATM   17  O4  UNL     1      23.113  65.254   9.469  1.00  0.00    -0.390 OA
ATOM     18  H4  UNL     1      22.357  64.681   9.452  1.00  0.00     0.210 HD
ENDBRANCH   8  17
BRANCH   9  19
HETATM   19  O5  UNL     1      23.690  64.979  12.087  1.00  0.00    -0.391 OA
ATOM     20  H5  UNL     1      22.887  65.386  11.786  1.00  0.00     0.210 HD
ENDBRANCH   9  19
TORSDOF 6
ENDMDL
