MODEL 10
REMARK VINA RESULT: -5.335720355      4.354      6.182
REMARK  6 active torsions:
REMARK  status: ('A' for Active; 'I' for Inactive)
REMARK    1  A    between atoms: O1_1  and  C1_3 
REMARK    2  A    between atoms: C1_3  and  C2_4 
REMARK    3  A    between atoms: N2_8  and  O2_10 
REMARK    4  A    between atoms: C4_12  and  O3_13 
REMARK    5  A    between atoms: C5_15  and  O4_16 
REMARK    6  A    between atoms: C6_18  and  O5_19 
ROOT
HETATM    1  C2  UNL     1      24.295  64.959  10.023  1.00  0.00     0.137 C 
HETATM    2  N1  UNL     1      23.873  63.572  10.025  1.00  0.00    -0.367 N 
ATOM      3  H1  UNL     1      22.892  63.316  10.139  1.00  0.00     0.161 HD
HETATM    4  C3  UNL     1      24.878  62.583   9.861  1.00  0.00     0.129 C 
HETATM    5  N2  UNL     1      24.632  61.427   9.320  1.00  0.00    -0.255 N 
ATOM      6  H2  UNL     1      23.684  61.220   9.002  1.00  0.00     0.195 HD
HETATM    7  C4  UNL     1      26.263  62.850  10.313  1.00  0.00     0.218 C 
HETATM    8  C5  UNL     1      26.630  64.317  10.239  1.00  0.00     0.185 C 
HETATM    9  C6  UNL     1      25.646  64.986   9.302  1.00  0.00     0.174 C 
ENDROOT
BRANCH   5  10
HETATM   10  O2  UNL     1      25.605  60.482   9.165  1.00  0.00    -0.288 OA
ATOM     11  H2  UNL     1      25.504  59.752   8.565  1.00  0.00     0.244 HD
ENDBRANCH   5  10
BRANCH   7  12
HETATM   12  O3  UNL     1      26.423  62.463  11.645  1.00  0.00    -0.385 OA
ATOM     13  H3  UNL     1      26.279  61.528  11.737  1.00  0.00     0.210 HD
ENDBRANCH   7  12
BRANCH   1  14
HETATM   14  C1  UNL     1      23.295  65.847   9.313  1.00  0.00     0.191 C 
BRANCH  14  15
HETATM   15  O1  UNL     1      22.535  65.140   8.411  1.00  0.00    -0.399 OA
ATOM     16  H1  UNL     1      22.297  64.284   8.747  1.00  0.00     0.209 HD
ENDBRANCH  14  15
ENDBRANCH   1  14
BRANCH   8  17
HETATM   17  O4  UNL     1      27.938  64.483   9.769  1.00  0.00    -0.390 OA
ATOM     18  H4  UNL     1      28.311  65.298  10.083  1.00  0.00     0.210 HD
ENDBRANCH   8  17
BRANCH   9  19
HETATM   19  O5  UNL     1      26.059  66.263   9.019  1.00  0.00    -0.391 OA
ATOM     20  H5  UNL     1      26.932  66.441   9.349  1.00  0.00     0.210 HD
ENDBRANCH   9  19
TORSDOF 6
ENDMDL
