MODEL 1
REMARK VINA RESULT: -7.504725762      0.000      0.000
REMARK  8 active torsions:
REMARK  status: ('A' for Active; 'I' for Inactive)
REMARK       I    between atoms: C1_2  and  N1_3 
REMARK    1  A    between atoms: C1_2  and  O2_12 
REMARK    2  A    between atoms: N1_3  and  C2_5 
REMARK    3  A    between atoms: O2_12  and  N2_13 
REMARK    4  A    between atoms: C9_18  and  C10_19 
REMARK    5  A    between atoms: C10_19  and  O3_20 
REMARK    6  A    between atoms: C11_22  and  O4_23 
REMARK    7  A    between atoms: C12_25  and  O5_26 
REMARK    8  A    between atoms: C13_28  and  O6_29 
ROOT
HETATM    1  N2  UNL     1      28.269  63.524  14.793  1.00  0.00    -0.241 N 
ATOM      2  H2  UNL     1      29.284  63.436  14.843  1.00  0.00     0.196 HD
HETATM    3  C8  UNL     1      27.596  64.006  15.770  1.00  0.00     0.130 C 
HETATM    4  N3  UNL     1      28.204  64.450  16.988  1.00  0.00    -0.367 N 
ATOM      5  H3  UNL     1      29.203  64.290  17.117  1.00  0.00     0.161 HD
HETATM    6  C9  UNL     1      27.473  65.112  18.039  1.00  0.00     0.137 C 
HETATM    7  C11 UNL     1      26.021  64.786  18.075  1.00  0.00     0.174 C 
HETATM    8  C12 UNL     1      25.614  63.708  17.101  1.00  0.00     0.185 C 
HETATM    9  C13 UNL     1      26.095  64.149  15.726  1.00  0.00     0.218 C 
ENDROOT
BRANCH   1  10
HETATM   10  O2  UNL     1      27.578  63.131  13.678  1.00  0.00    -0.179 OA
BRANCH  10  11
HETATM   11  C1  UNL     1      28.157  63.318  12.399  1.00  0.00     0.387 C 
HETATM   12  O1  UNL     1      28.044  62.417  11.545  1.00  0.00    -0.236 OA
HETATM   13  N1  UNL     1      28.854  64.500  12.085  1.00  0.00    -0.301 N 
ATOM     14  H1  UNL     1      28.917  65.204  12.820  1.00  0.00     0.171 HD
BRANCH  13  15
HETATM   15  C2  UNL     1      29.473  64.809  10.858  1.00  0.00     0.037 A 
HETATM   16  C3  UNL     1      30.812  64.785  10.588  1.00  0.00     0.031 A 
HETATM   17  C4  UNL     1      31.333  65.108   9.337  1.00  0.00     0.026 A 
HETATM   18  C5  UNL     1      30.513  65.474   8.294  1.00  0.00     0.034 A 
HETATM   19 CL1  UNL     1      31.166  65.881   6.720  1.00  0.00    -0.084 Cl
HETATM   20  C6  UNL     1      29.159  65.506   8.541  1.00  0.00     0.026 A 
HETATM   21  C7  UNL     1      28.658  65.184   9.780  1.00  0.00     0.031 A 
ENDBRANCH  13  15
ENDBRANCH  10  11
ENDBRANCH   1  10
BRANCH   9  22
HETATM   22  O6  UNL     1      25.844  65.533  15.580  1.00  0.00    -0.385 OA
ATOM     23  H6  UNL     1      25.134  65.602  14.953  1.00  0.00     0.210 HD
ENDBRANCH   9  22
BRANCH   6  24
HETATM   24  C10 UNL     1      28.165  64.756  19.363  1.00  0.00     0.191 C 
BRANCH  24  25
HETATM   25  O3  UNL     1      27.598  63.631  19.922  1.00  0.00    -0.399 OA
ATOM     26  H3  UNL     1      26.664  63.603  19.749  1.00  0.00     0.209 HD
ENDBRANCH  24  25
ENDBRANCH   6  24
BRANCH   8  27
HETATM   27  O5  UNL     1      26.295  62.520  17.454  1.00  0.00    -0.390 OA
ATOM     28  H5  UNL     1      26.769  62.214  16.689  1.00  0.00     0.210 HD
ENDBRANCH   8  27
BRANCH   7  29
HETATM   29  O4  UNL     1      25.203  65.887  17.836  1.00  0.00    -0.391 OA
ATOM     30  H4  UNL     1      24.331  65.793  18.200  1.00  0.00     0.210 HD
ENDBRANCH   7  29
TORSDOF 8
ENDMDL
