MODEL 2
REMARK VINA RESULT: -7.459993226      0.316      1.023
REMARK  8 active torsions:
REMARK  status: ('A' for Active; 'I' for Inactive)
REMARK       I    between atoms: C1_2  and  N1_3 
REMARK    1  A    between atoms: C1_2  and  O2_12 
REMARK    2  A    between atoms: N1_3  and  C2_5 
REMARK    3  A    between atoms: O2_12  and  N2_13 
REMARK    4  A    between atoms: C9_18  and  C10_19 
REMARK    5  A    between atoms: C10_19  and  O3_20 
REMARK    6  A    between atoms: C11_22  and  O4_23 
REMARK    7  A    between atoms: C12_25  and  O5_26 
REMARK    8  A    between atoms: C13_28  and  O6_29 
ROOT
HETATM    1  N2  UNL     1      28.062  63.469  14.896  1.00  0.00    -0.241 N 
ATOM      2  H2  UNL     1      29.075  63.356  14.922  1.00  0.00     0.196 HD
HETATM    3  C8  UNL     1      27.426  63.985  15.881  1.00  0.00     0.130 C 
HETATM    4  N3  UNL     1      28.076  64.435  17.075  1.00  0.00    -0.367 N 
ATOM      5  H3  UNL     1      29.074  64.252  17.182  1.00  0.00     0.161 HD
HETATM    6  C9  UNL     1      27.390  65.134  18.132  1.00  0.00     0.137 C 
HETATM    7  C11 UNL     1      25.931  64.846  18.210  1.00  0.00     0.174 C 
HETATM    8  C12 UNL     1      25.473  63.761  17.266  1.00  0.00     0.185 C 
HETATM    9  C13 UNL     1      25.929  64.165  15.872  1.00  0.00     0.218 C 
ENDROOT
BRANCH   1  10
HETATM   10  O2  UNL     1      27.333  63.074  13.807  1.00  0.00    -0.179 OA
BRANCH  10  11
HETATM   11  C1  UNL     1      27.885  63.222  12.510  1.00  0.00     0.387 C 
HETATM   12  O1  UNL     1      27.969  62.223  11.770  1.00  0.00    -0.236 OA
HETATM   13  N1  UNL     1      28.335  64.475  12.054  1.00  0.00    -0.301 N 
ATOM     14  H1  UNL     1      28.243  65.259  12.700  1.00  0.00     0.171 HD
BRANCH  13  15
HETATM   15  C2  UNL     1      28.900  64.756  10.795  1.00  0.00     0.037 A 
HETATM   16  C3  UNL     1      28.225  65.022   9.636  1.00  0.00     0.031 A 
HETATM   17  C4  UNL     1      28.875  65.290   8.432  1.00  0.00     0.026 A 
HETATM   18  C5  UNL     1      30.249  65.300   8.349  1.00  0.00     0.034 A 
HETATM   19 CL1  UNL     1      31.067  65.637   6.836  1.00  0.00    -0.084 Cl
HETATM   20  C6  UNL     1      30.951  65.036   9.502  1.00  0.00     0.026 A 
HETATM   21  C7  UNL     1      30.298  64.773  10.684  1.00  0.00     0.031 A 
ENDBRANCH  13  15
ENDBRANCH  10  11
ENDBRANCH   1  10
BRANCH   9  22
HETATM   22  O6  UNL     1      25.709  65.552  15.707  1.00  0.00    -0.385 OA
ATOM     23  H6  UNL     1      24.849  65.723  16.072  1.00  0.00     0.210 HD
ENDBRANCH   9  22
BRANCH   6  24
HETATM   24  C10 UNL     1      28.105  64.784  19.444  1.00  0.00     0.191 C 
BRANCH  24  25
HETATM   25  O3  UNL     1      27.673  63.567  19.926  1.00  0.00    -0.399 OA
ATOM     26  H3  UNL     1      27.199  63.678  20.741  1.00  0.00     0.209 HD
ENDBRANCH  24  25
ENDBRANCH   6  24
BRANCH   8  27
HETATM   27  O5  UNL     1      26.132  62.563  17.624  1.00  0.00    -0.390 OA
ATOM     28  H5  UNL     1      26.615  62.255  16.866  1.00  0.00     0.210 HD
ENDBRANCH   8  27
BRANCH   7  29
HETATM   29  O4  UNL     1      25.135  65.963  17.971  1.00  0.00    -0.391 OA
ATOM     30  H4  UNL     1      24.283  65.913  18.388  1.00  0.00     0.210 HD
ENDBRANCH   7  29
TORSDOF 8
ENDMDL
