MODEL 3
REMARK VINA RESULT: -7.096077706      1.650      2.112
REMARK  8 active torsions:
REMARK  status: ('A' for Active; 'I' for Inactive)
REMARK       I    between atoms: C1_2  and  N1_3 
REMARK    1  A    between atoms: C1_2  and  O2_12 
REMARK    2  A    between atoms: N1_3  and  C2_5 
REMARK    3  A    between atoms: O2_12  and  N2_13 
REMARK    4  A    between atoms: C9_18  and  C10_19 
REMARK    5  A    between atoms: C10_19  and  O3_20 
REMARK    6  A    between atoms: C11_22  and  O4_23 
REMARK    7  A    between atoms: C12_25  and  O5_26 
REMARK    8  A    between atoms: C13_28  and  O6_29 
ROOT
HETATM    1  N2  UNL     1      29.054  64.181  14.974  1.00  0.00    -0.241 N 
ATOM      2  H2  UNL     1      29.871  63.586  14.837  1.00  0.00     0.196 HD
HETATM    3  C8  UNL     1      28.884  64.834  16.062  1.00  0.00     0.130 C 
HETATM    4  N3  UNL     1      29.811  64.782  17.153  1.00  0.00    -0.367 N 
ATOM      5  H3  UNL     1      30.590  64.126  17.096  1.00  0.00     0.161 HD
HETATM    6  C9  UNL     1      29.697  65.611  18.326  1.00  0.00     0.137 C 
HETATM    7  C11 UNL     1      28.311  66.063  18.624  1.00  0.00     0.174 C 
HETATM    8  C12 UNL     1      27.263  65.445  17.731  1.00  0.00     0.185 C 
HETATM    9  C13 UNL     1      27.687  65.720  16.296  1.00  0.00     0.218 C 
ENDROOT
BRANCH   1  10
HETATM   10  O2  UNL     1      28.099  64.308  14.002  1.00  0.00    -0.179 OA
BRANCH  10  11
HETATM   11  C1  UNL     1      28.451  64.877  12.752  1.00  0.00     0.387 C 
HETATM   12  O1  UNL     1      28.087  66.040  12.492  1.00  0.00    -0.236 OA
HETATM   13  N1  UNL     1      29.200  64.148  11.811  1.00  0.00    -0.301 N 
ATOM     14  H1  UNL     1      29.471  63.200  12.074  1.00  0.00     0.171 HD
BRANCH  13  15
HETATM   15  C2  UNL     1      29.613  64.594  10.540  1.00  0.00     0.037 A 
HETATM   16  C3  UNL     1      28.813  64.853   9.463  1.00  0.00     0.031 A 
HETATM   17  C4  UNL     1      29.316  65.293   8.240  1.00  0.00     0.026 A 
HETATM   18  C5  UNL     1      30.665  65.492   8.053  1.00  0.00     0.034 A 
HETATM   19 CL1  UNL     1      31.300  66.046   6.517  1.00  0.00    -0.084 Cl
HETATM   20  C6  UNL     1      31.493  65.238   9.123  1.00  0.00     0.026 A 
HETATM   21  C7  UNL     1      30.983  64.804  10.325  1.00  0.00     0.031 A 
ENDBRANCH  13  15
ENDBRANCH  10  11
ENDBRANCH   1  10
BRANCH   9  22
HETATM   22  O6  UNL     1      28.167  67.048  16.211  1.00  0.00    -0.385 OA
ATOM     23  H6  UNL     1      27.839  67.390  15.388  1.00  0.00     0.210 HD
ENDBRANCH   9  22
BRANCH   6  24
HETATM   24  C10 UNL     1      30.298  64.821  19.497  1.00  0.00     0.191 C 
BRANCH  24  25
HETATM   25  O3  UNL     1      29.358  63.977  20.050  1.00  0.00    -0.399 OA
ATOM     26  H3  UNL     1      28.820  64.441  20.681  1.00  0.00     0.209 HD
ENDBRANCH  24  25
ENDBRANCH   6  24
BRANCH   8  27
HETATM   27  O5  UNL     1      27.277  64.048  17.943  1.00  0.00    -0.390 OA
ATOM     28  H5  UNL     1      27.954  63.674  17.391  1.00  0.00     0.210 HD
ENDBRANCH   8  27
BRANCH   7  29
HETATM   29  O4  UNL     1      28.153  67.444  18.549  1.00  0.00    -0.391 OA
ATOM     30  H4  UNL     1      27.544  67.789  19.191  1.00  0.00     0.210 HD
ENDBRANCH   7  29
TORSDOF 8
ENDMDL
