MODEL 8
REMARK VINA RESULT: -5.698563793      2.595      4.217
REMARK  5 active torsions:
REMARK  status: ('A' for Active; 'I' for Inactive)
REMARK    1  A    between atoms: N1_5  and  C4_6 
REMARK    2  A    between atoms: C5_8  and  C6_9 
REMARK    3  A    between atoms: C6_9  and  N2_10 
REMARK    4  A    between atoms: C12_16  and  O3_17 
REMARK    5  A    between atoms: C13_19  and  O4_20 
ROOT
HETATM    1  C4  UNL     1      37.344  -3.749  13.693  1.00  0.00     0.263 C 
HETATM    2  O2  UNL     1      36.856  -2.541  14.086  1.00  0.00    -0.354 OA
HETATM    3  C5  UNL     1      37.229  -1.569  13.202  1.00  0.00     0.183 C 
HETATM    4  C12 UNL     1      37.601  -2.263  11.892  1.00  0.00     0.182 C 
HETATM    5  C13 UNL     1      38.083  -3.598  12.405  1.00  0.00     0.198 C 
ENDROOT
BRANCH   1   6
HETATM    6  N1  UNL     1      36.308  -4.759  13.511  1.00  0.00    -0.280 N 
HETATM    7  C3  UNL     1      35.060  -4.454  13.109  1.00  0.00     0.104 A 
HETATM    8  C2  UNL     1      34.081  -5.419  12.938  1.00  0.00     0.092 A 
HETATM    9  C1  UNL     1      34.371  -6.748  13.184  1.00  0.00     0.250 A 
HETATM   10  O1  UNL     1      33.500  -7.660  13.039  1.00  0.00    -0.268 OA
HETATM   11  N3  UNL     1      35.628  -7.016  13.585  1.00  0.00    -0.275 N 
HETATM   12  C14 UNL     1      36.568  -6.059  13.744  1.00  0.00     0.331 A 
ATOM     13  H3  UNL     1      35.881  -7.985  13.777  1.00  0.00     0.173 HD
HETATM   14  O5  UNL     1      37.746  -6.354  14.126  1.00  0.00    -0.246 OA
ENDBRANCH   1   6
BRANCH   5  15
HETATM   15  O4  UNL     1      39.448  -3.608  12.621  1.00  0.00    -0.388 OA
ATOM     16  H4  UNL     1      39.818  -2.745  12.470  1.00  0.00     0.210 HD
ENDBRANCH   5  15
BRANCH   3  17
HETATM   17  C6  UNL     1      38.416  -0.766  13.619  1.00  0.00     0.306 C 
BRANCH  17  18
HETATM   18  N2  UNL     1      38.139   0.571  14.007  1.00  0.00     0.091 N 
HETATM   19  C7  UNL     1      37.838   0.768  15.386  1.00  0.00     0.272 C 
HETATM   20  C8  UNL     1      37.238   2.162  15.546  1.00  0.00     0.030 C 
HETATM   21  C9  UNL     1      37.717   3.086  14.450  1.00  0.00     0.003 C 
HETATM   22  C10 UNL     1      37.268   2.597  13.082  1.00  0.00     0.030 C 
HETATM   23  C11 UNL     1      37.026   1.105  13.216  1.00  0.00     0.272 C 
ENDBRANCH  17  18
ENDBRANCH   3  17
BRANCH   4  24
HETATM   24  O3  UNL     1      36.549  -2.348  11.020  1.00  0.00    -0.390 OA
ATOM     25  H3  UNL     1      36.682  -1.834  10.233  1.00  0.00     0.210 HD
ENDBRANCH   4  24
TORSDOF 5
ENDMDL
