MODEL 5
REMARK VINA RESULT: -5.841168601      3.668      7.496
REMARK  5 active torsions:
REMARK  status: ('A' for Active; 'I' for Inactive)
REMARK    1  A    between atoms: N1_5  and  C4_6 
REMARK    2  A    between atoms: C5_8  and  C6_9 
REMARK    3  A    between atoms: C6_9  and  N2_10 
REMARK    4  A    between atoms: C12_16  and  O3_17 
REMARK    5  A    between atoms: C13_19  and  O4_20 
ROOT
HETATM    1  C4  UNL     1      35.740  -6.117  12.454  1.00  0.00     0.263 C 
HETATM    2  O2  UNL     1      35.455  -6.663  11.241  1.00  0.00    -0.354 OA
HETATM    3  C5  UNL     1      34.341  -7.449  11.326  1.00  0.00     0.183 C 
HETATM    4  C12 UNL     1      33.576  -7.023  12.579  1.00  0.00     0.182 C 
HETATM    5  C13 UNL     1      34.709  -6.533  13.449  1.00  0.00     0.198 C 
ENDROOT
BRANCH   1   6
HETATM    6  N1  UNL     1      35.795  -4.660  12.433  1.00  0.00    -0.280 N 
HETATM    7  C3  UNL     1      35.266  -3.928  11.435  1.00  0.00     0.104 A 
HETATM    8  C2  UNL     1      35.321  -2.544  11.422  1.00  0.00     0.092 A 
HETATM    9  C1  UNL     1      35.936  -1.868  12.458  1.00  0.00     0.250 A 
HETATM   10  O1  UNL     1      36.007  -0.601  12.480  1.00  0.00    -0.268 OA
HETATM   11  N3  UNL     1      36.454  -2.632  13.439  1.00  0.00    -0.275 N 
HETATM   12  C14 UNL     1      36.388  -3.981  13.432  1.00  0.00     0.331 A 
ATOM     13  H3  UNL     1      36.916  -2.170  14.222  1.00  0.00     0.173 HD
HETATM   14  O5  UNL     1      36.891  -4.666  14.379  1.00  0.00    -0.246 OA
ENDBRANCH   1   6
BRANCH   5  15
HETATM   15  O4  UNL     1      35.197  -7.531  14.271  1.00  0.00    -0.388 OA
ATOM     16  H4  UNL     1      34.649  -8.305  14.223  1.00  0.00     0.210 HD
ENDBRANCH   5  15
BRANCH   3  17
HETATM   17  C6  UNL     1      34.615  -8.910  11.462  1.00  0.00     0.306 C 
BRANCH  17  18
HETATM   18  N2  UNL     1      34.562  -9.654  10.253  1.00  0.00     0.091 N 
HETATM   19  C7  UNL     1      34.032 -10.972  10.359  1.00  0.00     0.272 C 
HETATM   20  C8  UNL     1      34.371 -11.723   9.075  1.00  0.00     0.030 C 
HETATM   21  C9  UNL     1      34.541 -10.766   7.917  1.00  0.00     0.003 C 
HETATM   22  C10 UNL     1      35.700  -9.813   8.157  1.00  0.00     0.030 C 
HETATM   23  C11 UNL     1      35.899  -9.745   9.659  1.00  0.00     0.272 C 
ENDBRANCH  17  18
ENDBRANCH   3  17
BRANCH   4  24
HETATM   24  O3  UNL     1      32.623  -6.075  12.321  1.00  0.00    -0.390 OA
ATOM     25  H3  UNL     1      32.564  -5.417  13.004  1.00  0.00     0.210 HD
ENDBRANCH   4  24
TORSDOF 5
ENDMDL
