MODEL 2
REMARK VINA RESULT: -6.036183350      3.710      6.037
REMARK  5 active torsions:
REMARK  status: ('A' for Active; 'I' for Inactive)
REMARK    1  A    between atoms: N1_5  and  C4_6 
REMARK    2  A    between atoms: C5_8  and  C6_9 
REMARK    3  A    between atoms: C6_9  and  N2_10 
REMARK    4  A    between atoms: C12_16  and  O3_17 
REMARK    5  A    between atoms: C13_19  and  O4_20 
ROOT
HETATM    1  C4  UNL     1      34.213  -7.333  11.722  1.00  0.00     0.263 C 
HETATM    2  O2  UNL     1      34.671  -6.155  11.219  1.00  0.00    -0.354 OA
HETATM    3  C5  UNL     1      35.603  -5.611  12.057  1.00  0.00     0.183 C 
HETATM    4  C12 UNL     1      36.128  -6.739  12.946  1.00  0.00     0.182 C 
HETATM    5  C13 UNL     1      34.921  -7.644  12.998  1.00  0.00     0.198 C 
ENDROOT
BRANCH   1   6
HETATM    6  N1  UNL     1      34.391  -8.458  10.812  1.00  0.00    -0.280 N 
HETATM    7  C3  UNL     1      35.235  -8.417   9.764  1.00  0.00     0.104 A 
HETATM    8  C2  UNL     1      35.399  -9.490   8.903  1.00  0.00     0.092 A 
HETATM    9  C1  UNL     1      34.684 -10.654   9.107  1.00  0.00     0.250 A 
HETATM   10  O1  UNL     1      34.808 -11.658   8.340  1.00  0.00    -0.268 OA
HETATM   11  N3  UNL     1      33.850 -10.660  10.164  1.00  0.00    -0.275 N 
HETATM   12  C14 UNL     1      33.705  -9.602  10.992  1.00  0.00     0.331 A 
ATOM     13  H3  UNL     1      33.304 -11.501  10.349  1.00  0.00     0.173 HD
HETATM   14  O5  UNL     1      32.906  -9.647  11.981  1.00  0.00    -0.246 OA
ENDBRANCH   1   6
BRANCH   5  15
HETATM   15  O4  UNL     1      34.114  -7.369  14.085  1.00  0.00    -0.388 OA
ATOM     16  H4  UNL     1      34.006  -6.431  14.194  1.00  0.00     0.210 HD
ENDBRANCH   5  15
BRANCH   3  17
HETATM   17  C6  UNL     1      35.082  -4.550  12.967  1.00  0.00     0.306 C 
BRANCH  17  18
HETATM   18  N2  UNL     1      35.555  -3.237  12.702  1.00  0.00     0.091 N 
HETATM   19  C7  UNL     1      35.215  -2.700  11.427  1.00  0.00     0.272 C 
HETATM   20  C8  UNL     1      36.079  -1.466  11.186  1.00  0.00     0.030 C 
HETATM   21  C9  UNL     1      36.498  -0.836  12.495  1.00  0.00     0.003 C 
HETATM   22  C10 UNL     1      37.355  -1.788  13.314  1.00  0.00     0.030 C 
HETATM   23  C11 UNL     1      37.013  -3.189  12.844  1.00  0.00     0.272 C 
ENDBRANCH  17  18
ENDBRANCH   3  17
BRANCH   4  24
HETATM   24  O3  UNL     1      37.250  -7.336  12.438  1.00  0.00    -0.390 OA
ATOM     25  H3  UNL     1      38.052  -6.989  12.811  1.00  0.00     0.210 HD
ENDBRANCH   4  24
TORSDOF 5
ENDMDL
