MODEL 7
REMARK VINA RESULT: -5.760071358      1.049      1.584
REMARK  5 active torsions:
REMARK  status: ('A' for Active; 'I' for Inactive)
REMARK    1  A    between atoms: N1_5  and  C4_6 
REMARK    2  A    between atoms: C5_8  and  C6_9 
REMARK    3  A    between atoms: C6_9  and  N2_10 
REMARK    4  A    between atoms: C12_16  and  O3_17 
REMARK    5  A    between atoms: C13_19  and  O4_20 
ROOT
HETATM    1  C4  UNL     1      37.418  -2.394  11.803  1.00  0.00     0.263 C 
HETATM    2  O2  UNL     1      38.713  -2.562  12.182  1.00  0.00    -0.354 OA
HETATM    3  C5  UNL     1      39.139  -1.486  12.907  1.00  0.00     0.183 C 
HETATM    4  C12 UNL     1      37.895  -0.769  13.431  1.00  0.00     0.182 C 
HETATM    5  C13 UNL     1      36.897  -1.107  12.350  1.00  0.00     0.198 C 
ENDROOT
BRANCH   1   6
HETATM    6  N1  UNL     1      36.541  -3.470  12.250  1.00  0.00    -0.280 N 
HETATM    7  C3  UNL     1      36.883  -4.324  13.232  1.00  0.00     0.104 A 
HETATM    8  C2  UNL     1      36.045  -5.345  13.651  1.00  0.00     0.092 A 
HETATM    9  C1  UNL     1      34.809  -5.511  13.055  1.00  0.00     0.250 A 
HETATM   10  O1  UNL     1      34.014  -6.435  13.412  1.00  0.00    -0.268 OA
HETATM   11  N3  UNL     1      34.501  -4.640  12.077  1.00  0.00    -0.275 N 
HETATM   12  C14 UNL     1      35.333  -3.651  11.684  1.00  0.00     0.331 A 
ATOM     13  H3  UNL     1      33.598  -4.730  11.612  1.00  0.00     0.173 HD
HETATM   14  O5  UNL     1      35.004  -2.847  10.754  1.00  0.00    -0.246 OA
ENDBRANCH   1   6
BRANCH   5  15
HETATM   15  O4  UNL     1      36.854  -0.139  11.365  1.00  0.00    -0.388 OA
ATOM     16  H4  UNL     1      37.728   0.062  11.053  1.00  0.00     0.210 HD
ENDBRANCH   5  15
BRANCH   3  17
HETATM   17  C6  UNL     1      39.924  -0.481  12.133  1.00  0.00     0.306 C 
BRANCH  17  18
HETATM   18  N2  UNL     1      41.329  -0.684  12.122  1.00  0.00     0.091 N 
HETATM   19  C7  UNL     1      41.833  -1.476  11.050  1.00  0.00     0.272 C 
HETATM   20  C8  UNL     1      43.267  -1.873  11.387  1.00  0.00     0.030 C 
HETATM   21  C9  UNL     1      43.904  -0.864  12.316  1.00  0.00     0.003 C 
HETATM   22  C10 UNL     1      43.169  -0.800  13.645  1.00  0.00     0.030 C 
HETATM   23  C11 UNL     1      41.759  -1.296  13.383  1.00  0.00     0.272 C 
ENDBRANCH  17  18
ENDBRANCH   3  17
BRANCH   4  24
HETATM   24  O3  UNL     1      37.526  -1.190  14.680  1.00  0.00    -0.390 OA
ATOM     25  H3  UNL     1      37.632  -0.517  15.342  1.00  0.00     0.210 HD
ENDBRANCH   4  24
TORSDOF 5
ENDMDL
