MODEL 6
REMARK VINA RESULT: -5.818901564      1.014      1.075
REMARK  5 active torsions:
REMARK  status: ('A' for Active; 'I' for Inactive)
REMARK    1  A    between atoms: N1_5  and  C4_6 
REMARK    2  A    between atoms: C5_8  and  C6_9 
REMARK    3  A    between atoms: C6_9  and  N2_10 
REMARK    4  A    between atoms: C12_16  and  O3_17 
REMARK    5  A    between atoms: C13_19  and  O4_20 
ROOT
HETATM    1  C4  UNL     1      37.564  -2.682  11.962  1.00  0.00     0.263 C 
HETATM    2  O2  UNL     1      38.764  -2.903  12.564  1.00  0.00    -0.354 OA
HETATM    3  C5  UNL     1      39.141  -1.806  13.286  1.00  0.00     0.183 C 
HETATM    4  C12 UNL     1      37.882  -0.979  13.549  1.00  0.00     0.182 C 
HETATM    5  C13 UNL     1      37.054  -1.330  12.336  1.00  0.00     0.198 C 
ENDROOT
BRANCH   1   6
HETATM    6  N1  UNL     1      36.549  -3.668  12.316  1.00  0.00    -0.280 N 
HETATM    7  C3  UNL     1      36.705  -4.535  13.334  1.00  0.00     0.104 A 
HETATM    8  C2  UNL     1      35.737  -5.470  13.665  1.00  0.00     0.092 A 
HETATM    9  C1  UNL     1      34.563  -5.534  12.939  1.00  0.00     0.250 A 
HETATM   10  O1  UNL     1      33.654  -6.377  13.212  1.00  0.00    -0.268 OA
HETATM   11  N3  UNL     1      34.442  -4.652  11.929  1.00  0.00    -0.275 N 
HETATM   12  C14 UNL     1      35.398  -3.748  11.623  1.00  0.00     0.331 A 
ATOM     13  H3  UNL     1      33.590  -4.668  11.369  1.00  0.00     0.173 HD
HETATM   14  O5  UNL     1      35.246  -2.932  10.659  1.00  0.00    -0.246 OA
ENDBRANCH   1   6
BRANCH   5  15
HETATM   15  O4  UNL     1      37.244  -0.433  11.303  1.00  0.00    -0.388 OA
ATOM     16  H4  UNL     1      38.019   0.096  11.455  1.00  0.00     0.210 HD
ENDBRANCH   5  15
BRANCH   3  17
HETATM   17  C6  UNL     1      40.113  -0.908  12.598  1.00  0.00     0.306 C 
BRANCH  17  18
HETATM   18  N2  UNL     1      41.437  -1.411  12.493  1.00  0.00     0.091 N 
HETATM   19  C7  UNL     1      41.979  -1.983  13.680  1.00  0.00     0.272 C 
HETATM   20  C8  UNL     1      43.484  -2.142  13.484  1.00  0.00     0.030 C 
HETATM   21  C9  UNL     1      43.827  -2.282  12.018  1.00  0.00     0.003 C 
HETATM   22  C10 UNL     1      43.438  -1.035  11.241  1.00  0.00     0.030 C 
HETATM   23  C11 UNL     1      42.344  -0.353  12.039  1.00  0.00     0.272 C 
ENDBRANCH  17  18
ENDBRANCH   3  17
BRANCH   4  24
HETATM   24  O3  UNL     1      37.284  -1.289  14.740  1.00  0.00    -0.390 OA
ATOM     25  H3  UNL     1      37.766  -0.962  15.490  1.00  0.00     0.210 HD
ENDBRANCH   4  24
TORSDOF 5
ENDMDL
