MODEL 5
REMARK VINA RESULT: -5.585330928      6.097     10.885
REMARK  5 active torsions:
REMARK  status: ('A' for Active; 'I' for Inactive)
REMARK    1  A    between atoms: N1_5  and  C4_6 
REMARK    2  A    between atoms: C5_8  and  C6_9 
REMARK    3  A    between atoms: C6_9  and  N2_10 
REMARK    4  A    between atoms: C11_16  and  O4_17 
REMARK    5  A    between atoms: C12_19  and  O5_20 
ROOT
HETATM    1  C4  UNL     1      35.301  -6.846  13.522  1.00  0.00     0.263 C 
HETATM    2  O2  UNL     1      35.737  -8.033  12.886  1.00  0.00    -0.354 OA
HETATM    3  C5  UNL     1      35.436  -7.894  11.548  1.00  0.00     0.183 C 
HETATM    4  C11 UNL     1      34.328  -6.859  11.431  1.00  0.00     0.182 C 
HETATM    5  C12 UNL     1      33.963  -6.695  12.874  1.00  0.00     0.198 C 
ENDROOT
BRANCH   1   6
HETATM    6  N1  UNL     1      36.260  -5.840  13.240  1.00  0.00    -0.280 N 
HETATM    7  C3  UNL     1      37.519  -6.209  12.945  1.00  0.00     0.104 A 
HETATM    8  C2  UNL     1      38.530  -5.319  12.657  1.00  0.00     0.092 A 
HETATM    9  C1  UNL     1      38.253  -3.961  12.667  1.00  0.00     0.250 A 
HETATM   10  O1  UNL     1      39.118  -3.088  12.415  1.00  0.00    -0.268 OA
HETATM   11  N3  UNL     1      36.985  -3.617  12.966  1.00  0.00    -0.275 N 
HETATM   12  C13 UNL     1      36.017  -4.507  13.243  1.00  0.00     0.331 A 
ATOM     13  H3  UNL     1      36.747  -2.625  12.982  1.00  0.00     0.173 HD
HETATM   14  O6  UNL     1      34.858  -4.100  13.512  1.00  0.00    -0.246 OA
ENDBRANCH   1   6
BRANCH   5  15
HETATM   15  O5  UNL     1      33.217  -7.845  13.233  1.00  0.00    -0.388 OA
ATOM     16  H5  UNL     1      32.440  -7.530  13.678  1.00  0.00     0.210 HD
ENDBRANCH   5  15
BRANCH   3  17
HETATM   17  C6  UNL     1      34.870  -9.190  11.006  1.00  0.00     0.307 C 
BRANCH  17  18
HETATM   18  N2  UNL     1      34.895  -9.267   9.577  1.00  0.00     0.095 N 
HETATM   19  C7  UNL     1      36.245  -8.994   9.138  1.00  0.00     0.298 C 
HETATM   20  C8  UNL     1      36.516  -9.382   7.728  1.00  0.00     0.198 C 
HETATM   21  O3  UNL     1      35.430  -9.863   7.038  1.00  0.00    -0.388 OA
HETATM   22  C9  UNL     1      34.857 -10.913   7.748  1.00  0.00     0.198 C 
HETATM   23  C10 UNL     1      34.376 -10.514   9.102  1.00  0.00     0.298 C 
ENDBRANCH  17  18
ENDBRANCH   3  17
BRANCH   4  24
HETATM   24  O4  UNL     1      34.802  -5.697  10.840  1.00  0.00    -0.390 OA
ATOM     25  H4  UNL     1      34.575  -4.938  11.363  1.00  0.00     0.210 HD
ENDBRANCH   4  24
TORSDOF 5
ENDMDL
