MODEL 3
REMARK VINA RESULT: -5.671282252      3.337      7.745
REMARK  5 active torsions:
REMARK  status: ('A' for Active; 'I' for Inactive)
REMARK    1  A    between atoms: N1_5  and  C4_6 
REMARK    2  A    between atoms: C5_8  and  C6_9 
REMARK    3  A    between atoms: C6_9  and  N2_10 
REMARK    4  A    between atoms: C11_16  and  O4_17 
REMARK    5  A    between atoms: C12_19  and  O5_20 
ROOT
HETATM    1  C4  UNL     1      38.591  -3.130  13.769  1.00  0.00     0.263 C 
HETATM    2  O2  UNL     1      38.345  -3.974  12.659  1.00  0.00    -0.354 OA
HETATM    3  C5  UNL     1      37.004  -4.291  12.696  1.00  0.00     0.183 C 
HETATM    4  C11 UNL     1      36.523  -4.089  14.124  1.00  0.00     0.182 C 
HETATM    5  C12 UNL     1      37.833  -3.876  14.819  1.00  0.00     0.198 C 
ENDROOT
BRANCH   1   6
HETATM    6  N1  UNL     1      38.107  -1.840  13.432  1.00  0.00    -0.280 N 
HETATM    7  C3  UNL     1      37.761  -1.590  12.157  1.00  0.00     0.104 A 
HETATM    8  C2  UNL     1      37.281  -0.376  11.718  1.00  0.00     0.092 A 
HETATM    9  C1  UNL     1      37.141   0.660  12.628  1.00  0.00     0.250 A 
HETATM   10  O1  UNL     1      36.712   1.794  12.307  1.00  0.00    -0.268 OA
HETATM   11  N3  UNL     1      37.495   0.385  13.899  1.00  0.00    -0.275 N 
HETATM   12  C13 UNL     1      37.961  -0.811  14.301  1.00  0.00     0.331 A 
ATOM     13  H3  UNL     1      37.405   1.126  14.595  1.00  0.00     0.173 HD
HETATM   14  O6  UNL     1      38.268  -0.983  15.508  1.00  0.00    -0.246 OA
ENDBRANCH   1   6
BRANCH   5  15
HETATM   15  O5  UNL     1      38.445  -5.149  14.920  1.00  0.00    -0.388 OA
ATOM     16  H5  UNL     1      37.774  -5.743  15.238  1.00  0.00     0.210 HD
ENDBRANCH   5  15
BRANCH   3  17
HETATM   17  C6  UNL     1      36.808  -5.759  12.381  1.00  0.00     0.307 C 
BRANCH  17  18
HETATM   18  N2  UNL     1      35.557  -6.277  12.844  1.00  0.00     0.095 N 
HETATM   19  C7  UNL     1      34.579  -6.084  11.796  1.00  0.00     0.298 C 
HETATM   20  C8  UNL     1      33.334  -6.879  11.973  1.00  0.00     0.198 C 
HETATM   21  O3  UNL     1      33.269  -7.608  13.136  1.00  0.00    -0.388 OA
HETATM   22  C9  UNL     1      34.399  -8.412  13.242  1.00  0.00     0.198 C 
HETATM   23  C10 UNL     1      35.672  -7.636  13.281  1.00  0.00     0.298 C 
ENDBRANCH  17  18
ENDBRANCH   3  17
BRANCH   4  24
HETATM   24  O4  UNL     1      35.666  -3.002  14.205  1.00  0.00    -0.390 OA
ATOM     25  H4  UNL     1      35.245  -2.968  15.056  1.00  0.00     0.210 HD
ENDBRANCH   4  24
TORSDOF 5
ENDMDL
