MODEL 4
REMARK VINA RESULT: -5.588950161      0.576      1.126
REMARK  5 active torsions:
REMARK  status: ('A' for Active; 'I' for Inactive)
REMARK    1  A    between atoms: N1_5  and  C4_6 
REMARK    2  A    between atoms: C5_8  and  C6_9 
REMARK    3  A    between atoms: C6_9  and  N2_10 
REMARK    4  A    between atoms: C11_16  and  O4_17 
REMARK    5  A    between atoms: C12_19  and  O5_20 
ROOT
HETATM    1  C4  UNL     1      38.569   1.218  13.171  1.00  0.00     0.263 C 
HETATM    2  O2  UNL     1      39.119   1.398  14.464  1.00  0.00    -0.354 OA
HETATM    3  C5  UNL     1      38.103   1.887  15.257  1.00  0.00     0.183 C 
HETATM    4  C11 UNL     1      37.070   2.524  14.341  1.00  0.00     0.182 C 
HETATM    5  C12 UNL     1      37.816   2.503  13.042  1.00  0.00     0.198 C 
ENDROOT
BRANCH   1   6
HETATM    6  N1  UNL     1      37.797   0.029  13.203  1.00  0.00    -0.280 N 
HETATM    7  C3  UNL     1      38.096  -0.913  14.116  1.00  0.00     0.104 A 
HETATM    8  C2  UNL     1      37.415  -2.104  14.236  1.00  0.00     0.092 A 
HETATM    9  C1  UNL     1      36.359  -2.365  13.377  1.00  0.00     0.250 A 
HETATM   10  O1  UNL     1      35.691  -3.425  13.423  1.00  0.00    -0.268 OA
HETATM   11  N3  UNL     1      36.080  -1.406  12.472  1.00  0.00    -0.275 N 
HETATM   12  C13 UNL     1      36.762  -0.251  12.376  1.00  0.00     0.331 A 
ATOM     13  H3  UNL     1      35.309  -1.566  11.824  1.00  0.00     0.173 HD
HETATM   14  O6  UNL     1      36.434   0.591  11.502  1.00  0.00    -0.246 OA
ENDBRANCH   1   6
BRANCH   5  15
HETATM   15  O5  UNL     1      38.780   3.537  13.117  1.00  0.00    -0.388 OA
ATOM     16  H5  UNL     1      39.549   3.155  13.524  1.00  0.00     0.210 HD
ENDBRANCH   5  15
BRANCH   3  17
HETATM   17  C6  UNL     1      38.627   2.995  16.147  1.00  0.00     0.307 C 
BRANCH  17  18
HETATM   18  N2  UNL     1      38.172   2.900  17.500  1.00  0.00     0.095 N 
HETATM   19  C7  UNL     1      38.226   1.510  17.893  1.00  0.00     0.298 C 
HETATM   20  C8  UNL     1      38.130   1.289  19.361  1.00  0.00     0.198 C 
HETATM   21  O3  UNL     1      37.926   2.423  20.108  1.00  0.00    -0.388 OA
HETATM   22  C9  UNL     1      38.906   3.362  19.803  1.00  0.00     0.198 C 
HETATM   23  C10 UNL     1      38.900   3.773  18.370  1.00  0.00     0.298 C 
ENDBRANCH  17  18
ENDBRANCH   3  17
BRANCH   4  24
HETATM   24  O4  UNL     1      35.902   1.777  14.325  1.00  0.00    -0.390 OA
ATOM     25  H4  UNL     1      35.444   1.886  13.500  1.00  0.00     0.210 HD
ENDBRANCH   4  24
TORSDOF 5
ENDMDL
