MODEL 5
REMARK VINA RESULT: -6.464468227      2.999      5.458
REMARK  5 active torsions:
REMARK  status: ('A' for Active; 'I' for Inactive)
REMARK    1  A    between atoms: C2_2  and  C3_3 
REMARK    2  A    between atoms: C3_3  and  C4_4 
REMARK    3  A    between atoms: C4_4  and  N1_5 
REMARK    4  A    between atoms: N1_5  and  S1_7 
REMARK    5  A    between atoms: S1_7  and  C5_10 
ROOT
HETATM    1  S1  UNL     1      11.952  17.878   4.121  1.00  0.00     0.258 S 
HETATM    2  O1  UNL     1      10.997  18.924   3.601  1.00  0.00    -0.201 OA
HETATM    3  O2  UNL     1      12.403  18.328   5.470  1.00  0.00    -0.201 OA
ENDROOT
BRANCH   1   4
HETATM    4  N1  UNL     1      11.134  16.358   4.314  1.00  0.00    -0.315 N 
ATOM      5  H1  UNL     1      11.248  15.696   5.081  1.00  0.00     0.172 HD
BRANCH   4   6
HETATM    6  C4  UNL     1      10.257  16.215   3.166  1.00  0.00     0.132 C 
BRANCH   6   7
HETATM    7  C3  UNL     1      10.249  14.795   2.638  1.00  0.00     0.020 C 
BRANCH   7   8
HETATM    8  C2  UNL     1      11.032  14.835   1.320  1.00  0.00    -0.003 C 
HETATM    9  C1  UNL     1      10.987  16.202   0.708  1.00  0.00     0.005 C 
ENDBRANCH   7   8
ENDBRANCH   6   7
ENDBRANCH   4   6
ENDBRANCH   1   4
BRANCH   1  10
HETATM   10  C5  UNL     1      13.298  17.687   3.038  1.00  0.00     0.079 A 
HETATM   11  C6  UNL     1      13.733  18.686   2.195  1.00  0.00     0.025 A 
HETATM   12  C7  UNL     1      14.806  18.477   1.356  1.00  0.00     0.002 A 
HETATM   13  C8  UNL     1      15.484  17.278   1.324  1.00  0.00     0.000 A 
HETATM   14  C9  UNL     1      15.033  16.291   2.176  1.00  0.00     0.002 A 
HETATM   15  C10 UNL     1      13.961  16.478   3.023  1.00  0.00     0.025 A 
ENDBRANCH   1  10
TORSDOF 5
ENDMDL
