MODEL 11
REMARK VINA RESULT: -6.263250059      3.203      6.564
REMARK  5 active torsions:
REMARK  status: ('A' for Active; 'I' for Inactive)
REMARK    1  A    between atoms: C2_2  and  C3_3 
REMARK    2  A    between atoms: C3_3  and  C4_4 
REMARK    3  A    between atoms: C4_4  and  N1_5 
REMARK    4  A    between atoms: N1_5  and  S1_7 
REMARK    5  A    between atoms: S1_7  and  C5_10 
ROOT
HETATM    1  S1  UNL     1      12.837  20.000   4.738  1.00  0.00     0.258 S 
HETATM    2  O1  UNL     1      11.379  19.959   4.353  1.00  0.00    -0.201 OA
HETATM    3  O2  UNL     1      12.947  19.413   6.105  1.00  0.00    -0.201 OA
ENDROOT
BRANCH   1   4
HETATM    4  N1  UNL     1      13.774  19.013   3.658  1.00  0.00    -0.315 N 
ATOM      5  H1  UNL     1      14.746  19.158   3.386  1.00  0.00     0.172 HD
BRANCH   4   6
HETATM    6  C4  UNL     1      12.899  17.942   3.219  1.00  0.00     0.132 C 
BRANCH   6   7
HETATM    7  C3  UNL     1      13.404  17.291   1.946  1.00  0.00     0.020 C 
BRANCH   7   8
HETATM    8  C2  UNL     1      14.744  16.640   2.313  1.00  0.00    -0.003 C 
HETATM    9  C1  UNL     1      15.765  16.871   1.241  1.00  0.00     0.005 C 
ENDBRANCH   7   8
ENDBRANCH   6   7
ENDBRANCH   4   6
ENDBRANCH   1   4
BRANCH   1  10
HETATM   10  C5  UNL     1      13.432  21.633   4.704  1.00  0.00     0.079 A 
HETATM   11  C6  UNL     1      12.699  22.711   5.153  1.00  0.00     0.025 A 
HETATM   12  C7  UNL     1      13.221  23.984   5.100  1.00  0.00     0.002 A 
HETATM   13  C8  UNL     1      14.483  24.235   4.606  1.00  0.00     0.000 A 
HETATM   14  C9  UNL     1      15.201  23.143   4.163  1.00  0.00     0.002 A 
HETATM   15  C10 UNL     1      14.696  21.861   4.205  1.00  0.00     0.025 A 
ENDBRANCH   1  10
TORSDOF 5
ENDMDL
