MODEL 10
REMARK VINA RESULT: -6.286861482      3.141      6.490
REMARK  5 active torsions:
REMARK  status: ('A' for Active; 'I' for Inactive)
REMARK    1  A    between atoms: C2_2  and  C3_3 
REMARK    2  A    between atoms: C3_3  and  C4_4 
REMARK    3  A    between atoms: C4_4  and  N1_5 
REMARK    4  A    between atoms: N1_5  and  S1_7 
REMARK    5  A    between atoms: S1_7  and  C5_10 
ROOT
HETATM    1  S1  UNL     1      12.878  19.979   4.645  1.00  0.00     0.258 S 
HETATM    2  O1  UNL     1      11.425  19.972   4.237  1.00  0.00    -0.201 OA
HETATM    3  O2  UNL     1      12.954  19.378   6.007  1.00  0.00    -0.201 OA
ENDROOT
BRANCH   1   4
HETATM    4  N1  UNL     1      13.809  18.981   3.570  1.00  0.00    -0.315 N 
ATOM      5  H1  UNL     1      14.803  19.073   3.359  1.00  0.00     0.172 HD
BRANCH   4   6
HETATM    6  C4  UNL     1      12.895  17.991   3.033  1.00  0.00     0.132 C 
BRANCH   6   7
HETATM    7  C3  UNL     1      13.327  17.512   1.661  1.00  0.00     0.020 C 
BRANCH   7   8
HETATM    8  C2  UNL     1      14.751  18.047   1.462  1.00  0.00    -0.003 C 
HETATM    9  C1  UNL     1      15.718  16.927   1.221  1.00  0.00     0.005 C 
ENDBRANCH   7   8
ENDBRANCH   6   7
ENDBRANCH   4   6
ENDBRANCH   1   4
BRANCH   1  10
HETATM   10  C5  UNL     1      13.508  21.599   4.634  1.00  0.00     0.079 A 
HETATM   11  C6  UNL     1      14.759  21.917   4.152  1.00  0.00     0.025 A 
HETATM   12  C7  UNL     1      15.207  23.219   4.169  1.00  0.00     0.002 A 
HETATM   13  C8  UNL     1      14.434  24.249   4.662  1.00  0.00     0.000 A 
HETATM   14  C9  UNL     1      13.185  23.910   5.139  1.00  0.00     0.002 A 
HETATM   15  C10 UNL     1      12.718  22.613   5.132  1.00  0.00     0.025 A 
ENDBRANCH   1  10
TORSDOF 5
ENDMDL
