MODEL 3
REMARK VINA RESULT: -6.595689024      1.962      3.221
REMARK  5 active torsions:
REMARK  status: ('A' for Active; 'I' for Inactive)
REMARK    1  A    between atoms: C2_2  and  C3_3 
REMARK    2  A    between atoms: C3_3  and  C4_4 
REMARK    3  A    between atoms: C4_4  and  N1_5 
REMARK    4  A    between atoms: N1_5  and  S1_7 
REMARK    5  A    between atoms: S1_7  and  C5_10 
ROOT
HETATM    1  S1  UNL     1      14.023  17.132   2.091  1.00  0.00     0.258 S 
HETATM    2  O1  UNL     1      14.377  17.900   0.842  1.00  0.00    -0.201 OA
HETATM    3  O2  UNL     1      15.141  16.180   2.353  1.00  0.00    -0.201 OA
ENDROOT
BRANCH   1   4
HETATM    4  N1  UNL     1      13.913  18.209   3.450  1.00  0.00    -0.315 N 
ATOM      5  H1  UNL     1      14.574  18.288   4.222  1.00  0.00     0.172 HD
BRANCH   4   6
HETATM    6  C4  UNL     1      12.693  18.975   3.269  1.00  0.00     0.132 C 
BRANCH   6   7
HETATM    7  C3  UNL     1      11.719  18.757   4.408  1.00  0.00     0.020 C 
BRANCH   7   8
HETATM    8  C2  UNL     1      10.325  18.725   3.766  1.00  0.00    -0.003 C 
HETATM    9  C1  UNL     1       9.485  17.635   4.358  1.00  0.00     0.005 C 
ENDBRANCH   7   8
ENDBRANCH   6   7
ENDBRANCH   4   6
ENDBRANCH   1   4
BRANCH   1  10
HETATM   10  C5  UNL     1      12.515  16.292   1.885  1.00  0.00     0.079 A 
HETATM   11  C6  UNL     1      11.670  16.512   0.819  1.00  0.00     0.025 A 
HETATM   12  C7  UNL     1      10.486  15.818   0.708  1.00  0.00     0.002 A 
HETATM   13  C8  UNL     1      10.098  14.884   1.644  1.00  0.00     0.000 A 
HETATM   14  C9  UNL     1      10.957  14.678   2.704  1.00  0.00     0.002 A 
HETATM   15  C10 UNL     1      12.146  15.363   2.835  1.00  0.00     0.025 A 
ENDBRANCH   1  10
TORSDOF 5
ENDMDL
