MODEL 1
REMARK VINA RESULT: -8.321224309      0.000      0.000
REMARK  13 active torsions:
REMARK  status: ('A' for Active; 'I' for Inactive)
REMARK    1  A    between atoms: O1_2  and  P1_3 
REMARK    2  A    between atoms: P1_3  and  C2_6 
REMARK    3  A    between atoms: C2_6  and  O4_7 
REMARK    4  A    between atoms: C2_6  and  C3_9 
REMARK    5  A    between atoms: C2_6  and  C9_15 
REMARK    6  A    between atoms: C10_17  and  C11_18 
REMARK    7  A    between atoms: C11_18  and  C12_19 
REMARK    8  A    between atoms: C12_19  and  O5_20 
REMARK    9  A    between atoms: O5_20  and  P2_21 
REMARK   10  A    between atoms: P2_21  and  O8_24 
REMARK   11  A    between atoms: O8_24  and  P3_25 
REMARK   12  A    between atoms: N1_31  and  C15_32 
REMARK   13  A    between atoms: C15_32  and  C16_33 
ROOT
HETATM    1  C9  UNL     1     -37.782  21.601   9.679  1.00  0.00     0.203 C 
HETATM    2  S1  UNL     1     -39.324  21.687   8.562  1.00  0.00    -0.102 SA
HETATM    3  C10 UNL     1     -38.296  21.921   7.118  1.00  0.00     0.004 C 
HETATM    4  C13 UNL     1     -37.103  21.451   7.402  1.00  0.00     0.017 C 
HETATM    5  C14 UNL     1     -36.022  21.501   6.382  1.00  0.00     0.069 C 
HETATM    6  N1  UNL     1     -36.991  20.945   8.680  1.00  0.00    -0.361 N 
ENDROOT
BRANCH   1   7
HETATM    7  C2  UNL     1     -37.544  23.016  10.066  1.00  0.00     0.220 C 
BRANCH   7   8
HETATM    8  P1  UNL     1     -38.473  23.558  11.459  1.00  0.00     0.292 P 
HETATM    9  O2  UNL     1     -40.115  23.436  11.397  1.00  0.00    -0.644 OA
HETATM   10  O3  UNL     1     -38.403  25.058  11.231  1.00  0.00    -0.644 OA
BRANCH   8  11
HETATM   11  O1  UNL     1     -37.715  23.856  12.943  1.00  0.00    -0.315 OA
HETATM   12  C1  UNL     1     -38.389  23.019  13.827  1.00  0.00     0.213 C 
ENDBRANCH   8  11
ENDBRANCH   7   8
BRANCH   7  13
HETATM   13  O4  UNL     1     -37.861  23.814   8.947  1.00  0.00    -0.370 OA
ATOM     14  H4  UNL     1     -38.089  23.257   8.213  1.00  0.00     0.212 HD
ENDBRANCH   7  13
BRANCH   7  15
HETATM   15  C3  UNL     1     -36.111  23.250  10.331  1.00  0.00    -0.008 A 
HETATM   16  C4  UNL     1     -35.374  23.990   9.474  1.00  0.00     0.011 A 
HETATM   17  C5  UNL     1     -33.996  24.179   9.662  1.00  0.00     0.001 A 
HETATM   18  C6  UNL     1     -33.385  23.599  10.751  1.00  0.00     0.000 A 
HETATM   19  C7  UNL     1     -34.131  22.847  11.625  1.00  0.00     0.001 A 
HETATM   20  C8  UNL     1     -35.475  22.676  11.416  1.00  0.00     0.011 A 
ENDBRANCH   7  15
ENDBRANCH   1   7
BRANCH   6  21
HETATM   21  C15 UNL     1     -36.221  19.748   9.064  1.00  0.00     0.167 C 
BRANCH  21  22
HETATM   22  C16 UNL     1     -34.829  19.902   9.380  1.00  0.00     0.016 A 
HETATM   23  C17 UNL     1     -33.857  20.542   8.699  1.00  0.00     0.101 A 
HETATM   24  N2  UNL     1     -32.540  20.570   9.029  1.00  0.00    -0.355 N 
HETATM   25  C18 UNL     1     -32.177  19.907  10.136  1.00  0.00     0.078 A 
ATOM     26  H2  UNL     1     -31.858  21.073   8.462  1.00  0.00     0.166 HD
HETATM   27  C19 UNL     1     -30.714  19.896  10.429  1.00  0.00     0.089 C 
HETATM   28  N3  UNL     1     -33.072  19.260  10.858  1.00  0.00    -0.334 N 
HETATM   29  C20 UNL     1     -34.383  19.228  10.532  1.00  0.00     0.126 A 
ATOM     30  H3  UNL     1     -32.762  18.766  11.694  1.00  0.00     0.168 HD
HETATM   31  N4  UNL     1     -35.371  18.538  11.314  1.00  0.00    -0.082 NA
ENDBRANCH  21  22
ENDBRANCH   6  21
BRANCH   3  32
HETATM   32  C11 UNL     1     -38.791  22.464   5.849  1.00  0.00     0.075 C 
BRANCH  32  33
HETATM   33  C12 UNL     1     -40.303  22.336   5.725  1.00  0.00     0.186 C 
BRANCH  33  34
HETATM   34  O5  UNL     1     -40.706  23.530   5.047  1.00  0.00    -0.289 OA
BRANCH  34  35
HETATM   35  P2  UNL     1     -40.179  23.448   3.482  1.00  0.00     0.418 P 
HETATM   36  O6  UNL     1     -40.632  22.270   2.447  1.00  0.00    -0.624 OA
HETATM   37  O7  UNL     1     -38.946  24.514   3.069  1.00  0.00    -0.624 OA
BRANCH  35  38
HETATM   38  O8  UNL     1     -41.201  24.401   2.964  1.00  0.00    -0.173 OA
BRANCH  38  39
HETATM   39  P3  UNL     1     -41.212  25.997   3.203  1.00  0.00     0.431 P 
HETATM   40  O9  UNL     1     -41.317  26.318   1.714  1.00  0.00    -0.616 OA
HETATM   41  O10 UNL     1     -39.892  26.905   3.448  1.00  0.00    -0.616 OA
HETATM   42  O11 UNL     1     -42.738  26.755   3.403  1.00  0.00    -0.616 OA
ENDBRANCH  38  39
ENDBRANCH  35  38
ENDBRANCH  34  35
ENDBRANCH  33  34
ENDBRANCH  32  33
ENDBRANCH   3  32
TORSDOF 13
ENDMDL
