MODEL 2
REMARK VINA RESULT: -8.187971061      1.063      2.097
REMARK  13 active torsions:
REMARK  status: ('A' for Active; 'I' for Inactive)
REMARK    1  A    between atoms: O1_2  and  P1_3 
REMARK    2  A    between atoms: P1_3  and  C2_6 
REMARK    3  A    between atoms: C2_6  and  O4_7 
REMARK    4  A    between atoms: C2_6  and  C3_9 
REMARK    5  A    between atoms: C2_6  and  C9_15 
REMARK    6  A    between atoms: C10_17  and  C11_18 
REMARK    7  A    between atoms: C11_18  and  C12_19 
REMARK    8  A    between atoms: C12_19  and  O5_20 
REMARK    9  A    between atoms: O5_20  and  P2_21 
REMARK   10  A    between atoms: P2_21  and  O8_24 
REMARK   11  A    between atoms: O8_24  and  P3_25 
REMARK   12  A    between atoms: N1_31  and  C15_32 
REMARK   13  A    between atoms: C15_32  and  C16_33 
ROOT
HETATM    1  C9  UNL     1     -37.369  21.564   9.941  1.00  0.00     0.203 C 
HETATM    2  S1  UNL     1     -38.971  21.653   8.910  1.00  0.00    -0.102 SA
HETATM    3  C10 UNL     1     -38.026  21.623   7.393  1.00  0.00     0.004 C 
HETATM    4  C13 UNL     1     -36.857  21.087   7.665  1.00  0.00     0.017 C 
HETATM    5  C14 UNL     1     -35.847  20.921   6.588  1.00  0.00     0.069 C 
HETATM    6  N1  UNL     1     -36.702  20.727   8.987  1.00  0.00    -0.361 N 
ENDROOT
BRANCH   1   7
HETATM    7  C2  UNL     1     -36.993  22.988  10.136  1.00  0.00     0.220 C 
BRANCH   7   8
HETATM    8  P1  UNL     1     -37.775  23.769  11.506  1.00  0.00     0.292 P 
HETATM    9  O2  UNL     1     -39.169  23.109  12.088  1.00  0.00    -0.644 OA
HETATM   10  O3  UNL     1     -38.426  24.936  10.784  1.00  0.00    -0.644 OA
BRANCH   8  11
HETATM   11  O1  UNL     1     -36.957  24.931  12.424  1.00  0.00    -0.315 OA
HETATM   12  C1  UNL     1     -37.145  24.503  13.736  1.00  0.00     0.213 C 
ENDBRANCH   8  11
ENDBRANCH   7   8
BRANCH   7  13
HETATM   13  O4  UNL     1     -37.323  23.674   8.950  1.00  0.00    -0.370 OA
ATOM     14  H4  UNL     1     -36.723  23.421   8.259  1.00  0.00     0.212 HD
ENDBRANCH   7  13
BRANCH   7  15
HETATM   15  C3  UNL     1     -35.531  23.124  10.285  1.00  0.00    -0.008 A 
HETATM   16  C4  UNL     1     -34.789  23.618   9.269  1.00  0.00     0.011 A 
HETATM   17  C5  UNL     1     -33.391  23.702   9.352  1.00  0.00     0.001 A 
HETATM   18  C6  UNL     1     -32.763  23.275  10.501  1.00  0.00     0.000 A 
HETATM   19  C7  UNL     1     -33.514  22.774  11.536  1.00  0.00     0.001 A 
HETATM   20  C8  UNL     1     -34.878  22.700  11.427  1.00  0.00     0.011 A 
ENDBRANCH   7  15
ENDBRANCH   1   7
BRANCH   6  21
HETATM   21  C15 UNL     1     -36.008  19.521   9.471  1.00  0.00     0.167 C 
BRANCH  21  22
HETATM   22  C16 UNL     1     -34.603  19.607   9.756  1.00  0.00     0.016 A 
HETATM   23  C17 UNL     1     -33.590  20.022   8.971  1.00  0.00     0.101 A 
HETATM   24  N2  UNL     1     -32.271  19.995   9.293  1.00  0.00    -0.355 N 
HETATM   25  C18 UNL     1     -31.951  19.518  10.504  1.00  0.00     0.078 A 
ATOM     26  H2  UNL     1     -31.556  20.322   8.644  1.00  0.00     0.166 HD
HETATM   27  C19 UNL     1     -30.490  19.433  10.797  1.00  0.00     0.089 C 
HETATM   28  N3  UNL     1     -32.888  19.097  11.332  1.00  0.00    -0.334 N 
HETATM   29  C20 UNL     1     -34.201  19.121  11.015  1.00  0.00     0.126 A 
ATOM     30  H3  UNL     1     -32.611  18.741  12.246  1.00  0.00     0.168 HD
HETATM   31  N4  UNL     1     -35.235  18.677  11.909  1.00  0.00    -0.082 NA
ENDBRANCH  21  22
ENDBRANCH   6  21
BRANCH   3  32
HETATM   32  C11 UNL     1     -38.557  22.055   6.097  1.00  0.00     0.075 C 
BRANCH  32  33
HETATM   33  C12 UNL     1     -39.522  23.225   6.238  1.00  0.00     0.186 C 
BRANCH  33  34
HETATM   34  O5  UNL     1     -40.544  22.961   5.271  1.00  0.00    -0.289 OA
BRANCH  34  35
HETATM   35  P2  UNL     1     -40.324  23.977   3.985  1.00  0.00     0.418 P 
HETATM   36  O6  UNL     1     -38.853  24.365   3.394  1.00  0.00    -0.624 OA
HETATM   37  O7  UNL     1     -41.695  24.796   3.456  1.00  0.00    -0.624 OA
BRANCH  35  38
HETATM   38  O8  UNL     1     -40.540  22.917   2.960  1.00  0.00    -0.173 OA
BRANCH  38  39
HETATM   39  P3  UNL     1     -41.457  21.601   3.140  1.00  0.00     0.431 P 
HETATM   40  O9  UNL     1     -41.062  21.021   1.785  1.00  0.00    -0.616 OA
HETATM   41  O10 UNL     1     -43.053  21.540   2.858  1.00  0.00    -0.616 OA
HETATM   42  O11 UNL     1     -40.731  20.225   3.863  1.00  0.00    -0.616 OA
ENDBRANCH  38  39
ENDBRANCH  35  38
ENDBRANCH  34  35
ENDBRANCH  33  34
ENDBRANCH  32  33
ENDBRANCH   3  32
TORSDOF 13
ENDMDL
