MODEL 3
REMARK VINA RESULT: -8.170394313      2.428      3.044
REMARK  13 active torsions:
REMARK  status: ('A' for Active; 'I' for Inactive)
REMARK    1  A    between atoms: O1_2  and  P1_3 
REMARK    2  A    between atoms: P1_3  and  C2_6 
REMARK    3  A    between atoms: C2_6  and  O4_7 
REMARK    4  A    between atoms: C2_6  and  C3_9 
REMARK    5  A    between atoms: C2_6  and  C9_15 
REMARK    6  A    between atoms: C10_17  and  C11_18 
REMARK    7  A    between atoms: C11_18  and  C12_19 
REMARK    8  A    between atoms: C12_19  and  O5_20 
REMARK    9  A    between atoms: O5_20  and  P2_21 
REMARK   10  A    between atoms: P2_21  and  O8_24 
REMARK   11  A    between atoms: O8_24  and  P3_25 
REMARK   12  A    between atoms: N1_31  and  C15_32 
REMARK   13  A    between atoms: C15_32  and  C16_33 
ROOT
HETATM    1  C9  UNL     1     -37.510  21.730   9.880  1.00  0.00     0.203 C 
HETATM    2  S1  UNL     1     -39.165  21.864   8.944  1.00  0.00    -0.102 SA
HETATM    3  C10 UNL     1     -38.302  21.959   7.381  1.00  0.00     0.004 C 
HETATM    4  C13 UNL     1     -37.114  21.427   7.552  1.00  0.00     0.017 C 
HETATM    5  C14 UNL     1     -36.160  21.356   6.414  1.00  0.00     0.069 C 
HETATM    6  N1  UNL     1     -36.883  20.976   8.835  1.00  0.00    -0.361 N 
ENDROOT
BRANCH   1   7
HETATM    7  C2  UNL     1     -37.144  23.144  10.158  1.00  0.00     0.220 C 
BRANCH   7   8
HETATM    8  P1  UNL     1     -37.983  23.859  11.530  1.00  0.00     0.292 P 
HETATM    9  O2  UNL     1     -39.317  23.090  12.116  1.00  0.00    -0.644 OA
HETATM   10  O3  UNL     1     -38.726  24.970  10.810  1.00  0.00    -0.644 OA
BRANCH   8  11
HETATM   11  O1  UNL     1     -37.258  25.083  12.447  1.00  0.00    -0.315 OA
HETATM   12  C1  UNL     1     -37.231  24.554  13.734  1.00  0.00     0.213 C 
ENDBRANCH   8  11
ENDBRANCH   7   8
BRANCH   7  13
HETATM   13  O4  UNL     1     -37.426  23.885   8.993  1.00  0.00    -0.370 OA
ATOM     14  H4  UNL     1     -36.825  23.634   8.302  1.00  0.00     0.212 HD
ENDBRANCH   7  13
BRANCH   7  15
HETATM   15  C3  UNL     1     -35.689  23.273  10.372  1.00  0.00    -0.008 A 
HETATM   16  C4  UNL     1     -34.919  23.882   9.445  1.00  0.00     0.011 A 
HETATM   17  C5  UNL     1     -33.525  23.966   9.585  1.00  0.00     0.001 A 
HETATM   18  C6  UNL     1     -32.932  23.416  10.701  1.00  0.00     0.000 A 
HETATM   19  C7  UNL     1     -33.712  22.797  11.646  1.00  0.00     0.001 A 
HETATM   20  C8  UNL     1     -35.072  22.727  11.481  1.00  0.00     0.011 A 
ENDBRANCH   7  15
ENDBRANCH   1   7
BRANCH   6  21
HETATM   21  C15 UNL     1     -36.146  19.751   9.194  1.00  0.00     0.167 C 
BRANCH  21  22
HETATM   22  C16 UNL     1     -34.738  19.851   9.457  1.00  0.00     0.016 A 
HETATM   23  C17 UNL     1     -33.759  20.395   8.707  1.00  0.00     0.101 A 
HETATM   24  N2  UNL     1     -32.432  20.374   8.995  1.00  0.00    -0.355 N 
HETATM   25  C18 UNL     1     -32.066  19.764  10.131  1.00  0.00     0.078 A 
ATOM     26  H2  UNL     1     -31.745  20.804   8.376  1.00  0.00     0.166 HD
HETATM   27  C19 UNL     1     -30.596  19.696  10.380  1.00  0.00     0.089 C 
HETATM   28  N3  UNL     1     -32.968  19.213  10.920  1.00  0.00    -0.334 N 
HETATM   29  C20 UNL     1     -34.288  19.229  10.637  1.00  0.00     0.126 A 
ATOM     30  H3  UNL     1     -32.656  18.757  11.777  1.00  0.00     0.168 HD
HETATM   31  N4  UNL     1     -35.284  18.643  11.491  1.00  0.00    -0.082 NA
ENDBRANCH  21  22
ENDBRANCH   6  21
BRANCH   3  32
HETATM   32  C11 UNL     1     -38.909  22.472   6.149  1.00  0.00     0.075 C 
BRANCH  32  33
HETATM   33  C12 UNL     1     -40.373  22.072   6.025  1.00  0.00     0.186 C 
BRANCH  33  34
HETATM   34  O5  UNL     1     -40.348  20.868   5.253  1.00  0.00    -0.289 OA
BRANCH  34  35
HETATM   35  P2  UNL     1     -41.023  19.654   6.151  1.00  0.00     0.418 P 
HETATM   36  O6  UNL     1     -42.344  19.863   7.087  1.00  0.00    -0.624 OA
HETATM   37  O7  UNL     1     -40.129  18.232   6.248  1.00  0.00    -0.624 OA
BRANCH  35  38
HETATM   38  O8  UNL     1     -41.818  19.099   5.020  1.00  0.00    -0.173 OA
BRANCH  38  39
HETATM   39  P3  UNL     1     -43.021  19.852   4.251  1.00  0.00     0.431 P 
HETATM   40  O9  UNL     1     -43.289  18.676   3.315  1.00  0.00    -0.616 OA
HETATM   41  O10 UNL     1     -42.824  20.935   3.061  1.00  0.00    -0.616 OA
HETATM   42  O11 UNL     1     -44.608  19.635   4.865  1.00  0.00    -0.616 OA
ENDBRANCH  38  39
ENDBRANCH  35  38
ENDBRANCH  34  35
ENDBRANCH  33  34
ENDBRANCH  32  33
ENDBRANCH   3  32
TORSDOF 13
ENDMDL
