MODEL 4
REMARK VINA RESULT: -9.684856897      1.987      9.939
REMARK  6 active torsions:
REMARK  status: ('A' for Active; 'I' for Inactive)
REMARK    1  A    between atoms: C5_5  and  C6_6 
REMARK       I    between atoms: C6_6  and  N1_8 
REMARK    2  A    between atoms: N1_8  and  C7_10 
REMARK    3  A    between atoms: C11_14  and  C12_15 
REMARK    4  A    between atoms: C15_18  and  C16_19 
REMARK       I    between atoms: C16_19  and  N2_21 
REMARK    5  A    between atoms: N2_21  and  C17_23 
REMARK    6  A    between atoms: C17_23  and  C18_24 
ROOT
HETATM    1  C1  UNL     1      43.635  34.534  34.212  1.00  0.00     0.049 C 
HETATM    2  C2  UNL     1      44.586  34.229  33.155  1.00  0.00    -0.051 A 
HETATM    3  C3  UNL     1      45.680  35.027  32.836  1.00  0.00     0.009 A 
HETATM    4  C4  UNL     1      46.561  34.706  31.820  1.00  0.00     0.017 A 
HETATM    5  C5  UNL     1      46.358  33.558  31.093  1.00  0.00     0.032 A 
HETATM    6  C10 UNL     1      45.264  32.775  31.424  1.00  0.00     0.029 A 
HETATM    7  C11 UNL     1      44.370  33.077  32.435  1.00  0.00    -0.019 A 
ENDROOT
BRANCH   7   8
HETATM    8  C12 UNL     1      43.279  32.215  32.705  1.00  0.00    -0.025 A 
HETATM    9  C13 UNL     1      43.551  30.834  32.662  1.00  0.00     0.013 A 
HETATM   10  C14 UNL     1      42.596  29.882  32.904  1.00  0.00     0.018 A 
HETATM   11  C15 UNL     1      41.316  30.250  33.203  1.00  0.00     0.032 A 
HETATM   12  C21 UNL     1      41.017  31.602  33.253  1.00  0.00     0.018 A 
HETATM   13  C22 UNL     1      41.995  32.551  33.006  1.00  0.00     0.013 A 
BRANCH  11  14
HETATM   14  C16 UNL     1      40.304  29.238  33.461  1.00  0.00     0.251 C 
HETATM   15  O2  UNL     1      39.489  28.894  32.550  1.00  0.00    -0.268 OA
HETATM   16  N2  UNL     1      40.152  28.579  34.708  1.00  0.00    -0.356 N 
ATOM     17  H2  UNL     1      40.778  28.815  35.478  1.00  0.00     0.162 HD
BRANCH  16  18
HETATM   18  C17 UNL     1      39.114  27.567  34.913  1.00  0.00     0.135 C 
BRANCH  18  19
HETATM   19  C18 UNL     1      38.356  27.945  36.184  1.00  0.00     0.048 A 
HETATM   20  C19 UNL     1      37.201  27.028  36.444  1.00  0.00    -0.020 A 
HETATM   21  C20 UNL     1      38.266  27.022  37.289  1.00  0.00    -0.020 A 
ENDBRANCH  18  19
ENDBRANCH  16  18
ENDBRANCH  11  14
ENDBRANCH   7   8
BRANCH   5  22
HETATM   22  C6  UNL     1      47.257  33.148  29.991  1.00  0.00     0.252 C 
HETATM   23  O1  UNL     1      46.784  32.520  29.009  1.00  0.00    -0.268 OA
HETATM   24  N1  UNL     1      48.640  33.423  29.977  1.00  0.00    -0.346 N 
ATOM     25  H1  UNL     1      49.045  33.930  30.764  1.00  0.00     0.163 HD
BRANCH  24  26
HETATM   26  C7  UNL     1      49.501  33.019  28.900  1.00  0.00     0.130 A 
HETATM   27  C8  UNL     1      50.113  34.133  28.118  1.00  0.00     0.000 A 
HETATM   28  C9  UNL     1      50.946  33.405  28.948  1.00  0.00     0.000 A 
ENDBRANCH  24  26
ENDBRANCH   5  22
TORSDOF 6
ENDMDL
