MODEL 1
REMARK VINA RESULT: -11.513460416      0.000      0.000
REMARK  6 active torsions:
REMARK  status: ('A' for Active; 'I' for Inactive)
REMARK    1  A    between atoms: C5_5  and  C6_6 
REMARK       I    between atoms: C6_6  and  N1_8 
REMARK    2  A    between atoms: N1_8  and  C7_10 
REMARK    3  A    between atoms: C11_14  and  C12_15 
REMARK    4  A    between atoms: C15_18  and  C16_19 
REMARK       I    between atoms: C16_19  and  N2_21 
REMARK    5  A    between atoms: N2_21  and  C17_23 
REMARK    6  A    between atoms: C17_23  and  C18_24 
ROOT
HETATM    1  C1  UNL     1      39.958  32.059  30.129  1.00  0.00     0.049 C 
HETATM    2  C2  UNL     1      39.741  31.184  31.271  1.00  0.00    -0.051 A 
HETATM    3  C3  UNL     1      38.532  30.559  31.556  1.00  0.00     0.009 A 
HETATM    4  C4  UNL     1      38.363  29.736  32.654  1.00  0.00     0.017 A 
HETATM    5  C5  UNL     1      39.424  29.520  33.501  1.00  0.00     0.032 A 
HETATM    6  C10 UNL     1      40.621  30.150  33.202  1.00  0.00     0.029 A 
HETATM    7  C11 UNL     1      40.811  30.977  32.109  1.00  0.00    -0.019 A 
ENDROOT
BRANCH   7   8
HETATM    8  C12 UNL     1      42.074  31.577  31.880  1.00  0.00    -0.025 A 
HETATM    9  C13 UNL     1      42.409  32.660  32.715  1.00  0.00     0.013 A 
HETATM   10  C14 UNL     1      43.597  33.336  32.612  1.00  0.00     0.018 A 
HETATM   11  C15 UNL     1      44.517  32.973  31.673  1.00  0.00     0.032 A 
HETATM   12  C21 UNL     1      44.217  31.911  30.836  1.00  0.00     0.018 A 
HETATM   13  C22 UNL     1      43.011  31.239  30.954  1.00  0.00     0.013 A 
BRANCH  11  14
HETATM   14  C16 UNL     1      45.778  33.691  31.565  1.00  0.00     0.251 C 
HETATM   15  O2  UNL     1      46.132  34.512  32.466  1.00  0.00    -0.268 OA
HETATM   16  N2  UNL     1      46.679  33.536  30.480  1.00  0.00    -0.356 N 
ATOM     17  H2  UNL     1      46.447  32.890  29.726  1.00  0.00     0.162 HD
BRANCH  16  18
HETATM   18  C17 UNL     1      47.936  34.285  30.422  1.00  0.00     0.135 C 
BRANCH  18  19
HETATM   19  C18 UNL     1      49.066  33.299  30.709  1.00  0.00     0.048 A 
HETATM   20  C19 UNL     1      50.275  33.978  31.274  1.00  0.00    -0.020 A 
HETATM   21  C20 UNL     1      49.563  33.119  32.051  1.00  0.00    -0.020 A 
ENDBRANCH  18  19
ENDBRANCH  16  18
ENDBRANCH  11  14
ENDBRANCH   7   8
BRANCH   5  22
HETATM   22  C6  UNL     1      39.320  28.652  34.696  1.00  0.00     0.252 C 
HETATM   23  O1  UNL     1      40.164  28.773  35.621  1.00  0.00    -0.268 OA
HETATM   24  N1  UNL     1      38.314  27.680  34.861  1.00  0.00    -0.346 N 
ATOM     25  H1  UNL     1      37.620  27.564  34.123  1.00  0.00     0.163 HD
BRANCH  24  26
HETATM   26  C7  UNL     1      38.226  26.844  36.027  1.00  0.00     0.130 A 
HETATM   27  C8  UNL     1      37.392  27.386  37.140  1.00  0.00     0.000 A 
HETATM   28  C9  UNL     1      36.888  26.311  36.433  1.00  0.00     0.000 A 
ENDBRANCH  24  26
ENDBRANCH   5  22
TORSDOF 6
ENDMDL
