MODEL 3
REMARK VINA RESULT: -11.374580809      0.764      1.342
REMARK  6 active torsions:
REMARK  status: ('A' for Active; 'I' for Inactive)
REMARK    1  A    between atoms: C5_5  and  C6_6 
REMARK       I    between atoms: C6_6  and  N1_8 
REMARK    2  A    between atoms: N1_8  and  C7_10 
REMARK    3  A    between atoms: C11_14  and  C12_15 
REMARK    4  A    between atoms: C15_18  and  C16_19 
REMARK       I    between atoms: C16_19  and  N2_21 
REMARK    5  A    between atoms: N2_21  and  C17_23 
REMARK    6  A    between atoms: C17_23  and  C18_24 
ROOT
HETATM    1  C1  UNL     1      40.037  32.082  30.470  1.00  0.00     0.049 C 
HETATM    2  C2  UNL     1      39.767  31.171  31.571  1.00  0.00    -0.051 A 
HETATM    3  C3  UNL     1      38.615  30.401  31.681  1.00  0.00     0.009 A 
HETATM    4  C4  UNL     1      38.391  29.547  32.746  1.00  0.00     0.017 A 
HETATM    5  C5  UNL     1      39.338  29.449  33.737  1.00  0.00     0.032 A 
HETATM    6  C10 UNL     1      40.480  30.223  33.612  1.00  0.00     0.029 A 
HETATM    7  C11 UNL     1      40.723  31.083  32.556  1.00  0.00    -0.019 A 
ENDROOT
BRANCH   7   8
HETATM    8  C12 UNL     1      41.923  31.834  32.509  1.00  0.00    -0.025 A 
HETATM    9  C13 UNL     1      42.987  31.265  31.784  1.00  0.00     0.013 A 
HETATM   10  C14 UNL     1      44.205  31.877  31.650  1.00  0.00     0.018 A 
HETATM   11  C15 UNL     1      44.434  33.091  32.230  1.00  0.00     0.032 A 
HETATM   12  C21 UNL     1      43.406  33.678  32.950  1.00  0.00     0.018 A 
HETATM   13  C22 UNL     1      42.181  33.045  33.075  1.00  0.00     0.013 A 
BRANCH  11  14
HETATM   14  C16 UNL     1      45.727  33.741  32.086  1.00  0.00     0.251 C 
HETATM   15  O2  UNL     1      45.856  34.982  32.322  1.00  0.00    -0.268 OA
HETATM   16  N2  UNL     1      46.907  33.061  31.685  1.00  0.00    -0.356 N 
ATOM     17  H2  UNL     1      46.863  32.063  31.481  1.00  0.00     0.162 HD
BRANCH  16  18
HETATM   18  C17 UNL     1      48.184  33.765  31.556  1.00  0.00     0.135 C 
BRANCH  18  19
HETATM   19  C18 UNL     1      48.405  34.038  30.070  1.00  0.00     0.048 A 
HETATM   20  C19 UNL     1      49.353  33.057  29.452  1.00  0.00    -0.020 A 
HETATM   21  C20 UNL     1      48.045  33.053  29.079  1.00  0.00    -0.020 A 
ENDBRANCH  18  19
ENDBRANCH  16  18
ENDBRANCH  11  14
ENDBRANCH   7   8
BRANCH   5  22
HETATM   22  C6  UNL     1      39.170  28.558  34.908  1.00  0.00     0.252 C 
HETATM   23  O1  UNL     1      39.940  28.683  35.895  1.00  0.00    -0.268 OA
HETATM   24  N1  UNL     1      38.180  27.558  34.983  1.00  0.00    -0.346 N 
ATOM     25  H1  UNL     1      37.545  27.437  34.194  1.00  0.00     0.163 HD
BRANCH  24  26
HETATM   26  C7  UNL     1      38.029  26.700  36.127  1.00  0.00     0.130 A 
HETATM   27  C8  UNL     1      37.185  27.247  37.229  1.00  0.00     0.000 A 
HETATM   28  C9  UNL     1      36.662  26.207  36.483  1.00  0.00     0.000 A 
ENDBRANCH  24  26
ENDBRANCH   5  22
TORSDOF 6
ENDMDL
