MODEL 2
REMARK VINA RESULT: -11.439902144      0.737      1.109
REMARK  6 active torsions:
REMARK  status: ('A' for Active; 'I' for Inactive)
REMARK    1  A    between atoms: C5_5  and  C6_6 
REMARK       I    between atoms: C6_6  and  N1_8 
REMARK    2  A    between atoms: N1_8  and  C7_10 
REMARK    3  A    between atoms: C11_14  and  C12_15 
REMARK    4  A    between atoms: C15_18  and  C16_19 
REMARK       I    between atoms: C16_19  and  N2_21 
REMARK    5  A    between atoms: N2_21  and  C17_23 
REMARK    6  A    between atoms: C17_23  and  C18_24 
ROOT
HETATM    1  C1  UNL     1      39.877  32.053  30.127  1.00  0.00     0.049 C 
HETATM    2  C2  UNL     1      39.672  31.174  31.267  1.00  0.00    -0.051 A 
HETATM    3  C3  UNL     1      38.466  30.547  31.562  1.00  0.00     0.009 A 
HETATM    4  C4  UNL     1      38.308  29.720  32.658  1.00  0.00     0.017 A 
HETATM    5  C5  UNL     1      39.377  29.501  33.494  1.00  0.00     0.032 A 
HETATM    6  C10 UNL     1      40.571  30.133  33.185  1.00  0.00     0.029 A 
HETATM    7  C11 UNL     1      40.750  30.964  32.094  1.00  0.00    -0.019 A 
ENDROOT
BRANCH   7   8
HETATM    8  C12 UNL     1      42.010  31.566  31.855  1.00  0.00    -0.025 A 
HETATM    9  C13 UNL     1      42.359  32.638  32.699  1.00  0.00     0.013 A 
HETATM   10  C14 UNL     1      43.546  33.314  32.588  1.00  0.00     0.018 A 
HETATM   11  C15 UNL     1      44.452  32.961  31.631  1.00  0.00     0.032 A 
HETATM   12  C21 UNL     1      44.138  31.910  30.785  1.00  0.00     0.018 A 
HETATM   13  C22 UNL     1      42.934  31.238  30.911  1.00  0.00     0.013 A 
BRANCH  11  14
HETATM   14  C16 UNL     1      45.712  33.679  31.514  1.00  0.00     0.251 C 
HETATM   15  O2  UNL     1      45.971  34.656  32.282  1.00  0.00    -0.268 OA
HETATM   16  N2  UNL     1      46.715  33.355  30.565  1.00  0.00    -0.356 N 
ATOM     17  H2  UNL     1      46.562  32.579  29.920  1.00  0.00     0.162 HD
BRANCH  16  18
HETATM   18  C17 UNL     1      47.966  34.112  30.491  1.00  0.00     0.135 C 
BRANCH  18  19
HETATM   19  C18 UNL     1      48.153  34.541  29.038  1.00  0.00     0.048 A 
HETATM   20  C19 UNL     1      48.823  35.875  28.926  1.00  0.00    -0.020 A 
HETATM   21  C20 UNL     1      49.473  34.760  28.498  1.00  0.00    -0.020 A 
ENDBRANCH  18  19
ENDBRANCH  16  18
ENDBRANCH  11  14
ENDBRANCH   7   8
BRANCH   5  22
HETATM   22  C6  UNL     1      39.285  28.629  34.686  1.00  0.00     0.252 C 
HETATM   23  O1  UNL     1      40.133  28.752  35.608  1.00  0.00    -0.268 OA
HETATM   24  N1  UNL     1      38.286  27.649  34.854  1.00  0.00    -0.346 N 
ATOM     25  H1  UNL     1      37.589  27.531  34.119  1.00  0.00     0.163 HD
BRANCH  24  26
HETATM   26  C7  UNL     1      38.210  26.809  36.018  1.00  0.00     0.130 A 
HETATM   27  C8  UNL     1      37.401  27.355  37.147  1.00  0.00     0.000 A 
HETATM   28  C9  UNL     1      36.875  26.287  36.444  1.00  0.00     0.000 A 
ENDBRANCH  24  26
ENDBRANCH   5  22
TORSDOF 6
ENDMDL
