MODEL 5
REMARK VINA RESULT: -9.241519528      2.809     10.608
REMARK  6 active torsions:
REMARK  status: ('A' for Active; 'I' for Inactive)
REMARK    1  A    between atoms: C5_5  and  C6_6 
REMARK       I    between atoms: C6_6  and  N1_8 
REMARK    2  A    between atoms: N1_8  and  C7_10 
REMARK    3  A    between atoms: C11_14  and  C12_15 
REMARK    4  A    between atoms: C15_18  and  C16_19 
REMARK       I    between atoms: C16_19  and  N2_21 
REMARK    5  A    between atoms: N2_21  and  C17_23 
REMARK    6  A    between atoms: C17_23  and  C18_24 
ROOT
HETATM    1  C1  UNL     1      47.628  32.227  33.738  1.00  0.00     0.049 C 
HETATM    2  C2  UNL     1      48.099  33.045  32.632  1.00  0.00    -0.051 A 
HETATM    3  C3  UNL     1      49.430  33.393  32.431  1.00  0.00     0.009 A 
HETATM    4  C4  UNL     1      49.840  34.178  31.369  1.00  0.00     0.017 A 
HETATM    5  C5  UNL     1      48.904  34.634  30.472  1.00  0.00     0.032 A 
HETATM    6  C10 UNL     1      47.583  34.279  30.687  1.00  0.00     0.029 A 
HETATM    7  C11 UNL     1      47.152  33.496  31.743  1.00  0.00    -0.019 A 
ENDROOT
BRANCH   7   8
HETATM    8  C12 UNL     1      45.778  33.179  31.882  1.00  0.00    -0.025 A 
HETATM    9  C13 UNL     1      45.282  32.172  31.032  1.00  0.00     0.013 A 
HETATM   10  C14 UNL     1      43.976  31.759  31.056  1.00  0.00     0.018 A 
HETATM   11  C15 UNL     1      43.089  32.324  31.925  1.00  0.00     0.032 A 
HETATM   12  C21 UNL     1      43.547  33.319  32.775  1.00  0.00     0.018 A 
HETATM   13  C22 UNL     1      44.871  33.724  32.738  1.00  0.00     0.013 A 
BRANCH  11  14
HETATM   14  C16 UNL     1      41.703  31.884  31.950  1.00  0.00     0.251 C 
HETATM   15  O2  UNL     1      40.797  32.574  31.388  1.00  0.00    -0.268 OA
HETATM   16  N2  UNL     1      41.269  30.691  32.583  1.00  0.00    -0.356 N 
ATOM     17  H2  UNL     1      41.953  30.096  33.051  1.00  0.00     0.162 HD
BRANCH  16  18
HETATM   18  C17 UNL     1      39.860  30.295  32.577  1.00  0.00     0.135 C 
BRANCH  18  19
HETATM   19  C18 UNL     1      39.407  30.204  34.032  1.00  0.00     0.048 A 
HETATM   20  C19 UNL     1      38.845  28.856  34.364  1.00  0.00    -0.020 A 
HETATM   21  C20 UNL     1      40.014  29.254  34.933  1.00  0.00    -0.020 A 
ENDBRANCH  18  19
ENDBRANCH  16  18
ENDBRANCH  11  14
ENDBRANCH   7   8
BRANCH   5  22
HETATM   22  C6  UNL     1      49.266  35.478  29.310  1.00  0.00     0.252 C 
HETATM   23  O1  UNL     1      49.456  34.938  28.190  1.00  0.00    -0.268 OA
HETATM   24  N1  UNL     1      49.416  36.877  29.387  1.00  0.00    -0.346 N 
ATOM     25  H1  UNL     1      49.268  37.337  30.285  1.00  0.00     0.163 HD
BRANCH  24  26
HETATM   26  C7  UNL     1      49.768  37.684  28.250  1.00  0.00     0.130 A 
HETATM   27  C8  UNL     1      48.621  38.150  27.417  1.00  0.00     0.000 A 
HETATM   28  C9  UNL     1      49.276  39.095  28.186  1.00  0.00     0.000 A 
ENDBRANCH  24  26
ENDBRANCH   5  22
TORSDOF 6
ENDMDL
