MODEL 6
REMARK VINA RESULT: -9.067268468      2.901     10.744
REMARK  6 active torsions:
REMARK  status: ('A' for Active; 'I' for Inactive)
REMARK    1  A    between atoms: C5_5  and  C6_6 
REMARK       I    between atoms: C6_6  and  N1_8 
REMARK    2  A    between atoms: N1_8  and  C7_10 
REMARK    3  A    between atoms: C11_14  and  C12_15 
REMARK    4  A    between atoms: C15_18  and  C16_19 
REMARK       I    between atoms: C16_19  and  N2_21 
REMARK    5  A    between atoms: N2_21  and  C17_23 
REMARK    6  A    between atoms: C17_23  and  C18_24 
ROOT
HETATM    1  C1  UNL     1      47.915  32.492  33.706  1.00  0.00     0.049 C 
HETATM    2  C2  UNL     1      48.414  33.013  32.443  1.00  0.00    -0.051 A 
HETATM    3  C3  UNL     1      49.763  33.160  32.139  1.00  0.00     0.009 A 
HETATM    4  C4  UNL     1      50.199  33.664  30.927  1.00  0.00     0.017 A 
HETATM    5  C5  UNL     1      49.273  34.035  29.982  1.00  0.00     0.032 A 
HETATM    6  C10 UNL     1      47.934  33.882  30.302  1.00  0.00     0.029 A 
HETATM    7  C11 UNL     1      47.476  33.381  31.507  1.00  0.00    -0.019 A 
ENDROOT
BRANCH   7   8
HETATM    8  C12 UNL     1      46.085  33.257  31.746  1.00  0.00    -0.025 A 
HETATM    9  C13 UNL     1      45.408  32.281  30.990  1.00  0.00     0.013 A 
HETATM   10  C14 UNL     1      44.064  32.047  31.115  1.00  0.00     0.018 A 
HETATM   11  C15 UNL     1      43.318  32.769  32.001  1.00  0.00     0.032 A 
HETATM   12  C21 UNL     1      43.955  33.737  32.760  1.00  0.00     0.018 A 
HETATM   13  C22 UNL     1      45.315  33.960  32.620  1.00  0.00     0.013 A 
BRANCH  11  14
HETATM   14  C16 UNL     1      41.891  32.518  32.133  1.00  0.00     0.251 C 
HETATM   15  O2  UNL     1      41.306  32.693  33.246  1.00  0.00    -0.268 OA
HETATM   16  N2  UNL     1      41.069  32.073  31.065  1.00  0.00    -0.356 N 
ATOM     17  H2  UNL     1      41.485  31.915  30.147  1.00  0.00     0.162 HD
BRANCH  16  18
HETATM   18  C17 UNL     1      39.637  31.836  31.255  1.00  0.00     0.135 C 
BRANCH  18  19
HETATM   19  C18 UNL     1      39.460  30.353  31.572  1.00  0.00     0.048 A 
HETATM   20  C19 UNL     1      38.899  30.133  32.942  1.00  0.00    -0.020 A 
HETATM   21  C20 UNL     1      38.153  29.811  31.852  1.00  0.00    -0.020 A 
ENDBRANCH  18  19
ENDBRANCH  16  18
ENDBRANCH  11  14
ENDBRANCH   7   8
BRANCH   5  22
HETATM   22  C6  UNL     1      49.663  34.583  28.663  1.00  0.00     0.252 C 
HETATM   23  O1  UNL     1      49.066  35.595  28.213  1.00  0.00    -0.268 OA
HETATM   24  N1  UNL     1      50.682  34.025  27.864  1.00  0.00    -0.346 N 
ATOM     25  H1  UNL     1      51.178  33.203  28.207  1.00  0.00     0.163 HD
BRANCH  24  26
HETATM   26  C7  UNL     1      51.049  34.568  26.584  1.00  0.00     0.130 A 
HETATM   27  C8  UNL     1      52.444  34.273  26.143  1.00  0.00     0.000 A 
HETATM   28  C9  UNL     1      51.416  33.627  25.481  1.00  0.00     0.000 A 
ENDBRANCH  24  26
ENDBRANCH   5  22
TORSDOF 6
ENDMDL
