MODEL 1
REMARK VINA RESULT: -11.500515764      0.000      0.000
REMARK  7 active torsions:
REMARK  status: ('A' for Active; 'I' for Inactive)
REMARK    1  A    between atoms: C5_5  and  N1_6 
REMARK       I    between atoms: N1_6  and  C6_8 
REMARK    2  A    between atoms: C6_8  and  C7_10 
REMARK    3  A    between atoms: C10_15  and  N3_16 
REMARK    4  A    between atoms: C17_24  and  C18_25 
REMARK    5  A    between atoms: C21_28  and  C22_29 
REMARK       I    between atoms: C22_29  and  N4_31 
REMARK    6  A    between atoms: N4_31  and  C23_33 
REMARK    7  A    between atoms: C23_33  and  C24_34 
ROOT
HETATM    1  C1  UNL     1      39.917  32.776  30.227  1.00  0.00     0.049 C 
HETATM    2  C2  UNL     1      39.820  31.742  31.317  1.00  0.00    -0.051 A 
HETATM    3  C3  UNL     1      38.595  31.207  31.643  1.00  0.00     0.010 A 
HETATM    4  C4  UNL     1      38.471  30.239  32.645  1.00  0.00     0.030 A 
HETATM    5  C5  UNL     1      39.574  29.810  33.317  1.00  0.00     0.035 A 
HETATM    6  C16 UNL     1      40.783  30.368  32.966  1.00  0.00     0.042 A 
HETATM    7  C17 UNL     1      40.942  31.324  31.984  1.00  0.00    -0.018 A 
ENDROOT
BRANCH   5   8
HETATM    8  N1  UNL     1      39.563  28.836  34.340  1.00  0.00    -0.323 N 
HETATM    9  C6  UNL     1      39.766  29.032  35.714  1.00  0.00     0.256 C 
HETATM   10  O1  UNL     1      39.986  30.212  36.136  1.00  0.00    -0.267 OA
ATOM     11  H1  UNL     1      39.386  27.876  34.044  1.00  0.00     0.169 HD
BRANCH   9  12
HETATM   12  C7  UNL     1      39.731  27.928  36.682  1.00  0.00     0.037 A 
HETATM   13  C8  UNL     1      39.423  26.632  36.370  1.00  0.00     0.034 A 
HETATM   14  C9  UNL     1      39.406  25.633  37.333  1.00  0.00     0.090 A 
HETATM   15  N2  UNL     1      39.696  25.953  38.582  1.00  0.00    -0.352 N 
HETATM   16  C10 UNL     1      40.015  27.217  38.992  1.00  0.00     0.104 A 
ATOM     17  H2  UNL     1      39.680  25.212  39.283  1.00  0.00     0.166 HD
HETATM   18  C15 UNL     1      40.026  28.193  38.018  1.00  0.00     0.065 A 
BRANCH  16  19
HETATM   19  N3  UNL     1      40.310  27.462  40.357  1.00  0.00    -0.363 N 
HETATM   20  C11 UNL     1      40.878  28.725  40.760  1.00  0.00     0.150 C 
HETATM   21  C12 UNL     1      40.149  29.175  42.013  1.00  0.00     0.187 C 
HETATM   22  O2  UNL     1      40.450  28.227  42.989  1.00  0.00    -0.388 OA
HETATM   23  C13 UNL     1      39.879  27.004  42.747  1.00  0.00     0.187 C 
HETATM   24  C14 UNL     1      40.051  26.467  41.365  1.00  0.00     0.150 C 
ENDBRANCH  16  19
ENDBRANCH   9  12
ENDBRANCH   5   8
BRANCH   7  25
HETATM   25  C18 UNL     1      42.247  31.885  31.660  1.00  0.00    -0.025 A 
HETATM   26  C19 UNL     1      43.054  31.393  30.662  1.00  0.00     0.013 A 
HETATM   27  C20 UNL     1      44.306  31.949  30.373  1.00  0.00     0.018 A 
HETATM   28  C21 UNL     1      44.776  33.023  31.089  1.00  0.00     0.032 A 
HETATM   29  C27 UNL     1      43.979  33.536  32.101  1.00  0.00     0.018 A 
HETATM   30  C28 UNL     1      42.763  32.973  32.359  1.00  0.00     0.013 A 
BRANCH  28  31
HETATM   31  C22 UNL     1      46.076  33.618  30.806  1.00  0.00     0.251 C 
HETATM   32  O3  UNL     1      46.261  34.841  31.043  1.00  0.00    -0.268 OA
HETATM   33  N4  UNL     1      47.159  32.894  30.272  1.00  0.00    -0.356 N 
ATOM     34  H4  UNL     1      47.029  31.902  30.072  1.00  0.00     0.162 HD
BRANCH  33  35
HETATM   35  C23 UNL     1      48.452  33.494  29.993  1.00  0.00     0.127 C 
BRANCH  35  36
HETATM   36  C24 UNL     1      48.502  34.044  28.575  1.00  0.00     0.003 A 
HETATM   37  C25 UNL     1      48.730  35.467  28.315  1.00  0.00     0.007 A 
HETATM   38  C26 UNL     1      49.808  34.500  28.008  1.00  0.00     0.007 A 
ENDBRANCH  35  36
ENDBRANCH  33  35
ENDBRANCH  28  31
ENDBRANCH   7  25
TORSDOF 7
ENDMDL
