MODEL 3
REMARK VINA RESULT: -11.346237246      1.211      1.518
REMARK  7 active torsions:
REMARK  status: ('A' for Active; 'I' for Inactive)
REMARK    1  A    between atoms: C5_5  and  N1_6 
REMARK       I    between atoms: N1_6  and  C6_8 
REMARK    2  A    between atoms: C6_8  and  C7_10 
REMARK    3  A    between atoms: C10_15  and  N3_16 
REMARK    4  A    between atoms: C17_24  and  C18_25 
REMARK    5  A    between atoms: C21_28  and  C22_29 
REMARK       I    between atoms: C22_29  and  N4_31 
REMARK    6  A    between atoms: N4_31  and  C23_33 
REMARK    7  A    between atoms: C23_33  and  C24_34 
ROOT
HETATM    1  C1  UNL     1      40.097  32.452  30.374  1.00  0.00     0.049 C 
HETATM    2  C2  UNL     1      39.936  31.466  31.500  1.00  0.00    -0.051 A 
HETATM    3  C3  UNL     1      38.705  31.305  32.095  1.00  0.00     0.010 A 
HETATM    4  C4  UNL     1      38.520  30.392  33.138  1.00  0.00     0.030 A 
HETATM    5  C5  UNL     1      39.566  29.643  33.582  1.00  0.00     0.035 A 
HETATM    6  C16 UNL     1      40.782  29.831  32.965  1.00  0.00     0.042 A 
HETATM    7  C17 UNL     1      41.001  30.722  31.935  1.00  0.00    -0.018 A 
ENDROOT
BRANCH   5   8
HETATM    8  N1  UNL     1      39.487  28.690  34.623  1.00  0.00    -0.323 N 
HETATM    9  C6  UNL     1      39.976  28.809  35.932  1.00  0.00     0.256 C 
HETATM   10  O1  UNL     1      40.563  29.885  36.269  1.00  0.00    -0.267 OA
ATOM     11  H1  UNL     1      39.021  27.813  34.394  1.00  0.00     0.169 HD
BRANCH   9  12
HETATM   12  C7  UNL     1      39.832  27.737  36.926  1.00  0.00     0.037 A 
HETATM   13  C8  UNL     1      39.404  26.469  36.645  1.00  0.00     0.034 A 
HETATM   14  C9  UNL     1      39.287  25.501  37.632  1.00  0.00     0.090 A 
HETATM   15  N2  UNL     1      39.601  25.823  38.875  1.00  0.00    -0.352 N 
HETATM   16  C10 UNL     1      40.037  27.061  39.255  1.00  0.00     0.104 A 
ATOM     17  H2  UNL     1      39.511  25.105  39.593  1.00  0.00     0.166 HD
HETATM   18  C15 UNL     1      40.145  28.007  38.258  1.00  0.00     0.065 A 
BRANCH  16  19
HETATM   19  N3  UNL     1      40.347  27.311  40.616  1.00  0.00    -0.363 N 
HETATM   20  C11 UNL     1      41.038  28.521  40.991  1.00  0.00     0.150 C 
HETATM   21  C12 UNL     1      40.352  29.075  42.225  1.00  0.00     0.187 C 
HETATM   22  O2  UNL     1      40.550  28.128  43.228  1.00  0.00    -0.388 OA
HETATM   23  C13 UNL     1      39.860  26.963  43.013  1.00  0.00     0.187 C 
HETATM   24  C14 UNL     1      39.984  26.375  41.647  1.00  0.00     0.150 C 
ENDBRANCH  16  19
ENDBRANCH   9  12
ENDBRANCH   5   8
BRANCH   7  25
HETATM   25  C18 UNL     1      42.315  30.884  31.323  1.00  0.00    -0.025 A 
HETATM   26  C19 UNL     1      42.943  32.100  31.195  1.00  0.00     0.013 A 
HETATM   27  C20 UNL     1      44.204  32.229  30.601  1.00  0.00     0.018 A 
HETATM   28  C21 UNL     1      44.866  31.125  30.118  1.00  0.00     0.032 A 
HETATM   29  C27 UNL     1      44.250  29.888  30.237  1.00  0.00     0.018 A 
HETATM   30  C28 UNL     1      43.021  29.794  30.822  1.00  0.00     0.013 A 
BRANCH  28  31
HETATM   31  C22 UNL     1      46.178  31.235  29.496  1.00  0.00     0.251 C 
HETATM   32  O3  UNL     1      46.693  30.220  28.956  1.00  0.00    -0.268 OA
HETATM   33  N4  UNL     1      46.921  32.430  29.460  1.00  0.00    -0.356 N 
ATOM     34  H4  UNL     1      46.521  33.264  29.892  1.00  0.00     0.162 HD
BRANCH  33  35
HETATM   35  C23 UNL     1      48.228  32.532  28.837  1.00  0.00     0.127 C 
BRANCH  35  36
HETATM   36  C24 UNL     1      48.646  33.987  28.683  1.00  0.00     0.003 A 
HETATM   37  C25 UNL     1      48.391  34.970  29.739  1.00  0.00     0.007 A 
HETATM   38  C26 UNL     1      49.780  34.518  29.501  1.00  0.00     0.007 A 
ENDBRANCH  35  36
ENDBRANCH  33  35
ENDBRANCH  28  31
ENDBRANCH   7  25
TORSDOF 7
ENDMDL
