MODEL 5
REMARK VINA RESULT: -11.141296958      1.533      2.143
REMARK  7 active torsions:
REMARK  status: ('A' for Active; 'I' for Inactive)
REMARK    1  A    between atoms: C5_5  and  N1_6 
REMARK       I    between atoms: N1_6  and  C6_8 
REMARK    2  A    between atoms: C6_8  and  C7_10 
REMARK    3  A    between atoms: C10_15  and  N3_16 
REMARK    4  A    between atoms: C17_24  and  C18_25 
REMARK    5  A    between atoms: C21_28  and  C22_29 
REMARK       I    between atoms: C22_29  and  N4_31 
REMARK    6  A    between atoms: N4_31  and  C23_33 
REMARK    7  A    between atoms: C23_33  and  C24_34 
ROOT
HETATM    1  C1  UNL     1      40.166  32.418  30.201  1.00  0.00     0.049 C 
HETATM    2  C2  UNL     1      39.946  31.505  31.377  1.00  0.00    -0.051 A 
HETATM    3  C3  UNL     1      38.701  31.430  31.959  1.00  0.00     0.010 A 
HETATM    4  C4  UNL     1      38.460  30.586  33.048  1.00  0.00     0.030 A 
HETATM    5  C5  UNL     1      39.466  29.818  33.550  1.00  0.00     0.035 A 
HETATM    6  C16 UNL     1      40.698  29.919  32.944  1.00  0.00     0.042 A 
HETATM    7  C17 UNL     1      40.971  30.740  31.870  1.00  0.00    -0.018 A 
ENDROOT
BRANCH   5   8
HETATM    8  N1  UNL     1      39.331  28.929  34.640  1.00  0.00    -0.323 N 
HETATM    9  C6  UNL     1      40.079  28.907  35.826  1.00  0.00     0.256 C 
HETATM   10  O1  UNL     1      40.996  29.773  35.985  1.00  0.00    -0.267 OA
ATOM     11  H1  UNL     1      38.603  28.220  34.554  1.00  0.00     0.169 HD
BRANCH   9  12
HETATM   12  C7  UNL     1      39.840  27.923  36.890  1.00  0.00     0.037 A 
HETATM   13  C8  UNL     1      39.529  26.608  36.675  1.00  0.00     0.034 A 
HETATM   14  C9  UNL     1      39.313  25.727  37.726  1.00  0.00     0.090 A 
HETATM   15  N2  UNL     1      39.412  26.181  38.964  1.00  0.00    -0.352 N 
HETATM   16  C10 UNL     1      39.718  27.476  39.279  1.00  0.00     0.104 A 
ATOM     17  H2  UNL     1      39.251  25.527  39.729  1.00  0.00     0.166 HD
HETATM   18  C15 UNL     1      39.928  28.332  38.219  1.00  0.00     0.065 A 
BRANCH  16  19
HETATM   19  N3  UNL     1      39.800  27.869  40.639  1.00  0.00    -0.363 N 
HETATM   20  C11 UNL     1      39.070  27.141  41.648  1.00  0.00     0.150 C 
HETATM   21  C12 UNL     1      40.000  26.942  42.830  1.00  0.00     0.187 C 
HETATM   22  O2  UNL     1      40.273  28.219  43.320  1.00  0.00    -0.388 OA
HETATM   23  C13 UNL     1      41.044  28.969  42.469  1.00  0.00     0.187 C 
HETATM   24  C14 UNL     1      40.606  28.991  41.042  1.00  0.00     0.150 C 
ENDBRANCH  16  19
ENDBRANCH   9  12
ENDBRANCH   5   8
BRANCH   7  25
HETATM   25  C18 UNL     1      42.299  30.811  31.272  1.00  0.00    -0.025 A 
HETATM   26  C19 UNL     1      43.001  31.984  31.131  1.00  0.00     0.013 A 
HETATM   27  C20 UNL     1      44.275  32.025  30.550  1.00  0.00     0.018 A 
HETATM   28  C21 UNL     1      44.873  30.874  30.096  1.00  0.00     0.032 A 
HETATM   29  C27 UNL     1      44.182  29.679  30.229  1.00  0.00     0.018 A 
HETATM   30  C28 UNL     1      42.943  29.671  30.799  1.00  0.00     0.013 A 
BRANCH  28  31
HETATM   31  C22 UNL     1      46.197  30.893  29.488  1.00  0.00     0.251 C 
HETATM   32  O3  UNL     1      46.656  29.839  28.974  1.00  0.00    -0.268 OA
HETATM   33  N4  UNL     1      47.011  32.040  29.440  1.00  0.00    -0.356 N 
ATOM     34  H4  UNL     1      46.658  32.904  29.852  1.00  0.00     0.162 HD
BRANCH  33  35
HETATM   35  C23 UNL     1      48.330  32.051  28.832  1.00  0.00     0.127 C 
BRANCH  35  36
HETATM   36  C24 UNL     1      49.418  31.942  29.889  1.00  0.00     0.003 A 
HETATM   37  C25 UNL     1      49.807  30.648  30.456  1.00  0.00     0.007 A 
HETATM   38  C26 UNL     1      50.736  31.333  29.531  1.00  0.00     0.007 A 
ENDBRANCH  35  36
ENDBRANCH  33  35
ENDBRANCH  28  31
ENDBRANCH   7  25
TORSDOF 7
ENDMDL
