MODEL 2
REMARK VINA RESULT: -11.470406654      0.665      1.305
REMARK  7 active torsions:
REMARK  status: ('A' for Active; 'I' for Inactive)
REMARK    1  A    between atoms: C5_5  and  N1_6 
REMARK       I    between atoms: N1_6  and  C6_8 
REMARK    2  A    between atoms: C6_8  and  C7_10 
REMARK    3  A    between atoms: C10_15  and  N3_16 
REMARK    4  A    between atoms: C17_24  and  C18_25 
REMARK    5  A    between atoms: C21_28  and  C22_29 
REMARK       I    between atoms: C22_29  and  N4_31 
REMARK    6  A    between atoms: N4_31  and  C23_33 
REMARK    7  A    between atoms: C23_33  and  C24_34 
ROOT
HETATM    1  C1  UNL     1      39.865  32.788  30.309  1.00  0.00     0.049 C 
HETATM    2  C2  UNL     1      39.784  31.747  31.394  1.00  0.00    -0.051 A 
HETATM    3  C3  UNL     1      38.564  31.203  31.728  1.00  0.00     0.010 A 
HETATM    4  C4  UNL     1      38.455  30.228  32.725  1.00  0.00     0.030 A 
HETATM    5  C5  UNL     1      39.566  29.801  33.384  1.00  0.00     0.035 A 
HETATM    6  C16 UNL     1      40.769  30.367  33.025  1.00  0.00     0.042 A 
HETATM    7  C17 UNL     1      40.914  31.329  32.048  1.00  0.00    -0.018 A 
ENDROOT
BRANCH   5   8
HETATM    8  N1  UNL     1      39.569  28.820  34.401  1.00  0.00    -0.323 N 
HETATM    9  C6  UNL     1      39.785  29.008  35.774  1.00  0.00     0.256 C 
HETATM   10  O1  UNL     1      40.006  30.186  36.201  1.00  0.00    -0.267 OA
ATOM     11  H1  UNL     1      39.392  27.861  34.101  1.00  0.00     0.169 HD
BRANCH   9  12
HETATM   12  C7  UNL     1      39.764  27.898  36.735  1.00  0.00     0.037 A 
HETATM   13  C8  UNL     1      39.517  26.593  36.408  1.00  0.00     0.034 A 
HETATM   14  C9  UNL     1      39.509  25.588  37.365  1.00  0.00     0.090 A 
HETATM   15  N2  UNL     1      39.749  25.912  38.624  1.00  0.00    -0.352 N 
HETATM   16  C10 UNL     1      40.006  27.185  39.049  1.00  0.00     0.104 A 
ATOM     17  H2  UNL     1      39.741  25.166  39.320  1.00  0.00     0.166 HD
HETATM   18  C15 UNL     1      40.008  28.166  38.081  1.00  0.00     0.065 A 
BRANCH  16  19
HETATM   19  N3  UNL     1      40.250  27.433  40.424  1.00  0.00    -0.363 N 
HETATM   20  C11 UNL     1      41.108  28.522  40.822  1.00  0.00     0.150 C 
HETATM   21  C12 UNL     1      40.434  29.233  41.981  1.00  0.00     0.187 C 
HETATM   22  O2  UNL     1      40.389  28.307  43.022  1.00  0.00    -0.388 OA
HETATM   23  C13 UNL     1      39.527  27.268  42.781  1.00  0.00     0.187 C 
HETATM   24  C14 UNL     1      39.652  26.614  41.446  1.00  0.00     0.150 C 
ENDBRANCH  16  19
ENDBRANCH   9  12
ENDBRANCH   5   8
BRANCH   7  25
HETATM   25  C18 UNL     1      42.214  31.899  31.715  1.00  0.00    -0.025 A 
HETATM   26  C19 UNL     1      42.781  32.941  32.409  1.00  0.00     0.013 A 
HETATM   27  C20 UNL     1      44.031  33.472  32.066  1.00  0.00     0.018 A 
HETATM   28  C21 UNL     1      44.742  32.959  31.008  1.00  0.00     0.032 A 
HETATM   29  C27 UNL     1      44.188  31.906  30.294  1.00  0.00     0.018 A 
HETATM   30  C28 UNL     1      42.968  31.410  30.652  1.00  0.00     0.013 A 
BRANCH  28  31
HETATM   31  C22 UNL     1      46.043  33.495  30.633  1.00  0.00     0.251 C 
HETATM   32  O3  UNL     1      46.373  34.646  31.024  1.00  0.00    -0.268 OA
HETATM   33  N4  UNL     1      46.972  32.793  29.843  1.00  0.00    -0.356 N 
ATOM     34  H4  UNL     1      46.724  31.859  29.514  1.00  0.00     0.162 HD
BRANCH  33  35
HETATM   35  C23 UNL     1      48.268  33.335  29.474  1.00  0.00     0.127 C 
BRANCH  35  36
HETATM   36  C24 UNL     1      49.367  32.776  30.365  1.00  0.00     0.003 A 
HETATM   37  C25 UNL     1      49.712  31.352  30.350  1.00  0.00     0.007 A 
HETATM   38  C26 UNL     1      50.654  32.325  29.754  1.00  0.00     0.007 A 
ENDBRANCH  35  36
ENDBRANCH  33  35
ENDBRANCH  28  31
ENDBRANCH   7  25
TORSDOF 7
ENDMDL
