MODEL 13
REMARK VINA RESULT: -10.361222602      1.965     11.620
REMARK  7 active torsions:
REMARK  status: ('A' for Active; 'I' for Inactive)
REMARK    1  A    between atoms: C5_5  and  N1_6 
REMARK       I    between atoms: N1_6  and  C6_8 
REMARK    2  A    between atoms: C6_8  and  C7_10 
REMARK    3  A    between atoms: C10_15  and  N3_16 
REMARK    4  A    between atoms: C17_24  and  C18_25 
REMARK    5  A    between atoms: C21_28  and  C22_29 
REMARK       I    between atoms: C22_29  and  N4_31 
REMARK    6  A    between atoms: N4_31  and  C23_33 
REMARK    7  A    between atoms: C23_33  and  C24_34 
ROOT
HETATM    1  C1  UNL     1      38.201  31.286  32.795  1.00  0.00     0.049 C 
HETATM    2  C2  UNL     1      39.548  31.285  32.123  1.00  0.00    -0.051 A 
HETATM    3  C3  UNL     1      39.700  31.897  30.899  1.00  0.00     0.010 A 
HETATM    4  C4  UNL     1      40.939  31.921  30.251  1.00  0.00     0.030 A 
HETATM    5  C5  UNL     1      42.022  31.334  30.830  1.00  0.00     0.035 A 
HETATM    6  C16 UNL     1      41.834  30.731  32.053  1.00  0.00     0.042 A 
HETATM    7  C17 UNL     1      40.627  30.688  32.720  1.00  0.00    -0.018 A 
ENDROOT
BRANCH   5   8
HETATM    8  N1  UNL     1      43.318  31.306  30.266  1.00  0.00    -0.323 N 
HETATM    9  C6  UNL     1      44.374  32.199  30.499  1.00  0.00     0.256 C 
HETATM   10  O1  UNL     1      44.191  33.162  31.309  1.00  0.00    -0.267 OA
ATOM     11  H1  UNL     1      43.507  30.546  29.612  1.00  0.00     0.169 HD
BRANCH   9  12
HETATM   12  C7  UNL     1      45.681  32.061  29.844  1.00  0.00     0.037 A 
HETATM   13  C8  UNL     1      46.118  30.929  29.213  1.00  0.00     0.034 A 
HETATM   14  C9  UNL     1      47.368  30.862  28.614  1.00  0.00     0.090 A 
HETATM   15  N2  UNL     1      48.150  31.926  28.660  1.00  0.00    -0.352 N 
HETATM   16  C10 UNL     1      47.804  33.101  29.266  1.00  0.00     0.104 A 
ATOM     17  H2  UNL     1      49.067  31.867  28.218  1.00  0.00     0.166 HD
HETATM   18  C15 UNL     1      46.558  33.145  29.855  1.00  0.00     0.065 A 
BRANCH  16  19
HETATM   19  N3  UNL     1      48.713  34.189  29.265  1.00  0.00    -0.363 N 
HETATM   20  C11 UNL     1      49.717  34.295  30.296  1.00  0.00     0.150 C 
HETATM   21  C12 UNL     1      51.022  34.679  29.625  1.00  0.00     0.187 C 
HETATM   22  O2  UNL     1      50.814  35.946  29.083  1.00  0.00    -0.388 OA
HETATM   23  C13 UNL     1      49.938  35.944  28.029  1.00  0.00     0.187 C 
HETATM   24  C14 UNL     1      48.660  35.204  28.246  1.00  0.00     0.150 C 
ENDBRANCH  16  19
ENDBRANCH   9  12
ENDBRANCH   5   8
BRANCH   7  25
HETATM   25  C18 UNL     1      40.485  30.028  34.012  1.00  0.00    -0.025 A 
HETATM   26  C19 UNL     1      40.856  30.609  35.201  1.00  0.00     0.013 A 
HETATM   27  C20 UNL     1      40.711  29.952  36.429  1.00  0.00     0.018 A 
HETATM   28  C21 UNL     1      40.185  28.683  36.486  1.00  0.00     0.032 A 
HETATM   29  C27 UNL     1      39.805  28.078  35.298  1.00  0.00     0.018 A 
HETATM   30  C28 UNL     1      39.957  28.744  34.117  1.00  0.00     0.013 A 
BRANCH  28  31
HETATM   31  C22 UNL     1      40.026  27.980  37.752  1.00  0.00     0.251 C 
HETATM   32  O3  UNL     1      39.620  26.789  37.750  1.00  0.00    -0.268 OA
HETATM   33  N4  UNL     1      40.304  28.564  39.002  1.00  0.00    -0.356 N 
ATOM     34  H4  UNL     1      40.634  29.529  39.026  1.00  0.00     0.162 HD
BRANCH  33  35
HETATM   35  C23 UNL     1      40.143  27.856  40.260  1.00  0.00     0.127 C 
BRANCH  35  36
HETATM   36  C24 UNL     1      39.942  28.831  41.411  1.00  0.00     0.003 A 
HETATM   37  C25 UNL     1      39.814  28.364  42.794  1.00  0.00     0.007 A 
HETATM   38  C26 UNL     1      41.054  29.061  42.384  1.00  0.00     0.007 A 
ENDBRANCH  35  36
ENDBRANCH  33  35
ENDBRANCH  28  31
ENDBRANCH   7  25
TORSDOF 7
ENDMDL
