MODEL 15
REMARK VINA RESULT: -10.319608247      2.462     11.141
REMARK  7 active torsions:
REMARK  status: ('A' for Active; 'I' for Inactive)
REMARK    1  A    between atoms: C5_5  and  N1_6 
REMARK       I    between atoms: N1_6  and  C6_8 
REMARK    2  A    between atoms: C6_8  and  C7_10 
REMARK    3  A    between atoms: C10_15  and  N3_16 
REMARK    4  A    between atoms: C17_24  and  C18_25 
REMARK    5  A    between atoms: C21_28  and  C22_29 
REMARK       I    between atoms: C22_29  and  N4_31 
REMARK    6  A    between atoms: N4_31  and  C23_33 
REMARK    7  A    between atoms: C23_33  and  C24_34 
ROOT
HETATM    1  C1  UNL     1      37.912  30.910  32.840  1.00  0.00     0.049 C 
HETATM    2  C2  UNL     1      39.277  31.186  32.269  1.00  0.00    -0.051 A 
HETATM    3  C3  UNL     1      39.395  31.901  31.099  1.00  0.00     0.010 A 
HETATM    4  C4  UNL     1      40.649  32.182  30.546  1.00  0.00     0.030 A 
HETATM    5  C5  UNL     1      41.780  31.746  31.166  1.00  0.00     0.035 A 
HETATM    6  C16 UNL     1      41.624  31.033  32.334  1.00  0.00     0.042 A 
HETATM    7  C17 UNL     1      40.405  30.738  32.907  1.00  0.00    -0.018 A 
ENDROOT
BRANCH   5   8
HETATM    8  N1  UNL     1      43.093  31.978  30.698  1.00  0.00    -0.323 N 
HETATM    9  C6  UNL     1      44.005  32.945  31.147  1.00  0.00     0.256 C 
HETATM   10  O1  UNL     1      43.653  33.725  32.087  1.00  0.00    -0.267 OA
ATOM     11  H1  UNL     1      43.415  31.371  29.945  1.00  0.00     0.169 HD
BRANCH   9  12
HETATM   12  C7  UNL     1      45.348  33.087  30.572  1.00  0.00     0.037 A 
HETATM   13  C8  UNL     1      46.087  34.238  30.598  1.00  0.00     0.034 A 
HETATM   14  C9  UNL     1      47.352  34.308  30.034  1.00  0.00     0.090 A 
HETATM   15  N2  UNL     1      47.849  33.227  29.458  1.00  0.00    -0.352 N 
HETATM   16  C10 UNL     1      47.191  32.032  29.381  1.00  0.00     0.104 A 
ATOM     17  H2  UNL     1      48.780  33.289  29.046  1.00  0.00     0.166 HD
HETATM   18  C15 UNL     1      45.935  31.986  29.948  1.00  0.00     0.065 A 
BRANCH  16  19
HETATM   19  N3  UNL     1      47.807  30.928  28.740  1.00  0.00    -0.363 N 
HETATM   20  C11 UNL     1      49.245  30.849  28.657  1.00  0.00     0.150 C 
HETATM   21  C12 UNL     1      49.644  29.424  28.991  1.00  0.00     0.187 C 
HETATM   22  O2  UNL     1      49.102  28.630  27.982  1.00  0.00    -0.388 OA
HETATM   23  C13 UNL     1      47.733  28.563  28.026  1.00  0.00     0.187 C 
HETATM   24  C14 UNL     1      47.022  29.868  28.164  1.00  0.00     0.150 C 
ENDBRANCH  16  19
ENDBRANCH   9  12
ENDBRANCH   5   8
BRANCH   7  25
HETATM   25  C18 UNL     1      40.300  29.972  34.143  1.00  0.00    -0.025 A 
HETATM   26  C19 UNL     1      39.868  28.668  34.188  1.00  0.00     0.013 A 
HETATM   27  C20 UNL     1      39.773  27.955  35.390  1.00  0.00     0.018 A 
HETATM   28  C21 UNL     1      40.116  28.546  36.582  1.00  0.00     0.032 A 
HETATM   29  C27 UNL     1      40.555  29.861  36.559  1.00  0.00     0.018 A 
HETATM   30  C28 UNL     1      40.637  30.530  35.373  1.00  0.00     0.013 A 
BRANCH  28  31
HETATM   31  C22 UNL     1      40.025  27.824  37.844  1.00  0.00     0.251 C 
HETATM   32  O3  UNL     1      39.597  26.640  37.849  1.00  0.00    -0.268 OA
HETATM   33  N4  UNL     1      40.394  28.381  39.083  1.00  0.00    -0.356 N 
ATOM     34  H4  UNL     1      40.743  29.339  39.101  1.00  0.00     0.162 HD
BRANCH  33  35
HETATM   35  C23 UNL     1      40.301  27.654  40.337  1.00  0.00     0.127 C 
BRANCH  35  36
HETATM   36  C24 UNL     1      41.079  28.363  41.436  1.00  0.00     0.003 A 
HETATM   37  C25 UNL     1      40.542  29.548  42.110  1.00  0.00     0.007 A 
HETATM   38  C26 UNL     1      40.606  28.269  42.851  1.00  0.00     0.007 A 
ENDBRANCH  35  36
ENDBRANCH  33  35
ENDBRANCH  28  31
ENDBRANCH   7  25
TORSDOF 7
ENDMDL
