MODEL 17
REMARK VINA RESULT: -10.154923405      2.310     11.286
REMARK  7 active torsions:
REMARK  status: ('A' for Active; 'I' for Inactive)
REMARK    1  A    between atoms: C5_5  and  N1_6 
REMARK       I    between atoms: N1_6  and  C6_8 
REMARK    2  A    between atoms: C6_8  and  C7_10 
REMARK    3  A    between atoms: C10_15  and  N3_16 
REMARK    4  A    between atoms: C17_24  and  C18_25 
REMARK    5  A    between atoms: C21_28  and  C22_29 
REMARK       I    between atoms: C22_29  and  N4_31 
REMARK    6  A    between atoms: N4_31  and  C23_33 
REMARK    7  A    between atoms: C23_33  and  C24_34 
ROOT
HETATM    1  C1  UNL     1      38.275  31.200  32.835  1.00  0.00     0.049 C 
HETATM    2  C2  UNL     1      39.641  31.182  32.200  1.00  0.00    -0.051 A 
HETATM    3  C3  UNL     1      39.831  31.778  30.974  1.00  0.00     0.010 A 
HETATM    4  C4  UNL     1      41.087  31.786  30.360  1.00  0.00     0.030 A 
HETATM    5  C5  UNL     1      42.150  31.199  30.976  1.00  0.00     0.035 A 
HETATM    6  C16 UNL     1      41.923  30.612  32.201  1.00  0.00     0.042 A 
HETATM    7  C17 UNL     1      40.699  30.585  32.835  1.00  0.00    -0.018 A 
ENDROOT
BRANCH   5   8
HETATM    8  N1  UNL     1      43.460  31.155  30.449  1.00  0.00    -0.323 N 
HETATM    9  C6  UNL     1      44.245  30.021  30.196  1.00  0.00     0.256 C 
HETATM   10  O1  UNL     1      43.760  28.874  30.453  1.00  0.00    -0.267 OA
ATOM     11  H1  UNL     1      43.885  32.055  30.226  1.00  0.00     0.169 HD
BRANCH   9  12
HETATM   12  C7  UNL     1      45.604  30.110  29.645  1.00  0.00     0.037 A 
HETATM   13  C8  UNL     1      46.366  29.034  29.281  1.00  0.00     0.034 A 
HETATM   14  C9  UNL     1      47.646  29.185  28.768  1.00  0.00     0.090 A 
HETATM   15  N2  UNL     1      48.133  30.407  28.630  1.00  0.00    -0.352 N 
HETATM   16  C10 UNL     1      47.450  31.542  28.964  1.00  0.00     0.104 A 
ATOM     17  H2  UNL     1      49.075  30.508  28.252  1.00  0.00     0.166 HD
HETATM   18  C15 UNL     1      46.180  31.367  29.473  1.00  0.00     0.065 A 
BRANCH  16  19
HETATM   19  N3  UNL     1      48.058  32.810  28.781  1.00  0.00    -0.363 N 
HETATM   20  C11 UNL     1      47.356  34.012  29.161  1.00  0.00     0.150 C 
HETATM   21  C12 UNL     1      48.344  34.908  29.884  1.00  0.00     0.187 C 
HETATM   22  O2  UNL     1      49.313  35.245  28.940  1.00  0.00    -0.388 OA
HETATM   23  C13 UNL     1      50.101  34.185  28.574  1.00  0.00     0.187 C 
HETATM   24  C14 UNL     1      49.378  32.928  28.219  1.00  0.00     0.150 C 
ENDBRANCH  16  19
ENDBRANCH   9  12
ENDBRANCH   5   8
BRANCH   7  25
HETATM   25  C18 UNL     1      40.516  29.942  34.130  1.00  0.00    -0.025 A 
HETATM   26  C19 UNL     1      40.952  30.489  35.313  1.00  0.00     0.013 A 
HETATM   27  C20 UNL     1      40.766  29.849  36.544  1.00  0.00     0.018 A 
HETATM   28  C21 UNL     1      40.132  28.632  36.610  1.00  0.00     0.032 A 
HETATM   29  C27 UNL     1      39.683  28.061  35.429  1.00  0.00     0.018 A 
HETATM   30  C28 UNL     1      39.878  28.709  34.244  1.00  0.00     0.013 A 
BRANCH  28  31
HETATM   31  C22 UNL     1      39.928  27.947  37.880  1.00  0.00     0.251 C 
HETATM   32  O3  UNL     1      39.243  26.891  37.910  1.00  0.00    -0.268 OA
HETATM   33  N4  UNL     1      40.461  28.403  39.100  1.00  0.00    -0.356 N 
ATOM     34  H4  UNL     1      41.019  29.257  39.098  1.00  0.00     0.162 HD
BRANCH  33  35
HETATM   35  C23 UNL     1      40.254  27.715  40.362  1.00  0.00     0.127 C 
BRANCH  35  36
HETATM   36  C24 UNL     1      41.045  28.377  41.480  1.00  0.00     0.003 A 
HETATM   37  C25 UNL     1      40.489  29.491  42.253  1.00  0.00     0.007 A 
HETATM   38  C26 UNL     1      40.629  28.168  42.901  1.00  0.00     0.007 A 
ENDBRANCH  35  36
ENDBRANCH  33  35
ENDBRANCH  28  31
ENDBRANCH   7  25
TORSDOF 7
ENDMDL
