MODEL 3
REMARK VINA RESULT: -6.974070298      4.232      7.275
REMARK  5 active torsions:
REMARK  status: ('A' for Active; 'I' for Inactive)
REMARK    1  A    between atoms: N1_1  and  S1_4 
REMARK    2  A    between atoms: S1_4  and  C1_7 
REMARK    3  A    between atoms: C2_12  and  N4_13 
REMARK    4  A    between atoms: N4_13  and  S2_15 
REMARK    5  A    between atoms: S2_15  and  C3_18 
ROOT
HETATM    1  C1  UNL     1       0.165   4.107  11.134  1.00  0.00     0.208 A 
HETATM    2  N2  UNL     1      -0.097   3.381  12.215  1.00  0.00    -0.281 N 
ATOM      3  H2  UNL     1       0.666   2.946  12.733  1.00  0.00     0.188 HD
HETATM    4  N3  UNL     1      -1.287   3.230  12.601  1.00  0.00    -0.278 N 
ATOM      5  H3  UNL     1      -1.487   2.674  13.432  1.00  0.00     0.189 HD
HETATM    6  C2  UNL     1      -2.279   3.797  11.926  1.00  0.00     0.175 A 
HETATM    7  S3  UNL     1      -1.420   4.582  10.674  1.00  0.00    -0.019 SA
ENDROOT
BRANCH   6   8
HETATM    8  N4  UNL     1      -3.696   3.748  12.196  1.00  0.00    -0.259 N 
ATOM      9  H4  UNL     1      -4.273   4.587  12.136  1.00  0.00     0.181 HD
BRANCH   8  10
HETATM   10  S2  UNL     1      -4.379   2.232  12.624  1.00  0.00     0.264 S 
HETATM   11  O3  UNL     1      -3.351   1.151  12.448  1.00  0.00    -0.200 OA
HETATM   12  O4  UNL     1      -5.508   1.931  11.678  1.00  0.00    -0.200 OA
BRANCH  10  13
HETATM   13  C3  UNL     1      -5.000   2.169  14.236  1.00  0.00     0.079 A 
HETATM   14  C4  UNL     1      -4.591   1.161  15.082  1.00  0.00     0.025 A 
HETATM   15  C5  UNL     1      -5.055   1.063  16.373  1.00  0.00     0.002 A 
HETATM   16  C6  UNL     1      -5.960   1.995  16.855  1.00  0.00     0.000 A 
HETATM   17  C7  UNL     1      -6.374   3.010  16.011  1.00  0.00     0.002 A 
HETATM   18  C8  UNL     1      -5.900   3.096  14.719  1.00  0.00     0.025 A 
ENDBRANCH  10  13
ENDBRANCH   8  10
ENDBRANCH   6   8
BRANCH   1  19
HETATM   19  S1  UNL     1       1.721   4.469  10.391  1.00  0.00     0.280 S 
HETATM   20  O1  UNL     1       2.018   3.503   9.283  1.00  0.00    -0.199 OA
HETATM   21  O2  UNL     1       2.754   4.358  11.473  1.00  0.00    -0.199 OA
BRANCH  19  22
HETATM   22  N1  UNL     1       1.757   6.056   9.763  1.00  0.00    -0.323 N 
ATOM     23  H12 UNL     1       0.944   6.559   9.406  1.00  0.00     0.169 HD
ATOM     24  H11 UNL     1       2.714   6.407   9.807  1.00  0.00     0.169 HD
ENDBRANCH  19  22
ENDBRANCH   1  19
TORSDOF 5
ENDMDL
