MODEL 17
REMARK VINA RESULT: -6.753479372      1.933      2.413
REMARK  5 active torsions:
REMARK  status: ('A' for Active; 'I' for Inactive)
REMARK    1  A    between atoms: N1_1  and  S1_4 
REMARK    2  A    between atoms: S1_4  and  C1_7 
REMARK    3  A    between atoms: C2_12  and  N4_13 
REMARK    4  A    between atoms: N4_13  and  S2_15 
REMARK    5  A    between atoms: S2_15  and  C3_18 
ROOT
HETATM    1  C1  UNL     1      -4.996   1.912  16.085  1.00  0.00     0.208 A 
HETATM    2  N2  UNL     1      -3.690   2.147  16.058  1.00  0.00    -0.281 N 
ATOM      3  H2  UNL     1      -3.062   1.605  16.651  1.00  0.00     0.188 HD
HETATM    4  N3  UNL     1      -3.225   3.041  15.300  1.00  0.00    -0.278 N 
ATOM      5  H3  UNL     1      -2.222   3.221  15.279  1.00  0.00     0.189 HD
HETATM    6  C2  UNL     1      -4.043   3.746  14.530  1.00  0.00     0.175 A 
HETATM    7  S3  UNL     1      -5.555   3.063  14.940  1.00  0.00    -0.019 SA
ENDROOT
BRANCH   6   8
HETATM    8  N4  UNL     1      -3.719   4.804  13.601  1.00  0.00    -0.259 N 
ATOM      9  H4  UNL     1      -3.213   4.609  12.737  1.00  0.00     0.181 HD
BRANCH   8  10
HETATM   10  S2  UNL     1      -4.213   6.400  13.999  1.00  0.00     0.264 S 
HETATM   11  O3  UNL     1      -5.083   6.365  15.222  1.00  0.00    -0.200 OA
HETATM   12  O4  UNL     1      -5.048   6.937  12.872  1.00  0.00    -0.200 OA
BRANCH  10  13
HETATM   13  C3  UNL     1      -2.902   7.495  14.265  1.00  0.00     0.079 A 
HETATM   14  C4  UNL     1      -2.891   8.278  15.400  1.00  0.00     0.025 A 
HETATM   15  C5  UNL     1      -1.875   9.167  15.658  1.00  0.00     0.002 A 
HETATM   16  C6  UNL     1      -0.822   9.294  14.766  1.00  0.00     0.000 A 
HETATM   17  C7  UNL     1      -0.827   8.511  13.625  1.00  0.00     0.002 A 
HETATM   18  C8  UNL     1      -1.853   7.623  13.378  1.00  0.00     0.025 A 
ENDBRANCH  10  13
ENDBRANCH   8  10
ENDBRANCH   6   8
BRANCH   1  19
HETATM   19  S1  UNL     1      -5.891   0.734  17.044  1.00  0.00     0.280 S 
HETATM   20  O1  UNL     1      -5.444   0.764  18.474  1.00  0.00    -0.199 OA
HETATM   21  O2  UNL     1      -5.620  -0.612  16.439  1.00  0.00    -0.199 OA
BRANCH  19  22
HETATM   22  N1  UNL     1      -7.571   1.031  16.983  1.00  0.00    -0.323 N 
ATOM     23  H12 UNL     1      -8.051   1.767  17.502  1.00  0.00     0.169 HD
ATOM     24  H11 UNL     1      -8.003   0.357  16.350  1.00  0.00     0.169 HD
ENDBRANCH  19  22
ENDBRANCH   1  19
TORSDOF 5
ENDMDL
