MODEL 8
REMARK VINA RESULT: -6.842995348      3.552      6.342
REMARK  5 active torsions:
REMARK  status: ('A' for Active; 'I' for Inactive)
REMARK    1  A    between atoms: N1_1  and  S1_4 
REMARK    2  A    between atoms: S1_4  and  C1_7 
REMARK    3  A    between atoms: C2_12  and  N4_13 
REMARK    4  A    between atoms: N4_13  and  S2_15 
REMARK    5  A    between atoms: S2_15  and  C3_18 
ROOT
HETATM    1  C1  UNL     1      -3.974   3.640  11.474  1.00  0.00     0.208 A 
HETATM    2  N2  UNL     1      -3.154   3.516  12.512  1.00  0.00    -0.281 N 
ATOM      3  H2  UNL     1      -2.443   4.226  12.687  1.00  0.00     0.188 HD
HETATM    4  N3  UNL     1      -3.254   2.522  13.280  1.00  0.00    -0.278 N 
ATOM      5  H3  UNL     1      -2.625   2.428  14.077  1.00  0.00     0.189 HD
HETATM    6  C2  UNL     1      -4.179   1.599  13.051  1.00  0.00     0.175 A 
HETATM    7  S3  UNL     1      -4.930   2.223  11.648  1.00  0.00    -0.019 SA
ENDROOT
BRANCH   6   8
HETATM    8  N4  UNL     1      -4.458   0.397  13.801  1.00  0.00    -0.259 N 
ATOM      9  H4  UNL     1      -4.562  -0.504  13.334  1.00  0.00     0.181 HD
BRANCH   8  10
HETATM   10  S2  UNL     1      -4.609   0.533  15.507  1.00  0.00     0.264 S 
HETATM   11  O3  UNL     1      -3.249   0.711  16.118  1.00  0.00    -0.200 OA
HETATM   12  O4  UNL     1      -5.174  -0.752  16.042  1.00  0.00    -0.200 OA
BRANCH  10  13
HETATM   13  C3  UNL     1      -5.636   1.825  16.020  1.00  0.00     0.079 A 
HETATM   14  C4  UNL     1      -6.380   1.685  17.173  1.00  0.00     0.025 A 
HETATM   15  C5  UNL     1      -7.214   2.680  17.624  1.00  0.00     0.002 A 
HETATM   16  C6  UNL     1      -7.325   3.865  16.914  1.00  0.00     0.000 A 
HETATM   17  C7  UNL     1      -6.582   4.013  15.757  1.00  0.00     0.002 A 
HETATM   18  C8  UNL     1      -5.748   3.006  15.315  1.00  0.00     0.025 A 
ENDBRANCH  10  13
ENDBRANCH   8  10
ENDBRANCH   6   8
BRANCH   1  19
HETATM   19  S1  UNL     1      -4.043   4.917  10.262  1.00  0.00     0.280 S 
HETATM   20  O1  UNL     1      -5.411   5.528  10.213  1.00  0.00    -0.199 OA
HETATM   21  O2  UNL     1      -3.706   4.283   8.945  1.00  0.00    -0.199 OA
BRANCH  19  22
HETATM   22  N1  UNL     1      -2.902   6.145  10.585  1.00  0.00    -0.323 N 
ATOM     23  H12 UNL     1      -1.904   6.079  10.385  1.00  0.00     0.169 HD
ATOM     24  H11 UNL     1      -3.383   6.940  11.006  1.00  0.00     0.169 HD
ENDBRANCH  19  22
ENDBRANCH   1  19
TORSDOF 5
ENDMDL
