MODEL 10
REMARK VINA RESULT: -6.831520014      1.899      2.105
REMARK  5 active torsions:
REMARK  status: ('A' for Active; 'I' for Inactive)
REMARK    1  A    between atoms: N1_1  and  S1_4 
REMARK    2  A    between atoms: S1_4  and  C1_7 
REMARK    3  A    between atoms: C2_12  and  N4_13 
REMARK    4  A    between atoms: N4_13  and  S2_15 
REMARK    5  A    between atoms: S2_15  and  C3_18 
ROOT
HETATM    1  C1  UNL     1      -5.788   2.365  15.916  1.00  0.00     0.208 A 
HETATM    2  N2  UNL     1      -6.406   3.502  15.618  1.00  0.00    -0.281 N 
ATOM      3  H2  UNL     1      -7.205   3.808  16.173  1.00  0.00     0.188 HD
HETATM    4  N3  UNL     1      -6.006   4.202  14.650  1.00  0.00    -0.278 N 
ATOM      5  H3  UNL     1      -6.481   5.076  14.422  1.00  0.00     0.189 HD
HETATM    6  C2  UNL     1      -4.967   3.803  13.928  1.00  0.00     0.175 A 
HETATM    7  S3  UNL     1      -4.565   2.337  14.710  1.00  0.00    -0.019 SA
ENDROOT
BRANCH   6   8
HETATM    8  N4  UNL     1      -4.357   4.450  12.791  1.00  0.00    -0.259 N 
ATOM      9  H4  UNL     1      -3.704   3.950  12.187  1.00  0.00     0.181 HD
BRANCH   8  10
HETATM   10  S2  UNL     1      -4.765   6.091  12.488  1.00  0.00     0.264 S 
HETATM   11  O3  UNL     1      -6.221   6.308  12.785  1.00  0.00    -0.200 OA
HETATM   12  O4  UNL     1      -4.561   6.373  11.027  1.00  0.00    -0.200 OA
BRANCH  10  13
HETATM   13  C3  UNL     1      -3.825   7.227  13.390  1.00  0.00     0.079 A 
HETATM   14  C4  UNL     1      -3.099   8.191  12.722  1.00  0.00     0.025 A 
HETATM   15  C5  UNL     1      -2.334   9.116  13.391  1.00  0.00     0.002 A 
HETATM   16  C6  UNL     1      -2.276   9.097  14.776  1.00  0.00     0.000 A 
HETATM   17  C7  UNL     1      -3.002   8.133  15.452  1.00  0.00     0.002 A 
HETATM   18  C8  UNL     1      -3.767   7.210  14.769  1.00  0.00     0.025 A 
ENDBRANCH  10  13
ENDBRANCH   8  10
ENDBRANCH   6   8
BRANCH   1  19
HETATM   19  S1  UNL     1      -6.143   1.214  17.203  1.00  0.00     0.280 S 
HETATM   20  O1  UNL     1      -5.003   0.259  17.390  1.00  0.00    -0.199 OA
HETATM   21  O2  UNL     1      -7.382   0.475  16.793  1.00  0.00    -0.199 OA
BRANCH  19  22
HETATM   22  N1  UNL     1      -6.446   2.009  18.683  1.00  0.00    -0.323 N 
ATOM     23  H12 UNL     1      -6.980   1.614  19.457  1.00  0.00     0.169 HD
ATOM     24  H11 UNL     1      -6.006   2.930  18.659  1.00  0.00     0.169 HD
ENDBRANCH  19  22
ENDBRANCH   1  19
TORSDOF 5
ENDMDL
