MODEL 18
REMARK VINA RESULT: -6.739583633      3.331      7.000
REMARK  5 active torsions:
REMARK  status: ('A' for Active; 'I' for Inactive)
REMARK    1  A    between atoms: N1_1  and  S1_4 
REMARK    2  A    between atoms: S1_4  and  C1_7 
REMARK    3  A    between atoms: C2_12  and  N4_13 
REMARK    4  A    between atoms: N4_13  and  S2_15 
REMARK    5  A    between atoms: S2_15  and  C3_18 
ROOT
HETATM    1  C1  UNL     1      -0.820   5.056  12.444  1.00  0.00     0.208 A 
HETATM    2  N2  UNL     1      -1.190   3.872  12.918  1.00  0.00    -0.281 N 
ATOM      3  H2  UNL     1      -0.652   3.038  12.681  1.00  0.00     0.188 HD
HETATM    4  N3  UNL     1      -2.205   3.777  13.659  1.00  0.00    -0.278 N 
ATOM      5  H3  UNL     1      -2.488   2.868  14.023  1.00  0.00     0.189 HD
HETATM    6  C2  UNL     1      -2.904   4.863  13.965  1.00  0.00     0.175 A 
HETATM    7  S3  UNL     1      -2.028   6.068  13.127  1.00  0.00    -0.019 SA
ENDROOT
BRANCH   6   8
HETATM    8  N4  UNL     1      -4.085   4.971  14.789  1.00  0.00    -0.259 N 
ATOM      9  H4  UNL     1      -4.121   5.621  15.575  1.00  0.00     0.181 HD
BRANCH   8  10
HETATM   10  S2  UNL     1      -5.426   3.971  14.403  1.00  0.00     0.264 S 
HETATM   11  O3  UNL     1      -5.211   3.341  13.057  1.00  0.00    -0.200 OA
HETATM   12  O4  UNL     1      -6.652   4.832  14.301  1.00  0.00    -0.200 OA
BRANCH  10  13
HETATM   13  C3  UNL     1      -5.736   2.732  15.567  1.00  0.00     0.079 A 
HETATM   14  C4  UNL     1      -4.888   1.647  15.648  1.00  0.00     0.025 A 
HETATM   15  C5  UNL     1      -5.091   0.633  16.554  1.00  0.00     0.002 A 
HETATM   16  C6  UNL     1      -6.172   0.683  17.419  1.00  0.00     0.000 A 
HETATM   17  C7  UNL     1      -7.027   1.769  17.344  1.00  0.00     0.002 A 
HETATM   18  C8  UNL     1      -6.812   2.780  16.430  1.00  0.00     0.025 A 
ENDBRANCH  10  13
ENDBRANCH   8  10
ENDBRANCH   6   8
BRANCH   1  19
HETATM   19  S1  UNL     1       0.542   5.456  11.400  1.00  0.00     0.280 S 
HETATM   20  O1  UNL     1       0.889   6.911  11.514  1.00  0.00    -0.199 OA
HETATM   21  O2  UNL     1       0.125   5.127   9.998  1.00  0.00    -0.199 OA
BRANCH  19  22
HETATM   22  N1  UNL     1       1.921   4.528  11.792  1.00  0.00    -0.323 N 
ATOM     23  H12 UNL     1       2.809   4.567  11.293  1.00  0.00     0.169 HD
ATOM     24  H11 UNL     1       1.704   3.940  12.597  1.00  0.00     0.169 HD
ENDBRANCH  19  22
ENDBRANCH   1  19
TORSDOF 5
ENDMDL
