MODEL 1
REMARK VINA RESULT: -6.847194515      0.000      0.000
REMARK  4 active torsions:
REMARK  status: ('A' for Active; 'I' for Inactive)
REMARK    1  A    between atoms: N1_4  and  C4_5 
REMARK    2  A    between atoms: C6_7  and  O1_8 
REMARK    3  A    between atoms: C7_10  and  C8_11 
REMARK    4  A    between atoms: C8_11  and  N2_12 
ROOT
HETATM    1  C4  UNL     1      35.334  -4.143  11.956  1.00  0.00     0.235 C 
HETATM    2  C5  UNL     1      34.824  -4.687  13.256  1.00  0.00     0.088 C 
HETATM    3  C6  UNL     1      34.579  -6.158  12.888  1.00  0.00     0.153 C 
HETATM    4  C7  UNL     1      35.069  -6.214  11.455  1.00  0.00     0.181 C 
HETATM    5  O2  UNL     1      36.073  -5.244  11.468  1.00  0.00    -0.356 OA
ENDROOT
BRANCH   1   6
HETATM    6  N1  UNL     1      36.094  -2.954  12.051  1.00  0.00    -0.282 N 
HETATM    7  C3  UNL     1      37.250  -2.821  12.711  1.00  0.00     0.110 A 
HETATM    8  C2  UNL     1      37.936  -1.637  12.762  1.00  0.00     0.022 A 
HETATM    9  C1  UNL     1      39.233  -1.487  13.502  1.00  0.00     0.056 C 
HETATM   10  C14 UNL     1      37.443  -0.532  12.120  1.00  0.00     0.256 A 
HETATM   11  N3  UNL     1      36.283  -0.665  11.458  1.00  0.00    -0.275 N 
HETATM   12  O4  UNL     1      38.053   0.575  12.148  1.00  0.00    -0.267 OA
HETATM   13  C13 UNL     1      35.630  -1.840  11.425  1.00  0.00     0.331 A 
ATOM     14  H3  UNL     1      35.889   0.140  10.971  1.00  0.00     0.173 HD
HETATM   15  O3  UNL     1      34.547  -1.903  10.788  1.00  0.00    -0.246 OA
ENDBRANCH   1   6
BRANCH   3  16
HETATM   16  O1  UNL     1      33.205  -6.346  12.888  1.00  0.00    -0.393 OA
ATOM     17  H1  UNL     1      33.047  -7.209  12.524  1.00  0.00     0.210 HD
ENDBRANCH   3  16
BRANCH   4  18
HETATM   18  C8  UNL     1      35.643  -7.540  11.086  1.00  0.00     0.306 C 
BRANCH  18  19
HETATM   19  N2  UNL     1      35.335  -8.009   9.788  1.00  0.00     0.091 N 
HETATM   20  C9  UNL     1      35.309  -9.470   9.823  1.00  0.00     0.272 C 
HETATM   21  C10 UNL     1      35.428  -9.823   8.341  1.00  0.00     0.032 C 
HETATM   22  C11 UNL     1      36.486  -8.853   7.890  1.00  0.00     0.032 C 
HETATM   23  C12 UNL     1      36.221  -7.628   8.748  1.00  0.00     0.272 C 
ENDBRANCH  18  19
ENDBRANCH   4  18
TORSDOF 4
ENDMDL
