MODEL 3
REMARK VINA RESULT: -6.694911289      0.975      1.005
REMARK  4 active torsions:
REMARK  status: ('A' for Active; 'I' for Inactive)
REMARK    1  A    between atoms: N1_4  and  C4_5 
REMARK    2  A    between atoms: C6_7  and  O1_8 
REMARK    3  A    between atoms: C7_10  and  C8_11 
REMARK    4  A    between atoms: C8_11  and  N2_12 
ROOT
HETATM    1  C4  UNL     1      35.164  -4.616  11.836  1.00  0.00     0.235 C 
HETATM    2  C5  UNL     1      34.216  -5.293  12.778  1.00  0.00     0.088 C 
HETATM    3  C6  UNL     1      34.085  -6.677  12.125  1.00  0.00     0.153 C 
HETATM    4  C7  UNL     1      35.049  -6.572  10.959  1.00  0.00     0.181 C 
HETATM    5  O2  UNL     1      36.004  -5.691  11.469  1.00  0.00    -0.356 OA
ENDROOT
BRANCH   1   6
HETATM    6  N1  UNL     1      35.867  -3.510  12.370  1.00  0.00    -0.282 N 
HETATM    7  C3  UNL     1      36.819  -3.575  13.308  1.00  0.00     0.110 A 
HETATM    8  C2  UNL     1      37.462  -2.463  13.782  1.00  0.00     0.022 A 
HETATM    9  C1  UNL     1      38.530  -2.535  14.834  1.00  0.00     0.056 C 
HETATM   10  C14 UNL     1      37.138  -1.225  13.294  1.00  0.00     0.256 A 
HETATM   11  N3  UNL     1      36.182  -1.160  12.353  1.00  0.00    -0.275 N 
HETATM   12  O4  UNL     1      37.713  -0.180  13.711  1.00  0.00    -0.267 OA
HETATM   13  C13 UNL     1      35.567  -2.269  11.906  1.00  0.00     0.331 A 
ATOM     14  H3  UNL     1      35.918  -0.252  11.970  1.00  0.00     0.173 HD
HETATM   15  O3  UNL     1      34.680  -2.145  11.023  1.00  0.00    -0.246 OA
ENDBRANCH   1   6
BRANCH   3  16
HETATM   16  O1  UNL     1      32.796  -6.760  11.621  1.00  0.00    -0.393 OA
ATOM     17  H1  UNL     1      32.840  -6.492  10.711  1.00  0.00     0.210 HD
ENDBRANCH   3  16
BRANCH   4  18
HETATM   18  C8  UNL     1      35.687  -7.874  10.611  1.00  0.00     0.306 C 
BRANCH  18  19
HETATM   19  N2  UNL     1      35.309  -8.437   9.370  1.00  0.00     0.091 N 
HETATM   20  C9  UNL     1      35.086  -9.869   9.566  1.00  0.00     0.272 C 
HETATM   21  C10 UNL     1      35.146 -10.394   8.132  1.00  0.00     0.032 C 
HETATM   22  C11 UNL     1      36.321  -9.632   7.585  1.00  0.00     0.032 C 
HETATM   23  C12 UNL     1      36.230  -8.296   8.302  1.00  0.00     0.272 C 
ENDBRANCH  18  19
ENDBRANCH   4  18
TORSDOF 4
ENDMDL
