MODEL 2
REMARK VINA RESULT: -6.753037430      0.799      1.086
REMARK  4 active torsions:
REMARK  status: ('A' for Active; 'I' for Inactive)
REMARK    1  A    between atoms: N1_4  and  C4_5 
REMARK    2  A    between atoms: C6_7  and  O1_8 
REMARK    3  A    between atoms: C7_10  and  C8_11 
REMARK    4  A    between atoms: C8_11  and  N2_12 
ROOT
HETATM    1  C4  UNL     1      35.197  -4.300  12.182  1.00  0.00     0.235 C 
HETATM    2  C5  UNL     1      34.520  -4.924  13.364  1.00  0.00     0.088 C 
HETATM    3  C6  UNL     1      34.399  -6.384  12.901  1.00  0.00     0.153 C 
HETATM    4  C7  UNL     1      35.103  -6.352  11.558  1.00  0.00     0.181 C 
HETATM    5  O2  UNL     1      36.049  -5.348  11.766  1.00  0.00    -0.356 OA
ENDROOT
BRANCH   1   6
HETATM    6  N1  UNL     1      35.880  -3.089  12.442  1.00  0.00    -0.282 N 
HETATM    7  C3  UNL     1      36.847  -2.923  13.353  1.00  0.00     0.110 A 
HETATM    8  C2  UNL     1      37.470  -1.720  13.554  1.00  0.00     0.022 A 
HETATM    9  C1  UNL     1      38.554  -1.533  14.575  1.00  0.00     0.056 C 
HETATM   10  C14 UNL     1      37.109  -0.629  12.807  1.00  0.00     0.256 A 
HETATM   11  N3  UNL     1      36.139  -0.796  11.894  1.00  0.00    -0.275 N 
HETATM   12  O4  UNL     1      37.665   0.494  12.969  1.00  0.00    -0.267 OA
HETATM   13  C13 UNL     1      35.545  -1.990  11.719  1.00  0.00     0.331 A 
ATOM     14  H3  UNL     1      35.847  -0.003  11.322  1.00  0.00     0.173 HD
HETATM   15  O3  UNL     1      34.643  -2.084  10.847  1.00  0.00    -0.246 OA
ENDBRANCH   1   6
BRANCH   3  16
HETATM   16  O1  UNL     1      33.050  -6.622  12.683  1.00  0.00    -0.393 OA
ATOM     17  H1  UNL     1      32.960  -6.862  11.768  1.00  0.00     0.210 HD
ENDBRANCH   3  16
BRANCH   4  18
HETATM   18  C8  UNL     1      35.783  -7.637  11.226  1.00  0.00     0.306 C 
BRANCH  18  19
HETATM   19  N2  UNL     1      36.537  -7.647  10.030  1.00  0.00     0.091 N 
HETATM   20  C9  UNL     1      35.786  -6.919   9.009  1.00  0.00     0.272 C 
HETATM   21  C10 UNL     1      36.462  -7.394   7.723  1.00  0.00     0.032 C 
HETATM   22  C11 UNL     1      36.613  -8.867   7.994  1.00  0.00     0.032 C 
HETATM   23  C12 UNL     1      36.858  -8.919   9.492  1.00  0.00     0.272 C 
ENDBRANCH  18  19
ENDBRANCH   4  18
TORSDOF 4
ENDMDL
