MODEL 3
REMARK VINA RESULT: -10.255534844      1.092      1.626
REMARK  18 active torsions:
REMARK  status: ('A' for Active; 'I' for Inactive)
REMARK    1  A    between atoms: C2_2  and  S1_5 
REMARK    2  A    between atoms: S1_5  and  C5_8 
REMARK    3  A    between atoms: C5_8  and  C6_9 
REMARK    4  A    between atoms: C6_9  and  C7_10 
REMARK    5  A    between atoms: C6_9  and  C14_17 
REMARK    6  A    between atoms: C7_10  and  C8_11 
REMARK       I    between atoms: C14_17  and  N1_19 
REMARK    7  A    between atoms: N1_19  and  C15_21 
REMARK    8  A    between atoms: C15_21  and  C16_22 
REMARK    9  A    between atoms: C15_21  and  C20_30 
REMARK   10  A    between atoms: C16_22  and  C17_23 
REMARK       I    between atoms: C20_30  and  N4_32 
REMARK   11  A    between atoms: N4_32  and  C21_34 
REMARK   12  A    between atoms: C21_34  and  C22_35 
REMARK   13  A    between atoms: C21_34  and  C29_42 
REMARK   14  A    between atoms: C22_35  and  C23_36 
REMARK   15  A    between atoms: C29_42  and  O5_43 
REMARK   16  A    between atoms: C29_42  and  C30_45 
REMARK   17  A    between atoms: C30_45  and  O6_46 
REMARK   18  A    between atoms: C30_45  and  C31_48 
ROOT
HETATM    1  C15 UNL     1      -4.139   3.946  -6.428  1.00  0.00     0.182 C 
ENDROOT
BRANCH   1   2
HETATM    2  N1  UNL     1      -2.772   4.046  -6.020  1.00  0.00    -0.347 N 
HETATM    3  C14 UNL     1      -1.880   5.010  -6.621  1.00  0.00     0.223 C 
HETATM    4  O3  UNL     1      -2.373   5.725  -7.502  1.00  0.00    -0.273 OA
ATOM      5  H1  UNL     1      -2.420   3.425  -5.291  1.00  0.00     0.163 HD
BRANCH   3   6
HETATM    6  C6  UNL     1      -0.494   5.085  -6.171  1.00  0.00     0.096 C 
BRANCH   6   7
HETATM    7  C5  UNL     1       0.384   4.717  -7.346  1.00  0.00     0.155 C 
BRANCH   7   8
HETATM    8  S1  UNL     1       1.802   3.775  -6.952  1.00  0.00     0.152 S 
HETATM    9  O1  UNL     1       1.910   2.607  -7.889  1.00  0.00    -0.227 OA
HETATM   10  O2  UNL     1       1.840   3.238  -5.564  1.00  0.00    -0.227 OA
BRANCH   8  11
HETATM   11  C2  UNL     1       3.223   4.816  -7.277  1.00  0.00     0.053 C 
HETATM   12  C1  UNL     1       4.240   4.707  -6.183  1.00  0.00     0.031 C 
HETATM   13  C3  UNL     1       2.836   6.249  -7.481  1.00  0.00     0.031 C 
HETATM   14  C4  UNL     1       3.827   4.312  -8.591  1.00  0.00     0.031 C 
ENDBRANCH   8  11
ENDBRANCH   7   8
ENDBRANCH   6   7
BRANCH   6  15
HETATM   15  C7  UNL     1      -0.162   6.390  -5.554  1.00  0.00     0.053 C 
BRANCH  15  16
HETATM   16  C8  UNL     1       0.425   6.296  -4.227  1.00  0.00    -0.057 A 
HETATM   17  C9  UNL     1      -0.335   5.951  -3.115  1.00  0.00     0.007 A 
HETATM   18  C10 UNL     1       0.232   5.814  -1.870  1.00  0.00     0.001 A 
HETATM   19  C11 UNL     1       1.595   6.015  -1.676  1.00  0.00     0.000 A 
HETATM   20  C12 UNL     1       2.344   6.352  -2.758  1.00  0.00     0.001 A 
HETATM   21  C13 UNL     1       1.765   6.489  -4.019  1.00  0.00     0.007 A 
ENDBRANCH  15  16
ENDBRANCH   6  15
ENDBRANCH   3   6
ENDBRANCH   1   2
BRANCH   1  22
HETATM   22  C16 UNL     1      -4.528   2.685  -7.111  1.00  0.00     0.093 C 
BRANCH  22  23
HETATM   23  C17 UNL     1      -5.518   2.789  -8.183  1.00  0.00     0.028 A 
HETATM   24  C18 UNL     1      -5.363   2.675  -9.542  1.00  0.00     0.114 A 
HETATM   25  N2  UNL     1      -6.563   2.855 -10.157  1.00  0.00    -0.360 N 
HETATM   26  C19 UNL     1      -7.465   3.080  -9.203  1.00  0.00     0.180 A 
ATOM     27  H2  UNL     1      -6.739   2.824 -11.161  1.00  0.00     0.166 HD
HETATM   28  N3  UNL     1      -6.855   3.043  -8.012  1.00  0.00    -0.354 N 
ATOM     29  H3  UNL     1      -7.315   3.183  -7.113  1.00  0.00     0.166 HD
ENDBRANCH  22  23
ENDBRANCH   1  22
BRANCH   1  30
HETATM   30  C20 UNL     1      -5.058   4.282  -5.292  1.00  0.00     0.241 C 
HETATM   31  O4  UNL     1      -5.453   3.365  -4.545  1.00  0.00    -0.271 OA
HETATM   32  N4  UNL     1      -5.469   5.595  -5.071  1.00  0.00    -0.352 N 
ATOM     33  H4  UNL     1      -5.129   6.328  -5.693  1.00  0.00     0.163 HD
BRANCH  32  34
HETATM   34  C21 UNL     1      -6.382   5.965  -3.965  1.00  0.00     0.116 C 
BRANCH  34  35
HETATM   35  C22 UNL     1      -5.737   7.097  -3.269  1.00  0.00     0.032 C 
BRANCH  35  36
HETATM   36  C23 UNL     1      -4.398   6.633  -2.733  1.00  0.00    -0.013 C 
HETATM   37  C24 UNL     1      -4.164   6.949  -1.297  1.00  0.00     0.005 C 
HETATM   38  C25 UNL     1      -2.903   7.806  -1.152  1.00  0.00     0.000 C 
HETATM   39  C26 UNL     1      -2.973   9.014  -2.054  1.00  0.00     0.000 C 
HETATM   40  C27 UNL     1      -3.100   8.627  -3.510  1.00  0.00     0.000 C 
HETATM   41  C28 UNL     1      -3.256   7.131  -3.595  1.00  0.00     0.005 C 
ENDBRANCH  35  36
ENDBRANCH  34  35
BRANCH  34  42
HETATM   42  C29 UNL     1      -7.692   6.238  -4.623  1.00  0.00     0.169 C 
BRANCH  42  43
HETATM   43  O5  UNL     1      -7.363   6.699  -5.931  1.00  0.00    -0.391 OA
ATOM     44  H5  UNL     1      -7.190   7.628  -5.830  1.00  0.00     0.210 HD
ENDBRANCH  42  43
BRANCH  42  45
HETATM   45  C30 UNL     1      -8.612   5.094  -4.826  1.00  0.00     0.153 C 
BRANCH  45  46
HETATM   46  O6  UNL     1      -8.152   4.207  -5.818  1.00  0.00    -0.393 OA
ATOM     47  H6  UNL     1      -8.128   3.307  -5.515  1.00  0.00     0.210 HD
ENDBRANCH  45  46
BRANCH  45  48
HETATM   48  C31 UNL     1      -9.028   4.349  -3.599  1.00  0.00     0.017 A 
HETATM   49  C32 UNL     1      -9.999   4.833  -2.622  1.00  0.00     0.007 A 
HETATM   50  C33 UNL     1     -10.519   3.856  -3.576  1.00  0.00     0.007 A 
ENDBRANCH  45  48
ENDBRANCH  42  45
ENDBRANCH  34  42
ENDBRANCH  32  34
ENDBRANCH   1  30
TORSDOF 18
ENDMDL
