MODEL 9
REMARK VINA RESULT: -9.221568020      2.868      6.134
REMARK  18 active torsions:
REMARK  status: ('A' for Active; 'I' for Inactive)
REMARK    1  A    between atoms: C2_2  and  S1_5 
REMARK    2  A    between atoms: S1_5  and  C5_8 
REMARK    3  A    between atoms: C5_8  and  C6_9 
REMARK    4  A    between atoms: C6_9  and  C7_10 
REMARK    5  A    between atoms: C6_9  and  C14_17 
REMARK    6  A    between atoms: C7_10  and  C8_11 
REMARK       I    between atoms: C14_17  and  N1_19 
REMARK    7  A    between atoms: N1_19  and  C15_21 
REMARK    8  A    between atoms: C15_21  and  C16_22 
REMARK    9  A    between atoms: C15_21  and  C20_30 
REMARK   10  A    between atoms: C16_22  and  C17_23 
REMARK       I    between atoms: C20_30  and  N4_32 
REMARK   11  A    between atoms: N4_32  and  C21_34 
REMARK   12  A    between atoms: C21_34  and  C22_35 
REMARK   13  A    between atoms: C21_34  and  C29_42 
REMARK   14  A    between atoms: C22_35  and  C23_36 
REMARK   15  A    between atoms: C29_42  and  O5_43 
REMARK   16  A    between atoms: C29_42  and  C30_45 
REMARK   17  A    between atoms: C30_45  and  O6_46 
REMARK   18  A    between atoms: C30_45  and  C31_48 
ROOT
HETATM    1  C15 UNL     1      -2.422   3.989  -7.650  1.00  0.00     0.182 C 
ENDROOT
BRANCH   1   2
HETATM    2  N1  UNL     1      -1.241   3.186  -7.736  1.00  0.00    -0.347 N 
HETATM    3  C14 UNL     1      -0.643   2.870  -9.013  1.00  0.00     0.223 C 
HETATM    4  O3  UNL     1      -1.219   3.328 -10.007  1.00  0.00    -0.273 OA
ATOM      5  H1  UNL     1      -0.813   2.831  -6.882  1.00  0.00     0.163 HD
BRANCH   3   6
HETATM    6  C6  UNL     1       0.566   2.054  -9.057  1.00  0.00     0.096 C 
BRANCH   6   7
HETATM    7  C5  UNL     1       0.234   0.718  -8.432  1.00  0.00     0.155 C 
BRANCH   7   8
HETATM    8  S1  UNL     1       1.503   0.014  -7.458  1.00  0.00     0.152 S 
HETATM    9  O1  UNL     1       0.970  -0.312  -6.092  1.00  0.00    -0.227 OA
HETATM   10  O2  UNL     1       2.708   0.868  -7.274  1.00  0.00    -0.227 OA
BRANCH   8  11
HETATM   11  C2  UNL     1       1.933  -1.549  -8.217  1.00  0.00     0.053 C 
HETATM   12  C1  UNL     1       1.330  -1.676  -9.583  1.00  0.00     0.031 C 
HETATM   13  C3  UNL     1       1.533  -2.717  -7.367  1.00  0.00     0.031 C 
HETATM   14  C4  UNL     1       3.460  -1.563  -8.328  1.00  0.00     0.031 C 
ENDBRANCH   8  11
ENDBRANCH   7   8
ENDBRANCH   6   7
BRANCH   6  15
HETATM   15  C7  UNL     1       1.142   1.958 -10.418  1.00  0.00     0.053 C 
BRANCH  15  16
HETATM   16  C8  UNL     1       2.571   2.219 -10.486  1.00  0.00    -0.057 A 
HETATM   17  C9  UNL     1       3.485   1.210 -10.764  1.00  0.00     0.007 A 
HETATM   18  C10 UNL     1       4.832   1.469 -10.878  1.00  0.00     0.001 A 
HETATM   19  C11 UNL     1       5.330   2.758 -10.718  1.00  0.00     0.000 A 
HETATM   20  C12 UNL     1       4.442   3.750 -10.446  1.00  0.00     0.001 A 
HETATM   21  C13 UNL     1       3.078   3.483 -10.332  1.00  0.00     0.007 A 
ENDBRANCH  15  16
ENDBRANCH   6  15
ENDBRANCH   3   6
ENDBRANCH   1   2
BRANCH   1  22
HETATM   22  C16 UNL     1      -3.648   3.300  -7.173  1.00  0.00     0.093 C 
BRANCH  22  23
HETATM   23  C17 UNL     1      -4.710   3.078  -8.155  1.00  0.00     0.028 A 
HETATM   24  C18 UNL     1      -6.069   2.990  -7.982  1.00  0.00     0.114 A 
HETATM   25  N2  UNL     1      -6.670   2.766  -9.181  1.00  0.00    -0.360 N 
HETATM   26  C19 UNL     1      -5.708   2.714 -10.101  1.00  0.00     0.180 A 
ATOM     27  H2  UNL     1      -7.671   2.659  -9.346  1.00  0.00     0.166 HD
HETATM   28  N3  UNL     1      -4.525   2.900  -9.503  1.00  0.00    -0.354 N 
ATOM     29  H3  UNL     1      -3.622   2.907  -9.977  1.00  0.00     0.166 HD
ENDBRANCH  22  23
ENDBRANCH   1  22
BRANCH   1  30
HETATM   30  C20 UNL     1      -2.150   5.253  -6.891  1.00  0.00     0.241 C 
HETATM   31  O4  UNL     1      -2.069   6.327  -7.520  1.00  0.00    -0.271 OA
HETATM   32  N4  UNL     1      -1.990   5.235  -5.507  1.00  0.00    -0.352 N 
ATOM     33  H4  UNL     1      -2.066   4.345  -5.015  1.00  0.00     0.163 HD
BRANCH  32  34
HETATM   34  C21 UNL     1      -1.713   6.462  -4.724  1.00  0.00     0.116 C 
BRANCH  34  35
HETATM   35  C22 UNL     1      -2.881   6.650  -3.839  1.00  0.00     0.032 C 
BRANCH  35  36
HETATM   36  C23 UNL     1      -2.405   7.265  -2.539  1.00  0.00    -0.013 C 
HETATM   37  C24 UNL     1      -2.768   6.491  -1.320  1.00  0.00     0.005 C 
HETATM   38  C25 UNL     1      -3.599   7.367  -0.377  1.00  0.00     0.000 C 
HETATM   39  C26 UNL     1      -4.775   7.970  -1.108  1.00  0.00     0.000 C 
HETATM   40  C27 UNL     1      -4.337   8.833  -2.269  1.00  0.00     0.000 C 
HETATM   41  C28 UNL     1      -2.843   8.710  -2.419  1.00  0.00     0.005 C 
ENDBRANCH  35  36
ENDBRANCH  34  35
BRANCH  34  42
HETATM   42  C29 UNL     1      -0.402   6.208  -4.063  1.00  0.00     0.169 C 
BRANCH  42  43
HETATM   43  O5  UNL     1      -0.467   4.857  -3.613  1.00  0.00    -0.391 OA
ATOM     44  H5  UNL     1       0.276   4.424  -4.017  1.00  0.00     0.210 HD
ENDBRANCH  42  43
BRANCH  42  45
HETATM   45  C30 UNL     1       0.819   6.287  -4.901  1.00  0.00     0.153 C 
BRANCH  45  46
HETATM   46  O6  UNL     1       0.575   6.899  -6.145  1.00  0.00    -0.393 OA
ATOM     47  H6  UNL     1       1.036   6.469  -6.856  1.00  0.00     0.210 HD
ENDBRANCH  45  46
BRANCH  45  48
HETATM   48  C31 UNL     1       2.034   6.866  -4.253  1.00  0.00     0.017 A 
HETATM   49  C32 UNL     1       2.611   6.395  -2.996  1.00  0.00     0.007 A 
HETATM   50  C33 UNL     1       3.291   5.927  -4.202  1.00  0.00     0.007 A 
ENDBRANCH  45  48
ENDBRANCH  42  45
ENDBRANCH  34  42
ENDBRANCH  32  34
ENDBRANCH   1  30
TORSDOF 18
ENDMDL
