MODEL 11
REMARK VINA RESULT: -9.148004661      1.352      1.696
REMARK  18 active torsions:
REMARK  status: ('A' for Active; 'I' for Inactive)
REMARK    1  A    between atoms: C2_2  and  S1_5 
REMARK    2  A    between atoms: S1_5  and  C5_8 
REMARK    3  A    between atoms: C5_8  and  C6_9 
REMARK    4  A    between atoms: C6_9  and  C7_10 
REMARK    5  A    between atoms: C6_9  and  C14_17 
REMARK    6  A    between atoms: C7_10  and  C8_11 
REMARK       I    between atoms: C14_17  and  N1_19 
REMARK    7  A    between atoms: N1_19  and  C15_21 
REMARK    8  A    between atoms: C15_21  and  C16_22 
REMARK    9  A    between atoms: C15_21  and  C20_30 
REMARK   10  A    between atoms: C16_22  and  C17_23 
REMARK       I    between atoms: C20_30  and  N4_32 
REMARK   11  A    between atoms: N4_32  and  C21_34 
REMARK   12  A    between atoms: C21_34  and  C22_35 
REMARK   13  A    between atoms: C21_34  and  C29_42 
REMARK   14  A    between atoms: C22_35  and  C23_36 
REMARK   15  A    between atoms: C29_42  and  O5_43 
REMARK   16  A    between atoms: C29_42  and  C30_45 
REMARK   17  A    between atoms: C30_45  and  O6_46 
REMARK   18  A    between atoms: C30_45  and  C31_48 
ROOT
HETATM    1  C15 UNL     1      -4.366   3.645  -6.722  1.00  0.00     0.182 C 
ENDROOT
BRANCH   1   2
HETATM    2  N1  UNL     1      -2.949   3.503  -6.593  1.00  0.00    -0.347 N 
HETATM    3  C14 UNL     1      -2.051   4.565  -6.984  1.00  0.00     0.223 C 
HETATM    4  O3  UNL     1      -2.585   5.585  -7.436  1.00  0.00    -0.273 OA
ATOM      5  H1  UNL     1      -2.565   2.636  -6.218  1.00  0.00     0.163 HD
BRANCH   3   6
HETATM    6  C6  UNL     1      -0.611   4.383  -6.829  1.00  0.00     0.096 C 
BRANCH   6   7
HETATM    7  C5  UNL     1       0.008   4.483  -8.206  1.00  0.00     0.155 C 
BRANCH   7   8
HETATM    8  S1  UNL     1      -0.082   3.029  -9.172  1.00  0.00     0.152 S 
HETATM    9  O1  UNL     1      -0.791   3.323 -10.462  1.00  0.00    -0.227 OA
HETATM   10  O2  UNL     1      -0.782   1.884  -8.529  1.00  0.00    -0.227 OA
BRANCH   8  11
HETATM   11  C2  UNL     1       1.599   2.592  -9.609  1.00  0.00     0.053 C 
HETATM   12  C1  UNL     1       2.310   3.741 -10.256  1.00  0.00     0.031 C 
HETATM   13  C3  UNL     1       1.654   1.386 -10.496  1.00  0.00     0.031 C 
HETATM   14  C4  UNL     1       2.299   2.230  -8.296  1.00  0.00     0.031 C 
ENDBRANCH   8  11
ENDBRANCH   7   8
ENDBRANCH   6   7
BRANCH   6  15
HETATM   15  C7  UNL     1      -0.020   5.304  -5.833  1.00  0.00     0.053 C 
BRANCH  15  16
HETATM   16  C8  UNL     1       1.378   5.047  -5.530  1.00  0.00    -0.057 A 
HETATM   17  C9  UNL     1       2.358   6.013  -5.727  1.00  0.00     0.007 A 
HETATM   18  C10 UNL     1       3.672   5.784  -5.393  1.00  0.00     0.001 A 
HETATM   19  C11 UNL     1       4.072   4.571  -4.841  1.00  0.00     0.000 A 
HETATM   20  C12 UNL     1       3.119   3.622  -4.645  1.00  0.00     0.001 A 
HETATM   21  C13 UNL     1       1.788   3.859  -4.984  1.00  0.00     0.007 A 
ENDBRANCH  15  16
ENDBRANCH   6  15
ENDBRANCH   3   6
ENDBRANCH   1   2
BRANCH   1  22
HETATM   22  C16 UNL     1      -5.088   2.492  -7.316  1.00  0.00     0.093 C 
BRANCH  22  23
HETATM   23  C17 UNL     1      -6.221   2.797  -8.191  1.00  0.00     0.028 A 
HETATM   24  C18 UNL     1      -6.407   2.521  -9.522  1.00  0.00     0.114 A 
HETATM   25  N2  UNL     1      -7.614   3.003  -9.925  1.00  0.00    -0.360 N 
HETATM   26  C19 UNL     1      -8.184   3.575  -8.866  1.00  0.00     0.180 A 
ATOM     27  H2  UNL     1      -8.008   2.938 -10.864  1.00  0.00     0.166 HD
HETATM   28  N3  UNL     1      -7.362   3.460  -7.816  1.00  0.00    -0.354 N 
ATOM     29  H3  UNL     1      -7.554   3.812  -6.879  1.00  0.00     0.166 HD
ENDBRANCH  22  23
ENDBRANCH   1  22
BRANCH   1  30
HETATM   30  C20 UNL     1      -4.975   4.090  -5.426  1.00  0.00     0.241 C 
HETATM   31  O4  UNL     1      -5.061   3.271  -4.489  1.00  0.00    -0.271 OA
HETATM   32  N4  UNL     1      -5.439   5.394  -5.265  1.00  0.00    -0.352 N 
ATOM     33  H4  UNL     1      -5.353   6.046  -6.045  1.00  0.00     0.163 HD
BRANCH  32  34
HETATM   34  C21 UNL     1      -6.053   5.867  -4.003  1.00  0.00     0.116 C 
BRANCH  34  35
HETATM   35  C22 UNL     1      -5.266   7.045  -3.587  1.00  0.00     0.032 C 
BRANCH  35  36
HETATM   36  C23 UNL     1      -4.074   6.568  -2.782  1.00  0.00    -0.013 C 
HETATM   37  C24 UNL     1      -4.129   6.911  -1.335  1.00  0.00     0.005 C 
HETATM   38  C25 UNL     1      -2.904   7.748  -0.952  1.00  0.00     0.000 C 
HETATM   39  C26 UNL     1      -2.763   8.937  -1.871  1.00  0.00     0.000 C 
HETATM   40  C27 UNL     1      -2.601   8.520  -3.315  1.00  0.00     0.000 C 
HETATM   41  C28 UNL     1      -2.771   7.026  -3.403  1.00  0.00     0.005 C 
ENDBRANCH  35  36
ENDBRANCH  34  35
BRANCH  34  42
HETATM   42  C29 UNL     1      -7.487   6.100  -4.338  1.00  0.00     0.169 C 
BRANCH  42  43
HETATM   43  O5  UNL     1      -7.476   6.694  -5.633  1.00  0.00    -0.391 OA
ATOM     44  H5  UNL     1      -7.781   6.013  -6.221  1.00  0.00     0.210 HD
ENDBRANCH  42  43
BRANCH  42  45
HETATM   45  C30 UNL     1      -8.369   4.914  -4.454  1.00  0.00     0.153 C 
BRANCH  45  46
HETATM   46  O6  UNL     1      -7.736   3.733  -4.021  1.00  0.00    -0.393 OA
ATOM     47  H6  UNL     1      -6.976   3.516  -4.547  1.00  0.00     0.210 HD
ENDBRANCH  45  46
BRANCH  45  48
HETATM   48  C31 UNL     1      -9.733   5.037  -3.855  1.00  0.00     0.017 A 
HETATM   49  C32 UNL     1     -10.790   4.038  -3.984  1.00  0.00     0.007 A 
HETATM   50  C33 UNL     1     -10.069   4.014  -2.713  1.00  0.00     0.007 A 
ENDBRANCH  45  48
ENDBRANCH  42  45
ENDBRANCH  34  42
ENDBRANCH  32  34
ENDBRANCH   1  30
TORSDOF 18
ENDMDL
