MODEL 8
REMARK VINA RESULT: -9.425550678      2.881      6.277
REMARK  18 active torsions:
REMARK  status: ('A' for Active; 'I' for Inactive)
REMARK    1  A    between atoms: C2_2  and  S1_5 
REMARK    2  A    between atoms: S1_5  and  C5_8 
REMARK    3  A    between atoms: C5_8  and  C6_9 
REMARK    4  A    between atoms: C6_9  and  C7_10 
REMARK    5  A    between atoms: C6_9  and  C14_17 
REMARK    6  A    between atoms: C7_10  and  C8_11 
REMARK       I    between atoms: C14_17  and  N1_19 
REMARK    7  A    between atoms: N1_19  and  C15_21 
REMARK    8  A    between atoms: C15_21  and  C16_22 
REMARK    9  A    between atoms: C15_21  and  C20_30 
REMARK   10  A    between atoms: C16_22  and  C17_23 
REMARK       I    between atoms: C20_30  and  N4_32 
REMARK   11  A    between atoms: N4_32  and  C21_34 
REMARK   12  A    between atoms: C21_34  and  C22_35 
REMARK   13  A    between atoms: C21_34  and  C29_42 
REMARK   14  A    between atoms: C22_35  and  C23_36 
REMARK   15  A    between atoms: C29_42  and  O5_43 
REMARK   16  A    between atoms: C29_42  and  C30_45 
REMARK   17  A    between atoms: C30_45  and  O6_46 
REMARK   18  A    between atoms: C30_45  and  C31_48 
ROOT
HETATM    1  C15 UNL     1      -2.265   4.122  -7.974  1.00  0.00     0.182 C 
ENDROOT
BRANCH   1   2
HETATM    2  N1  UNL     1      -1.029   3.519  -8.367  1.00  0.00    -0.347 N 
HETATM    3  C14 UNL     1      -0.695   3.336  -9.761  1.00  0.00     0.223 C 
HETATM    4  O3  UNL     1      -1.542   3.725 -10.575  1.00  0.00    -0.273 OA
ATOM      5  H1  UNL     1      -0.372   3.213  -7.651  1.00  0.00     0.163 HD
BRANCH   3   6
HETATM    6  C6  UNL     1       0.580   2.723 -10.120  1.00  0.00     0.096 C 
BRANCH   6   7
HETATM    7  C5  UNL     1       1.602   3.834 -10.223  1.00  0.00     0.155 C 
BRANCH   7   8
HETATM    8  S1  UNL     1       2.414   4.240  -8.730  1.00  0.00     0.152 S 
HETATM    9  O1  UNL     1       1.810   3.462  -7.597  1.00  0.00    -0.227 OA
HETATM   10  O2  UNL     1       2.370   5.680  -8.356  1.00  0.00    -0.227 OA
BRANCH   8  11
HETATM   11  C2  UNL     1       4.104   3.670  -8.888  1.00  0.00     0.053 C 
HETATM   12  C1  UNL     1       4.408   3.245 -10.292  1.00  0.00     0.031 C 
HETATM   13  C3  UNL     1       4.414   2.556  -7.935  1.00  0.00     0.031 C 
HETATM   14  C4  UNL     1       4.992   4.858  -8.509  1.00  0.00     0.031 C 
ENDBRANCH   8  11
ENDBRANCH   7   8
ENDBRANCH   6   7
BRANCH   6  15
HETATM   15  C7  UNL     1       0.968   1.628  -9.203  1.00  0.00     0.053 C 
BRANCH  15  16
HETATM   16  C8  UNL     1       1.778   0.589  -9.816  1.00  0.00    -0.057 A 
HETATM   17  C9  UNL     1       1.989   0.542 -11.190  1.00  0.00     0.007 A 
HETATM   18  C10 UNL     1       2.796  -0.413 -11.763  1.00  0.00     0.001 A 
HETATM   19  C11 UNL     1       3.435  -1.373 -10.984  1.00  0.00     0.000 A 
HETATM   20  C12 UNL     1       3.233  -1.334  -9.641  1.00  0.00     0.001 A 
HETATM   21  C13 UNL     1       2.415  -0.363  -9.065  1.00  0.00     0.007 A 
ENDBRANCH  15  16
ENDBRANCH   6  15
ENDBRANCH   3   6
ENDBRANCH   1   2
BRANCH   1  22
HETATM   22  C16 UNL     1      -3.302   3.202  -7.442  1.00  0.00     0.093 C 
BRANCH  22  23
HETATM   23  C17 UNL     1      -4.500   3.006  -8.261  1.00  0.00     0.028 A 
HETATM   24  C18 UNL     1      -5.805   2.816  -7.884  1.00  0.00     0.114 A 
HETATM   25  N2  UNL     1      -6.584   2.667  -8.989  1.00  0.00    -0.360 N 
HETATM   26  C19 UNL     1      -5.785   2.761 -10.050  1.00  0.00     0.180 A 
ATOM     27  H2  UNL     1      -7.592   2.512  -9.002  1.00  0.00     0.166 HD
HETATM   28  N3  UNL     1      -4.530   2.966  -9.632  1.00  0.00    -0.354 N 
ATOM     29  H3  UNL     1      -3.719   3.075 -10.240  1.00  0.00     0.166 HD
ENDBRANCH  22  23
ENDBRANCH   1  22
BRANCH   1  30
HETATM   30  C20 UNL     1      -2.021   5.289  -7.065  1.00  0.00     0.241 C 
HETATM   31  O4  UNL     1      -2.027   6.440  -7.547  1.00  0.00    -0.271 OA
HETATM   32  N4  UNL     1      -1.790   5.099  -5.704  1.00  0.00    -0.352 N 
ATOM     33  H4  UNL     1      -1.795   4.148  -5.333  1.00  0.00     0.163 HD
BRANCH  32  34
HETATM   34  C21 UNL     1      -1.538   6.225  -4.777  1.00  0.00     0.116 C 
BRANCH  34  35
HETATM   35  C22 UNL     1      -2.690   6.255  -3.853  1.00  0.00     0.032 C 
BRANCH  35  36
HETATM   36  C23 UNL     1      -2.267   6.957  -2.579  1.00  0.00    -0.013 C 
HETATM   37  C24 UNL     1      -2.721   6.292  -1.327  1.00  0.00     0.005 C 
HETATM   38  C25 UNL     1      -3.575   7.261  -0.503  1.00  0.00     0.000 C 
HETATM   39  C26 UNL     1      -4.689   7.836  -1.344  1.00  0.00     0.000 C 
HETATM   40  C27 UNL     1      -4.161   8.594  -2.542  1.00  0.00     0.000 C 
HETATM   41  C28 UNL     1      -2.665   8.419  -2.596  1.00  0.00     0.005 C 
ENDBRANCH  35  36
ENDBRANCH  34  35
BRANCH  34  42
HETATM   42  C29 UNL     1      -0.203   5.938  -4.178  1.00  0.00     0.169 C 
BRANCH  42  43
HETATM   43  O5  UNL     1      -0.207   4.538  -3.912  1.00  0.00    -0.391 OA
ATOM     44  H5  UNL     1      -0.707   4.152  -4.622  1.00  0.00     0.210 HD
ENDBRANCH  42  43
BRANCH  42  45
HETATM   45  C30 UNL     1       0.994   6.178  -5.019  1.00  0.00     0.153 C 
BRANCH  45  46
HETATM   46  O6  UNL     1       0.678   6.826  -6.228  1.00  0.00    -0.393 OA
ATOM     47  H6  UNL     1       1.449   7.005  -6.754  1.00  0.00     0.210 HD
ENDBRANCH  45  46
BRANCH  45  48
HETATM   48  C31 UNL     1       2.156   6.839  -4.349  1.00  0.00     0.017 A 
HETATM   49  C32 UNL     1       2.691   6.458  -3.045  1.00  0.00     0.007 A 
HETATM   50  C33 UNL     1       3.444   5.956  -4.193  1.00  0.00     0.007 A 
ENDBRANCH  45  48
ENDBRANCH  42  45
ENDBRANCH  34  42
ENDBRANCH  32  34
ENDBRANCH   1  30
TORSDOF 18
ENDMDL
