MODEL 6
REMARK VINA RESULT: -9.529407658      2.480      5.360
REMARK  18 active torsions:
REMARK  status: ('A' for Active; 'I' for Inactive)
REMARK    1  A    between atoms: C2_2  and  S1_5 
REMARK    2  A    between atoms: S1_5  and  C5_8 
REMARK    3  A    between atoms: C5_8  and  C6_9 
REMARK    4  A    between atoms: C6_9  and  C7_10 
REMARK    5  A    between atoms: C6_9  and  C14_17 
REMARK    6  A    between atoms: C7_10  and  C8_11 
REMARK       I    between atoms: C14_17  and  N1_19 
REMARK    7  A    between atoms: N1_19  and  C15_21 
REMARK    8  A    between atoms: C15_21  and  C16_22 
REMARK    9  A    between atoms: C15_21  and  C20_30 
REMARK   10  A    between atoms: C16_22  and  C17_23 
REMARK       I    between atoms: C20_30  and  N4_32 
REMARK   11  A    between atoms: N4_32  and  C21_34 
REMARK   12  A    between atoms: C21_34  and  C22_35 
REMARK   13  A    between atoms: C21_34  and  C29_42 
REMARK   14  A    between atoms: C22_35  and  C23_36 
REMARK   15  A    between atoms: C29_42  and  O5_43 
REMARK   16  A    between atoms: C29_42  and  C30_45 
REMARK   17  A    between atoms: C30_45  and  O6_46 
REMARK   18  A    between atoms: C30_45  and  C31_48 
ROOT
HETATM    1  C15 UNL     1      -3.519   3.889  -7.515  1.00  0.00     0.182 C 
ENDROOT
BRANCH   1   2
HETATM    2  N1  UNL     1      -2.118   3.648  -7.673  1.00  0.00    -0.347 N 
HETATM    3  C14 UNL     1      -1.475   3.787  -8.959  1.00  0.00     0.223 C 
HETATM    4  O3  UNL     1      -2.211   4.117  -9.898  1.00  0.00    -0.273 OA
ATOM      5  H1  UNL     1      -1.563   3.373  -6.864  1.00  0.00     0.163 HD
BRANCH   3   6
HETATM    6  C6  UNL     1      -0.042   3.539  -9.078  1.00  0.00     0.096 C 
BRANCH   6   7
HETATM    7  C5  UNL     1       0.422   2.938  -7.769  1.00  0.00     0.155 C 
BRANCH   7   8
HETATM    8  S1  UNL     1       0.784   4.091  -6.506  1.00  0.00     0.152 S 
HETATM    9  O1  UNL     1       0.027   3.730  -5.260  1.00  0.00    -0.227 OA
HETATM   10  O2  UNL     1       0.461   5.507  -6.829  1.00  0.00    -0.227 OA
BRANCH   8  11
HETATM   11  C2  UNL     1       2.521   3.902  -6.114  1.00  0.00     0.053 C 
HETATM   12  C1  UNL     1       3.022   2.543  -6.497  1.00  0.00     0.031 C 
HETATM   13  C3  UNL     1       2.803   4.164  -4.666  1.00  0.00     0.031 C 
HETATM   14  C4  UNL     1       3.260   4.968  -6.926  1.00  0.00     0.031 C 
ENDBRANCH   8  11
ENDBRANCH   7   8
ENDBRANCH   6   7
BRANCH   6  15
HETATM   15  C7  UNL     1       0.304   2.732 -10.269  1.00  0.00     0.053 C 
BRANCH  15  16
HETATM   16  C8  UNL     1       1.717   2.411 -10.389  1.00  0.00    -0.057 A 
HETATM   17  C9  UNL     1       2.153   1.113 -10.629  1.00  0.00     0.007 A 
HETATM   18  C10 UNL     1       3.487   0.820 -10.792  1.00  0.00     0.001 A 
HETATM   19  C11 UNL     1       4.455   1.818 -10.722  1.00  0.00     0.000 A 
HETATM   20  C12 UNL     1       4.036   3.089 -10.488  1.00  0.00     0.001 A 
HETATM   21  C13 UNL     1       2.682   3.381 -10.325  1.00  0.00     0.007 A 
ENDBRANCH  15  16
ENDBRANCH   6  15
ENDBRANCH   3   6
ENDBRANCH   1   2
BRANCH   1  22
HETATM   22  C16 UNL     1      -4.386   2.685  -7.443  1.00  0.00     0.093 C 
BRANCH  22  23
HETATM   23  C17 UNL     1      -5.594   2.686  -8.268  1.00  0.00     0.028 A 
HETATM   24  C18 UNL     1      -5.749   2.430  -9.608  1.00  0.00     0.114 A 
HETATM   25  N2  UNL     1      -7.059   2.557  -9.950  1.00  0.00    -0.360 N 
HETATM   26  C19 UNL     1      -7.725   2.888  -8.845  1.00  0.00     0.180 A 
ATOM     27  H2  UNL     1      -7.457   2.423 -10.880  1.00  0.00     0.166 HD
HETATM   28  N3  UNL     1      -6.862   2.970  -7.826  1.00  0.00    -0.354 N 
ATOM     29  H3  UNL     1      -7.108   3.206  -6.866  1.00  0.00     0.166 HD
ENDBRANCH  22  23
ENDBRANCH   1  22
BRANCH   1  30
HETATM   30  C20 UNL     1      -3.769   4.838  -6.382  1.00  0.00     0.241 C 
HETATM   31  O4  UNL     1      -4.944   5.037  -6.011  1.00  0.00    -0.271 OA
HETATM   32  N4  UNL     1      -2.713   5.490  -5.749  1.00  0.00    -0.352 N 
ATOM     33  H4  UNL     1      -1.761   5.307  -6.067  1.00  0.00     0.163 HD
BRANCH  32  34
HETATM   34  C21 UNL     1      -2.921   6.439  -4.632  1.00  0.00     0.116 C 
BRANCH  34  35
HETATM   35  C22 UNL     1      -3.054   5.612  -3.416  1.00  0.00     0.032 C 
BRANCH  35  36
HETATM   36  C23 UNL     1      -4.249   6.104  -2.626  1.00  0.00    -0.013 C 
HETATM   37  C24 UNL     1      -5.013   7.202  -3.281  1.00  0.00     0.005 C 
HETATM   38  C25 UNL     1      -5.047   8.430  -2.366  1.00  0.00     0.000 C 
HETATM   39  C26 UNL     1      -3.651   8.811  -1.933  1.00  0.00     0.000 C 
HETATM   40  C27 UNL     1      -2.968   7.694  -1.177  1.00  0.00     0.000 C 
HETATM   41  C28 UNL     1      -3.860   6.479  -1.211  1.00  0.00     0.005 C 
ENDBRANCH  35  36
ENDBRANCH  34  35
BRANCH  34  42
HETATM   42  C29 UNL     1      -1.755   7.366  -4.692  1.00  0.00     0.169 C 
BRANCH  42  43
HETATM   43  O5  UNL     1      -0.616   6.546  -4.441  1.00  0.00    -0.391 OA
ATOM     44  H5  UNL     1      -0.051   7.071  -3.886  1.00  0.00     0.210 HD
ENDBRANCH  42  43
BRANCH  42  45
HETATM   45  C30 UNL     1      -1.479   8.043  -5.981  1.00  0.00     0.153 C 
BRANCH  45  46
HETATM   46  O6  UNL     1      -1.990   7.328  -7.082  1.00  0.00    -0.393 OA
ATOM     47  H6  UNL     1      -1.742   7.718  -7.912  1.00  0.00     0.210 HD
ENDBRANCH  45  46
BRANCH  45  48
HETATM   48  C31 UNL     1      -1.851   9.488  -6.067  1.00  0.00     0.017 A 
HETATM   49  C32 UNL     1      -0.977  10.543  -6.572  1.00  0.00     0.007 A 
HETATM   50  C33 UNL     1      -1.985  10.071  -7.518  1.00  0.00     0.007 A 
ENDBRANCH  45  48
ENDBRANCH  42  45
ENDBRANCH  34  42
ENDBRANCH  32  34
ENDBRANCH   1  30
TORSDOF 18
ENDMDL
