MODEL 1
REMARK VINA RESULT: -10.379931897      0.000      0.000
REMARK  18 active torsions:
REMARK  status: ('A' for Active; 'I' for Inactive)
REMARK    1  A    between atoms: C2_2  and  S1_5 
REMARK    2  A    between atoms: S1_5  and  C5_8 
REMARK    3  A    between atoms: C5_8  and  C6_9 
REMARK    4  A    between atoms: C6_9  and  C7_10 
REMARK    5  A    between atoms: C6_9  and  C14_17 
REMARK    6  A    between atoms: C7_10  and  C8_11 
REMARK       I    between atoms: C14_17  and  N1_19 
REMARK    7  A    between atoms: N1_19  and  C15_21 
REMARK    8  A    between atoms: C15_21  and  C16_22 
REMARK    9  A    between atoms: C15_21  and  C20_30 
REMARK   10  A    between atoms: C16_22  and  C17_23 
REMARK       I    between atoms: C20_30  and  N4_32 
REMARK   11  A    between atoms: N4_32  and  C21_34 
REMARK   12  A    between atoms: C21_34  and  C22_35 
REMARK   13  A    between atoms: C21_34  and  C29_42 
REMARK   14  A    between atoms: C22_35  and  C23_36 
REMARK   15  A    between atoms: C29_42  and  O5_43 
REMARK   16  A    between atoms: C29_42  and  C30_45 
REMARK   17  A    between atoms: C30_45  and  O6_46 
REMARK   18  A    between atoms: C30_45  and  C31_48 
ROOT
HETATM    1  C15 UNL     1      -4.156   3.947  -6.463  1.00  0.00     0.182 C 
ENDROOT
BRANCH   1   2
HETATM    2  N1  UNL     1      -2.783   4.063  -6.080  1.00  0.00    -0.347 N 
HETATM    3  C14 UNL     1      -1.886   4.959  -6.772  1.00  0.00     0.223 C 
HETATM    4  O3  UNL     1      -2.380   5.601  -7.707  1.00  0.00    -0.273 OA
ATOM      5  H1  UNL     1      -2.430   3.504  -5.304  1.00  0.00     0.163 HD
BRANCH   3   6
HETATM    6  C6  UNL     1      -0.493   5.054  -6.346  1.00  0.00     0.096 C 
BRANCH   6   7
HETATM    7  C5  UNL     1       0.371   4.782  -7.557  1.00  0.00     0.155 C 
BRANCH   7   8
HETATM    8  S1  UNL     1       0.572   3.095  -7.965  1.00  0.00     0.152 S 
HETATM    9  O1  UNL     1      -0.739   2.378  -7.816  1.00  0.00    -0.227 OA
HETATM   10  O2  UNL     1       1.576   2.361  -7.147  1.00  0.00    -0.227 OA
BRANCH   8  11
HETATM   11  C2  UNL     1       0.989   3.028  -9.705  1.00  0.00     0.053 C 
HETATM   12  C1  UNL     1       1.392   1.645 -10.117  1.00  0.00     0.031 C 
HETATM   13  C3  UNL     1       2.065   4.006 -10.064  1.00  0.00     0.031 C 
HETATM   14  C4  UNL     1      -0.277   3.439 -10.462  1.00  0.00     0.031 C 
ENDBRANCH   8  11
ENDBRANCH   7   8
ENDBRANCH   6   7
BRANCH   6  15
HETATM   15  C7  UNL     1      -0.190   6.332  -5.662  1.00  0.00     0.053 C 
BRANCH  15  16
HETATM   16  C8  UNL     1       0.404   6.182  -4.344  1.00  0.00    -0.057 A 
HETATM   17  C9  UNL     1       1.756   6.417  -4.121  1.00  0.00     0.007 A 
HETATM   18  C10 UNL     1       2.306   6.323  -2.863  1.00  0.00     0.001 A 
HETATM   19  C11 UNL     1       1.524   5.989  -1.762  1.00  0.00     0.000 A 
HETATM   20  C12 UNL     1       0.202   5.758  -1.972  1.00  0.00     0.001 A 
HETATM   21  C13 UNL     1      -0.351   5.855  -3.248  1.00  0.00     0.007 A 
ENDBRANCH  15  16
ENDBRANCH   6  15
ENDBRANCH   3   6
ENDBRANCH   1   2
BRANCH   1  22
HETATM   22  C16 UNL     1      -4.542   2.682  -7.139  1.00  0.00     0.093 C 
BRANCH  22  23
HETATM   23  C17 UNL     1      -5.555   2.773  -8.191  1.00  0.00     0.028 A 
HETATM   24  C18 UNL     1      -5.430   2.645  -9.551  1.00  0.00     0.114 A 
HETATM   25  N2  UNL     1      -6.643   2.817 -10.141  1.00  0.00    -0.360 N 
HETATM   26  C19 UNL     1      -7.525   3.050  -9.170  1.00  0.00     0.180 A 
ATOM     27  H2  UNL     1      -6.842   2.775 -11.141  1.00  0.00     0.166 HD
HETATM   28  N3  UNL     1      -6.889   3.026  -7.992  1.00  0.00    -0.354 N 
ATOM     29  H3  UNL     1      -7.329   3.174  -7.085  1.00  0.00     0.166 HD
ENDBRANCH  22  23
ENDBRANCH   1  22
BRANCH   1  30
HETATM   30  C20 UNL     1      -5.058   4.272  -5.311  1.00  0.00     0.241 C 
HETATM   31  O4  UNL     1      -5.436   3.349  -4.563  1.00  0.00    -0.271 OA
HETATM   32  N4  UNL     1      -5.471   5.582  -5.075  1.00  0.00    -0.352 N 
ATOM     33  H4  UNL     1      -5.144   6.321  -5.699  1.00  0.00     0.163 HD
BRANCH  32  34
HETATM   34  C21 UNL     1      -6.367   5.942  -3.952  1.00  0.00     0.116 C 
BRANCH  34  35
HETATM   35  C22 UNL     1      -5.712   7.066  -3.254  1.00  0.00     0.032 C 
BRANCH  35  36
HETATM   36  C23 UNL     1      -4.359   6.599  -2.756  1.00  0.00    -0.013 C 
HETATM   37  C24 UNL     1      -4.104   6.871  -1.314  1.00  0.00     0.005 C 
HETATM   38  C25 UNL     1      -2.850   7.737  -1.162  1.00  0.00     0.000 C 
HETATM   39  C26 UNL     1      -2.948   8.973  -2.022  1.00  0.00     0.000 C 
HETATM   40  C27 UNL     1      -3.095   8.632  -3.488  1.00  0.00     0.000 C 
HETATM   41  C28 UNL     1      -3.237   7.138  -3.619  1.00  0.00     0.005 C 
ENDBRANCH  35  36
ENDBRANCH  34  35
BRANCH  34  42
HETATM   42  C29 UNL     1      -7.686   6.222  -4.588  1.00  0.00     0.169 C 
BRANCH  42  43
HETATM   43  O5  UNL     1      -7.376   6.693  -5.897  1.00  0.00    -0.391 OA
ATOM     44  H5  UNL     1      -7.446   5.930  -6.459  1.00  0.00     0.210 HD
ENDBRANCH  42  43
BRANCH  42  45
HETATM   45  C30 UNL     1      -8.611   5.081  -4.787  1.00  0.00     0.153 C 
BRANCH  45  46
HETATM   46  O6  UNL     1      -8.165   4.199  -5.790  1.00  0.00    -0.393 OA
ATOM     47  H6  UNL     1      -8.601   4.348  -6.622  1.00  0.00     0.210 HD
ENDBRANCH  45  46
BRANCH  45  48
HETATM   48  C31 UNL     1      -9.015   4.330  -3.560  1.00  0.00     0.017 A 
HETATM   49  C32 UNL     1     -10.009   4.788  -2.593  1.00  0.00     0.007 A 
HETATM   50  C33 UNL     1     -10.489   3.790  -3.547  1.00  0.00     0.007 A 
ENDBRANCH  45  48
ENDBRANCH  42  45
ENDBRANCH  34  42
ENDBRANCH  32  34
ENDBRANCH   1  30
TORSDOF 18
ENDMDL
