MODEL 7
REMARK VINA RESULT: -6.843993395      2.737      2.882
REMARK  3 active torsions:
REMARK  status: ('A' for Active; 'I' for Inactive)
REMARK    1  A    between atoms: N1_1  and  S1_4 
REMARK    2  A    between atoms: S1_4  and  C1_7 
REMARK    3  A    between atoms: C2_12  and  C3_13 
ROOT
HETATM    1  C1  UNL     1      -5.044   1.493  16.279  1.00  0.00     0.207 A 
HETATM    2  N2  UNL     1      -3.745   1.617  16.087  1.00  0.00    -0.282 N 
ATOM      3  H2  UNL     1      -3.110   0.934  16.502  1.00  0.00     0.188 HD
HETATM    4  N3  UNL     1      -3.274   2.566  15.400  1.00  0.00    -0.291 N 
ATOM      5  H3  UNL     1      -2.267   2.648  15.259  1.00  0.00     0.187 HD
HETATM    6  C2  UNL     1      -4.099   3.457  14.859  1.00  0.00     0.103 A 
HETATM    7  S2  UNL     1      -5.606   2.852  15.396  1.00  0.00    -0.037 SA
ENDROOT
BRANCH   6   8
HETATM    8  C3  UNL     1      -3.821   4.626  14.037  1.00  0.00     0.021 A 
HETATM    9  C4  UNL     1      -3.424   5.819  14.594  1.00  0.00     0.016 A 
HETATM   10  C5  UNL     1      -3.153   6.943  13.846  1.00  0.00     0.001 A 
HETATM   11  C6  UNL     1      -3.274   6.908  12.475  1.00  0.00     0.002 A 
HETATM   12  C7  UNL     1      -3.669   5.727  11.894  1.00  0.00     0.025 A 
HETATM   13  C8  UNL     1      -3.935   4.614  12.667  1.00  0.00     0.047 A 
HETATM   14 CL1  UNL     1      -4.432   3.148  11.864  1.00  0.00    -0.083 Cl
ENDBRANCH   6   8
BRANCH   1  15
HETATM   15  S1  UNL     1      -5.955   0.283  17.182  1.00  0.00     0.280 S 
HETATM   16  O1  UNL     1      -5.605  -1.071  16.668  1.00  0.00    -0.199 OA
HETATM   17  O2  UNL     1      -5.549   0.322  18.647  1.00  0.00    -0.199 OA
BRANCH  15  18
HETATM   18  N1  UNL     1      -7.616   0.639  17.085  1.00  0.00    -0.323 N 
ATOM     19  H12 UNL     1      -8.032   1.439  17.562  1.00  0.00     0.169 HD
ATOM     20  H11 UNL     1      -8.141  -0.020  16.510  1.00  0.00     0.169 HD
ENDBRANCH  15  18
ENDBRANCH   1  15
TORSDOF 3
ENDMDL
