MODEL 16
REMARK VINA RESULT: -6.339221126      2.378      2.812
REMARK  3 active torsions:
REMARK  status: ('A' for Active; 'I' for Inactive)
REMARK    1  A    between atoms: N1_1  and  S1_4 
REMARK    2  A    between atoms: S1_4  and  C1_7 
REMARK    3  A    between atoms: C2_12  and  C3_13 
ROOT
HETATM    1  C1  UNL     1      -5.389   2.030  15.907  1.00  0.00     0.207 A 
HETATM    2  N2  UNL     1      -6.275   2.951  15.580  1.00  0.00    -0.282 N 
ATOM      3  H2  UNL     1      -7.261   2.794  15.791  1.00  0.00     0.188 HD
HETATM    4  N3  UNL     1      -5.924   4.021  15.010  1.00  0.00    -0.291 N 
ATOM      5  H3  UNL     1      -6.621   4.724  14.764  1.00  0.00     0.187 HD
HETATM    6  C2  UNL     1      -4.640   4.227  14.733  1.00  0.00     0.103 A 
HETATM    7  S2  UNL     1      -3.955   2.784  15.344  1.00  0.00    -0.037 SA
ENDROOT
BRANCH   6   8
HETATM    8  C3  UNL     1      -3.981   5.355  14.091  1.00  0.00     0.021 A 
HETATM    9  C4  UNL     1      -3.355   6.336  14.824  1.00  0.00     0.016 A 
HETATM   10  C5  UNL     1      -2.722   7.415  14.249  1.00  0.00     0.001 A 
HETATM   11  C6  UNL     1      -2.693   7.550  12.879  1.00  0.00     0.002 A 
HETATM   12  C7  UNL     1      -3.311   6.583  12.123  1.00  0.00     0.025 A 
HETATM   13  C8  UNL     1      -3.939   5.511  12.726  1.00  0.00     0.047 A 
HETATM   14 CL1  UNL     1      -4.703   4.320  11.707  1.00  0.00    -0.083 Cl
ENDBRANCH   6   8
BRANCH   1  15
HETATM   15  S1  UNL     1      -5.603   0.468  16.698  1.00  0.00     0.280 S 
HETATM   16  O1  UNL     1      -5.368   0.629  18.161  1.00  0.00    -0.199 OA
HETATM   17  O2  UNL     1      -7.039  -0.002  16.527  1.00  0.00    -0.199 OA
BRANCH  15  18
HETATM   18  N1  UNL     1      -4.580  -0.678  15.967  1.00  0.00    -0.323 N 
ATOM     19  H12 UNL     1      -3.948  -1.269  16.507  1.00  0.00     0.169 HD
ATOM     20  H11 UNL     1      -4.665  -0.711  14.952  1.00  0.00     0.169 HD
ENDBRANCH  15  18
ENDBRANCH   1  15
TORSDOF 3
ENDMDL
