MODEL 8
REMARK VINA RESULT: -6.831178186      4.576      6.070
REMARK  3 active torsions:
REMARK  status: ('A' for Active; 'I' for Inactive)
REMARK    1  A    between atoms: N1_1  and  S1_4 
REMARK    2  A    between atoms: S1_4  and  C1_7 
REMARK    3  A    between atoms: C2_12  and  C3_13 
ROOT
HETATM    1  C1  UNL     1      -3.484   3.134  12.287  1.00  0.00     0.207 A 
HETATM    2  N2  UNL     1      -2.850   3.250  13.437  1.00  0.00    -0.282 N 
ATOM      3  H2  UNL     1      -1.908   3.642  13.453  1.00  0.00     0.188 HD
HETATM    4  N3  UNL     1      -3.389   2.884  14.519  1.00  0.00    -0.291 N 
ATOM      5  H3  UNL     1      -2.886   2.980  15.401  1.00  0.00     0.187 HD
HETATM    6  C2  UNL     1      -4.615   2.372  14.502  1.00  0.00     0.103 A 
HETATM    7  S2  UNL     1      -4.960   2.447  12.828  1.00  0.00    -0.037 SA
ENDROOT
BRANCH   6   8
HETATM    8  C3  UNL     1      -5.450   1.880  15.588  1.00  0.00     0.021 A 
HETATM    9  C4  UNL     1      -6.370   2.689  16.213  1.00  0.00     0.016 A 
HETATM   10  C5  UNL     1      -7.174   2.255  17.242  1.00  0.00     0.001 A 
HETATM   11  C6  UNL     1      -7.082   0.958  17.693  1.00  0.00     0.002 A 
HETATM   12  C7  UNL     1      -6.170   0.128  17.085  1.00  0.00     0.025 A 
HETATM   13  C8  UNL     1      -5.375   0.589  16.055  1.00  0.00     0.047 A 
HETATM   14 CL1  UNL     1      -4.240  -0.517  15.328  1.00  0.00    -0.083 Cl
ENDBRANCH   6   8
BRANCH   1  15
HETATM   15  S1  UNL     1      -2.974   3.560  10.653  1.00  0.00     0.280 S 
HETATM   16  O1  UNL     1      -4.182   3.725   9.796  1.00  0.00    -0.199 OA
HETATM   17  O2  UNL     1      -2.256   4.900  10.672  1.00  0.00    -0.199 OA
BRANCH  15  18
HETATM   18  N1  UNL     1      -1.887   2.385  10.077  1.00  0.00    -0.323 N 
ATOM     19  H12 UNL     1      -1.856   2.103   9.097  1.00  0.00     0.169 HD
ATOM     20  H11 UNL     1      -1.282   2.000  10.802  1.00  0.00     0.169 HD
ENDBRANCH  15  18
ENDBRANCH   1  15
TORSDOF 3
ENDMDL
