MODEL 6
REMARK VINA RESULT: -6.852028896      4.505      5.835
REMARK  3 active torsions:
REMARK  status: ('A' for Active; 'I' for Inactive)
REMARK    1  A    between atoms: N1_1  and  S1_4 
REMARK    2  A    between atoms: S1_4  and  C1_7 
REMARK    3  A    between atoms: C2_12  and  C3_13 
ROOT
HETATM    1  C1  UNL     1      -3.493   0.636  12.304  1.00  0.00     0.207 A 
HETATM    2  N2  UNL     1      -3.350   1.852  12.794  1.00  0.00    -0.282 N 
ATOM      3  H2  UNL     1      -2.783   2.533  12.289  1.00  0.00     0.188 HD
HETATM    4  N3  UNL     1      -3.903   2.186  13.879  1.00  0.00    -0.291 N 
ATOM      5  H3  UNL     1      -3.784   3.130  14.246  1.00  0.00     0.187 HD
HETATM    6  C2  UNL     1      -4.642   1.301  14.540  1.00  0.00     0.103 A 
HETATM    7  S2  UNL     1      -4.500  -0.055  13.508  1.00  0.00    -0.037 SA
ENDROOT
BRANCH   6   8
HETATM    8  C3  UNL     1      -5.375   1.427  15.792  1.00  0.00     0.021 A 
HETATM    9  C4  UNL     1      -5.197   0.536  16.824  1.00  0.00     0.016 A 
HETATM   10  C5  UNL     1      -5.873   0.627  18.019  1.00  0.00     0.001 A 
HETATM   11  C6  UNL     1      -6.776   1.645  18.228  1.00  0.00     0.002 A 
HETATM   12  C7  UNL     1      -6.972   2.550  17.212  1.00  0.00     0.025 A 
HETATM   13  C8  UNL     1      -6.281   2.436  16.022  1.00  0.00     0.047 A 
HETATM   14 CL1  UNL     1      -6.578   3.619  14.776  1.00  0.00    -0.083 Cl
ENDBRANCH   6   8
BRANCH   1  15
HETATM   15  S1  UNL     1      -2.842  -0.086  10.832  1.00  0.00     0.280 S 
HETATM   16  O1  UNL     1      -1.633   0.678  10.411  1.00  0.00    -0.199 OA
HETATM   17  O2  UNL     1      -2.392  -1.511  11.115  1.00  0.00    -0.199 OA
BRANCH  15  18
HETATM   18  N1  UNL     1      -4.058  -0.142   9.645  1.00  0.00    -0.323 N 
ATOM     19  H12 UNL     1      -4.444   0.701   9.218  1.00  0.00     0.169 HD
ATOM     20  H11 UNL     1      -4.356  -1.089   9.409  1.00  0.00     0.169 HD
ENDBRANCH  15  18
ENDBRANCH   1  15
TORSDOF 3
ENDMDL
