MODEL 5
REMARK VINA RESULT: -6.853909732      4.510      5.975
REMARK  3 active torsions:
REMARK  status: ('A' for Active; 'I' for Inactive)
REMARK    1  A    between atoms: N1_1  and  S1_4 
REMARK    2  A    between atoms: S1_4  and  C1_7 
REMARK    3  A    between atoms: C2_12  and  C3_13 
ROOT
HETATM    1  C1  UNL     1      -3.043   2.794  12.419  1.00  0.00     0.207 A 
HETATM    2  N2  UNL     1      -2.666   3.283  13.584  1.00  0.00    -0.282 N 
ATOM      3  H2  UNL     1      -1.843   3.884  13.633  1.00  0.00     0.188 HD
HETATM    4  N3  UNL     1      -3.306   3.019  14.641  1.00  0.00    -0.291 N 
ATOM      5  H3  UNL     1      -3.003   3.405  15.534  1.00  0.00     0.187 HD
HETATM    6  C2  UNL     1      -4.378   2.236  14.580  1.00  0.00     0.103 A 
HETATM    7  S2  UNL     1      -4.419   1.894  12.905  1.00  0.00    -0.037 SA
ENDROOT
BRANCH   6   8
HETATM    8  C3  UNL     1      -5.278   1.782  15.631  1.00  0.00     0.021 A 
HETATM    9  C4  UNL     1      -5.135   0.547  16.218  1.00  0.00     0.016 A 
HETATM   10  C5  UNL     1      -5.968   0.088  17.213  1.00  0.00     0.001 A 
HETATM   11  C6  UNL     1      -7.003   0.875  17.667  1.00  0.00     0.002 A 
HETATM   12  C7  UNL     1      -7.167   2.114  17.097  1.00  0.00     0.025 A 
HETATM   13  C8  UNL     1      -6.317   2.550  16.100  1.00  0.00     0.047 A 
HETATM   14 CL1  UNL     1      -6.584   4.134  15.420  1.00  0.00    -0.083 Cl
ENDBRANCH   6   8
BRANCH   1  15
HETATM   15  S1  UNL     1      -2.342   2.999  10.814  1.00  0.00     0.280 S 
HETATM   16  O1  UNL     1      -3.303   3.750   9.957  1.00  0.00    -0.199 OA
HETATM   17  O2  UNL     1      -1.079   3.840  10.908  1.00  0.00    -0.199 OA
BRANCH  15  18
HETATM   18  N1  UNL     1      -1.917   1.476  10.185  1.00  0.00    -0.323 N 
ATOM     19  H12 UNL     1      -2.567   0.690  10.173  1.00  0.00     0.169 HD
ATOM     20  H11 UNL     1      -0.962   1.434   9.829  1.00  0.00     0.169 HD
ENDBRANCH  15  18
ENDBRANCH   1  15
TORSDOF 3
ENDMDL
