MODEL 12
REMARK VINA RESULT: -6.614237350      2.756      3.044
REMARK  3 active torsions:
REMARK  status: ('A' for Active; 'I' for Inactive)
REMARK    1  A    between atoms: N1_1  and  S1_4 
REMARK    2  A    between atoms: S1_4  and  C1_7 
REMARK    3  A    between atoms: C2_12  and  C3_13 
ROOT
HETATM    1  C1  UNL     1      -5.078   1.476  16.206  1.00  0.00     0.207 A 
HETATM    2  N2  UNL     1      -3.774   1.663  16.136  1.00  0.00    -0.282 N 
ATOM      3  H2  UNL     1      -3.158   1.141  16.758  1.00  0.00     0.188 HD
HETATM    4  N3  UNL     1      -3.276   2.479  15.310  1.00  0.00    -0.291 N 
ATOM      5  H3  UNL     1      -2.266   2.613  15.266  1.00  0.00     0.187 HD
HETATM    6  C2  UNL     1      -4.076   3.162  14.498  1.00  0.00     0.103 A 
HETATM    7  S2  UNL     1      -5.602   2.563  14.987  1.00  0.00    -0.037 SA
ENDROOT
BRANCH   6   8
HETATM    8  C3  UNL     1      -3.765   4.148  13.472  1.00  0.00     0.021 A 
HETATM    9  C4  UNL     1      -3.387   3.774  12.205  1.00  0.00     0.016 A 
HETATM   10  C5  UNL     1      -3.086   4.680  11.213  1.00  0.00     0.001 A 
HETATM   11  C6  UNL     1      -3.157   6.032  11.466  1.00  0.00     0.002 A 
HETATM   12  C7  UNL     1      -3.532   6.432  12.726  1.00  0.00     0.025 A 
HETATM   13  C8  UNL     1      -3.829   5.502  13.702  1.00  0.00     0.047 A 
HETATM   14 CL1  UNL     1      -4.299   6.080  15.279  1.00  0.00    -0.083 Cl
ENDBRANCH   6   8
BRANCH   1  15
HETATM   15  S1  UNL     1      -6.024   0.415  17.250  1.00  0.00     0.280 S 
HETATM   16  O1  UNL     1      -5.694  -1.002  16.929  1.00  0.00    -0.199 OA
HETATM   17  O2  UNL     1      -5.637   0.645  18.702  1.00  0.00    -0.199 OA
BRANCH  15  18
HETATM   18  N1  UNL     1      -7.676   0.783  17.079  1.00  0.00    -0.323 N 
ATOM     19  H12 UNL     1      -8.120   0.895  16.167  1.00  0.00     0.169 HD
ATOM     20  H11 UNL     1      -8.167   0.879  17.968  1.00  0.00     0.169 HD
ENDBRANCH  15  18
ENDBRANCH   1  15
TORSDOF 3
ENDMDL
