MODEL 13
REMARK VINA RESULT: -7.197716516      1.375      1.747
REMARK  10 active torsions:
REMARK  status: ('A' for Active; 'I' for Inactive)
REMARK    1  A    between atoms: C2_2  and  C3_3 
REMARK    2  A    between atoms: C3_3  and  N1_4 
REMARK       I    between atoms: N1_4  and  C4_6 
REMARK    3  A    between atoms: C4_6  and  C5_8 
REMARK    4  A    between atoms: N2_12  and  C9_13 
REMARK    5  A    between atoms: C9_13  and  O2_14 
REMARK    6  A    between atoms: C9_13  and  C10_16 
REMARK    7  A    between atoms: C10_16  and  N3_17 
REMARK    8  A    between atoms: C10_16  and  C11_21 
REMARK    9  A    between atoms: C11_21  and  C12_22 
REMARK   10  A    between atoms: C11_21  and  C18_28 
ROOT
HETATM    1  C10 UNL     1      18.029 -15.563  23.520  1.00  0.00     0.270 C 
ENDROOT
BRANCH   1   2
HETATM    2  C9  UNL     1      17.084 -14.758  22.742  1.00  0.00     0.146 C 
BRANCH   2   3
HETATM    3  N2  UNL     1      17.265 -13.697  21.868  1.00  0.00    -0.350 N 
HETATM    4  C5  UNL     1      16.587 -12.458  21.625  1.00  0.00     0.178 C 
HETATM    5  C6  UNL     1      17.573 -11.542  20.913  1.00  0.00     0.037 C 
HETATM    6  C7  UNL     1      18.893 -12.284  21.101  1.00  0.00     0.022 C 
HETATM    7  C8  UNL     1      18.385 -13.711  20.872  1.00  0.00     0.126 C 
BRANCH   4   8
HETATM    8  C4  UNL     1      15.443 -12.634  20.667  1.00  0.00     0.240 C 
HETATM    9  N1  UNL     1      15.579 -12.098  19.375  1.00  0.00    -0.359 N 
ATOM     10  H1  UNL     1      16.447 -11.615  19.140  1.00  0.00     0.162 HD
HETATM   11  O1  UNL     1      14.404 -13.231  20.994  1.00  0.00    -0.271 OA
BRANCH   9  12
HETATM   12  C3  UNL     1      14.548 -12.199  18.357  1.00  0.00     0.122 C 
BRANCH  12  13
HETATM   13  C2  UNL     1      14.992 -11.603  17.047  1.00  0.00     0.015 C 
HETATM   14  C1  UNL     1      16.462 -11.292  17.041  1.00  0.00     0.006 C 
ENDBRANCH  12  13
ENDBRANCH   9  12
ENDBRANCH   4   8
ENDBRANCH   2   3
BRANCH   2  15
HETATM   15  O2  UNL     1      15.838 -15.124  22.919  1.00  0.00    -0.348 OA
ATOM     16  H2  UNL     1      15.444 -14.825  23.730  1.00  0.00     0.219 HD
ENDBRANCH   2  15
ENDBRANCH   1   2
BRANCH   1  17
HETATM   17  N3  UNL     1      17.685 -16.933  23.556  1.00  0.00    -0.067 N 
ATOM     18  H33 UNL     1      16.834 -17.080  24.099  1.00  0.00     0.275 HD
ATOM     19  H32 UNL     1      17.357 -17.251  22.644  1.00  0.00     0.275 HD
ATOM     20  H31 UNL     1      18.442 -17.524  23.898  1.00  0.00     0.275 HD
ENDBRANCH   1  17
BRANCH   1  21
HETATM   21  C11 UNL     1      18.265 -14.962  24.889  1.00  0.00     0.090 C 
BRANCH  21  22
HETATM   22  C12 UNL     1      19.529 -14.205  24.992  1.00  0.00    -0.047 A 
HETATM   23  C13 UNL     1      20.516 -14.248  24.029  1.00  0.00     0.008 A 
HETATM   24  C14 UNL     1      21.669 -13.509  24.201  1.00  0.00     0.001 A 
HETATM   25  C15 UNL     1      21.878 -12.715  25.314  1.00  0.00     0.000 A 
HETATM   26  C16 UNL     1      20.896 -12.672  26.271  1.00  0.00     0.001 A 
HETATM   27  C17 UNL     1      19.739 -13.415  26.097  1.00  0.00     0.008 A 
ENDBRANCH  21  22
BRANCH  21  28
HETATM   28  C18 UNL     1      18.228 -15.922  25.995  1.00  0.00    -0.047 A 
HETATM   29  C19 UNL     1      17.314 -15.758  27.014  1.00  0.00     0.008 A 
HETATM   30  C20 UNL     1      17.209 -16.606  28.093  1.00  0.00     0.001 A 
HETATM   31  C21 UNL     1      18.079 -17.675  28.136  1.00  0.00     0.000 A 
HETATM   32  C22 UNL     1      19.002 -17.868  27.134  1.00  0.00     0.001 A 
HETATM   33  C23 UNL     1      19.075 -16.999  26.072  1.00  0.00     0.008 A 
ENDBRANCH  21  28
ENDBRANCH   1  21
TORSDOF 10
ENDMDL
