MODEL 5
REMARK VINA RESULT: -7.483312951      2.752      7.754
REMARK  10 active torsions:
REMARK  status: ('A' for Active; 'I' for Inactive)
REMARK    1  A    between atoms: C2_2  and  C3_3 
REMARK    2  A    between atoms: C3_3  and  N1_4 
REMARK       I    between atoms: N1_4  and  C4_6 
REMARK    3  A    between atoms: C4_6  and  C5_8 
REMARK    4  A    between atoms: N2_12  and  C9_13 
REMARK    5  A    between atoms: C9_13  and  O2_14 
REMARK    6  A    between atoms: C9_13  and  C10_16 
REMARK    7  A    between atoms: C10_16  and  N3_17 
REMARK    8  A    between atoms: C10_16  and  C11_21 
REMARK    9  A    between atoms: C11_21  and  C12_22 
REMARK   10  A    between atoms: C11_21  and  C18_28 
ROOT
HETATM    1  C10 UNL     1      15.601 -13.294  21.463  1.00  0.00     0.270 C 
ENDROOT
BRANCH   1   2
HETATM    2  C9  UNL     1      16.833 -13.385  22.250  1.00  0.00     0.146 C 
BRANCH   2   3
HETATM    3  N2  UNL     1      18.172 -13.327  21.894  1.00  0.00    -0.350 N 
HETATM    4  C5  UNL     1      19.229 -14.287  21.768  1.00  0.00     0.178 C 
HETATM    5  C6  UNL     1      20.285 -13.672  20.861  1.00  0.00     0.037 C 
HETATM    6  C7  UNL     1      19.545 -12.472  20.277  1.00  0.00     0.022 C 
HETATM    7  C8  UNL     1      18.813 -12.018  21.543  1.00  0.00     0.126 C 
BRANCH   4   8
HETATM    8  C4  UNL     1      19.920 -14.521  23.082  1.00  0.00     0.240 C 
HETATM    9  N1  UNL     1      21.233 -14.042  23.228  1.00  0.00    -0.359 N 
ATOM     10  H1  UNL     1      21.662 -13.555  22.441  1.00  0.00     0.162 HD
HETATM   11  O1  UNL     1      19.361 -15.118  24.016  1.00  0.00    -0.271 OA
BRANCH   9  12
HETATM   12  C3  UNL     1      22.010 -14.205  24.444  1.00  0.00     0.122 C 
BRANCH  12  13
HETATM   13  C2  UNL     1      22.087 -12.927  25.238  1.00  0.00     0.015 C 
HETATM   14  C1  UNL     1      20.962 -12.813  26.228  1.00  0.00     0.006 C 
ENDBRANCH  12  13
ENDBRANCH   9  12
ENDBRANCH   4   8
ENDBRANCH   2   3
BRANCH   2  15
HETATM   15  O2  UNL     1      16.607 -13.551  23.530  1.00  0.00    -0.348 OA
ATOM     16  H2  UNL     1      16.800 -12.795  24.073  1.00  0.00     0.219 HD
ENDBRANCH   2  15
ENDBRANCH   1   2
BRANCH   1  17
HETATM   17  N3  UNL     1      15.523 -14.274  20.449  1.00  0.00    -0.067 N 
ATOM     18  H33 UNL     1      14.801 -14.962  20.662  1.00  0.00     0.275 HD
ATOM     19  H32 UNL     1      15.132 -13.882  19.592  1.00  0.00     0.275 HD
ATOM     20  H31 UNL     1      16.417 -14.729  20.266  1.00  0.00     0.275 HD
ENDBRANCH   1  17
BRANCH   1  21
HETATM   21  C11 UNL     1      15.375 -11.883  20.960  1.00  0.00     0.090 C 
BRANCH  21  22
HETATM   22  C12 UNL     1      14.156 -11.251  21.504  1.00  0.00    -0.047 A 
HETATM   23  C13 UNL     1      13.973  -9.884  21.560  1.00  0.00     0.008 A 
HETATM   24  C14 UNL     1      12.803  -9.374  22.083  1.00  0.00     0.001 A 
HETATM   25  C15 UNL     1      11.791 -10.187  22.560  1.00  0.00     0.000 A 
HETATM   26  C16 UNL     1      11.972 -11.545  22.504  1.00  0.00     0.001 A 
HETATM   27  C17 UNL     1      13.148 -12.057  21.979  1.00  0.00     0.008 A 
ENDBRANCH  21  22
BRANCH  21  28
HETATM   28  C18 UNL     1      15.334 -11.752  19.502  1.00  0.00    -0.047 A 
HETATM   29  C19 UNL     1      16.508 -11.606  18.794  1.00  0.00     0.008 A 
HETATM   30  C20 UNL     1      16.566 -11.471  17.426  1.00  0.00     0.001 A 
HETATM   31  C21 UNL     1      15.369 -11.487  16.743  1.00  0.00     0.000 A 
HETATM   32  C22 UNL     1      14.178 -11.633  17.420  1.00  0.00     0.001 A 
HETATM   33  C23 UNL     1      14.162 -11.764  18.787  1.00  0.00     0.008 A 
ENDBRANCH  21  28
ENDBRANCH   1  21
TORSDOF 10
ENDMDL
