MODEL 6
REMARK VINA RESULT: -7.449483863      1.181      1.625
REMARK  10 active torsions:
REMARK  status: ('A' for Active; 'I' for Inactive)
REMARK    1  A    between atoms: C2_2  and  C3_3 
REMARK    2  A    between atoms: C3_3  and  N1_4 
REMARK       I    between atoms: N1_4  and  C4_6 
REMARK    3  A    between atoms: C4_6  and  C5_8 
REMARK    4  A    between atoms: N2_12  and  C9_13 
REMARK    5  A    between atoms: C9_13  and  O2_14 
REMARK    6  A    between atoms: C9_13  and  C10_16 
REMARK    7  A    between atoms: C10_16  and  N3_17 
REMARK    8  A    between atoms: C10_16  and  C11_21 
REMARK    9  A    between atoms: C11_21  and  C12_22 
REMARK   10  A    between atoms: C11_21  and  C18_28 
ROOT
HETATM    1  C10 UNL     1      18.131 -15.637  23.576  1.00  0.00     0.270 C 
ENDROOT
BRANCH   1   2
HETATM    2  C9  UNL     1      17.161 -14.887  22.776  1.00  0.00     0.146 C 
BRANCH   2   3
HETATM    3  N2  UNL     1      17.284 -13.753  21.985  1.00  0.00    -0.350 N 
HETATM    4  C5  UNL     1      17.028 -12.355  22.172  1.00  0.00     0.178 C 
HETATM    5  C6  UNL     1      17.844 -11.608  21.127  1.00  0.00     0.037 C 
HETATM    6  C7  UNL     1      18.778 -12.699  20.611  1.00  0.00     0.022 C 
HETATM    7  C8  UNL     1      17.776 -13.857  20.573  1.00  0.00     0.126 C 
BRANCH   4   8
HETATM    8  C4  UNL     1      15.594 -12.014  21.878  1.00  0.00     0.240 C 
HETATM    9  N1  UNL     1      15.333 -10.824  21.178  1.00  0.00    -0.359 N 
ATOM     10  H1  UNL     1      16.124 -10.243  20.897  1.00  0.00     0.162 HD
HETATM   11  O1  UNL     1      14.661 -12.750  22.237  1.00  0.00    -0.271 OA
BRANCH   9  12
HETATM   12  C3  UNL     1      13.994 -10.379  20.833  1.00  0.00     0.122 C 
BRANCH  12  13
HETATM   13  C2  UNL     1      13.413  -9.476  21.889  1.00  0.00     0.015 C 
HETATM   14  C1  UNL     1      12.229 -10.102  22.573  1.00  0.00     0.006 C 
ENDBRANCH  12  13
ENDBRANCH   9  12
ENDBRANCH   4   8
ENDBRANCH   2   3
BRANCH   2  15
HETATM   15  O2  UNL     1      15.955 -15.397  22.827  1.00  0.00    -0.348 OA
ATOM     16  H2  UNL     1      15.627 -15.735  22.001  1.00  0.00     0.219 HD
ENDBRANCH   2  15
ENDBRANCH   1   2
BRANCH   1  17
HETATM   17  N3  UNL     1      17.862 -17.023  23.610  1.00  0.00    -0.067 N 
ATOM     18  H33 UNL     1      17.196 -17.246  24.350  1.00  0.00     0.275 HD
ATOM     19  H32 UNL     1      17.312 -17.308  22.800  1.00  0.00     0.275 HD
ATOM     20  H31 UNL     1      18.705 -17.589  23.696  1.00  0.00     0.275 HD
ENDBRANCH   1  17
BRANCH   1  21
HETATM   21  C11 UNL     1      18.303 -15.020  24.948  1.00  0.00     0.090 C 
BRANCH  21  22
HETATM   22  C12 UNL     1      19.541 -14.226  25.087  1.00  0.00    -0.047 A 
HETATM   23  C13 UNL     1      19.810 -13.429  26.182  1.00  0.00     0.008 A 
HETATM   24  C14 UNL     1      20.992 -12.719  26.235  1.00  0.00     0.001 A 
HETATM   25  C15 UNL     1      21.932 -12.774  25.222  1.00  0.00     0.000 A 
HETATM   26  C16 UNL     1      21.665 -13.566  24.134  1.00  0.00     0.001 A 
HETATM   27  C17 UNL     1      20.477 -14.278  24.082  1.00  0.00     0.008 A 
ENDBRANCH  21  22
BRANCH  21  28
HETATM   28  C18 UNL     1      18.257 -15.973  26.059  1.00  0.00    -0.047 A 
HETATM   29  C19 UNL     1      17.334 -15.804  27.069  1.00  0.00     0.008 A 
HETATM   30  C20 UNL     1      17.220 -16.645  28.152  1.00  0.00     0.001 A 
HETATM   31  C21 UNL     1      18.090 -17.713  28.210  1.00  0.00     0.000 A 
HETATM   32  C22 UNL     1      19.023 -17.911  27.217  1.00  0.00     0.001 A 
HETATM   33  C23 UNL     1      19.105 -17.049  26.151  1.00  0.00     0.008 A 
ENDBRANCH  21  28
ENDBRANCH   1  21
TORSDOF 10
ENDMDL
