MODEL 7
REMARK VINA RESULT: -7.375979642      2.953      4.785
REMARK  10 active torsions:
REMARK  status: ('A' for Active; 'I' for Inactive)
REMARK    1  A    between atoms: C2_2  and  C3_3 
REMARK    2  A    between atoms: C3_3  and  N1_4 
REMARK       I    between atoms: N1_4  and  C4_6 
REMARK    3  A    between atoms: C4_6  and  C5_8 
REMARK    4  A    between atoms: N2_12  and  C9_13 
REMARK    5  A    between atoms: C9_13  and  O2_14 
REMARK    6  A    between atoms: C9_13  and  C10_16 
REMARK    7  A    between atoms: C10_16  and  N3_17 
REMARK    8  A    between atoms: C10_16  and  C11_21 
REMARK    9  A    between atoms: C11_21  and  C12_22 
REMARK   10  A    between atoms: C11_21  and  C18_28 
ROOT
HETATM    1  C10 UNL     1      18.417 -15.482  23.193  1.00  0.00     0.270 C 
ENDROOT
BRANCH   1   2
HETATM    2  C9  UNL     1      16.993 -15.756  22.987  1.00  0.00     0.146 C 
BRANCH   2   3
HETATM    3  N2  UNL     1      16.123 -15.438  21.954  1.00  0.00    -0.350 N 
HETATM    4  C5  UNL     1      14.794 -14.907  21.876  1.00  0.00     0.178 C 
HETATM    5  C6  UNL     1      14.627 -14.326  20.480  1.00  0.00     0.037 C 
HETATM    6  C7  UNL     1      16.063 -14.310  19.966  1.00  0.00     0.022 C 
HETATM    7  C8  UNL     1      16.520 -15.660  20.526  1.00  0.00     0.126 C 
BRANCH   4   8
HETATM    8  C4  UNL     1      13.760 -15.991  21.985  1.00  0.00     0.240 C 
HETATM    9  N1  UNL     1      12.837 -16.126  20.934  1.00  0.00    -0.359 N 
ATOM     10  H1  UNL     1      12.907 -15.486  20.142  1.00  0.00     0.162 HD
HETATM   11  O1  UNL     1      13.710 -16.750  22.966  1.00  0.00    -0.271 OA
BRANCH   9  12
HETATM   12  C3  UNL     1      11.788 -17.131  20.917  1.00  0.00     0.122 C 
BRANCH  12  13
HETATM   13  C2  UNL     1      10.979 -17.077  19.648  1.00  0.00     0.015 C 
HETATM   14  C1  UNL     1      11.242 -15.820  18.867  1.00  0.00     0.006 C 
ENDBRANCH  12  13
ENDBRANCH   9  12
ENDBRANCH   4   8
ENDBRANCH   2   3
BRANCH   2  15
HETATM   15  O2  UNL     1      16.456 -16.430  23.975  1.00  0.00    -0.348 OA
ATOM     16  H2  UNL     1      15.507 -16.395  24.015  1.00  0.00     0.219 HD
ENDBRANCH   2  15
ENDBRANCH   1   2
BRANCH   1  17
HETATM   17  N3  UNL     1      18.994 -16.291  24.197  1.00  0.00    -0.067 N 
ATOM     18  H33 UNL     1      20.010 -16.305  24.113  1.00  0.00     0.275 HD
ATOM     19  H32 UNL     1      18.908 -15.851  25.113  1.00  0.00     0.275 HD
ATOM     20  H31 UNL     1      18.616 -17.238  24.210  1.00  0.00     0.275 HD
ENDBRANCH   1  17
BRANCH   1  21
HETATM   21  C11 UNL     1      18.667 -14.001  23.390  1.00  0.00     0.090 C 
BRANCH  21  22
HETATM   22  C12 UNL     1      18.893 -13.267  22.128  1.00  0.00    -0.047 A 
HETATM   23  C13 UNL     1      19.833 -13.645  21.192  1.00  0.00     0.008 A 
HETATM   24  C14 UNL     1      19.981 -12.905  20.036  1.00  0.00     0.001 A 
HETATM   25  C15 UNL     1      19.214 -11.784  19.775  1.00  0.00     0.000 A 
HETATM   26  C16 UNL     1      18.279 -11.408  20.706  1.00  0.00     0.001 A 
HETATM   27  C17 UNL     1      18.132 -12.153  21.866  1.00  0.00     0.008 A 
ENDBRANCH  21  22
BRANCH  21  28
HETATM   28  C18 UNL     1      19.773 -13.683  24.296  1.00  0.00    -0.047 A 
HETATM   29  C19 UNL     1      19.505 -13.274  25.586  1.00  0.00     0.008 A 
HETATM   30  C20 UNL     1      20.477 -12.950  26.504  1.00  0.00     0.001 A 
HETATM   31  C21 UNL     1      21.788 -13.047  26.089  1.00  0.00     0.000 A 
HETATM   32  C22 UNL     1      22.089 -13.454  24.809  1.00  0.00     0.001 A 
HETATM   33  C23 UNL     1      21.090 -13.769  23.921  1.00  0.00     0.008 A 
ENDBRANCH  21  28
ENDBRANCH   1  21
TORSDOF 10
ENDMDL
