MODEL 3
REMARK VINA RESULT: -8.316671733      1.449      1.855
REMARK  10 active torsions:
REMARK  status: ('A' for Active; 'I' for Inactive)
REMARK    1  A    between atoms: C2_2  and  C3_3 
REMARK    2  A    between atoms: C3_3  and  N1_4 
REMARK       I    between atoms: N1_4  and  C4_6 
REMARK    3  A    between atoms: C4_6  and  C5_8 
REMARK    4  A    between atoms: N2_12  and  C9_13 
REMARK    5  A    between atoms: C9_13  and  O2_14 
REMARK    6  A    between atoms: C9_13  and  C10_16 
REMARK    7  A    between atoms: C10_16  and  N3_17 
REMARK    8  A    between atoms: C10_16  and  C11_21 
REMARK    9  A    between atoms: C11_21  and  C12_22 
REMARK   10  A    between atoms: C11_21  and  C18_28 
ROOT
HETATM    1  C10 UNL     1      17.825 -14.973  23.642  1.00  0.00     0.270 C 
ENDROOT
BRANCH   1   2
HETATM    2  C9  UNL     1      17.443 -13.796  22.859  1.00  0.00     0.146 C 
BRANCH   2   3
HETATM    3  N2  UNL     1      18.007 -13.198  21.741  1.00  0.00    -0.350 N 
HETATM    4  C5  UNL     1      17.856 -11.933  21.084  1.00  0.00     0.178 C 
HETATM    5  C6  UNL     1      19.108 -11.712  20.248  1.00  0.00     0.037 C 
HETATM    6  C7  UNL     1      20.042 -12.796  20.779  1.00  0.00     0.022 C 
HETATM    7  C8  UNL     1      19.021 -13.929  20.914  1.00  0.00     0.126 C 
BRANCH   4   8
HETATM    8  C4  UNL     1      16.719 -11.955  20.102  1.00  0.00     0.240 C 
HETATM    9  N1  UNL     1      17.015 -11.712  18.750  1.00  0.00    -0.359 N 
ATOM     10  H1  UNL     1      17.985 -11.534  18.490  1.00  0.00     0.162 HD
HETATM   11  O1  UNL     1      15.551 -12.177  20.460  1.00  0.00    -0.271 OA
BRANCH   9  12
HETATM   12  C3  UNL     1      16.009 -11.703  17.703  1.00  0.00     0.122 C 
BRANCH  12  13
HETATM   13  C2  UNL     1      16.492 -10.996  16.464  1.00  0.00     0.015 C 
HETATM   14  C1  UNL     1      16.171 -11.768  15.215  1.00  0.00     0.006 C 
ENDBRANCH  12  13
ENDBRANCH   9  12
ENDBRANCH   4   8
ENDBRANCH   2   3
BRANCH   2  15
HETATM   15  O2  UNL     1      16.362 -13.211  23.313  1.00  0.00    -0.348 OA
ATOM     16  H2  UNL     1      15.579 -13.358  22.795  1.00  0.00     0.219 HD
ENDBRANCH   2  15
ENDBRANCH   1   2
BRANCH   1  17
HETATM   17  N3  UNL     1      16.845 -15.990  23.621  1.00  0.00    -0.067 N 
ATOM     18  H33 UNL     1      17.185 -16.814  23.124  1.00  0.00     0.275 HD
ATOM     19  H32 UNL     1      16.720 -16.395  24.549  1.00  0.00     0.275 HD
ATOM     20  H31 UNL     1      15.954 -15.675  23.238  1.00  0.00     0.275 HD
ENDBRANCH   1  17
BRANCH   1  21
HETATM   21  C11 UNL     1      18.263 -14.583  25.038  1.00  0.00     0.090 C 
BRANCH  21  22
HETATM   22  C12 UNL     1      19.624 -14.010  25.092  1.00  0.00    -0.047 A 
HETATM   23  C13 UNL     1      20.588 -14.260  24.137  1.00  0.00     0.008 A 
HETATM   24  C14 UNL     1      21.836 -13.684  24.260  1.00  0.00     0.001 A 
HETATM   25  C15 UNL     1      22.164 -12.853  25.315  1.00  0.00     0.000 A 
HETATM   26  C16 UNL     1      21.205 -12.604  26.265  1.00  0.00     0.001 A 
HETATM   27  C17 UNL     1      19.953 -13.184  26.140  1.00  0.00     0.008 A 
ENDBRANCH  21  22
BRANCH  21  28
HETATM   28  C18 UNL     1      18.195 -15.663  26.025  1.00  0.00    -0.047 A 
HETATM   29  C19 UNL     1      17.333 -15.557  27.097  1.00  0.00     0.008 A 
HETATM   30  C20 UNL     1      17.205 -16.518  28.074  1.00  0.00     0.001 A 
HETATM   31  C21 UNL     1      17.993 -17.643  27.954  1.00  0.00     0.000 A 
HETATM   32  C22 UNL     1      18.862 -17.780  26.896  1.00  0.00     0.001 A 
HETATM   33  C23 UNL     1      18.961 -16.799  25.940  1.00  0.00     0.008 A 
ENDBRANCH  21  28
ENDBRANCH   1  21
TORSDOF 10
ENDMDL
