MODEL 4
REMARK VINA RESULT: -7.661821535      2.581      7.269
REMARK  10 active torsions:
REMARK  status: ('A' for Active; 'I' for Inactive)
REMARK    1  A    between atoms: C2_2  and  C3_3 
REMARK    2  A    between atoms: C3_3  and  N1_4 
REMARK       I    between atoms: N1_4  and  C4_6 
REMARK    3  A    between atoms: C4_6  and  C5_8 
REMARK    4  A    between atoms: N2_12  and  C9_13 
REMARK    5  A    between atoms: C9_13  and  O2_14 
REMARK    6  A    between atoms: C9_13  and  C10_16 
REMARK    7  A    between atoms: C10_16  and  N3_17 
REMARK    8  A    between atoms: C10_16  and  C11_21 
REMARK    9  A    between atoms: C11_21  and  C12_22 
REMARK   10  A    between atoms: C11_21  and  C18_28 
ROOT
HETATM    1  C10 UNL     1      15.717 -14.420  21.558  1.00  0.00     0.270 C 
ENDROOT
BRANCH   1   2
HETATM    2  C9  UNL     1      16.798 -13.635  22.156  1.00  0.00     0.146 C 
BRANCH   2   3
HETATM    3  N2  UNL     1      17.998 -13.160  21.645  1.00  0.00    -0.350 N 
HETATM    4  C5  UNL     1      19.286 -13.732  21.386  1.00  0.00     0.178 C 
HETATM    5  C6  UNL     1      19.975 -12.837  20.366  1.00  0.00     0.037 C 
HETATM    6  C7  UNL     1      18.825 -11.956  19.885  1.00  0.00     0.022 C 
HETATM    7  C8  UNL     1      18.137 -11.725  21.233  1.00  0.00     0.126 C 
BRANCH   4   8
HETATM    8  C4  UNL     1      20.161 -13.694  22.606  1.00  0.00     0.240 C 
HETATM    9  N1  UNL     1      19.706 -14.350  23.762  1.00  0.00    -0.359 N 
ATOM     10  H1  UNL     1      18.804 -14.825  23.726  1.00  0.00     0.162 HD
HETATM   11  O1  UNL     1      21.254 -13.104  22.607  1.00  0.00    -0.271 OA
BRANCH   9  12
HETATM   12  C3  UNL     1      20.455 -14.386  25.006  1.00  0.00     0.122 C 
BRANCH  12  13
HETATM   13  C2  UNL     1      19.894 -13.432  26.028  1.00  0.00     0.015 C 
HETATM   14  C1  UNL     1      20.845 -12.308  26.327  1.00  0.00     0.006 C 
ENDBRANCH  12  13
ENDBRANCH   9  12
ENDBRANCH   4   8
ENDBRANCH   2   3
BRANCH   2  15
HETATM   15  O2  UNL     1      16.574 -13.333  23.411  1.00  0.00    -0.348 OA
ATOM     16  H2  UNL     1      15.899 -13.851  23.834  1.00  0.00     0.219 HD
ENDBRANCH   2  15
ENDBRANCH   1   2
BRANCH   1  17
HETATM   17  N3  UNL     1      16.100 -15.747  21.262  1.00  0.00    -0.067 N 
ATOM     18  H33 UNL     1      15.621 -16.410  21.872  1.00  0.00     0.275 HD
ATOM     19  H32 UNL     1      15.719 -16.045  20.363  1.00  0.00     0.275 HD
ATOM     20  H31 UNL     1      17.109 -15.886  21.295  1.00  0.00     0.275 HD
ENDBRANCH   1  17
BRANCH   1  21
HETATM   21  C11 UNL     1      15.096 -13.693  20.384  1.00  0.00     0.090 C 
BRANCH  21  22
HETATM   22  C12 UNL     1      14.093 -12.683  20.778  1.00  0.00    -0.047 A 
HETATM   23  C13 UNL     1      13.354 -12.765  21.941  1.00  0.00     0.008 A 
HETATM   24  C14 UNL     1      12.436 -11.778  22.237  1.00  0.00     0.001 A 
HETATM   25  C15 UNL     1      12.224 -10.694  21.405  1.00  0.00     0.000 A 
HETATM   26  C16 UNL     1      12.958 -10.613  20.249  1.00  0.00     0.001 A 
HETATM   27  C17 UNL     1      13.879 -11.605  19.953  1.00  0.00     0.008 A 
ENDBRANCH  21  22
BRANCH  21  28
HETATM   28  C18 UNL     1      14.482 -14.565  19.379  1.00  0.00    -0.047 A 
HETATM   29  C19 UNL     1      15.031 -14.647  18.117  1.00  0.00     0.008 A 
HETATM   30  C20 UNL     1      14.521 -15.434  17.110  1.00  0.00     0.001 A 
HETATM   31  C21 UNL     1      13.395 -16.174  17.402  1.00  0.00     0.000 A 
HETATM   32  C22 UNL     1      12.823 -16.115  18.653  1.00  0.00     0.001 A 
HETATM   33  C23 UNL     1      13.362 -15.317  19.633  1.00  0.00     0.008 A 
ENDBRANCH  21  28
ENDBRANCH   1  21
TORSDOF 10
ENDMDL
