MODEL 2
REMARK VINA RESULT: -8.417050286      0.584      1.058
REMARK  10 active torsions:
REMARK  status: ('A' for Active; 'I' for Inactive)
REMARK    1  A    between atoms: C2_2  and  C3_3 
REMARK    2  A    between atoms: C3_3  and  N1_4 
REMARK       I    between atoms: N1_4  and  C4_6 
REMARK    3  A    between atoms: C4_6  and  C5_8 
REMARK    4  A    between atoms: N2_12  and  C9_13 
REMARK    5  A    between atoms: C9_13  and  O2_14 
REMARK    6  A    between atoms: C9_13  and  C10_16 
REMARK    7  A    between atoms: C10_16  and  N3_17 
REMARK    8  A    between atoms: C10_16  and  C11_21 
REMARK    9  A    between atoms: C11_21  and  C12_22 
REMARK   10  A    between atoms: C11_21  and  C18_28 
ROOT
HETATM    1  C10 UNL     1      17.805 -14.920  23.601  1.00  0.00     0.270 C 
ENDROOT
BRANCH   1   2
HETATM    2  C9  UNL     1      17.454 -13.733  22.818  1.00  0.00     0.146 C 
BRANCH   2   3
HETATM    3  N2  UNL     1      18.079 -13.102  21.752  1.00  0.00    -0.350 N 
HETATM    4  C5  UNL     1      18.029 -11.789  21.182  1.00  0.00     0.178 C 
HETATM    5  C6  UNL     1      19.309 -11.601  20.379  1.00  0.00     0.037 C 
HETATM    6  C7  UNL     1      20.154 -12.782  20.846  1.00  0.00     0.022 C 
HETATM    7  C8  UNL     1      19.054 -13.846  20.890  1.00  0.00     0.126 C 
BRANCH   4   8
HETATM    8  C4  UNL     1      16.911 -11.662  20.185  1.00  0.00     0.240 C 
HETATM    9  N1  UNL     1      15.593 -11.696  20.670  1.00  0.00    -0.359 N 
ATOM     10  H1  UNL     1      15.448 -11.802  21.674  1.00  0.00     0.162 HD
HETATM   11  O1  UNL     1      17.131 -11.533  18.970  1.00  0.00    -0.271 OA
BRANCH   9  12
HETATM   12  C3  UNL     1      14.426 -11.586  19.813  1.00  0.00     0.122 C 
BRANCH  12  13
HETATM   13  C2  UNL     1      13.756 -12.918  19.601  1.00  0.00     0.015 C 
HETATM   14  C1  UNL     1      14.285 -13.624  18.384  1.00  0.00     0.006 C 
ENDBRANCH  12  13
ENDBRANCH   9  12
ENDBRANCH   4   8
ENDBRANCH   2   3
BRANCH   2  15
HETATM   15  O2  UNL     1      16.337 -13.175  23.214  1.00  0.00    -0.348 OA
ATOM     16  H2  UNL     1      15.919 -13.596  23.956  1.00  0.00     0.219 HD
ENDBRANCH   2  15
ENDBRANCH   1   2
BRANCH   1  17
HETATM   17  N3  UNL     1      16.792 -15.904  23.593  1.00  0.00    -0.067 N 
ATOM     18  H33 UNL     1      16.407 -16.038  24.528  1.00  0.00     0.275 HD
ATOM     19  H32 UNL     1      15.957 -15.563  23.116  1.00  0.00     0.275 HD
ATOM     20  H31 UNL     1      17.103 -16.790  23.197  1.00  0.00     0.275 HD
ENDBRANCH   1  17
BRANCH   1  21
HETATM   21  C11 UNL     1      18.271 -14.542  24.992  1.00  0.00     0.090 C 
BRANCH  21  22
HETATM   22  C12 UNL     1      19.643 -13.997  25.027  1.00  0.00    -0.047 A 
HETATM   23  C13 UNL     1      20.607 -14.315  24.093  1.00  0.00     0.008 A 
HETATM   24  C14 UNL     1      21.867 -13.762  24.197  1.00  0.00     0.001 A 
HETATM   25  C15 UNL     1      22.208 -12.888  25.213  1.00  0.00     0.000 A 
HETATM   26  C16 UNL     1      21.250 -12.572  26.143  1.00  0.00     0.001 A 
HETATM   27  C17 UNL     1      19.985 -13.129  26.037  1.00  0.00     0.008 A 
ENDBRANCH  21  22
BRANCH  21  28
HETATM   28  C18 UNL     1      18.192 -15.621  25.978  1.00  0.00    -0.047 A 
HETATM   29  C19 UNL     1      17.336 -15.506  27.053  1.00  0.00     0.008 A 
HETATM   30  C20 UNL     1      17.199 -16.465  28.030  1.00  0.00     0.001 A 
HETATM   31  C21 UNL     1      17.973 -17.599  27.907  1.00  0.00     0.000 A 
HETATM   32  C22 UNL     1      18.837 -17.746  26.845  1.00  0.00     0.001 A 
HETATM   33  C23 UNL     1      18.945 -16.765  25.890  1.00  0.00     0.008 A 
ENDBRANCH  21  28
ENDBRANCH   1  21
TORSDOF 10
ENDMDL
