MODEL 1
REMARK VINA RESULT: -8.560664438      0.000      0.000
REMARK  10 active torsions:
REMARK  status: ('A' for Active; 'I' for Inactive)
REMARK    1  A    between atoms: C2_2  and  C3_3 
REMARK    2  A    between atoms: C3_3  and  N1_4 
REMARK       I    between atoms: N1_4  and  C4_6 
REMARK    3  A    between atoms: C4_6  and  C5_8 
REMARK    4  A    between atoms: N2_12  and  C9_13 
REMARK    5  A    between atoms: C9_13  and  O2_14 
REMARK    6  A    between atoms: C9_13  and  C10_16 
REMARK    7  A    between atoms: C10_16  and  N3_17 
REMARK    8  A    between atoms: C10_16  and  C11_21 
REMARK    9  A    between atoms: C11_21  and  C12_22 
REMARK   10  A    between atoms: C11_21  and  C18_28 
ROOT
HETATM    1  C10 UNL     1      17.799 -14.936  23.631  1.00  0.00     0.270 C 
ENDROOT
BRANCH   1   2
HETATM    2  C9  UNL     1      17.428 -13.753  22.853  1.00  0.00     0.146 C 
BRANCH   2   3
HETATM    3  N2  UNL     1      18.043 -13.106  21.790  1.00  0.00    -0.350 N 
HETATM    4  C5  UNL     1      17.987 -11.784  21.239  1.00  0.00     0.178 C 
HETATM    5  C6  UNL     1      19.260 -11.584  20.429  1.00  0.00     0.037 C 
HETATM    6  C7  UNL     1      20.111 -12.771  20.872  1.00  0.00     0.022 C 
HETATM    7  C8  UNL     1      19.012 -13.836  20.910  1.00  0.00     0.126 C 
BRANCH   4   8
HETATM    8  C4  UNL     1      16.861 -11.645  20.254  1.00  0.00     0.240 C 
HETATM    9  N1  UNL     1      15.548 -11.647  20.753  1.00  0.00    -0.359 N 
ATOM     10  H1  UNL     1      15.412 -11.740  21.760  1.00  0.00     0.162 HD
HETATM   11  O1  UNL     1      17.070 -11.533  19.035  1.00  0.00    -0.271 OA
BRANCH   9  12
HETATM   12  C3  UNL     1      14.373 -11.522  19.908  1.00  0.00     0.122 C 
BRANCH  12  13
HETATM   13  C2  UNL     1      13.271 -10.753  20.587  1.00  0.00     0.015 C 
HETATM   14  C1  UNL     1      13.809  -9.749  21.568  1.00  0.00     0.006 C 
ENDBRANCH  12  13
ENDBRANCH   9  12
ENDBRANCH   4   8
ENDBRANCH   2   3
BRANCH   2  15
HETATM   15  O2  UNL     1      16.300 -13.216  23.248  1.00  0.00    -0.348 OA
ATOM     16  H2  UNL     1      16.302 -12.891  24.141  1.00  0.00     0.219 HD
ENDBRANCH   2  15
ENDBRANCH   1   2
BRANCH   1  17
HETATM   17  N3  UNL     1      16.800 -15.935  23.623  1.00  0.00    -0.067 N 
ATOM     18  H33 UNL     1      15.940 -15.587  23.197  1.00  0.00     0.275 HD
ATOM     19  H32 UNL     1      17.028 -16.674  22.957  1.00  0.00     0.275 HD
ATOM     20  H31 UNL     1      16.618 -16.322  24.548  1.00  0.00     0.275 HD
ENDBRANCH   1  17
BRANCH   1  21
HETATM   21  C11 UNL     1      18.263 -14.556  25.021  1.00  0.00     0.090 C 
BRANCH  21  22
HETATM   22  C12 UNL     1      19.635 -14.011  25.057  1.00  0.00    -0.047 A 
HETATM   23  C13 UNL     1      20.604 -14.342  24.132  1.00  0.00     0.008 A 
HETATM   24  C14 UNL     1      21.864 -13.787  24.235  1.00  0.00     0.001 A 
HETATM   25  C15 UNL     1      22.199 -12.900  25.242  1.00  0.00     0.000 A 
HETATM   26  C16 UNL     1      21.236 -12.572  26.162  1.00  0.00     0.001 A 
HETATM   27  C17 UNL     1      19.972 -13.130  26.057  1.00  0.00     0.008 A 
ENDBRANCH  21  22
BRANCH  21  28
HETATM   28  C18 UNL     1      18.184 -15.634  26.009  1.00  0.00    -0.047 A 
HETATM   29  C19 UNL     1      17.337 -15.510  27.091  1.00  0.00     0.008 A 
HETATM   30  C20 UNL     1      17.200 -16.467  28.070  1.00  0.00     0.001 A 
HETATM   31  C21 UNL     1      17.964 -17.608  27.942  1.00  0.00     0.000 A 
HETATM   32  C22 UNL     1      18.819 -17.763  26.873  1.00  0.00     0.001 A 
HETATM   33  C23 UNL     1      18.927 -16.784  25.916  1.00  0.00     0.008 A 
ENDBRANCH  21  28
ENDBRANCH   1  21
TORSDOF 10
ENDMDL
