MODEL 20
REMARK VINA RESULT: -6.671441560      1.763      2.240
REMARK  5 active torsions:
REMARK  status: ('A' for Active; 'I' for Inactive)
REMARK    1  A    between atoms: N1_1  and  S1_4 
REMARK    2  A    between atoms: S1_4  and  C1_7 
REMARK    3  A    between atoms: C2_12  and  N4_13 
REMARK    4  A    between atoms: N4_13  and  S2_15 
REMARK    5  A    between atoms: S2_15  and  C3_18 
ROOT
HETATM    1  C1  UNL     1      -4.956   1.970  16.112  1.00  0.00     0.208 A 
HETATM    2  N2  UNL     1      -3.649   2.207  16.082  1.00  0.00    -0.281 N 
ATOM      3  H2  UNL     1      -3.020   1.668  16.677  1.00  0.00     0.188 HD
HETATM    4  N3  UNL     1      -3.186   3.097  15.320  1.00  0.00    -0.278 N 
ATOM      5  H3  UNL     1      -2.183   3.278  15.297  1.00  0.00     0.189 HD
HETATM    6  C2  UNL     1      -4.005   3.798  14.547  1.00  0.00     0.175 A 
HETATM    7  S3  UNL     1      -5.517   3.116  14.962  1.00  0.00    -0.019 SA
ENDROOT
BRANCH   6   8
HETATM    8  N4  UNL     1      -3.683   4.851  13.613  1.00  0.00    -0.259 N 
ATOM      9  H4  UNL     1      -3.200   4.650  12.737  1.00  0.00     0.181 HD
BRANCH   8  10
HETATM   10  S2  UNL     1      -4.138   6.455  14.025  1.00  0.00     0.264 S 
HETATM   11  O3  UNL     1      -4.987   6.433  15.264  1.00  0.00    -0.200 OA
HETATM   12  O4  UNL     1      -4.983   7.013  12.916  1.00  0.00    -0.200 OA
BRANCH  10  13
HETATM   13  C3  UNL     1      -2.802   7.524  14.270  1.00  0.00     0.079 A 
HETATM   14  C4  UNL     1      -2.760   8.311  15.402  1.00  0.00     0.025 A 
HETATM   15  C5  UNL     1      -1.723   9.180  15.644  1.00  0.00     0.002 A 
HETATM   16  C6  UNL     1      -0.679   9.282  14.738  1.00  0.00     0.000 A 
HETATM   17  C7  UNL     1      -0.715   8.495  13.601  1.00  0.00     0.002 A 
HETATM   18  C8  UNL     1      -1.762   7.627  13.370  1.00  0.00     0.025 A 
ENDBRANCH  10  13
ENDBRANCH   8  10
ENDBRANCH   6   8
BRANCH   1  19
HETATM   19  S1  UNL     1      -5.848   0.796  17.077  1.00  0.00     0.280 S 
HETATM   20  O1  UNL     1      -5.391   0.824  18.504  1.00  0.00    -0.199 OA
HETATM   21  O2  UNL     1      -5.587  -0.551  16.470  1.00  0.00    -0.199 OA
BRANCH  19  22
HETATM   22  N1  UNL     1      -7.528   1.100  17.028  1.00  0.00    -0.323 N 
ATOM     23  H12 UNL     1      -8.211   0.697  17.670  1.00  0.00     0.169 HD
ATOM     24  H11 UNL     1      -7.725   1.743  16.261  1.00  0.00     0.169 HD
ENDBRANCH  19  22
ENDBRANCH   1  19
TORSDOF 5
ENDMDL
