MODEL 18
REMARK VINA RESULT: -6.708496046      3.801      7.144
REMARK  5 active torsions:
REMARK  status: ('A' for Active; 'I' for Inactive)
REMARK    1  A    between atoms: N1_1  and  S1_4 
REMARK    2  A    between atoms: S1_4  and  C1_7 
REMARK    3  A    between atoms: C2_12  and  N4_13 
REMARK    4  A    between atoms: N4_13  and  S2_15 
REMARK    5  A    between atoms: S2_15  and  C3_18 
ROOT
HETATM    1  C1  UNL     1      -4.128   5.340  10.061  1.00  0.00     0.208 A 
HETATM    2  N2  UNL     1      -5.124   5.314  10.939  1.00  0.00    -0.281 N 
ATOM      3  H2  UNL     1      -5.947   5.899  10.792  1.00  0.00     0.188 HD
HETATM    4  N3  UNL     1      -5.054   4.569  11.953  1.00  0.00    -0.278 N 
ATOM      5  H3  UNL     1      -5.820   4.550  12.626  1.00  0.00     0.189 HD
HETATM    6  C2  UNL     1      -3.983   3.810  12.144  1.00  0.00     0.175 A 
HETATM    7  S3  UNL     1      -3.044   4.212  10.772  1.00  0.00    -0.019 SA
ENDROOT
BRANCH   6   8
HETATM    8  N4  UNL     1      -3.706   2.897  13.227  1.00  0.00    -0.259 N 
ATOM      9  H4  UNL     1      -3.389   1.945  13.046  1.00  0.00     0.181 HD
BRANCH   8  10
HETATM   10  S2  UNL     1      -3.931   3.466  14.832  1.00  0.00     0.264 S 
HETATM   11  O3  UNL     1      -4.431   4.881  14.797  1.00  0.00    -0.200 OA
HETATM   12  O4  UNL     1      -2.599   3.481  15.525  1.00  0.00    -0.200 OA
BRANCH  10  13
HETATM   13  C3  UNL     1      -5.015   2.503  15.774  1.00  0.00     0.079 A 
HETATM   14  C4  UNL     1      -6.292   2.961  16.019  1.00  0.00     0.025 A 
HETATM   15  C5  UNL     1      -7.192   2.236  16.764  1.00  0.00     0.002 A 
HETATM   16  C6  UNL     1      -6.825   1.009  17.292  1.00  0.00     0.000 A 
HETATM   17  C7  UNL     1      -5.545   0.543  17.049  1.00  0.00     0.002 A 
HETATM   18  C8  UNL     1      -4.652   1.280  16.299  1.00  0.00     0.025 A 
ENDBRANCH  10  13
ENDBRANCH   8  10
ENDBRANCH   6   8
BRANCH   1  19
HETATM   19  S1  UNL     1      -3.978   6.281   8.579  1.00  0.00     0.280 S 
HETATM   20  O1  UNL     1      -3.786   5.381   7.396  1.00  0.00    -0.199 OA
HETATM   21  O2  UNL     1      -2.788   7.177   8.754  1.00  0.00    -0.199 OA
BRANCH  19  22
HETATM   22  N1  UNL     1      -5.358   7.252   8.317  1.00  0.00    -0.323 N 
ATOM     23  H12 UNL     1      -6.170   6.972   7.767  1.00  0.00     0.169 HD
ATOM     24  H11 UNL     1      -5.231   8.143   8.798  1.00  0.00     0.169 HD
ENDBRANCH  19  22
ENDBRANCH   1  19
TORSDOF 5
ENDMDL
