MODEL 7
REMARK VINA RESULT: -6.873593069      1.731      1.953
REMARK  5 active torsions:
REMARK  status: ('A' for Active; 'I' for Inactive)
REMARK    1  A    between atoms: N1_1  and  S1_4 
REMARK    2  A    between atoms: S1_4  and  C1_7 
REMARK    3  A    between atoms: C2_12  and  N4_13 
REMARK    4  A    between atoms: N4_13  and  S2_15 
REMARK    5  A    between atoms: S2_15  and  C3_18 
ROOT
HETATM    1  C1  UNL     1      -4.699   2.183  14.567  1.00  0.00     0.208 A 
HETATM    2  N2  UNL     1      -3.923   2.406  13.512  1.00  0.00    -0.281 N 
ATOM      3  H2  UNL     1      -3.199   1.733  13.261  1.00  0.00     0.188 HD
HETATM    4  N3  UNL     1      -4.081   3.448  12.821  1.00  0.00    -0.278 N 
ATOM      5  H3  UNL     1      -3.485   3.618  12.011  1.00  0.00     0.189 HD
HETATM    6  C2  UNL     1      -5.022   4.324  13.149  1.00  0.00     0.175 A 
HETATM    7  S3  UNL     1      -5.701   3.578  14.529  1.00  0.00    -0.019 SA
ENDROOT
BRANCH   6   8
HETATM    8  N4  UNL     1      -5.364   5.567  12.498  1.00  0.00    -0.259 N 
ATOM      9  H4  UNL     1      -6.336   5.851  12.382  1.00  0.00     0.181 HD
BRANCH   8  10
HETATM   10  S2  UNL     1      -4.078   6.551  11.925  1.00  0.00     0.264 S 
HETATM   11  O3  UNL     1      -4.574   7.423  10.807  1.00  0.00    -0.200 OA
HETATM   12  O4  UNL     1      -3.011   5.660  11.356  1.00  0.00    -0.200 OA
BRANCH  10  13
HETATM   13  C3  UNL     1      -3.356   7.543  13.142  1.00  0.00     0.079 A 
HETATM   14  C4  UNL     1      -2.548   8.596  12.769  1.00  0.00     0.025 A 
HETATM   15  C5  UNL     1      -1.947   9.414  13.696  1.00  0.00     0.002 A 
HETATM   16  C6  UNL     1      -2.146   9.190  15.050  1.00  0.00     0.000 A 
HETATM   17  C7  UNL     1      -2.956   8.135  15.431  1.00  0.00     0.002 A 
HETATM   18  C8  UNL     1      -3.553   7.322  14.490  1.00  0.00     0.025 A 
ENDBRANCH  10  13
ENDBRANCH   8  10
ENDBRANCH   6   8
BRANCH   1  19
HETATM   19  S1  UNL     1      -4.686   0.822  15.686  1.00  0.00     0.280 S 
HETATM   20  O1  UNL     1      -3.411   0.795  16.474  1.00  0.00    -0.199 OA
HETATM   21  O2  UNL     1      -4.815  -0.421  14.856  1.00  0.00    -0.199 OA
BRANCH  19  22
HETATM   22  N1  UNL     1      -6.004   0.895  16.769  1.00  0.00    -0.323 N 
ATOM     23  H12 UNL     1      -5.957   0.654  17.759  1.00  0.00     0.169 HD
ATOM     24  H11 UNL     1      -6.830   1.216  16.263  1.00  0.00     0.169 HD
ENDBRANCH  19  22
ENDBRANCH   1  19
TORSDOF 5
ENDMDL
