MODEL 12
REMARK VINA RESULT: -6.791204962      3.849      6.916
REMARK  5 active torsions:
REMARK  status: ('A' for Active; 'I' for Inactive)
REMARK    1  A    between atoms: N1_1  and  S1_4 
REMARK    2  A    between atoms: S1_4  and  C1_7 
REMARK    3  A    between atoms: C2_12  and  N4_13 
REMARK    4  A    between atoms: N4_13  and  S2_15 
REMARK    5  A    between atoms: S2_15  and  C3_18 
ROOT
HETATM    1  C1  UNL     1      -1.021   4.262  11.590  1.00  0.00     0.208 A 
HETATM    2  N2  UNL     1      -1.230   3.857  12.837  1.00  0.00    -0.281 N 
ATOM      3  H2  UNL     1      -0.438   3.687  13.457  1.00  0.00     0.188 HD
HETATM    4  N3  UNL     1      -2.406   3.680  13.255  1.00  0.00    -0.278 N 
ATOM      5  H3  UNL     1      -2.565   3.369  14.214  1.00  0.00     0.189 HD
HETATM    6  C2  UNL     1      -3.435   3.899  12.448  1.00  0.00     0.175 A 
HETATM    7  S3  UNL     1      -2.636   4.386  11.018  1.00  0.00    -0.019 SA
ENDROOT
BRANCH   6   8
HETATM    8  N4  UNL     1      -4.845   3.758  12.727  1.00  0.00    -0.259 N 
ATOM      9  H4  UNL     1      -5.489   3.400  12.021  1.00  0.00     0.181 HD
BRANCH   8  10
HETATM   10  S2  UNL     1      -5.404   4.213  14.286  1.00  0.00     0.264 S 
HETATM   11  O3  UNL     1      -6.718   4.930  14.158  1.00  0.00    -0.200 OA
HETATM   12  O4  UNL     1      -4.423   5.183  14.881  1.00  0.00    -0.200 OA
BRANCH  10  13
HETATM   13  C3  UNL     1      -5.582   2.889  15.383  1.00  0.00     0.079 A 
HETATM   14  C4  UNL     1      -6.662   2.858  16.240  1.00  0.00     0.025 A 
HETATM   15  C5  UNL     1      -6.850   1.831  17.133  1.00  0.00     0.002 A 
HETATM   16  C6  UNL     1      -5.939   0.787  17.190  1.00  0.00     0.000 A 
HETATM   17  C7  UNL     1      -4.854   0.812  16.332  1.00  0.00     0.002 A 
HETATM   18  C8  UNL     1      -4.678   1.849  15.440  1.00  0.00     0.025 A 
ENDBRANCH  10  13
ENDBRANCH   8  10
ENDBRANCH   6   8
BRANCH   1  19
HETATM   19  S1  UNL     1       0.504   4.580  10.767  1.00  0.00     0.280 S 
HETATM   20  O1  UNL     1       0.568   6.003  10.299  1.00  0.00    -0.199 OA
HETATM   21  O2  UNL     1       0.570   3.642   9.599  1.00  0.00    -0.199 OA
BRANCH  19  22
HETATM   22  N1  UNL     1       1.837   4.275  11.789  1.00  0.00    -0.323 N 
ATOM     23  H12 UNL     1       2.492   4.984  12.119  1.00  0.00     0.169 HD
ATOM     24  H11 UNL     1       1.864   3.279  12.008  1.00  0.00     0.169 HD
ENDBRANCH  19  22
ENDBRANCH   1  19
TORSDOF 5
ENDMDL
