MODEL 13
REMARK VINA RESULT: -6.779141116      2.283      2.531
REMARK  5 active torsions:
REMARK  status: ('A' for Active; 'I' for Inactive)
REMARK    1  A    between atoms: N1_1  and  S1_4 
REMARK    2  A    between atoms: S1_4  and  C1_7 
REMARK    3  A    between atoms: C2_12  and  N4_13 
REMARK    4  A    between atoms: N4_13  and  S2_15 
REMARK    5  A    between atoms: S2_15  and  C3_18 
ROOT
HETATM    1  C1  UNL     1      -4.977   2.178  14.667  1.00  0.00     0.208 A 
HETATM    2  N2  UNL     1      -5.898   3.134  14.673  1.00  0.00    -0.281 N 
ATOM      3  H2  UNL     1      -6.604   3.158  15.408  1.00  0.00     0.188 HD
HETATM    4  N3  UNL     1      -5.902   4.013  13.769  1.00  0.00    -0.278 N 
ATOM      5  H3  UNL     1      -6.609   4.747  13.774  1.00  0.00     0.189 HD
HETATM    6  C2  UNL     1      -4.984   3.981  12.812  1.00  0.00     0.175 A 
HETATM    7  S3  UNL     1      -4.081   2.602  13.264  1.00  0.00    -0.019 SA
ENDROOT
BRANCH   6   8
HETATM    8  N4  UNL     1      -4.813   4.882  11.696  1.00  0.00    -0.259 N 
ATOM      9  H4  UNL     1      -4.511   4.540  10.784  1.00  0.00     0.181 HD
BRANCH   8  10
HETATM   10  S2  UNL     1      -5.133   6.549  11.957  1.00  0.00     0.264 S 
HETATM   11  O3  UNL     1      -6.518   6.713  12.514  1.00  0.00    -0.200 OA
HETATM   12  O4  UNL     1      -5.098   7.256  10.632  1.00  0.00    -0.200 OA
BRANCH  10  13
HETATM   13  C3  UNL     1      -4.002   7.326  13.009  1.00  0.00     0.079 A 
HETATM   14  C4  UNL     1      -3.114   8.246  12.491  1.00  0.00     0.025 A 
HETATM   15  C5  UNL     1      -2.193   8.890  13.283  1.00  0.00     0.002 A 
HETATM   16  C6  UNL     1      -2.139   8.621  14.641  1.00  0.00     0.000 A 
HETATM   17  C7  UNL     1      -3.027   7.699  15.167  1.00  0.00     0.002 A 
HETATM   18  C8  UNL     1      -3.946   7.060  14.361  1.00  0.00     0.025 A 
ENDBRANCH  10  13
ENDBRANCH   8  10
ENDBRANCH   6   8
BRANCH   1  19
HETATM   19  S1  UNL     1      -4.754   0.846  15.800  1.00  0.00     0.280 S 
HETATM   20  O1  UNL     1      -3.416   0.939  16.470  1.00  0.00    -0.199 OA
HETATM   21  O2  UNL     1      -4.854  -0.421  15.004  1.00  0.00    -0.199 OA
BRANCH  19  22
HETATM   22  N1  UNL     1      -5.971   0.838  16.997  1.00  0.00    -0.323 N 
ATOM     23  H12 UNL     1      -5.801   0.912  18.000  1.00  0.00     0.169 HD
ATOM     24  H11 UNL     1      -6.880   0.748  16.543  1.00  0.00     0.169 HD
ENDBRANCH  19  22
ENDBRANCH   1  19
TORSDOF 5
ENDMDL
