MODEL 5
REMARK VINA RESULT: -5.909686479      2.034      2.394
REMARK  3 active torsions:
REMARK  status: ('A' for Active; 'I' for Inactive)
REMARK       I    between atoms: C2_2  and  N1_4 
REMARK    1  A    between atoms: N1_4  and  C3_6 
REMARK    2  A    between atoms: C4_11  and  S1_12 
REMARK    3  A    between atoms: S1_12  and  N4_13 
ROOT
HETATM    1  C3  UNL     1      -4.589   1.823  14.040  1.00  0.00     0.168 A 
HETATM    2  N2  UNL     1      -4.098   0.750  13.426  1.00  0.00    -0.278 N 
ATOM      3  H2  UNL     1      -4.258  -0.180  13.813  1.00  0.00     0.189 HD
HETATM    4  N3  UNL     1      -3.434   0.888  12.364  1.00  0.00    -0.281 N 
ATOM      5  H3  UNL     1      -3.055   0.069  11.889  1.00  0.00     0.188 HD
HETATM    6  C4  UNL     1      -3.227   2.101  11.862  1.00  0.00     0.208 A 
HETATM    7  S2  UNL     1      -4.047   3.073  13.006  1.00  0.00    -0.020 SA
ENDROOT
BRANCH   6   8
HETATM    8  S1  UNL     1      -2.333   2.535  10.395  1.00  0.00     0.280 S 
HETATM    9  O2  UNL     1      -3.243   3.211   9.435  1.00  0.00    -0.199 OA
HETATM   10  O3  UNL     1      -1.238   3.465  10.831  1.00  0.00    -0.199 OA
BRANCH   8  11
HETATM   11  N4  UNL     1      -1.635   1.106   9.741  1.00  0.00    -0.323 N 
ATOM     12  H42 UNL     1      -0.636   0.955   9.598  1.00  0.00     0.169 HD
ATOM     13  H41 UNL     1      -2.385   0.449   9.526  1.00  0.00     0.169 HD
ENDBRANCH   8  11
ENDBRANCH   6   8
BRANCH   1  14
HETATM   14  N1  UNL     1      -5.367   1.891  15.250  1.00  0.00    -0.306 N 
HETATM   15  C2  UNL     1      -4.883   1.251  16.413  1.00  0.00     0.219 C 
HETATM   16  C1  UNL     1      -5.621   1.272  17.699  1.00  0.00     0.117 C 
HETATM   17  O1  UNL     1      -3.782   0.644  16.338  1.00  0.00    -0.274 OA
ATOM     18  H1  UNL     1      -6.254   2.394  15.267  1.00  0.00     0.171 HD
ENDBRANCH   1  14
TORSDOF 3
ENDMDL
