MODEL 14
REMARK VINA RESULT: -5.584457719      3.584      5.804
REMARK  3 active torsions:
REMARK  status: ('A' for Active; 'I' for Inactive)
REMARK       I    between atoms: C2_2  and  N1_4 
REMARK    1  A    between atoms: N1_4  and  C3_6 
REMARK    2  A    between atoms: C4_11  and  S1_12 
REMARK    3  A    between atoms: S1_12  and  N4_13 
ROOT
HETATM    1  C3  UNL     1      -4.197   3.712  14.497  1.00  0.00     0.168 A 
HETATM    2  N2  UNL     1      -3.366   3.091  15.329  1.00  0.00    -0.278 N 
ATOM      3  H2  UNL     1      -2.367   3.295  15.303  1.00  0.00     0.189 HD
HETATM    4  N3  UNL     1      -3.820   2.250  16.151  1.00  0.00    -0.281 N 
ATOM      5  H3  UNL     1      -3.187   1.771  16.793  1.00  0.00     0.188 HD
HETATM    6  C4  UNL     1      -5.122   1.986  16.182  1.00  0.00     0.208 A 
HETATM    7  S2  UNL     1      -5.696   3.023  14.949  1.00  0.00    -0.020 SA
ENDROOT
BRANCH   6   8
HETATM    8  S1  UNL     1      -5.978   0.853  17.242  1.00  0.00     0.280 S 
HETATM    9  O2  UNL     1      -5.630  -0.543  16.869  1.00  0.00    -0.199 OA
HETATM   10  O3  UNL     1      -5.518   1.157  18.638  1.00  0.00    -0.199 OA
BRANCH   8  11
HETATM   11  N4  UNL     1      -7.665   1.163  17.121  1.00  0.00    -0.323 N 
ATOM     12  H42 UNL     1      -8.175   1.849  17.677  1.00  0.00     0.169 HD
ATOM     13  H41 UNL     1      -8.055   0.550  16.406  1.00  0.00     0.169 HD
ENDBRANCH   8  11
ENDBRANCH   6   8
BRANCH   1  14
HETATM   14  N1  UNL     1      -3.893   4.697  13.491  1.00  0.00    -0.306 N 
HETATM   15  C2  UNL     1      -3.729   6.045  13.879  1.00  0.00     0.219 C 
HETATM   16  C1  UNL     1      -3.416   7.121  12.908  1.00  0.00     0.117 C 
HETATM   17  O1  UNL     1      -3.855   6.327  15.099  1.00  0.00    -0.274 OA
ATOM     18  H1  UNL     1      -3.799   4.425  12.512  1.00  0.00     0.171 HD
ENDBRANCH   1  14
TORSDOF 3
ENDMDL
