MODEL 2
REMARK VINA RESULT: -6.192507362      1.288      1.599
REMARK  3 active torsions:
REMARK  status: ('A' for Active; 'I' for Inactive)
REMARK       I    between atoms: C2_2  and  N1_4 
REMARK    1  A    between atoms: N1_4  and  C3_6 
REMARK    2  A    between atoms: C4_11  and  S1_12 
REMARK    3  A    between atoms: S1_12  and  N4_13 
ROOT
HETATM    1  C3  UNL     1      -4.743   1.432  15.109  1.00  0.00     0.168 A 
HETATM    2  N2  UNL     1      -4.335   0.214  14.765  1.00  0.00    -0.278 N 
ATOM      3  H2  UNL     1      -4.184  -0.498  15.480  1.00  0.00     0.189 HD
HETATM    4  N3  UNL     1      -4.135  -0.056  13.550  1.00  0.00    -0.281 N 
ATOM      5  H3  UNL     1      -3.822  -0.989  13.280  1.00  0.00     0.188 HD
HETATM    6  C4  UNL     1      -4.332   0.873  12.621  1.00  0.00     0.208 A 
HETATM    7  S2  UNL     1      -4.833   2.196  13.582  1.00  0.00    -0.020 SA
ENDROOT
BRANCH   6   8
HETATM    8  S1  UNL     1      -4.118   0.723  10.868  1.00  0.00     0.280 S 
HETATM    9  O2  UNL     1      -5.444   0.589  10.211  1.00  0.00    -0.199 OA
HETATM   10  O3  UNL     1      -3.431   1.981  10.421  1.00  0.00    -0.199 OA
BRANCH   8  11
HETATM   11  N4  UNL     1      -3.094  -0.623  10.558  1.00  0.00    -0.323 N 
ATOM     12  H42 UNL     1      -2.092  -0.651  10.747  1.00  0.00     0.169 HD
ATOM     13  H41 UNL     1      -3.658  -1.373  10.160  1.00  0.00     0.169 HD
ENDBRANCH   8  11
ENDBRANCH   6   8
BRANCH   1  14
HETATM   14  N1  UNL     1      -5.029   1.947  16.424  1.00  0.00    -0.306 N 
HETATM   15  C2  UNL     1      -6.004   1.302  17.216  1.00  0.00     0.219 C 
HETATM   16  C1  UNL     1      -6.358   1.767  18.579  1.00  0.00     0.117 C 
HETATM   17  O1  UNL     1      -6.585   0.295  16.733  1.00  0.00    -0.274 OA
ATOM     18  H1  UNL     1      -4.534   2.766  16.777  1.00  0.00     0.171 HD
ENDBRANCH   1  14
TORSDOF 3
ENDMDL
