MODEL 2
REMARK VINA RESULT: -7.280135559      4.425      6.061
REMARK  3 active torsions:
REMARK  status: ('A' for Active; 'I' for Inactive)
REMARK    1  A    between atoms: N1_1  and  S1_4 
REMARK    2  A    between atoms: S1_4  and  C1_7 
REMARK    3  A    between atoms: C2_12  and  C3_13 
ROOT
HETATM    1  C1  UNL     1      -2.699   3.353  12.762  1.00  0.00     0.207 A 
HETATM    2  N2  UNL     1      -2.380   3.705  13.993  1.00  0.00    -0.282 N 
ATOM      3  H2  UNL     1      -1.559   4.290  14.150  1.00  0.00     0.188 HD
HETATM    4  N3  UNL     1      -3.074   3.330  14.979  1.00  0.00    -0.291 N 
ATOM      5  H3  UNL     1      -2.816   3.611  15.924  1.00  0.00     0.187 HD
HETATM    6  C2  UNL     1      -4.144   2.567  14.777  1.00  0.00     0.103 A 
HETATM    7  S2  UNL     1      -4.101   2.416  13.074  1.00  0.00    -0.037 SA
ENDROOT
BRANCH   6   8
HETATM    8  C3  UNL     1      -5.097   2.007  15.723  1.00  0.00     0.021 A 
HETATM    9  C4  UNL     1      -4.955   0.733  16.220  1.00  0.00     0.016 A 
HETATM   10  C5  UNL     1      -5.838   0.173  17.116  1.00  0.00     0.001 A 
HETATM   11  C6  UNL     1      -6.925   0.893  17.557  1.00  0.00     0.002 A 
HETATM   12  C7  UNL     1      -7.091   2.169  17.075  1.00  0.00     0.025 A 
HETATM   13  C8  UNL     1      -6.190   2.707  16.177  1.00  0.00     0.047 A 
HETATM   14 CL1  UNL     1      -6.461   4.332  15.607  1.00  0.00    -0.083 Cl
ENDBRANCH   6   8
BRANCH   1  15
HETATM   15  S1  UNL     1      -1.916   3.731  11.227  1.00  0.00     0.280 S 
HETATM   16  O1  UNL     1      -0.610   3.015  11.160  1.00  0.00    -0.199 OA
HETATM   17  O2  UNL     1      -2.766   3.214  10.077  1.00  0.00    -0.199 OA
BRANCH  15  18
HETATM   18  N1  UNL     1      -1.776   5.418  11.065  1.00  0.00    -0.323 N 
ATOM     19  H12 UNL     1      -1.315   5.854  10.266  1.00  0.00     0.169 HD
ATOM     20  H11 UNL     1      -2.193   5.938  11.837  1.00  0.00     0.169 HD
ENDBRANCH  15  18
ENDBRANCH   1  15
TORSDOF 3
ENDMDL
