MODEL 5
REMARK VINA RESULT: -7.142947147      4.486      6.104
REMARK  3 active torsions:
REMARK  status: ('A' for Active; 'I' for Inactive)
REMARK    1  A    between atoms: N1_1  and  S1_4 
REMARK    2  A    between atoms: S1_4  and  C1_7 
REMARK    3  A    between atoms: C2_12  and  C3_13 
ROOT
HETATM    1  C1  UNL     1      -2.365   3.790  13.262  1.00  0.00     0.207 A 
HETATM    2  N2  UNL     1      -2.031   3.813  14.538  1.00  0.00    -0.282 N 
ATOM      3  H2  UNL     1      -1.149   4.244  14.817  1.00  0.00     0.188 HD
HETATM    4  N3  UNL     1      -2.784   3.313  15.419  1.00  0.00    -0.291 N 
ATOM      5  H3  UNL     1      -2.513   3.339  16.402  1.00  0.00     0.187 HD
HETATM    6  C2  UNL     1      -3.933   2.751  15.058  1.00  0.00     0.103 A 
HETATM    7  S2  UNL     1      -3.876   2.983  13.365  1.00  0.00    -0.037 SA
ENDROOT
BRANCH   6   8
HETATM    8  C3  UNL     1      -4.966   2.111  15.861  1.00  0.00     0.021 A 
HETATM    9  C4  UNL     1      -4.815   0.832  16.342  1.00  0.00     0.016 A 
HETATM   10  C5  UNL     1      -5.771   0.198  17.103  1.00  0.00     0.001 A 
HETATM   11  C6  UNL     1      -6.945   0.845  17.419  1.00  0.00     0.002 A 
HETATM   12  C7  UNL     1      -7.121   2.125  16.950  1.00  0.00     0.025 A 
HETATM   13  C8  UNL     1      -6.145   2.738  16.188  1.00  0.00     0.047 A 
HETATM   14 CL1  UNL     1      -6.433   4.363  15.627  1.00  0.00    -0.083 Cl
ENDBRANCH   6   8
BRANCH   1  15
HETATM   15  S1  UNL     1      -1.513   4.406  11.846  1.00  0.00     0.280 S 
HETATM   16  O1  UNL     1      -1.505   3.354  10.790  1.00  0.00    -0.199 OA
HETATM   17  O2  UNL     1      -2.260   5.602  11.278  1.00  0.00    -0.199 OA
BRANCH  15  18
HETATM   18  N1  UNL     1       0.042   4.922  12.304  1.00  0.00    -0.323 N 
ATOM     19  H12 UNL     1       0.806   5.013  11.634  1.00  0.00     0.169 HD
ATOM     20  H11 UNL     1       0.127   5.127  13.299  1.00  0.00     0.169 HD
ENDBRANCH  15  18
ENDBRANCH   1  15
TORSDOF 3
ENDMDL
