MODEL 18
REMARK VINA RESULT: -6.468712963      2.341      2.783
REMARK  3 active torsions:
REMARK  status: ('A' for Active; 'I' for Inactive)
REMARK    1  A    between atoms: N1_1  and  S1_4 
REMARK    2  A    between atoms: S1_4  and  C1_7 
REMARK    3  A    between atoms: C2_12  and  C3_13 
ROOT
HETATM    1  C1  UNL     1      -5.430   2.115  16.038  1.00  0.00     0.207 A 
HETATM    2  N2  UNL     1      -6.299   3.078  15.799  1.00  0.00    -0.282 N 
ATOM      3  H2  UNL     1      -7.279   2.943  16.048  1.00  0.00     0.188 HD
HETATM    4  N3  UNL     1      -5.937   4.166  15.269  1.00  0.00    -0.291 N 
ATOM      5  H3  UNL     1      -6.620   4.902  15.091  1.00  0.00     0.187 HD
HETATM    6  C2  UNL     1      -4.661   4.345  14.943  1.00  0.00     0.103 A 
HETATM    7  S2  UNL     1      -3.998   2.851  15.447  1.00  0.00    -0.037 SA
ENDROOT
BRANCH   6   8
HETATM    8  C3  UNL     1      -3.993   5.484  14.329  1.00  0.00     0.021 A 
HETATM    9  C4  UNL     1      -3.423   6.479  15.088  1.00  0.00     0.016 A 
HETATM   10  C5  UNL     1      -2.784   7.569  14.539  1.00  0.00     0.001 A 
HETATM   11  C6  UNL     1      -2.691   7.700  13.172  1.00  0.00     0.002 A 
HETATM   12  C7  UNL     1      -3.253   6.719  12.391  1.00  0.00     0.025 A 
HETATM   13  C8  UNL     1      -3.888   5.636  12.967  1.00  0.00     0.047 A 
HETATM   14 CL1  UNL     1      -4.578   4.427  11.917  1.00  0.00    -0.083 Cl
ENDBRANCH   6   8
BRANCH   1  15
HETATM   15  S1  UNL     1      -5.661   0.521  16.757  1.00  0.00     0.280 S 
HETATM   16  O1  UNL     1      -5.402   0.608  18.222  1.00  0.00    -0.199 OA
HETATM   17  O2  UNL     1      -7.107   0.085  16.586  1.00  0.00    -0.199 OA
BRANCH  15  18
HETATM   18  N1  UNL     1      -4.670  -0.607  15.958  1.00  0.00    -0.323 N 
ATOM     19  H12 UNL     1      -4.654  -1.596  16.211  1.00  0.00     0.169 HD
ATOM     20  H11 UNL     1      -4.105  -0.199  15.214  1.00  0.00     0.169 HD
ENDBRANCH  15  18
ENDBRANCH   1  15
TORSDOF 3
ENDMDL
