MODEL 7
REMARK VINA RESULT: -6.997930989      2.600      2.790
REMARK  3 active torsions:
REMARK  status: ('A' for Active; 'I' for Inactive)
REMARK    1  A    between atoms: N1_1  and  S1_4 
REMARK    2  A    between atoms: S1_4  and  C1_7 
REMARK    3  A    between atoms: C2_12  and  C3_13 
ROOT
HETATM    1  C1  UNL     1      -5.040   1.607  16.264  1.00  0.00     0.207 A 
HETATM    2  N2  UNL     1      -3.741   1.719  16.067  1.00  0.00    -0.282 N 
ATOM      3  H2  UNL     1      -3.114   1.002  16.436  1.00  0.00     0.188 HD
HETATM    4  N3  UNL     1      -3.259   2.697  15.431  1.00  0.00    -0.291 N 
ATOM      5  H3  UNL     1      -2.252   2.770  15.286  1.00  0.00     0.187 HD
HETATM    6  C2  UNL     1      -4.072   3.632  14.950  1.00  0.00     0.103 A 
HETATM    7  S2  UNL     1      -5.585   3.024  15.466  1.00  0.00    -0.037 SA
ENDROOT
BRANCH   6   8
HETATM    8  C3  UNL     1      -3.780   4.842  14.195  1.00  0.00     0.021 A 
HETATM    9  C4  UNL     1      -3.374   5.999  14.817  1.00  0.00     0.016 A 
HETATM   10  C5  UNL     1      -3.090   7.159  14.133  1.00  0.00     0.001 A 
HETATM   11  C6  UNL     1      -3.206   7.200  12.762  1.00  0.00     0.002 A 
HETATM   12  C7  UNL     1      -3.611   6.057  12.115  1.00  0.00     0.025 A 
HETATM   13  C8  UNL     1      -3.890   4.906  12.826  1.00  0.00     0.047 A 
HETATM   14 CL1  UNL     1      -4.399   3.492  11.942  1.00  0.00    -0.083 Cl
ENDBRANCH   6   8
BRANCH   1  15
HETATM   15  S1  UNL     1      -5.965   0.363  17.105  1.00  0.00     0.280 S 
HETATM   16  O1  UNL     1      -5.641  -0.966  16.512  1.00  0.00    -0.199 OA
HETATM   17  O2  UNL     1      -5.548   0.312  18.566  1.00  0.00    -0.199 OA
BRANCH  15  18
HETATM   18  N1  UNL     1      -7.620   0.750  17.040  1.00  0.00    -0.323 N 
ATOM     19  H12 UNL     1      -8.177   0.630  16.194  1.00  0.00     0.169 HD
ATOM     20  H11 UNL     1      -7.990   1.109  17.920  1.00  0.00     0.169 HD
ENDBRANCH  15  18
ENDBRANCH   1  15
TORSDOF 3
ENDMDL
