MODEL 14
REMARK VINA RESULT: -6.688931147      2.499      2.668
REMARK  3 active torsions:
REMARK  status: ('A' for Active; 'I' for Inactive)
REMARK    1  A    between atoms: N1_1  and  S1_4 
REMARK    2  A    between atoms: S1_4  and  C1_7 
REMARK    3  A    between atoms: C2_12  and  C3_13 
ROOT
HETATM    1  C1  UNL     1      -5.175   1.569  16.103  1.00  0.00     0.207 A 
HETATM    2  N2  UNL     1      -3.882   1.760  15.924  1.00  0.00    -0.282 N 
ATOM      3  H2  UNL     1      -3.214   1.195  16.447  1.00  0.00     0.188 HD
HETATM    4  N3  UNL     1      -3.459   2.633  15.114  1.00  0.00    -0.291 N 
ATOM      5  H3  UNL     1      -2.456   2.769  14.985  1.00  0.00     0.187 HD
HETATM    6  C2  UNL     1      -4.327   3.371  14.431  1.00  0.00     0.103 A 
HETATM    7  S2  UNL     1      -5.803   2.740  15.019  1.00  0.00    -0.037 SA
ENDROOT
BRANCH   6   8
HETATM    8  C3  UNL     1      -4.106   4.427  13.453  1.00  0.00     0.021 A 
HETATM    9  C4  UNL     1      -3.942   4.149  12.117  1.00  0.00     0.016 A 
HETATM   10  C5  UNL     1      -3.732   5.123  11.167  1.00  0.00     0.001 A 
HETATM   11  C6  UNL     1      -3.679   6.449  11.536  1.00  0.00     0.002 A 
HETATM   12  C7  UNL     1      -3.841   6.754  12.866  1.00  0.00     0.025 A 
HETATM   13  C8  UNL     1      -4.050   5.757  13.798  1.00  0.00     0.047 A 
HETATM   14 CL1  UNL     1      -4.248   6.216  15.469  1.00  0.00    -0.083 Cl
ENDBRANCH   6   8
BRANCH   1  15
HETATM   15  S1  UNL     1      -6.027   0.437  17.154  1.00  0.00     0.280 S 
HETATM   16  O1  UNL     1      -5.666  -0.955  16.762  1.00  0.00    -0.199 OA
HETATM   17  O2  UNL     1      -5.568   0.627  18.592  1.00  0.00    -0.199 OA
BRANCH  15  18
HETATM   18  N1  UNL     1      -7.697   0.752  17.086  1.00  0.00    -0.323 N 
ATOM     19  H12 UNL     1      -8.119   1.305  16.340  1.00  0.00     0.169 HD
ATOM     20  H11 UNL     1      -8.222   0.337  17.856  1.00  0.00     0.169 HD
ENDBRANCH  15  18
ENDBRANCH   1  15
TORSDOF 3
ENDMDL
