MODEL 20
REMARK VINA RESULT: -6.459990964      2.897      3.237
REMARK  3 active torsions:
REMARK  status: ('A' for Active; 'I' for Inactive)
REMARK    1  A    between atoms: N1_1  and  S1_4 
REMARK    2  A    between atoms: S1_4  and  C1_7 
REMARK    3  A    between atoms: C2_12  and  C3_13 
ROOT
HETATM    1  C1  UNL     1      -5.393   1.577  16.390  1.00  0.00     0.207 A 
HETATM    2  N2  UNL     1      -4.078   1.526  16.296  1.00  0.00    -0.282 N 
ATOM      3  H2  UNL     1      -3.553   0.928  16.933  1.00  0.00     0.188 HD
HETATM    4  N3  UNL     1      -3.459   2.207  15.431  1.00  0.00    -0.291 N 
ATOM      5  H3  UNL     1      -2.443   2.157  15.370  1.00  0.00     0.187 HD
HETATM    6  C2  UNL     1      -4.141   2.988  14.600  1.00  0.00     0.103 A 
HETATM    7  S2  UNL     1      -5.739   2.690  15.132  1.00  0.00    -0.037 SA
ENDROOT
BRANCH   6   8
HETATM    8  C3  UNL     1      -3.679   3.862  13.530  1.00  0.00     0.021 A 
HETATM    9  C4  UNL     1      -3.265   3.360  12.319  1.00  0.00     0.016 A 
HETATM   10  C5  UNL     1      -2.824   4.158  11.287  1.00  0.00     0.001 A 
HETATM   11  C6  UNL     1      -2.781   5.525  11.439  1.00  0.00     0.002 A 
HETATM   12  C7  UNL     1      -3.190   6.052  12.641  1.00  0.00     0.025 A 
HETATM   13  C8  UNL     1      -3.628   5.230  13.659  1.00  0.00     0.047 A 
HETATM   14 CL1  UNL     1      -4.132   5.965  15.158  1.00  0.00    -0.083 Cl
ENDBRANCH   6   8
BRANCH   1  15
HETATM   15  S1  UNL     1      -6.492   0.744  17.489  1.00  0.00     0.280 S 
HETATM   16  O1  UNL     1      -7.868   0.777  16.915  1.00  0.00    -0.199 OA
HETATM   17  O2  UNL     1      -6.093  -0.719  17.603  1.00  0.00    -0.199 OA
BRANCH  15  18
HETATM   18  N1  UNL     1      -6.383   1.444  19.035  1.00  0.00    -0.323 N 
ATOM     19  H12 UNL     1      -6.095   2.413  19.176  1.00  0.00     0.169 HD
ATOM     20  H11 UNL     1      -6.630   0.806  19.790  1.00  0.00     0.169 HD
ENDBRANCH  15  18
ENDBRANCH   1  15
TORSDOF 3
ENDMDL
