MODEL 6
REMARK VINA RESULT: -7.112970172      4.428      6.154
REMARK  3 active torsions:
REMARK  status: ('A' for Active; 'I' for Inactive)
REMARK    1  A    between atoms: N1_1  and  S1_4 
REMARK    2  A    between atoms: S1_4  and  C1_7 
REMARK    3  A    between atoms: C2_12  and  C3_13 
ROOT
HETATM    1  C1  UNL     1      -3.871   3.326  12.199  1.00  0.00     0.207 A 
HETATM    2  N2  UNL     1      -3.054   3.235  13.231  1.00  0.00    -0.282 N 
ATOM      3  H2  UNL     1      -2.077   3.509  13.123  1.00  0.00     0.188 HD
HETATM    4  N3  UNL     1      -3.462   2.814  14.349  1.00  0.00    -0.291 N 
ATOM      5  H3  UNL     1      -2.819   2.749  15.138  1.00  0.00     0.187 HD
HETATM    6  C2  UNL     1      -4.734   2.456  14.492  1.00  0.00     0.103 A 
HETATM    7  S2  UNL     1      -5.322   2.760  12.916  1.00  0.00    -0.037 SA
ENDROOT
BRANCH   6   8
HETATM    8  C3  UNL     1      -5.448   1.945  15.654  1.00  0.00     0.021 A 
HETATM    9  C4  UNL     1      -6.266   2.752  16.409  1.00  0.00     0.016 A 
HETATM   10  C5  UNL     1      -6.955   2.301  17.512  1.00  0.00     0.001 A 
HETATM   11  C6  UNL     1      -6.844   0.987  17.907  1.00  0.00     0.002 A 
HETATM   12  C7  UNL     1      -6.032   0.159  17.170  1.00  0.00     0.025 A 
HETATM   13  C8  UNL     1      -5.352   0.637  16.067  1.00  0.00     0.047 A 
HETATM   14 CL1  UNL     1      -4.339  -0.468  15.176  1.00  0.00    -0.083 Cl
ENDBRANCH   6   8
BRANCH   1  15
HETATM   15  S1  UNL     1      -3.569   3.872  10.549  1.00  0.00     0.280 S 
HETATM   16  O1  UNL     1      -2.363   3.175  10.020  1.00  0.00    -0.199 OA
HETATM   17  O2  UNL     1      -4.737   3.480   9.657  1.00  0.00    -0.199 OA
BRANCH  15  18
HETATM   18  N1  UNL     1      -3.436   5.568  10.531  1.00  0.00    -0.323 N 
ATOM     19  H12 UNL     1      -2.537   6.046  10.592  1.00  0.00     0.169 HD
ATOM     20  H11 UNL     1      -4.334   6.047  10.455  1.00  0.00     0.169 HD
ENDBRANCH  15  18
ENDBRANCH   1  15
TORSDOF 3
ENDMDL
