MODEL 1
REMARK VINA RESULT: -6.537967424      0.000      0.000
REMARK  4 active torsions:
REMARK  status: ('A' for Active; 'I' for Inactive)
REMARK    1  A    between atoms: C2_2  and  O1_3 
REMARK    2  A    between atoms: O1_3  and  C3_4 
REMARK    3  A    between atoms: C7_10  and  S1_11 
REMARK    4  A    between atoms: S1_11  and  N2_12 
ROOT
HETATM    1  C3  UNL     1      -3.247   6.099  14.192  1.00  0.00     0.070 A 
HETATM    2  C4  UNL     1      -2.214   5.257  14.552  1.00  0.00     0.039 A 
HETATM    3  C5  UNL     1      -2.434   4.045  15.141  1.00  0.00     0.034 A 
HETATM    4  C6  UNL     1      -3.728   3.576  15.421  1.00  0.00     0.051 A 
HETATM    5  N1  UNL     1      -4.038   2.441  15.977  1.00  0.00    -0.339 N 
ATOM      6  H1  UNL     1      -3.301   1.792  16.257  1.00  0.00     0.167 HD
HETATM    7  C7  UNL     1      -5.304   2.130  16.180  1.00  0.00     0.192 A 
HETATM    8  S2  UNL     1      -6.120   3.498  15.560  1.00  0.00    -0.057 SA
HETATM    9  C8  UNL     1      -4.757   4.407  15.067  1.00  0.00     0.037 A 
HETATM   10  C9  UNL     1      -4.533   5.650  14.461  1.00  0.00     0.058 A 
ENDROOT
BRANCH   7  11
HETATM   11  S1  UNL     1      -5.968   0.660  16.913  1.00  0.00     0.279 S 
HETATM   12  O2  UNL     1      -5.409   0.524  18.280  1.00  0.00    -0.199 OA
HETATM   13  O3  UNL     1      -5.571  -0.543  16.106  1.00  0.00    -0.199 OA
BRANCH  11  14
HETATM   14  N2  UNL     1      -7.685   0.794  16.907  1.00  0.00    -0.323 N 
ATOM     15  H22 UNL     1      -8.217   1.530  16.444  1.00  0.00     0.169 HD
ATOM     16  H21 UNL     1      -8.063   0.014  17.445  1.00  0.00     0.169 HD
ENDBRANCH  11  14
ENDBRANCH   7  11
BRANCH   1  17
HETATM   17  O1  UNL     1      -3.022   7.330  13.593  1.00  0.00    -0.351 OA
BRANCH  17  18
HETATM   18  C2  UNL     1      -1.845   8.024  13.964  1.00  0.00     0.171 C 
HETATM   19  C1  UNL     1      -2.064   8.898  15.172  1.00  0.00     0.034 C 
ENDBRANCH  17  18
ENDBRANCH   1  17
TORSDOF 4
ENDMDL
