MODEL 18
REMARK VINA RESULT: -5.530901174      1.402      1.536
REMARK  4 active torsions:
REMARK  status: ('A' for Active; 'I' for Inactive)
REMARK    1  A    between atoms: C2_2  and  O1_3 
REMARK    2  A    between atoms: O1_3  and  C3_4 
REMARK    3  A    between atoms: C7_10  and  S1_11 
REMARK    4  A    between atoms: S1_11  and  N2_12 
ROOT
HETATM    1  C3  UNL     1      -2.708   7.027  13.561  1.00  0.00     0.070 A 
HETATM    2  C4  UNL     1      -1.673   6.134  13.362  1.00  0.00     0.039 A 
HETATM    3  C5  UNL     1      -1.781   4.811  13.681  1.00  0.00     0.034 A 
HETATM    4  C6  UNL     1      -2.954   4.270  14.233  1.00  0.00     0.051 A 
HETATM    5  N1  UNL     1      -3.152   3.029  14.568  1.00  0.00    -0.339 N 
ATOM      6  H1  UNL     1      -2.410   2.340  14.436  1.00  0.00     0.167 HD
HETATM    7  C7  UNL     1      -4.311   2.661  15.080  1.00  0.00     0.192 A 
HETATM    8  S2  UNL     1      -5.185   4.129  15.098  1.00  0.00    -0.057 SA
HETATM    9  C8  UNL     1      -3.983   5.150  14.433  1.00  0.00     0.037 A 
HETATM   10  C9  UNL     1      -3.875   6.508  14.106  1.00  0.00     0.058 A 
ENDROOT
BRANCH   7  11
HETATM   11  S1  UNL     1      -4.813   1.046  15.608  1.00  0.00     0.279 S 
HETATM   12  O2  UNL     1      -3.736   0.472  16.451  1.00  0.00    -0.199 OA
HETATM   13  O3  UNL     1      -5.021   0.155  14.417  1.00  0.00    -0.199 OA
BRANCH  11  14
HETATM   14  N2  UNL     1      -6.305   1.205  16.454  1.00  0.00    -0.323 N 
ATOM     15  H22 UNL     1      -7.207   1.409  16.023  1.00  0.00     0.169 HD
ATOM     16  H21 UNL     1      -6.121   1.060  17.446  1.00  0.00     0.169 HD
ENDBRANCH  11  14
ENDBRANCH   7  11
BRANCH   1  17
HETATM   17  O1  UNL     1      -2.596   8.371  13.236  1.00  0.00    -0.351 OA
BRANCH  17  18
HETATM   18  C2  UNL     1      -1.556   9.103  13.859  1.00  0.00     0.171 C 
HETATM   19  C1  UNL     1      -1.783   9.252  15.341  1.00  0.00     0.034 C 
ENDBRANCH  17  18
ENDBRANCH   1  17
TORSDOF 4
ENDMDL
