MODEL 3
REMARK VINA RESULT: -6.370662817      3.748      6.591
REMARK  4 active torsions:
REMARK  status: ('A' for Active; 'I' for Inactive)
REMARK    1  A    between atoms: C2_2  and  O1_3 
REMARK    2  A    between atoms: O1_3  and  C3_4 
REMARK    3  A    between atoms: C7_10  and  S1_11 
REMARK    4  A    between atoms: S1_11  and  N2_12 
ROOT
HETATM    1  C3  UNL     1      -4.771   0.913  16.031  1.00  0.00     0.070 A 
HETATM    2  C4  UNL     1      -4.563   0.056  14.969  1.00  0.00     0.039 A 
HETATM    3  C5  UNL     1      -4.398   0.506  13.691  1.00  0.00     0.034 A 
HETATM    4  C6  UNL     1      -4.429   1.873  13.372  1.00  0.00     0.051 A 
HETATM    5  N1  UNL     1      -4.282   2.396  12.190  1.00  0.00    -0.339 N 
ATOM      6  H1  UNL     1      -4.126   1.794  11.381  1.00  0.00     0.167 HD
HETATM    7  C7  UNL     1      -4.334   3.706  12.037  1.00  0.00     0.192 A 
HETATM    8  S2  UNL     1      -4.604   4.249  13.635  1.00  0.00    -0.057 SA
HETATM    9  C8  UNL     1      -4.635   2.729  14.420  1.00  0.00     0.037 A 
HETATM   10  C9  UNL     1      -4.804   2.269  15.733  1.00  0.00     0.058 A 
ENDROOT
BRANCH   7  11
HETATM   11  S1  UNL     1      -4.165   4.643  10.544  1.00  0.00     0.279 S 
HETATM   12  O2  UNL     1      -5.478   5.254  10.222  1.00  0.00    -0.199 OA
HETATM   13  O3  UNL     1      -3.761   3.742   9.412  1.00  0.00    -0.199 OA
BRANCH  11  14
HETATM   14  N2  UNL     1      -2.929   5.817  10.792  1.00  0.00    -0.323 N 
ATOM     15  H22 UNL     1      -2.146   5.720  11.437  1.00  0.00     0.169 HD
ATOM     16  H21 UNL     1      -3.124   6.612  10.183  1.00  0.00     0.169 HD
ENDBRANCH  11  14
ENDBRANCH   7  11
BRANCH   1  17
HETATM   17  O1  UNL     1      -4.939   0.455  17.330  1.00  0.00    -0.351 OA
BRANCH  17  18
HETATM   18  C2  UNL     1      -6.029   0.979  18.065  1.00  0.00     0.171 C 
HETATM   19  C1  UNL     1      -7.336   0.799  17.338  1.00  0.00     0.034 C 
ENDBRANCH  17  18
ENDBRANCH   1  17
TORSDOF 4
ENDMDL
