MODEL 4
REMARK VINA RESULT: -6.171510676      1.049      1.265
REMARK  4 active torsions:
REMARK  status: ('A' for Active; 'I' for Inactive)
REMARK    1  A    between atoms: C2_2  and  O1_3 
REMARK    2  A    between atoms: O1_3  and  C3_4 
REMARK    3  A    between atoms: C7_10  and  S1_11 
REMARK    4  A    between atoms: S1_11  and  N2_12 
ROOT
HETATM    1  C3  UNL     1      -3.306   6.091  14.075  1.00  0.00     0.070 A 
HETATM    2  C4  UNL     1      -2.265   5.267  14.453  1.00  0.00     0.039 A 
HETATM    3  C5  UNL     1      -2.473   4.066  15.068  1.00  0.00     0.034 A 
HETATM    4  C6  UNL     1      -3.762   3.590  15.357  1.00  0.00     0.051 A 
HETATM    5  N1  UNL     1      -4.060   2.464  15.938  1.00  0.00    -0.339 N 
ATOM      6  H1  UNL     1      -3.317   1.829  16.231  1.00  0.00     0.167 HD
HETATM    7  C7  UNL     1      -5.324   2.145  16.147  1.00  0.00     0.192 A 
HETATM    8  S2  UNL     1      -6.153   3.490  15.498  1.00  0.00    -0.057 SA
HETATM    9  C8  UNL     1      -4.799   4.403  14.985  1.00  0.00     0.037 A 
HETATM   10  C9  UNL     1      -4.588   5.635  14.353  1.00  0.00     0.058 A 
ENDROOT
BRANCH   7  11
HETATM   11  S1  UNL     1      -5.972   0.684  16.912  1.00  0.00     0.279 S 
HETATM   12  O2  UNL     1      -5.387   0.565  18.269  1.00  0.00    -0.199 OA
HETATM   13  O3  UNL     1      -5.591  -0.529  16.112  1.00  0.00    -0.199 OA
BRANCH  11  14
HETATM   14  N2  UNL     1      -7.690   0.818  16.938  1.00  0.00    -0.323 N 
ATOM     15  H22 UNL     1      -8.342   0.066  16.718  1.00  0.00     0.169 HD
ATOM     16  H21 UNL     1      -7.926   1.772  17.209  1.00  0.00     0.169 HD
ENDBRANCH  11  14
ENDBRANCH   7  11
BRANCH   1  17
HETATM   17  O1  UNL     1      -3.093   7.311  13.449  1.00  0.00    -0.351 OA
BRANCH  17  18
HETATM   18  C2  UNL     1      -2.944   7.298  12.041  1.00  0.00     0.171 C 
HETATM   19  C1  UNL     1      -4.150   7.870  11.342  1.00  0.00     0.034 C 
ENDBRANCH  17  18
ENDBRANCH   1  17
TORSDOF 4
ENDMDL
