MODEL 6
REMARK VINA RESULT: -5.966169896      3.720      6.669
REMARK  4 active torsions:
REMARK  status: ('A' for Active; 'I' for Inactive)
REMARK    1  A    between atoms: C2_2  and  O1_3 
REMARK    2  A    between atoms: O1_3  and  C3_4 
REMARK    3  A    between atoms: C7_10  and  S1_11 
REMARK    4  A    between atoms: S1_11  and  N2_12 
ROOT
HETATM    1  C3  UNL     1      -4.759   1.031  15.814  1.00  0.00     0.070 A 
HETATM    2  C4  UNL     1      -4.201   2.225  16.225  1.00  0.00     0.039 A 
HETATM    3  C5  UNL     1      -3.836   3.200  15.342  1.00  0.00     0.034 A 
HETATM    4  C6  UNL     1      -4.004   3.052  13.956  1.00  0.00     0.051 A 
HETATM    5  N1  UNL     1      -3.689   3.920  13.040  1.00  0.00    -0.339 N 
ATOM      6  H1  UNL     1      -3.275   4.814  13.305  1.00  0.00     0.167 HD
HETATM    7  C7  UNL     1      -3.905   3.644  11.767  1.00  0.00     0.192 A 
HETATM    8  S2  UNL     1      -4.590   2.081  11.844  1.00  0.00    -0.057 SA
HETATM    9  C8  UNL     1      -4.557   1.870  13.542  1.00  0.00     0.037 A 
HETATM   10  C9  UNL     1      -4.933   0.868  14.447  1.00  0.00     0.058 A 
ENDROOT
BRANCH   7  11
HETATM   11  S1  UNL     1      -3.563   4.655  10.353  1.00  0.00     0.279 S 
HETATM   12  O2  UNL     1      -4.853   5.058   9.742  1.00  0.00    -0.199 OA
HETATM   13  O3  UNL     1      -2.771   3.877   9.342  1.00  0.00    -0.199 OA
BRANCH  11  14
HETATM   14  N2  UNL     1      -2.626   6.002  10.878  1.00  0.00    -0.323 N 
ATOM     15  H22 UNL     1      -2.979   6.787  11.425  1.00  0.00     0.169 HD
ATOM     16  H21 UNL     1      -1.672   5.869  10.545  1.00  0.00     0.169 HD
ENDBRANCH  11  14
ENDBRANCH   7  11
BRANCH   1  17
HETATM   17  O1  UNL     1      -5.130   0.041  16.713  1.00  0.00    -0.351 OA
BRANCH  17  18
HETATM   18  C2  UNL     1      -6.003   0.415  17.763  1.00  0.00     0.171 C 
HETATM   19  C1  UNL     1      -7.359   0.822  17.249  1.00  0.00     0.034 C 
ENDBRANCH  17  18
ENDBRANCH   1  17
TORSDOF 4
ENDMDL
