MODEL 2
REMARK VINA RESULT: -6.397605341      0.938      1.058
REMARK  4 active torsions:
REMARK  status: ('A' for Active; 'I' for Inactive)
REMARK    1  A    between atoms: C2_2  and  O1_3 
REMARK    2  A    between atoms: O1_3  and  C3_4 
REMARK    3  A    between atoms: C7_10  and  S1_11 
REMARK    4  A    between atoms: S1_11  and  N2_12 
ROOT
HETATM    1  C3  UNL     1      -3.180   6.179  14.206  1.00  0.00     0.070 A 
HETATM    2  C4  UNL     1      -2.132   5.346  14.544  1.00  0.00     0.039 A 
HETATM    3  C5  UNL     1      -2.331   4.105  15.076  1.00  0.00     0.034 A 
HETATM    4  C6  UNL     1      -3.617   3.593  15.317  1.00  0.00     0.051 A 
HETATM    5  N1  UNL     1      -3.906   2.428  15.819  1.00  0.00    -0.339 N 
ATOM      6  H1  UNL     1      -3.158   1.786  16.081  1.00  0.00     0.167 HD
HETATM    7  C7  UNL     1      -5.167   2.079  15.990  1.00  0.00     0.192 A 
HETATM    8  S2  UNL     1      -6.008   3.453  15.418  1.00  0.00    -0.057 SA
HETATM    9  C8  UNL     1      -4.660   4.415  14.984  1.00  0.00     0.037 A 
HETATM   10  C9  UNL     1      -4.458   5.688  14.436  1.00  0.00     0.058 A 
ENDROOT
BRANCH   7  11
HETATM   11  S1  UNL     1      -5.804   0.563  16.649  1.00  0.00     0.279 S 
HETATM   12  O2  UNL     1      -5.134  -0.566  15.960  1.00  0.00    -0.199 OA
HETATM   13  O3  UNL     1      -7.282   0.473  16.398  1.00  0.00    -0.199 OA
BRANCH  11  14
HETATM   14  N2  UNL     1      -5.525   0.565  18.348  1.00  0.00    -0.323 N 
ATOM     15  H22 UNL     1      -5.412   1.398  18.925  1.00  0.00     0.169 HD
ATOM     16  H21 UNL     1      -5.495  -0.405  18.663  1.00  0.00     0.169 HD
ENDBRANCH  11  14
ENDBRANCH   7  11
BRANCH   1  17
HETATM   17  O1  UNL     1      -2.977   7.440  13.664  1.00  0.00    -0.351 OA
BRANCH  17  18
HETATM   18  C2  UNL     1      -1.820   8.143  14.078  1.00  0.00     0.171 C 
HETATM   19  C1  UNL     1      -2.047   8.888  15.368  1.00  0.00     0.034 C 
ENDBRANCH  17  18
ENDBRANCH   1  17
TORSDOF 4
ENDMDL
