MODEL 5
REMARK VINA RESULT: -6.024503031      1.116      1.660
REMARK  4 active torsions:
REMARK  status: ('A' for Active; 'I' for Inactive)
REMARK    1  A    between atoms: C2_2  and  O1_3 
REMARK    2  A    between atoms: O1_3  and  C3_4 
REMARK    3  A    between atoms: C7_10  and  S1_11 
REMARK    4  A    between atoms: S1_11  and  N2_12 
ROOT
HETATM    1  C3  UNL     1      -3.693   5.789  13.780  1.00  0.00     0.070 A 
HETATM    2  C4  UNL     1      -5.061   5.959  13.857  1.00  0.00     0.039 A 
HETATM    3  C5  UNL     1      -5.867   5.084  14.524  1.00  0.00     0.034 A 
HETATM    4  C6  UNL     1      -5.359   3.950  15.178  1.00  0.00     0.051 A 
HETATM    5  N1  UNL     1      -6.044   3.062  15.836  1.00  0.00    -0.339 N 
ATOM      6  H1  UNL     1      -7.057   3.155  15.915  1.00  0.00     0.167 HD
HETATM    7  C7  UNL     1      -5.429   2.041  16.403  1.00  0.00     0.192 A 
HETATM    8  S2  UNL     1      -3.794   2.329  15.997  1.00  0.00    -0.057 SA
HETATM    9  C8  UNL     1      -4.003   3.774  15.105  1.00  0.00     0.037 A 
HETATM   10  C9  UNL     1      -3.173   4.672  14.421  1.00  0.00     0.058 A 
ENDROOT
BRANCH   7  11
HETATM   11  S1  UNL     1      -6.139   0.717  17.342  1.00  0.00     0.279 S 
HETATM   12  O2  UNL     1      -5.701   0.854  18.752  1.00  0.00    -0.199 OA
HETATM   13  O3  UNL     1      -5.660  -0.605  16.813  1.00  0.00    -0.199 OA
BRANCH  11  14
HETATM   14  N2  UNL     1      -7.850   0.801  17.166  1.00  0.00    -0.323 N 
ATOM     15  H22 UNL     1      -8.413   1.644  17.279  1.00  0.00     0.169 HD
ATOM     16  H21 UNL     1      -8.188  -0.132  16.933  1.00  0.00     0.169 HD
ENDBRANCH  11  14
ENDBRANCH   7  11
BRANCH   1  17
HETATM   17  O1  UNL     1      -2.874   6.680  13.102  1.00  0.00    -0.351 OA
BRANCH  17  18
HETATM   18  C2  UNL     1      -1.786   7.233  13.820  1.00  0.00     0.171 C 
HETATM   19  C1  UNL     1      -2.244   8.219  14.863  1.00  0.00     0.034 C 
ENDBRANCH  17  18
ENDBRANCH   1  17
TORSDOF 4
ENDMDL
