MODEL 7
REMARK VINA RESULT: -5.933566686      3.481      6.609
REMARK  4 active torsions:
REMARK  status: ('A' for Active; 'I' for Inactive)
REMARK    1  A    between atoms: C2_2  and  O1_3 
REMARK    2  A    between atoms: O1_3  and  C3_4 
REMARK    3  A    between atoms: C7_10  and  S1_11 
REMARK    4  A    between atoms: S1_11  and  N2_12 
ROOT
HETATM    1  C3  UNL     1      -4.725   1.232  16.045  1.00  0.00     0.070 A 
HETATM    2  C4  UNL     1      -4.602   0.419  14.935  1.00  0.00     0.039 A 
HETATM    3  C5  UNL     1      -4.464   0.923  13.675  1.00  0.00     0.034 A 
HETATM    4  C6  UNL     1      -4.437   2.305  13.422  1.00  0.00     0.051 A 
HETATM    5  N1  UNL     1      -4.309   2.878  12.262  1.00  0.00    -0.339 N 
ATOM      6  H1  UNL     1      -4.216   2.310  11.420  1.00  0.00     0.167 HD
HETATM    7  C7  UNL     1      -4.301   4.195  12.175  1.00  0.00     0.192 A 
HETATM    8  S2  UNL     1      -4.481   4.671  13.807  1.00  0.00    -0.057 SA
HETATM    9  C8  UNL     1      -4.558   3.116  14.518  1.00  0.00     0.037 A 
HETATM   10  C9  UNL     1      -4.700   2.600  15.813  1.00  0.00     0.058 A 
ENDROOT
BRANCH   7  11
HETATM   11  S1  UNL     1      -4.142   5.196  10.722  1.00  0.00     0.279 S 
HETATM   12  O2  UNL     1      -3.682   6.546  11.130  1.00  0.00    -0.199 OA
HETATM   13  O3  UNL     1      -5.472   5.326  10.037  1.00  0.00    -0.199 OA
BRANCH  11  14
HETATM   14  N2  UNL     1      -3.039   4.413   9.656  1.00  0.00    -0.323 N 
ATOM     15  H22 UNL     1      -2.127   4.041   9.921  1.00  0.00     0.169 HD
ATOM     16  H21 UNL     1      -3.460   4.391   8.728  1.00  0.00     0.169 HD
ENDBRANCH  11  14
ENDBRANCH   7  11
BRANCH   1  17
HETATM   17  O1  UNL     1      -4.866   0.718  17.326  1.00  0.00    -0.351 OA
BRANCH  17  18
HETATM   18  C2  UNL     1      -6.081   0.058  17.628  1.00  0.00     0.171 C 
HETATM   19  C1  UNL     1      -7.275   0.948  17.403  1.00  0.00     0.034 C 
ENDBRANCH  17  18
ENDBRANCH   1  17
TORSDOF 4
ENDMDL
