MODEL 3
REMARK VINA RESULT: -7.917424559      3.248      4.338
REMARK  5 active torsions:
REMARK  status: ('A' for Active; 'I' for Inactive)
REMARK    1  A    between atoms: N1_1  and  S1_4 
REMARK    2  A    between atoms: S1_4  and  O3_7 
REMARK    3  A    between atoms: O3_7  and  C1_8 
REMARK    4  A    between atoms: C7_17  and  C8_18 
REMARK    5  A    between atoms: C8_18  and  C9_19 
ROOT
HETATM    1  C1  UNL     1      -5.116   2.114  15.214  1.00  0.00     0.092 A 
HETATM    2  C2  UNL     1      -6.061   3.089  15.396  1.00  0.00     0.039 A 
HETATM    3  C3  UNL     1      -5.890   4.352  14.924  1.00  0.00     0.016 A 
HETATM    4  C4  UNL     1      -4.726   4.726  14.221  1.00  0.00    -0.013 A 
HETATM    5  C5  UNL     1      -3.811   3.716  14.065  1.00  0.00     0.076 A 
HETATM    6  C6  UNL     1      -3.980   2.429  14.543  1.00  0.00     0.062 A 
HETATM    7  S2  UNL     1      -2.486   4.459  13.168  1.00  0.00     0.204 S 
HETATM    8  O4  UNL     1      -2.286   3.810  11.852  1.00  0.00    -0.217 OA
HETATM    9  O5  UNL     1      -1.230   4.494  14.002  1.00  0.00    -0.217 OA
HETATM   10  C7  UNL     1      -3.207   6.046  13.049  1.00  0.00     0.043 A 
HETATM   11  C16 UNL     1      -4.361   5.985  13.652  1.00  0.00     0.032 A 
ENDROOT
BRANCH  10  12
HETATM   12  C8  UNL     1      -2.527   7.163  12.354  1.00  0.00     0.055 C 
BRANCH  12  13
HETATM   13  C9  UNL     1      -2.219   8.341  13.238  1.00  0.00    -0.010 C 
HETATM   14  C10 UNL     1      -1.218   7.847  14.273  1.00  0.00     0.005 C 
HETATM   15  C11 UNL     1      -1.316   8.760  15.502  1.00  0.00     0.000 C 
HETATM   16  C12 UNL     1      -0.887  10.137  15.092  1.00  0.00     0.000 C 
HETATM   17  C13 UNL     1      -1.977  10.871  14.325  1.00  0.00     0.000 C 
HETATM   18  C14 UNL     1      -1.759  10.771  12.834  1.00  0.00     0.000 C 
HETATM   19  C15 UNL     1      -1.502   9.362  12.382  1.00  0.00     0.005 C 
ENDBRANCH  12  13
ENDBRANCH  10  12
BRANCH   1  20
HETATM   20  O3  UNL     1      -5.321   0.830  15.709  1.00  0.00    -0.217 OA
BRANCH  20  21
HETATM   21  S1  UNL     1      -6.106   0.641  17.212  1.00  0.00     0.360 S 
HETATM   22  O1  UNL     1      -6.026  -0.788  17.628  1.00  0.00    -0.176 OA
HETATM   23  O2  UNL     1      -5.375   1.504  18.199  1.00  0.00    -0.176 OA
BRANCH  21  24
HETATM   24  N1  UNL     1      -7.752   1.170  17.034  1.00  0.00    -0.305 N 
ATOM     25  H12 UNL     1      -8.544   0.529  16.997  1.00  0.00     0.171 HD
ATOM     26  H11 UNL     1      -7.818   2.186  16.972  1.00  0.00     0.171 HD
ENDBRANCH  21  24
ENDBRANCH  20  21
ENDBRANCH   1  20
TORSDOF 5
ENDMDL
