MODEL 2
REMARK VINA RESULT: -7.967233328      3.135      4.488
REMARK  5 active torsions:
REMARK  status: ('A' for Active; 'I' for Inactive)
REMARK    1  A    between atoms: N1_1  and  S1_4 
REMARK    2  A    between atoms: S1_4  and  O3_7 
REMARK    3  A    between atoms: O3_7  and  C1_8 
REMARK    4  A    between atoms: C7_17  and  C8_18 
REMARK    5  A    between atoms: C8_18  and  C9_19 
ROOT
HETATM    1  C1  UNL     1      -4.004   1.686  15.401  1.00  0.00     0.092 A 
HETATM    2  C2  UNL     1      -3.322   2.827  15.732  1.00  0.00     0.039 A 
HETATM    3  C3  UNL     1      -2.891   3.706  14.790  1.00  0.00     0.016 A 
HETATM    4  C4  UNL     1      -3.122   3.488  13.416  1.00  0.00    -0.013 A 
HETATM    5  C5  UNL     1      -3.807   2.333  13.136  1.00  0.00     0.076 A 
HETATM    6  C6  UNL     1      -4.249   1.435  14.090  1.00  0.00     0.062 A 
HETATM    7  S2  UNL     1      -3.949   2.323  11.377  1.00  0.00     0.204 S 
HETATM    8  O4  UNL     1      -5.365   2.365  10.943  1.00  0.00    -0.217 OA
HETATM    9  O5  UNL     1      -3.188   1.164  10.786  1.00  0.00    -0.217 OA
HETATM   10  C7  UNL     1      -3.105   3.830  11.113  1.00  0.00     0.043 A 
HETATM   11  C16 UNL     1      -2.756   4.280  12.285  1.00  0.00     0.032 A 
ENDROOT
BRANCH  10  12
HETATM   12  C8  UNL     1      -2.903   4.385   9.755  1.00  0.00     0.055 C 
BRANCH  12  13
HETATM   13  C9  UNL     1      -1.464   4.658   9.410  1.00  0.00    -0.010 C 
HETATM   14  C10 UNL     1      -0.708   3.363   9.680  1.00  0.00     0.005 C 
HETATM   15  C11 UNL     1       0.765   3.716   9.925  1.00  0.00     0.000 C 
HETATM   16  C12 UNL     1       1.319   4.297   8.658  1.00  0.00     0.000 C 
HETATM   17  C13 UNL     1       0.893   5.744   8.459  1.00  0.00     0.000 C 
HETATM   18  C14 UNL     1      -0.298   5.843   7.535  1.00  0.00     0.000 C 
HETATM   19  C15 UNL     1      -1.403   4.901   7.918  1.00  0.00     0.005 C 
ENDBRANCH  12  13
ENDBRANCH  10  12
BRANCH   1  20
HETATM   20  O3  UNL     1      -4.432   0.806  16.390  1.00  0.00    -0.217 OA
BRANCH  20  21
HETATM   21  S1  UNL     1      -5.905   1.117  17.191  1.00  0.00     0.360 S 
HETATM   22  O1  UNL     1      -6.832  -0.030  16.973  1.00  0.00    -0.176 OA
HETATM   23  O2  UNL     1      -5.588   1.248  18.653  1.00  0.00    -0.176 OA
BRANCH  21  24
HETATM   24  N1  UNL     1      -6.557   2.602  16.567  1.00  0.00    -0.305 N 
ATOM     25  H12 UNL     1      -7.216   3.184  17.084  1.00  0.00     0.171 HD
ATOM     26  H11 UNL     1      -6.201   2.809  15.634  1.00  0.00     0.171 HD
ENDBRANCH  21  24
ENDBRANCH  20  21
ENDBRANCH   1  20
TORSDOF 5
ENDMDL
