MODEL 13
REMARK VINA RESULT: -7.422120398      3.647      4.966
REMARK  5 active torsions:
REMARK  status: ('A' for Active; 'I' for Inactive)
REMARK    1  A    between atoms: N1_1  and  S1_4 
REMARK    2  A    between atoms: S1_4  and  O3_7 
REMARK    3  A    between atoms: O3_7  and  C1_8 
REMARK    4  A    between atoms: C7_17  and  C8_18 
REMARK    5  A    between atoms: C8_18  and  C9_19 
ROOT
HETATM    1  C1  UNL     1      -5.460   2.854  14.836  1.00  0.00     0.092 A 
HETATM    2  C2  UNL     1      -6.139   4.005  15.138  1.00  0.00     0.039 A 
HETATM    3  C3  UNL     1      -5.690   5.228  14.749  1.00  0.00     0.016 A 
HETATM    4  C4  UNL     1      -4.496   5.376  14.013  1.00  0.00    -0.013 A 
HETATM    5  C5  UNL     1      -3.853   4.196  13.737  1.00  0.00     0.076 A 
HETATM    6  C6  UNL     1      -4.306   2.950  14.130  1.00  0.00     0.062 A 
HETATM    7  S2  UNL     1      -2.422   4.680  12.826  1.00  0.00     0.204 S 
HETATM    8  O4  UNL     1      -2.429   4.113  11.457  1.00  0.00    -0.217 OA
HETATM    9  O5  UNL     1      -1.165   4.352  13.591  1.00  0.00    -0.217 OA
HETATM   10  C7  UNL     1      -2.750   6.396  12.859  1.00  0.00     0.043 A 
HETATM   11  C16 UNL     1      -3.864   6.557  13.517  1.00  0.00     0.032 A 
ENDROOT
BRANCH  10  12
HETATM   12  C8  UNL     1      -1.850   7.376  12.210  1.00  0.00     0.055 C 
BRANCH  12  13
HETATM   13  C9  UNL     1      -1.075   8.233  13.174  1.00  0.00    -0.010 C 
HETATM   14  C10 UNL     1       0.198   8.647  12.448  1.00  0.00     0.005 C 
HETATM   15  C11 UNL     1       1.257   8.988  13.504  1.00  0.00     0.000 C 
HETATM   16  C12 UNL     1       0.776  10.183  14.273  1.00  0.00     0.000 C 
HETATM   17  C13 UNL     1      -0.284   9.813  15.300  1.00  0.00     0.000 C 
HETATM   18  C14 UNL     1      -1.675  10.072  14.769  1.00  0.00     0.000 C 
HETATM   19  C15 UNL     1      -1.884   9.492  13.399  1.00  0.00     0.005 C 
ENDBRANCH  12  13
ENDBRANCH  10  12
BRANCH   1  20
HETATM   20  O3  UNL     1      -5.945   1.618  15.249  1.00  0.00    -0.217 OA
BRANCH  20  21
HETATM   21  S1  UNL     1      -5.283   0.895  16.644  1.00  0.00     0.360 S 
HETATM   22  O1  UNL     1      -5.653  -0.550  16.669  1.00  0.00    -0.176 OA
HETATM   23  O2  UNL     1      -3.792   1.039  16.546  1.00  0.00    -0.176 OA
BRANCH  21  24
HETATM   24  N1  UNL     1      -5.892   1.740  18.035  1.00  0.00    -0.305 N 
ATOM     25  H12 UNL     1      -5.396   2.510  18.483  1.00  0.00     0.171 HD
ATOM     26  H11 UNL     1      -6.794   1.370  18.337  1.00  0.00     0.171 HD
ENDBRANCH  21  24
ENDBRANCH  20  21
ENDBRANCH   1  20
TORSDOF 5
ENDMDL
