MODEL 4
REMARK VINA RESULT: -7.872941705      3.385      4.864
REMARK  5 active torsions:
REMARK  status: ('A' for Active; 'I' for Inactive)
REMARK    1  A    between atoms: N1_1  and  S1_4 
REMARK    2  A    between atoms: S1_4  and  O3_7 
REMARK    3  A    between atoms: O3_7  and  C1_8 
REMARK    4  A    between atoms: C7_17  and  C8_18 
REMARK    5  A    between atoms: C8_18  and  C9_19 
ROOT
HETATM    1  C1  UNL     1      -4.193   1.572  15.156  1.00  0.00     0.092 A 
HETATM    2  C2  UNL     1      -3.581   2.700  15.636  1.00  0.00     0.039 A 
HETATM    3  C3  UNL     1      -3.035   3.629  14.808  1.00  0.00     0.016 A 
HETATM    4  C4  UNL     1      -3.068   3.479  13.406  1.00  0.00    -0.013 A 
HETATM    5  C5  UNL     1      -3.689   2.334  12.976  1.00  0.00     0.076 A 
HETATM    6  C6  UNL     1      -4.247   1.386  13.814  1.00  0.00     0.062 A 
HETATM    7  S2  UNL     1      -3.582   2.412  11.216  1.00  0.00     0.204 S 
HETATM    8  O4  UNL     1      -4.922   2.464  10.589  1.00  0.00    -0.217 OA
HETATM    9  O5  UNL     1      -2.728   1.290  10.683  1.00  0.00    -0.217 OA
HETATM   10  C7  UNL     1      -2.732   3.937  11.148  1.00  0.00     0.043 A 
HETATM   11  C16 UNL     1      -2.558   4.330  12.379  1.00  0.00     0.032 A 
ENDROOT
BRANCH  10  12
HETATM   12  C8  UNL     1      -2.348   4.561   9.862  1.00  0.00     0.055 C 
BRANCH  12  13
HETATM   13  C9  UNL     1      -0.930   4.284   9.441  1.00  0.00    -0.010 C 
HETATM   14  C10 UNL     1      -0.876   4.532   7.940  1.00  0.00     0.005 C 
HETATM   15  C11 UNL     1       0.302   3.731   7.369  1.00  0.00     0.000 C 
HETATM   16  C12 UNL     1       1.566   4.282   7.956  1.00  0.00     0.000 C 
HETATM   17  C13 UNL     1       1.791   3.802   9.382  1.00  0.00     0.000 C 
HETATM   18  C14 UNL     1       1.325   4.831  10.386  1.00  0.00     0.000 C 
HETATM   19  C15 UNL     1      -0.059   5.334  10.094  1.00  0.00     0.005 C 
ENDBRANCH  12  13
ENDBRANCH  10  12
BRANCH   1  20
HETATM   20  O3  UNL     1      -4.742   0.639  16.030  1.00  0.00    -0.217 OA
BRANCH  20  21
HETATM   21  S1  UNL     1      -6.019   1.120  17.053  1.00  0.00     0.360 S 
HETATM   22  O1  UNL     1      -7.071   0.063  17.051  1.00  0.00    -0.176 OA
HETATM   23  O2  UNL     1      -5.444   1.266  18.432  1.00  0.00    -0.176 OA
BRANCH  21  24
HETATM   24  N1  UNL     1      -6.632   2.641  16.478  1.00  0.00    -0.305 N 
ATOM     25  H12 UNL     1      -7.343   2.718  15.751  1.00  0.00     0.171 HD
ATOM     26  H11 UNL     1      -6.194   3.430  16.954  1.00  0.00     0.171 HD
ENDBRANCH  21  24
ENDBRANCH  20  21
ENDBRANCH   1  20
TORSDOF 5
ENDMDL
