MODEL 1
REMARK VINA RESULT: -7.996456959      0.000      0.000
REMARK  5 active torsions:
REMARK  status: ('A' for Active; 'I' for Inactive)
REMARK    1  A    between atoms: N1_1  and  S1_4 
REMARK    2  A    between atoms: S1_4  and  O3_7 
REMARK    3  A    between atoms: O3_7  and  C1_8 
REMARK    4  A    between atoms: C7_17  and  C8_18 
REMARK    5  A    between atoms: C8_18  and  C9_19 
ROOT
HETATM    1  C1  UNL     1      -4.187   1.606  15.219  1.00  0.00     0.092 A 
HETATM    2  C2  UNL     1      -4.295   0.858  14.077  1.00  0.00     0.039 A 
HETATM    3  C3  UNL     1      -4.291   1.428  12.842  1.00  0.00     0.016 A 
HETATM    4  C4  UNL     1      -4.176   2.823  12.674  1.00  0.00    -0.013 A 
HETATM    5  C5  UNL     1      -4.071   3.527  13.847  1.00  0.00     0.076 A 
HETATM    6  C6  UNL     1      -4.074   2.953  15.105  1.00  0.00     0.062 A 
HETATM    7  S2  UNL     1      -3.944   5.211  13.337  1.00  0.00     0.204 S 
HETATM    8  O4  UNL     1      -2.655   5.811  13.751  1.00  0.00    -0.217 OA
HETATM    9  O5  UNL     1      -5.138   6.003  13.807  1.00  0.00    -0.217 OA
HETATM   10  C7  UNL     1      -4.034   4.895  11.621  1.00  0.00     0.043 A 
HETATM   11  C16 UNL     1      -4.152   3.605  11.478  1.00  0.00     0.032 A 
ENDROOT
BRANCH  10  12
HETATM   12  C8  UNL     1      -3.968   5.985  10.621  1.00  0.00     0.055 C 
BRANCH  12  13
HETATM   13  C9  UNL     1      -5.311   6.456  10.132  1.00  0.00    -0.010 C 
HETATM   14  C10 UNL     1      -5.633   7.717  10.923  1.00  0.00     0.005 C 
HETATM   15  C11 UNL     1      -7.156   7.899  10.924  1.00  0.00     0.000 C 
HETATM   16  C12 UNL     1      -7.596   8.137   9.510  1.00  0.00     0.000 C 
HETATM   17  C13 UNL     1      -7.643   6.849   8.702  1.00  0.00     0.000 C 
HETATM   18  C14 UNL     1      -6.387   6.672   7.880  1.00  0.00     0.000 C 
HETATM   19  C15 UNL     1      -5.137   6.872   8.689  1.00  0.00     0.005 C 
ENDBRANCH  12  13
ENDBRANCH  10  12
BRANCH   1  20
HETATM   20  O3  UNL     1      -4.195   0.993  16.468  1.00  0.00    -0.217 OA
BRANCH  20  21
HETATM   21  S1  UNL     1      -5.673   0.844  17.306  1.00  0.00     0.360 S 
HETATM   22  O1  UNL     1      -6.085  -0.589  17.319  1.00  0.00    -0.176 OA
HETATM   23  O2  UNL     1      -5.430   1.319  18.709  1.00  0.00    -0.176 OA
BRANCH  21  24
HETATM   24  N1  UNL     1      -6.849   1.846  16.511  1.00  0.00    -0.305 N 
ATOM     25  H12 UNL     1      -7.821   1.913  16.812  1.00  0.00     0.171 HD
ATOM     26  H11 UNL     1      -6.446   2.348  15.720  1.00  0.00     0.171 HD
ENDBRANCH  21  24
ENDBRANCH  20  21
ENDBRANCH   1  20
TORSDOF 5
ENDMDL
