MODEL 11
REMARK VINA RESULT: -7.483571477      2.097      3.567
REMARK  8 active torsions:
REMARK  status: ('A' for Active; 'I' for Inactive)
REMARK    1  A    between atoms: C2_5  and  C3_6 
REMARK    2  A    between atoms: C3_6  and  N2_7 
REMARK    3  A    between atoms: N2_7  and  C4_10 
REMARK    4  A    between atoms: C4_10  and  C5_11 
REMARK    5  A    between atoms: C4_10  and  C6_14 
REMARK    6  A    between atoms: C5_11  and  O2_12 
REMARK    7  A    between atoms: C12_20  and  O3_21 
REMARK    8  A    between atoms: C13_23  and  O4_24 
ROOT
HETATM    1  N2  UNL     1      29.681  65.013  11.059  1.00  0.00    -0.063 N 
ATOM      2  H21 UNL     1      30.371  65.042  11.810  1.00  0.00     0.278 HD
ATOM      3  H22 UNL     1      30.002  64.184  10.559  1.00  0.00     0.278 HD
ENDROOT
BRANCH   1   4
HETATM    4  C3  UNL     1      29.797  66.182  10.223  1.00  0.00     0.261 C 
BRANCH   4   5
HETATM    5  C2  UNL     1      30.600  65.942   8.976  1.00  0.00     0.142 C 
HETATM    6  N1  UNL     1      30.257  66.774   7.879  1.00  0.00    -0.350 N 
HETATM    7  C1  UNL     1      31.406  66.896   7.058  1.00  0.00     0.249 C 
ATOM      8  H1  UNL     1      29.347  67.205   7.711  1.00  0.00     0.163 HD
HETATM    9  O1  UNL     1      31.455  66.984   5.782  1.00  0.00    -0.271 OA
HETATM   10  C13 UNL     1      32.574  66.903   7.975  1.00  0.00     0.240 C 
HETATM   11  C12 UNL     1      32.040  66.294   9.253  1.00  0.00     0.180 C 
BRANCH  10  12
HETATM   12  O4  UNL     1      33.609  66.100   7.504  1.00  0.00    -0.383 OA
ATOM     13  H4  UNL     1      33.854  65.431   8.134  1.00  0.00     0.210 HD
ENDBRANCH  10  12
BRANCH  11  14
HETATM   14  O3  UNL     1      32.705  65.112   9.571  1.00  0.00    -0.390 OA
ATOM     15  H3  UNL     1      32.601  64.970  10.504  1.00  0.00     0.210 HD
ENDBRANCH  11  14
ENDBRANCH   4   5
ENDBRANCH   1   4
BRANCH   1  16
HETATM   16  C4  UNL     1      28.377  64.802  11.589  1.00  0.00     0.242 C 
BRANCH  16  17
HETATM   17  C5  UNL     1      28.154  63.430  12.162  1.00  0.00     0.202 C 
BRANCH  17  18
HETATM   18  O2  UNL     1      26.864  63.159  12.513  1.00  0.00    -0.398 OA
ATOM     19  H2  UNL     1      26.207  63.582  11.974  1.00  0.00     0.209 HD
ENDBRANCH  17  18
ENDBRANCH  16  17
BRANCH  16  20
HETATM   20  C6  UNL     1      28.204  65.770  12.731  1.00  0.00    -0.026 A 
HETATM   21  C7  UNL     1      29.028  65.704  13.847  1.00  0.00     0.009 A 
HETATM   22  C8  UNL     1      28.893  66.579  14.908  1.00  0.00     0.001 A 
HETATM   23  C9  UNL     1      27.907  67.555  14.872  1.00  0.00     0.000 A 
HETATM   24  C10 UNL     1      27.082  67.632  13.773  1.00  0.00     0.001 A 
HETATM   25  C11 UNL     1      27.244  66.745  12.730  1.00  0.00     0.009 A 
ENDBRANCH  16  20
ENDBRANCH   1  16
TORSDOF 8
ENDMDL
