MODEL 5
REMARK VINA RESULT: -7.785997620      3.429      6.466
REMARK  8 active torsions:
REMARK  status: ('A' for Active; 'I' for Inactive)
REMARK    1  A    between atoms: C2_5  and  C3_6 
REMARK    2  A    between atoms: C3_6  and  N2_7 
REMARK    3  A    between atoms: N2_7  and  C4_10 
REMARK    4  A    between atoms: C4_10  and  C5_11 
REMARK    5  A    between atoms: C4_10  and  C6_14 
REMARK    6  A    between atoms: C5_11  and  O2_12 
REMARK    7  A    between atoms: C12_20  and  O3_21 
REMARK    8  A    between atoms: C13_23  and  O4_24 
ROOT
HETATM    1  N2  UNL     1      27.871  66.516   9.212  1.00  0.00    -0.063 N 
ATOM      2  H21 UNL     1      27.906  67.208   8.463  1.00  0.00     0.278 HD
ATOM      3  H22 UNL     1      27.704  65.673   8.662  1.00  0.00     0.278 HD
ENDROOT
BRANCH   1   4
HETATM    4  C3  UNL     1      26.756  66.777  10.087  1.00  0.00     0.261 C 
BRANCH   4   5
HETATM    5  C2  UNL     1      25.540  65.958   9.758  1.00  0.00     0.142 C 
HETATM    6  N1  UNL     1      24.422  66.708   9.309  1.00  0.00    -0.350 N 
HETATM    7  C1  UNL     1      23.640  65.859   8.486  1.00  0.00     0.249 C 
ATOM      8  H1  UNL     1      24.218  67.681   9.537  1.00  0.00     0.163 HD
HETATM    9  O1  UNL     1      22.366  65.833   8.370  1.00  0.00    -0.271 OA
HETATM   10  C13 UNL     1      24.596  64.982   7.763  1.00  0.00     0.240 C 
HETATM   11  C12 UNL     1      25.862  65.063   8.588  1.00  0.00     0.180 C 
BRANCH  10  12
HETATM   12  O4  UNL     1      24.170  63.658   7.739  1.00  0.00    -0.383 OA
ATOM     13  H4  UNL     1      24.839  63.064   8.061  1.00  0.00     0.210 HD
ENDBRANCH  10  12
BRANCH  11  14
HETATM   14  O3  UNL     1      26.216  63.817   9.101  1.00  0.00    -0.390 OA
ATOM     15  H3  UNL     1      26.434  63.258   8.365  1.00  0.00     0.210 HD
ENDBRANCH  11  14
ENDBRANCH   4   5
ENDBRANCH   1   4
BRANCH   1  16
HETATM   16  C4  UNL     1      29.128  66.438   9.875  1.00  0.00     0.242 C 
BRANCH  16  17
HETATM   17  C5  UNL     1      29.381  65.132  10.576  1.00  0.00     0.202 C 
BRANCH  17  18
HETATM   18  O2  UNL     1      29.010  64.023   9.872  1.00  0.00    -0.398 OA
ATOM     19  H2  UNL     1      29.417  63.214  10.159  1.00  0.00     0.209 HD
ENDBRANCH  17  18
ENDBRANCH  16  17
BRANCH  16  20
HETATM   20  C6  UNL     1      30.194  66.562   8.817  1.00  0.00    -0.026 A 
HETATM   21  C7  UNL     1      29.850  66.757   7.486  1.00  0.00     0.009 A 
HETATM   22  C8  UNL     1      30.805  66.875   6.494  1.00  0.00     0.001 A 
HETATM   23  C9  UNL     1      32.151  66.797   6.824  1.00  0.00     0.000 A 
HETATM   24  C10 UNL     1      32.507  66.603   8.139  1.00  0.00     0.001 A 
HETATM   25  C11 UNL     1      31.530  66.490   9.105  1.00  0.00     0.009 A 
ENDBRANCH  16  20
ENDBRANCH   1  16
TORSDOF 8
ENDMDL
