MODEL 9
REMARK VINA RESULT: -7.568842021      2.985      6.287
REMARK  8 active torsions:
REMARK  status: ('A' for Active; 'I' for Inactive)
REMARK    1  A    between atoms: C2_5  and  C3_6 
REMARK    2  A    between atoms: C3_6  and  N2_7 
REMARK    3  A    between atoms: N2_7  and  C4_10 
REMARK    4  A    between atoms: C4_10  and  C5_11 
REMARK    5  A    between atoms: C4_10  and  C6_14 
REMARK    6  A    between atoms: C5_11  and  O2_12 
REMARK    7  A    between atoms: C12_20  and  O3_21 
REMARK    8  A    between atoms: C13_23  and  O4_24 
ROOT
HETATM    1  N2  UNL     1      29.613  66.464  10.888  1.00  0.00    -0.063 N 
ATOM      2  H21 UNL     1      30.249  65.877  11.427  1.00  0.00     0.278 HD
ATOM      3  H22 UNL     1      30.210  67.277  10.739  1.00  0.00     0.278 HD
ENDROOT
BRANCH   1   4
HETATM    4  C3  UNL     1      28.461  66.820  11.679  1.00  0.00     0.261 C 
BRANCH   4   5
HETATM    5  C2  UNL     1      27.905  65.669  12.468  1.00  0.00     0.142 C 
HETATM    6  N1  UNL     1      26.608  65.250  12.072  1.00  0.00    -0.350 N 
HETATM    7  C1  UNL     1      26.479  63.880  12.411  1.00  0.00     0.249 C 
ATOM      8  H1  UNL     1      25.897  65.829  11.625  1.00  0.00     0.163 HD
HETATM    9  O1  UNL     1      25.432  63.265  12.814  1.00  0.00    -0.271 OA
HETATM   10  C13 UNL     1      27.819  63.272  12.208  1.00  0.00     0.240 C 
HETATM   11  C12 UNL     1      28.763  64.454  12.221  1.00  0.00     0.180 C 
BRANCH  10  12
HETATM   12  O4  UNL     1      28.166  62.420  13.252  1.00  0.00    -0.383 OA
ATOM     13  H4  UNL     1      27.428  61.897  13.544  1.00  0.00     0.210 HD
ENDBRANCH  10  12
BRANCH  11  14
HETATM   14  O3  UNL     1      29.674  64.367  13.272  1.00  0.00    -0.390 OA
ATOM     15  H3  UNL     1      29.309  64.848  14.005  1.00  0.00     0.210 HD
ENDBRANCH  11  14
ENDBRANCH   4   5
ENDBRANCH   1   4
BRANCH   1  16
HETATM   16  C4  UNL     1      29.298  65.844   9.645  1.00  0.00     0.242 C 
BRANCH  16  17
HETATM   17  C5  UNL     1      27.999  66.296   9.037  1.00  0.00     0.202 C 
BRANCH  17  18
HETATM   18  O2  UNL     1      27.040  65.329   8.951  1.00  0.00    -0.398 OA
ATOM     19  H2  UNL     1      26.295  65.554   8.408  1.00  0.00     0.209 HD
ENDBRANCH  17  18
ENDBRANCH  16  17
BRANCH  16  20
HETATM   20  C6  UNL     1      30.379  66.235   8.671  1.00  0.00    -0.026 A 
HETATM   21  C7  UNL     1      30.071  66.524   7.348  1.00  0.00     0.009 A 
HETATM   22  C8  UNL     1      31.041  66.885   6.433  1.00  0.00     0.001 A 
HETATM   23  C9  UNL     1      32.367  66.966   6.834  1.00  0.00     0.000 A 
HETATM   24  C10 UNL     1      32.689  66.683   8.142  1.00  0.00     0.001 A 
HETATM   25  C11 UNL     1      31.697  66.326   9.031  1.00  0.00     0.009 A 
ENDBRANCH  16  20
ENDBRANCH   1  16
TORSDOF 8
ENDMDL
