MODEL 10
REMARK VINA RESULT: -7.549507618      2.638      4.489
REMARK  8 active torsions:
REMARK  status: ('A' for Active; 'I' for Inactive)
REMARK    1  A    between atoms: C2_5  and  C3_6 
REMARK    2  A    between atoms: C3_6  and  N2_7 
REMARK    3  A    between atoms: N2_7  and  C4_10 
REMARK    4  A    between atoms: C4_10  and  C5_11 
REMARK    5  A    between atoms: C4_10  and  C6_14 
REMARK    6  A    between atoms: C5_11  and  O2_12 
REMARK    7  A    between atoms: C12_20  and  O3_21 
REMARK    8  A    between atoms: C13_23  and  O4_24 
ROOT
HETATM    1  N2  UNL     1      29.779  66.122  10.991  1.00  0.00    -0.063 N 
ATOM      2  H21 UNL     1      30.375  66.942  10.885  1.00  0.00     0.278 HD
ATOM      3  H22 UNL     1      30.468  65.447  11.323  1.00  0.00     0.278 HD
ENDROOT
BRANCH   1   4
HETATM    4  C3  UNL     1      29.250  65.714   9.713  1.00  0.00     0.261 C 
BRANCH   4   5
HETATM    5  C2  UNL     1      30.287  65.676   8.627  1.00  0.00     0.142 C 
HETATM    6  N1  UNL     1      30.061  66.582   7.558  1.00  0.00    -0.350 N 
HETATM    7  C1  UNL     1      31.320  66.890   6.985  1.00  0.00     0.249 C 
ATOM      8  H1  UNL     1      29.156  66.945   7.256  1.00  0.00     0.163 HD
HETATM    9  O1  UNL     1      31.590  67.113   5.754  1.00  0.00    -0.271 OA
HETATM   10  C13 UNL     1      32.295  66.908   8.105  1.00  0.00     0.240 C 
HETATM   11  C12 UNL     1      31.606  66.126   9.202  1.00  0.00     0.180 C 
BRANCH  10  12
HETATM   12  O4  UNL     1      33.478  66.253   7.775  1.00  0.00    -0.383 OA
ATOM     13  H4  UNL     1      33.725  65.612   8.432  1.00  0.00     0.210 HD
ENDBRANCH  10  12
BRANCH  11  14
HETATM   14  O3  UNL     1      32.325  64.981   9.541  1.00  0.00    -0.390 OA
ATOM     15  H3  UNL     1      31.772  64.233   9.352  1.00  0.00     0.210 HD
ENDBRANCH  11  14
ENDBRANCH   4   5
ENDBRANCH   1   4
BRANCH   1  16
HETATM   16  C4  UNL     1      28.788  66.352  11.987  1.00  0.00     0.242 C 
BRANCH  16  17
HETATM   17  C5  UNL     1      28.897  65.459  13.191  1.00  0.00     0.202 C 
BRANCH  17  18
HETATM   18  O2  UNL     1      29.595  64.304  12.986  1.00  0.00    -0.398 OA
ATOM     19  H2  UNL     1      29.684  64.048  12.076  1.00  0.00     0.209 HD
ENDBRANCH  17  18
ENDBRANCH  16  17
BRANCH  16  20
HETATM   20  C6  UNL     1      28.984  67.760  12.486  1.00  0.00    -0.026 A 
HETATM   21  C7  UNL     1      29.957  68.046  13.434  1.00  0.00     0.009 A 
HETATM   22  C8  UNL     1      30.160  69.328  13.910  1.00  0.00     0.001 A 
HETATM   23  C9  UNL     1      29.374  70.369  13.436  1.00  0.00     0.000 A 
HETATM   24  C10 UNL     1      28.404  70.100  12.497  1.00  0.00     0.001 A 
HETATM   25  C11 UNL     1      28.228  68.811  12.042  1.00  0.00     0.009 A 
ENDBRANCH  16  20
ENDBRANCH   1  16
TORSDOF 8
ENDMDL
