MODEL 8
REMARK VINA RESULT: -7.569298577      2.987      6.305
REMARK  8 active torsions:
REMARK  status: ('A' for Active; 'I' for Inactive)
REMARK    1  A    between atoms: C2_5  and  C3_6 
REMARK    2  A    between atoms: C3_6  and  N2_7 
REMARK    3  A    between atoms: N2_7  and  C4_10 
REMARK    4  A    between atoms: C4_10  and  C5_11 
REMARK    5  A    between atoms: C4_10  and  C6_14 
REMARK    6  A    between atoms: C5_11  and  O2_12 
REMARK    7  A    between atoms: C12_20  and  O3_21 
REMARK    8  A    between atoms: C13_23  and  O4_24 
ROOT
HETATM    1  N2  UNL     1      29.588  66.479  10.876  1.00  0.00    -0.063 N 
ATOM      2  H21 UNL     1      30.236  65.899  11.410  1.00  0.00     0.278 HD
ATOM      3  H22 UNL     1      30.177  67.297  10.718  1.00  0.00     0.278 HD
ENDROOT
BRANCH   1   4
HETATM    4  C3  UNL     1      28.443  66.828  11.679  1.00  0.00     0.261 C 
BRANCH   4   5
HETATM    5  C2  UNL     1      27.897  65.671  12.467  1.00  0.00     0.142 C 
HETATM    6  N1  UNL     1      26.600  65.246  12.077  1.00  0.00    -0.350 N 
HETATM    7  C1  UNL     1      26.481  63.875  12.412  1.00  0.00     0.249 C 
ATOM      8  H1  UNL     1      25.884  65.824  11.635  1.00  0.00     0.163 HD
HETATM    9  O1  UNL     1      25.439  63.253  12.819  1.00  0.00    -0.271 OA
HETATM   10  C13 UNL     1      27.822  63.274  12.199  1.00  0.00     0.240 C 
HETATM   11  C12 UNL     1      28.760  64.461  12.211  1.00  0.00     0.180 C 
BRANCH  10  12
HETATM   12  O4  UNL     1      28.180  62.420  13.239  1.00  0.00    -0.383 OA
ATOM     13  H4  UNL     1      27.462  62.280  13.846  1.00  0.00     0.210 HD
ENDBRANCH  10  12
BRANCH  11  14
HETATM   14  O3  UNL     1      29.677  64.375  13.257  1.00  0.00    -0.390 OA
ATOM     15  H3  UNL     1      29.950  65.260  13.469  1.00  0.00     0.210 HD
ENDBRANCH  11  14
ENDBRANCH   4   5
ENDBRANCH   1   4
BRANCH   1  16
HETATM   16  C4  UNL     1      29.264  65.852   9.639  1.00  0.00     0.242 C 
BRANCH  16  17
HETATM   17  C5  UNL     1      27.958  66.296   9.041  1.00  0.00     0.202 C 
BRANCH  17  18
HETATM   18  O2  UNL     1      27.015  65.315   8.934  1.00  0.00    -0.398 OA
ATOM     19  H2  UNL     1      26.120  65.607   9.062  1.00  0.00     0.209 HD
ENDBRANCH  17  18
ENDBRANCH  16  17
BRANCH  16  20
HETATM   20  C6  UNL     1      30.334  66.244   8.652  1.00  0.00    -0.026 A 
HETATM   21  C7  UNL     1      31.665  66.317   9.043  1.00  0.00     0.009 A 
HETATM   22  C8  UNL     1      32.667  66.673   8.161  1.00  0.00     0.001 A 
HETATM   23  C9  UNL     1      32.349  66.970   6.843  1.00  0.00     0.000 A 
HETATM   24  C10 UNL     1      31.034  66.902   6.441  1.00  0.00     0.001 A 
HETATM   25  C11 UNL     1      30.058  66.543   7.346  1.00  0.00     0.009 A 
ENDBRANCH  16  20
ENDBRANCH   1  16
TORSDOF 8
ENDMDL
