MODEL 2
REMARK VINA RESULT: -7.624804286      1.751      2.153
REMARK  8 active torsions:
REMARK  status: ('A' for Active; 'I' for Inactive)
REMARK    1  A    between atoms: C3_5  and  O2_6 
REMARK    2  A    between atoms: C4_8  and  O3_9 
REMARK    3  A    between atoms: C5_11  and  C6_12 
REMARK    4  A    between atoms: C6_12  and  N2_13 
REMARK    5  A    between atoms: N2_13  and  C7_16 
REMARK    6  A    between atoms: C7_16  and  C8_17 
REMARK    7  A    between atoms: C7_16  and  C9_20 
REMARK    8  A    between atoms: C8_17  and  O4_18 
ROOT
HETATM    1  N2  UNL     1      28.299  66.887   9.512  1.00  0.00    -0.063 N 
ATOM      2  H21 UNL     1      28.958  67.581   9.865  1.00  0.00     0.278 HD
ATOM      3  H22 UNL     1      27.584  67.513   9.141  1.00  0.00     0.278 HD
ENDROOT
BRANCH   1   4
HETATM    4  C6  UNL     1      27.770  66.073  10.591  1.00  0.00     0.261 C 
BRANCH   4   5
HETATM    5  C5  UNL     1      26.932  65.019   9.995  1.00  0.00     0.144 C 
HETATM    6  N1  UNL     1      27.019  63.716  10.613  1.00  0.00    -0.345 N 
HETATM    7  C1  UNL     1      27.915  63.181  11.591  1.00  0.00     0.153 C 
HETATM    8  C2  UNL     1      25.929  62.990   9.998  1.00  0.00     0.251 C 
HETATM    9  O1  UNL     1      25.800  61.726   9.979  1.00  0.00    -0.270 OA
HETATM   10  C3  UNL     1      24.976  63.958   9.388  1.00  0.00     0.240 C 
HETATM   11  C4  UNL     1      25.446  65.268  10.047  1.00  0.00     0.180 C 
BRANCH  10  12
HETATM   12  O2  UNL     1      25.246  64.118   8.028  1.00  0.00    -0.383 OA
ATOM     13  H2  UNL     1      25.824  64.860   7.890  1.00  0.00     0.210 HD
ENDBRANCH  10  12
BRANCH  11  14
HETATM   14  O3  UNL     1      25.047  66.362   9.306  1.00  0.00    -0.390 OA
ATOM     15  H3  UNL     1      25.155  67.164   9.803  1.00  0.00     0.210 HD
ENDBRANCH  11  14
ENDBRANCH   4   5
ENDBRANCH   1   4
BRANCH   1  16
HETATM   16  C7  UNL     1      28.891  66.098   8.462  1.00  0.00     0.242 C 
BRANCH  16  17
HETATM   17  C8  UNL     1      28.224  66.539   7.154  1.00  0.00     0.202 C 
BRANCH  17  18
HETATM   18  O4  UNL     1      26.848  66.467   7.246  1.00  0.00    -0.398 OA
ATOM     19  H4  UNL     1      26.576  65.706   7.746  1.00  0.00     0.209 HD
ENDBRANCH  17  18
ENDBRANCH  16  17
BRANCH  16  20
HETATM   20  C9  UNL     1      30.333  66.312   8.299  1.00  0.00    -0.026 A 
HETATM   21  C10 UNL     1      31.255  66.087   9.296  1.00  0.00     0.009 A 
HETATM   22  C11 UNL     1      32.614  66.301   9.100  1.00  0.00     0.001 A 
HETATM   23  C12 UNL     1      33.066  66.751   7.880  1.00  0.00     0.000 A 
HETATM   24  C13 UNL     1      32.162  66.981   6.865  1.00  0.00     0.001 A 
HETATM   25  C14 UNL     1      30.815  66.760   7.089  1.00  0.00     0.009 A 
ENDBRANCH  16  20
ENDBRANCH   1  16
TORSDOF 8
ENDMDL
