MODEL 1
REMARK VINA RESULT: -7.724956900      0.000      0.000
REMARK  8 active torsions:
REMARK  status: ('A' for Active; 'I' for Inactive)
REMARK    1  A    between atoms: C3_5  and  O2_6 
REMARK    2  A    between atoms: C4_8  and  O3_9 
REMARK    3  A    between atoms: C5_11  and  C6_12 
REMARK    4  A    between atoms: C6_12  and  N2_13 
REMARK    5  A    between atoms: N2_13  and  C7_16 
REMARK    6  A    between atoms: C7_16  and  C8_17 
REMARK    7  A    between atoms: C7_16  and  C9_20 
REMARK    8  A    between atoms: C8_17  and  O4_18 
ROOT
HETATM    1  N2  UNL     1      27.886  66.172   8.838  1.00  0.00    -0.063 N 
ATOM      2  H21 UNL     1      27.849  66.815   8.048  1.00  0.00     0.278 HD
ATOM      3  H22 UNL     1      27.826  65.287   8.334  1.00  0.00     0.278 HD
ENDROOT
BRANCH   1   4
HETATM    4  C6  UNL     1      26.743  66.353   9.713  1.00  0.00     0.261 C 
BRANCH   4   5
HETATM    5  C5  UNL     1      26.174  65.025   9.996  1.00  0.00     0.144 C 
HETATM    6  N1  UNL     1      25.531  64.871  11.281  1.00  0.00    -0.345 N 
HETATM    7  C1  UNL     1      25.498  65.712  12.438  1.00  0.00     0.153 C 
HETATM    8  C2  UNL     1      24.867  63.591  11.163  1.00  0.00     0.251 C 
HETATM    9  O1  UNL     1      24.444  62.886  12.132  1.00  0.00    -0.270 OA
HETATM   10  C3  UNL     1      24.754  63.227   9.724  1.00  0.00     0.240 C 
HETATM   11  C4  UNL     1      25.073  64.581   9.065  1.00  0.00     0.180 C 
BRANCH  10  12
HETATM   12  O2  UNL     1      25.803  62.385   9.350  1.00  0.00    -0.383 OA
ATOM     13  H2  UNL     1      25.507  61.751   8.708  1.00  0.00     0.210 HD
ENDBRANCH  10  12
BRANCH  11  14
HETATM   14  O3  UNL     1      25.494  64.407   7.762  1.00  0.00    -0.390 OA
ATOM     15  H3  UNL     1      25.324  65.185   7.245  1.00  0.00     0.210 HD
ENDBRANCH  11  14
ENDBRANCH   4   5
ENDBRANCH   1   4
BRANCH   1  16
HETATM   16  C7  UNL     1      29.141  66.284   9.537  1.00  0.00     0.242 C 
BRANCH  16  17
HETATM   17  C8  UNL     1      29.354  64.955  10.269  1.00  0.00     0.202 C 
BRANCH  17  18
HETATM   18  O4  UNL     1      29.638  65.159  11.605  1.00  0.00    -0.398 OA
ATOM     19  H4  UNL     1      29.696  64.336  12.075  1.00  0.00     0.209 HD
ENDBRANCH  17  18
ENDBRANCH  16  17
BRANCH  16  20
HETATM   20  C9  UNL     1      30.297  66.477   8.656  1.00  0.00    -0.026 A 
HETATM   21  C10 UNL     1      31.603  66.409   9.087  1.00  0.00     0.009 A 
HETATM   22  C11 UNL     1      32.672  66.597   8.218  1.00  0.00     0.001 A 
HETATM   23  C12 UNL     1      32.434  66.859   6.888  1.00  0.00     0.000 A 
HETATM   24  C13 UNL     1      31.135  66.931   6.433  1.00  0.00     0.001 A 
HETATM   25  C14 UNL     1      30.090  66.740   7.320  1.00  0.00     0.009 A 
ENDBRANCH  16  20
ENDBRANCH   1  16
TORSDOF 8
ENDMDL
