MODEL 3
REMARK VINA RESULT: -7.502011715      1.878      2.379
REMARK  8 active torsions:
REMARK  status: ('A' for Active; 'I' for Inactive)
REMARK    1  A    between atoms: C3_5  and  O2_6 
REMARK    2  A    between atoms: C4_8  and  O3_9 
REMARK    3  A    between atoms: C5_11  and  C6_12 
REMARK    4  A    between atoms: C6_12  and  N2_13 
REMARK    5  A    between atoms: N2_13  and  C7_16 
REMARK    6  A    between atoms: C7_16  and  C8_17 
REMARK    7  A    between atoms: C7_16  and  C9_20 
REMARK    8  A    between atoms: C8_17  and  O4_18 
ROOT
HETATM    1  N2  UNL     1      28.243  67.217   9.691  1.00  0.00    -0.063 N 
ATOM      2  H21 UNL     1      28.793  68.069   9.588  1.00  0.00     0.278 HD
ATOM      3  H22 UNL     1      27.350  67.553   9.327  1.00  0.00     0.278 HD
ENDROOT
BRANCH   1   4
HETATM    4  C6  UNL     1      28.126  66.837  11.087  1.00  0.00     0.261 C 
BRANCH   4   5
HETATM    5  C5  UNL     1      27.780  65.407  11.141  1.00  0.00     0.144 C 
HETATM    6  N1  UNL     1      28.317  64.667  12.260  1.00  0.00    -0.345 N 
HETATM    7  C1  UNL     1      29.293  65.007  13.248  1.00  0.00     0.153 C 
HETATM    8  C2  UNL     1      27.616  63.404  12.182  1.00  0.00     0.251 C 
HETATM    9  O1  UNL     1      27.974  62.324  12.749  1.00  0.00    -0.270 OA
HETATM   10  C3  UNL     1      26.403  63.566  11.334  1.00  0.00     0.240 C 
HETATM   11  C4  UNL     1      26.309  65.101  11.269  1.00  0.00     0.180 C 
BRANCH  10  12
HETATM   12  O2  UNL     1      26.668  63.163  10.024  1.00  0.00    -0.383 OA
ATOM     13  H2  UNL     1      27.306  63.740   9.621  1.00  0.00     0.210 HD
ENDBRANCH  10  12
BRANCH  11  14
HETATM   14  O3  UNL     1      25.569  65.503  10.176  1.00  0.00    -0.390 OA
ATOM     15  H3  UNL     1      25.005  66.234  10.399  1.00  0.00     0.210 HD
ENDBRANCH  11  14
ENDBRANCH   4   5
ENDBRANCH   1   4
BRANCH   1  16
HETATM   16  C7  UNL     1      28.771  66.157   8.872  1.00  0.00     0.242 C 
BRANCH  16  17
HETATM   17  C8  UNL     1      27.927  66.132   7.592  1.00  0.00     0.202 C 
BRANCH  17  18
HETATM   18  O4  UNL     1      26.785  65.374   7.762  1.00  0.00    -0.398 OA
ATOM     19  H4  UNL     1      26.712  64.707   7.090  1.00  0.00     0.209 HD
ENDBRANCH  17  18
ENDBRANCH  16  17
BRANCH  16  20
HETATM   20  C9  UNL     1      30.163  66.361   8.460  1.00  0.00    -0.026 A 
HETATM   21  C10 UNL     1      31.241  66.176   9.298  1.00  0.00     0.009 A 
HETATM   22  C11 UNL     1      32.547  66.380   8.867  1.00  0.00     0.001 A 
HETATM   23  C12 UNL     1      32.786  66.777   7.571  1.00  0.00     0.000 A 
HETATM   24  C13 UNL     1      31.723  66.966   6.714  1.00  0.00     0.001 A 
HETATM   25  C14 UNL     1      30.433  66.757   7.169  1.00  0.00     0.009 A 
ENDBRANCH  16  20
ENDBRANCH   1  16
TORSDOF 8
ENDMDL
