MODEL 20
REMARK VINA RESULT: -6.922810782      3.437      6.397
REMARK  8 active torsions:
REMARK  status: ('A' for Active; 'I' for Inactive)
REMARK    1  A    between atoms: C3_5  and  O2_6 
REMARK    2  A    between atoms: C4_8  and  O3_9 
REMARK    3  A    between atoms: C5_11  and  C6_12 
REMARK    4  A    between atoms: C6_12  and  N2_13 
REMARK    5  A    between atoms: N2_13  and  C7_16 
REMARK    6  A    between atoms: C7_16  and  C8_17 
REMARK    7  A    between atoms: C7_16  and  C9_20 
REMARK    8  A    between atoms: C8_17  and  O4_18 
ROOT
HETATM    1  N2  UNL     1      30.183  65.600  10.632  1.00  0.00    -0.063 N 
ATOM      2  H21 UNL     1      30.747  66.448  10.567  1.00  0.00     0.278 HD
ATOM      3  H22 UNL     1      30.743  65.081  11.309  1.00  0.00     0.278 HD
ENDROOT
BRANCH   1   4
HETATM    4  C6  UNL     1      30.135  64.907   9.357  1.00  0.00     0.261 C 
BRANCH   4   5
HETATM    5  C5  UNL     1      31.098  65.555   8.452  1.00  0.00     0.144 C 
HETATM    6  N1  UNL     1      30.532  66.394   7.420  1.00  0.00    -0.345 N 
HETATM    7  C1  UNL     1      29.186  66.578   6.972  1.00  0.00     0.153 C 
HETATM    8  C2  UNL     1      31.689  67.072   6.879  1.00  0.00     0.251 C 
HETATM    9  O1  UNL     1      31.742  67.662   5.754  1.00  0.00    -0.270 OA
HETATM   10  C3  UNL     1      32.815  66.973   7.848  1.00  0.00     0.240 C 
HETATM   11  C4  UNL     1      32.060  66.512   9.108  1.00  0.00     0.180 C 
BRANCH  10  12
HETATM   12  O2  UNL     1      33.652  65.906   7.516  1.00  0.00    -0.383 OA
ATOM     13  H2  UNL     1      33.153  65.101   7.449  1.00  0.00     0.210 HD
ENDBRANCH  10  12
BRANCH  11  14
HETATM   14  O3  UNL     1      32.918  65.901  10.000  1.00  0.00    -0.390 OA
ATOM     15  H3  UNL     1      32.464  65.242  10.510  1.00  0.00     0.210 HD
ENDBRANCH  11  14
ENDBRANCH   4   5
ENDBRANCH   1   4
BRANCH   1  16
HETATM   16  C7  UNL     1      28.873  65.889  11.155  1.00  0.00     0.242 C 
BRANCH  16  17
HETATM   17  C8  UNL     1      28.620  64.881  12.282  1.00  0.00     0.202 C 
BRANCH  17  18
HETATM   18  O4  UNL     1      29.805  64.351  12.754  1.00  0.00    -0.398 OA
ATOM     19  H4  UNL     1      29.965  64.614  13.653  1.00  0.00     0.209 HD
ENDBRANCH  17  18
ENDBRANCH  16  17
BRANCH  16  20
HETATM   20  C9  UNL     1      28.749  67.226  11.743  1.00  0.00    -0.026 A 
HETATM   21  C10 UNL     1      29.695  67.786  12.572  1.00  0.00     0.009 A 
HETATM   22  C11 UNL     1      29.539  69.059  13.108  1.00  0.00     0.001 A 
HETATM   23  C12 UNL     1      28.412  69.792  12.812  1.00  0.00     0.000 A 
HETATM   24  C13 UNL     1      27.451  69.254  11.984  1.00  0.00     0.001 A 
HETATM   25  C14 UNL     1      27.632  67.984  11.464  1.00  0.00     0.009 A 
ENDBRANCH  16  20
ENDBRANCH   1  16
TORSDOF 8
ENDMDL
