MODEL 3
REMARK VINA RESULT: -8.932678850      1.723      2.393
REMARK  8 active torsions:
REMARK  status: ('A' for Active; 'I' for Inactive)
REMARK    1  A    between atoms: C1_2  and  C2_3 
REMARK       I    between atoms: C1_2  and  N3_23 
REMARK    2  A    between atoms: C2_3  and  C3_4 
REMARK    3  A    between atoms: C3_4  and  C4_5 
REMARK       I    between atoms: C4_5  and  N1_7 
REMARK    4  A    between atoms: N1_7  and  C5_9 
REMARK    5  A    between atoms: N3_23  and  C14_25 
REMARK    6  A    between atoms: C18_29  and  O6_30 
REMARK    7  A    between atoms: O6_30  and  C19_31 
REMARK    8  A    between atoms: C19_31  and  C20_32 
ROOT
HETATM    1  C4  UNL     1     -42.654  15.618 -22.044  1.00  0.00     0.222 C 
HETATM    2  O2  UNL     1     -41.522  15.567 -22.574  1.00  0.00    -0.273 OA
HETATM    3  N1  UNL     1     -42.774  15.393 -20.662  1.00  0.00    -0.327 N 
ATOM      4  H1  UNL     1     -43.715  15.445 -20.272  1.00  0.00     0.169 HD
ENDROOT
BRANCH   1   5
HETATM    5  C3  UNL     1     -43.874  15.917 -22.889  1.00  0.00     0.112 C 
BRANCH   5   6
HETATM    6  C2  UNL     1     -44.964  16.492 -22.011  1.00  0.00     0.112 C 
BRANCH   6   7
HETATM    7  C1  UNL     1     -46.221  15.707 -22.150  1.00  0.00     0.222 C 
HETATM    8  O1  UNL     1     -46.179  14.642 -22.791  1.00  0.00    -0.273 OA
HETATM    9  N3  UNL     1     -47.443  16.129 -21.584  1.00  0.00    -0.327 N 
ATOM     10  H3  UNL     1     -47.419  17.009 -21.067  1.00  0.00     0.169 HD
BRANCH   9  11
HETATM   11  C14 UNL     1     -48.680  15.487 -21.646  1.00  0.00     0.037 A 
HETATM   12  C15 UNL     1     -49.629  15.709 -22.581  1.00  0.00     0.029 A 
HETATM   13  C16 UNL     1     -50.854  15.022 -22.592  1.00  0.00     0.005 A 
HETATM   14  C17 UNL     1     -51.088  14.094 -21.618  1.00  0.00     0.037 A 
HETATM   15  C18 UNL     1     -50.146  13.832 -20.640  1.00  0.00     0.070 A 
HETATM   16  C21 UNL     1     -48.974  14.526 -20.673  1.00  0.00     0.066 A 
BRANCH  15  17
HETATM   17  O6  UNL     1     -50.450  12.881 -19.686  1.00  0.00    -0.349 OA
BRANCH  17  18
HETATM   18  C19 UNL     1     -51.737  12.307 -19.601  1.00  0.00     0.207 C 
BRANCH  18  19
HETATM   19  C20 UNL     1     -51.785  11.193 -18.577  1.00  0.00     0.248 C 
HETATM   20  F1  UNL     1     -50.447  10.873 -18.303  1.00  0.00    -0.253 F 
ENDBRANCH  18  19
ENDBRANCH  17  18
ENDBRANCH  15  17
ENDBRANCH   9  11
ENDBRANCH   6   7
ENDBRANCH   5   6
ENDBRANCH   1   5
BRANCH   3  21
HETATM   21  C5  UNL     1     -41.726  15.100 -19.752  1.00  0.00     0.035 A 
HETATM   22  C6  UNL     1     -41.357  13.762 -19.539  1.00  0.00     0.030 A 
HETATM   23  C7  UNL     1     -40.354  13.385 -18.688  1.00  0.00     0.020 A 
HETATM   24  C8  UNL     1     -39.645  14.334 -17.988  1.00  0.00     0.046 A 
HETATM   25  C9  UNL     1     -39.988  15.657 -18.181  1.00  0.00     0.038 A 
HETATM   26  C13 UNL     1     -38.580  13.914 -17.087  1.00  0.00     0.259 A 
HETATM   27  C10 UNL     1     -41.007  16.028 -19.045  1.00  0.00     0.046 A 
HETATM   28  C11 UNL     1     -39.235  16.673 -17.437  1.00  0.00     0.250 A 
HETATM   29  O3  UNL     1     -39.557  17.874 -17.621  1.00  0.00    -0.281 OA
HETATM   30  C12 UNL     1     -38.165  16.304 -16.528  1.00  0.00     0.299 A 
HETATM   31  O4  UNL     1     -37.514  17.194 -15.883  1.00  0.00    -0.264 OA
HETATM   32  N2  UNL     1     -37.870  14.924 -16.381  1.00  0.00    -0.286 N 
ATOM     33  H2  UNL     1     -37.122  14.646 -15.745  1.00  0.00     0.172 HD
HETATM   34  O5  UNL     1     -38.301  12.681 -16.943  1.00  0.00    -0.267 OA
ENDBRANCH   3  21
TORSDOF 8
ENDMDL
