MODEL 1
REMARK VINA RESULT: -9.150676149      0.000      0.000
REMARK  8 active torsions:
REMARK  status: ('A' for Active; 'I' for Inactive)
REMARK    1  A    between atoms: C1_2  and  C2_3 
REMARK       I    between atoms: C1_2  and  N3_23 
REMARK    2  A    between atoms: C2_3  and  C3_4 
REMARK    3  A    between atoms: C3_4  and  C4_5 
REMARK       I    between atoms: C4_5  and  N1_7 
REMARK    4  A    between atoms: N1_7  and  C5_9 
REMARK    5  A    between atoms: N3_23  and  C14_25 
REMARK    6  A    between atoms: C18_29  and  O6_30 
REMARK    7  A    between atoms: O6_30  and  C19_31 
REMARK    8  A    between atoms: C19_31  and  C20_32 
ROOT
HETATM    1  C4  UNL     1     -42.267  16.314 -22.212  1.00  0.00     0.222 C 
HETATM    2  O2  UNL     1     -41.142  16.088 -22.709  1.00  0.00    -0.273 OA
HETATM    3  N1  UNL     1     -42.459  16.114 -20.834  1.00  0.00    -0.327 N 
ATOM      4  H1  UNL     1     -43.391  16.312 -20.470  1.00  0.00     0.169 HD
ENDROOT
BRANCH   1   5
HETATM    5  C3  UNL     1     -43.401  16.795 -23.090  1.00  0.00     0.112 C 
BRANCH   5   6
HETATM    6  C2  UNL     1     -44.127  15.601 -23.673  1.00  0.00     0.112 C 
BRANCH   6   7
HETATM    7  C1  UNL     1     -44.884  14.878 -22.614  1.00  0.00     0.222 C 
HETATM    8  O1  UNL     1     -44.805  13.637 -22.582  1.00  0.00    -0.273 OA
HETATM    9  N3  UNL     1     -45.679  15.549 -21.659  1.00  0.00    -0.327 N 
ATOM     10  H3  UNL     1     -45.705  16.566 -21.733  1.00  0.00     0.169 HD
BRANCH   9  11
HETATM   11  C14 UNL     1     -46.431  14.987 -20.629  1.00  0.00     0.037 A 
HETATM   12  C15 UNL     1     -45.960  14.664 -19.404  1.00  0.00     0.029 A 
HETATM   13  C16 UNL     1     -46.775  14.107 -18.404  1.00  0.00     0.005 A 
HETATM   14  C17 UNL     1     -48.092  13.884 -18.688  1.00  0.00     0.037 A 
HETATM   15  C18 UNL     1     -48.619  14.198 -19.928  1.00  0.00     0.070 A 
HETATM   16  C21 UNL     1     -47.787  14.737 -20.862  1.00  0.00     0.066 A 
BRANCH  15  17
HETATM   17  O6  UNL     1     -49.960  13.946 -20.144  1.00  0.00    -0.349 OA
BRANCH  17  18
HETATM   18  C19 UNL     1     -50.458  13.667 -21.435  1.00  0.00     0.207 C 
BRANCH  18  19
HETATM   19  C20 UNL     1     -51.551  14.636 -21.833  1.00  0.00     0.248 C 
HETATM   20  F1  UNL     1     -50.890  15.765 -22.340  1.00  0.00    -0.253 F 
ENDBRANCH  18  19
ENDBRANCH  17  18
ENDBRANCH  15  17
ENDBRANCH   9  11
ENDBRANCH   6   7
ENDBRANCH   5   6
ENDBRANCH   1   5
BRANCH   3  21
HETATM   21  C5  UNL     1     -41.494  15.666 -19.895  1.00  0.00     0.035 A 
HETATM   22  C6  UNL     1     -41.220  14.292 -19.798  1.00  0.00     0.030 A 
HETATM   23  C7  UNL     1     -40.301  13.769 -18.930  1.00  0.00     0.020 A 
HETATM   24  C8  UNL     1     -39.588  14.596 -18.093  1.00  0.00     0.046 A 
HETATM   25  C9  UNL     1     -39.839  15.951 -18.170  1.00  0.00     0.038 A 
HETATM   26  C13 UNL     1     -38.613  14.021 -17.175  1.00  0.00     0.259 A 
HETATM   27  C10 UNL     1     -40.773  16.471 -19.054  1.00  0.00     0.046 A 
HETATM   28  C11 UNL     1     -39.081  16.839 -17.280  1.00  0.00     0.250 A 
HETATM   29  O3  UNL     1     -39.319  18.070 -17.360  1.00  0.00    -0.281 OA
HETATM   30  C12 UNL     1     -38.099  16.313 -16.349  1.00  0.00     0.299 A 
HETATM   31  O4  UNL     1     -37.443  17.091 -15.577  1.00  0.00    -0.264 OA
HETATM   32  N2  UNL     1     -37.896  14.908 -16.326  1.00  0.00    -0.286 N 
ATOM     33  H2  UNL     1     -37.211  14.521 -15.677  1.00  0.00     0.172 HD
HETATM   34  O5  UNL     1     -38.417  12.765 -17.141  1.00  0.00    -0.267 OA
ENDBRANCH   3  21
TORSDOF 8
ENDMDL
