MODEL 2
REMARK VINA RESULT: -9.008055186      1.165      1.210
REMARK  8 active torsions:
REMARK  status: ('A' for Active; 'I' for Inactive)
REMARK    1  A    between atoms: C1_2  and  C2_3 
REMARK       I    between atoms: C1_2  and  N3_23 
REMARK    2  A    between atoms: C2_3  and  C3_4 
REMARK    3  A    between atoms: C3_4  and  C4_5 
REMARK       I    between atoms: C4_5  and  N1_7 
REMARK    4  A    between atoms: N1_7  and  C5_9 
REMARK    5  A    between atoms: N3_23  and  C14_25 
REMARK    6  A    between atoms: C18_29  and  O6_30 
REMARK    7  A    between atoms: O6_30  and  C19_31 
REMARK    8  A    between atoms: C19_31  and  C20_32 
ROOT
HETATM    1  C4  UNL     1     -41.791  15.943 -22.274  1.00  0.00     0.222 C 
HETATM    2  O2  UNL     1     -41.859  16.953 -21.540  1.00  0.00    -0.273 OA
HETATM    3  N1  UNL     1     -41.374  14.720 -21.721  1.00  0.00    -0.327 N 
ATOM      4  H1  UNL     1     -41.335  13.922 -22.355  1.00  0.00     0.169 HD
ENDROOT
BRANCH   1   5
HETATM    5  C3  UNL     1     -42.155  16.045 -23.740  1.00  0.00     0.112 C 
BRANCH   5   6
HETATM    6  C2  UNL     1     -43.595  16.493 -23.871  1.00  0.00     0.112 C 
BRANCH   6   7
HETATM    7  C1  UNL     1     -44.484  15.662 -23.014  1.00  0.00     0.222 C 
HETATM    8  O1  UNL     1     -44.766  14.514 -23.402  1.00  0.00    -0.273 OA
HETATM    9  N3  UNL     1     -45.011  16.131 -21.791  1.00  0.00    -0.327 N 
ATOM     10  H3  UNL     1     -44.746  17.079 -21.522  1.00  0.00     0.169 HD
BRANCH   9  11
HETATM   11  C14 UNL     1     -45.851  15.453 -20.908  1.00  0.00     0.037 A 
HETATM   12  C15 UNL     1     -45.476  14.927 -19.722  1.00  0.00     0.029 A 
HETATM   13  C16 UNL     1     -46.376  14.261 -18.872  1.00  0.00     0.005 A 
HETATM   14  C17 UNL     1     -47.678  14.144 -19.267  1.00  0.00     0.037 A 
HETATM   15  C18 UNL     1     -48.108  14.667 -20.473  1.00  0.00     0.070 A 
HETATM   16  C21 UNL     1     -47.196  15.303 -21.261  1.00  0.00     0.066 A 
BRANCH  15  17
HETATM   17  O6  UNL     1     -49.439  14.512 -20.808  1.00  0.00    -0.349 OA
BRANCH  17  18
HETATM   18  C19 UNL     1     -49.829  14.049 -22.083  1.00  0.00     0.207 C 
BRANCH  18  19
HETATM   19  C20 UNL     1     -50.816  14.990 -22.741  1.00  0.00     0.248 C 
HETATM   20  F1  UNL     1     -50.256  16.271 -22.622  1.00  0.00    -0.253 F 
ENDBRANCH  18  19
ENDBRANCH  17  18
ENDBRANCH  15  17
ENDBRANCH   9  11
ENDBRANCH   6   7
ENDBRANCH   5   6
ENDBRANCH   1   5
BRANCH   3  21
HETATM   21  C5  UNL     1     -41.002  14.478 -20.373  1.00  0.00     0.035 A 
HETATM   22  C6  UNL     1     -41.123  13.180 -19.852  1.00  0.00     0.030 A 
HETATM   23  C7  UNL     1     -40.781  12.850 -18.569  1.00  0.00     0.020 A 
HETATM   24  C8  UNL     1     -40.288  13.809 -17.714  1.00  0.00     0.046 A 
HETATM   25  C9  UNL     1     -40.160  15.093 -18.203  1.00  0.00     0.038 A 
HETATM   26  C13 UNL     1     -39.929  13.440 -16.351  1.00  0.00     0.259 A 
HETATM   27  C10 UNL     1     -40.510  15.417 -19.505  1.00  0.00     0.046 A 
HETATM   28  C11 UNL     1     -39.635  16.121 -17.296  1.00  0.00     0.250 A 
HETATM   29  O3  UNL     1     -39.522  17.286 -17.753  1.00  0.00    -0.281 OA
HETATM   30  C12 UNL     1     -39.263  15.802 -15.929  1.00  0.00     0.299 A 
HETATM   31  O4  UNL     1     -38.807  16.701 -15.145  1.00  0.00    -0.264 OA
HETATM   32  N2  UNL     1     -39.425  14.459 -15.497  1.00  0.00    -0.286 N 
ATOM     33  H2  UNL     1     -39.170  14.217 -14.540  1.00  0.00     0.172 HD
HETATM   34  O5  UNL     1     -40.067  12.242 -15.946  1.00  0.00    -0.267 OA
ENDBRANCH   3  21
TORSDOF 8
ENDMDL
