MODEL 4
REMARK VINA RESULT: -7.817402853      1.853      2.066
REMARK  2 active torsions:
REMARK  status: ('A' for Active; 'I' for Inactive)
REMARK    1  A    between atoms: C3_6  and  C4_7 
REMARK    2  A    between atoms: C4_7  and  C5_8 
ROOT
HETATM    1  N1  UNL     1     -16.208  -7.460  27.580  1.00  0.00    -0.063 NA
HETATM    2  C1  UNL     1     -15.510  -6.356  28.156  1.00  0.00     0.195 A 
HETATM    3  N2  UNL     1     -16.191  -5.377  28.779  1.00  0.00    -0.328 N 
ATOM      4  H2  UNL     1     -17.208  -5.431  28.836  1.00  0.00     0.168 HD
HETATM    5  C2  UNL     1     -15.547  -4.320  29.331  1.00  0.00     0.075 A 
HETATM    6  C3  UNL     1     -16.000  -3.210  30.009  1.00  0.00    -0.009 A 
HETATM    7  C10 UNL     1     -14.908  -2.446  30.355  1.00  0.00     0.098 A 
HETATM    8  N4  UNL     1     -13.812  -3.065  29.904  1.00  0.00    -0.359 N 
ATOM      9  H4  UNL     1     -12.855  -2.729  30.014  1.00  0.00     0.165 HD
HETATM   10  C11 UNL     1     -14.175  -4.207  29.278  1.00  0.00     0.128 A 
HETATM   11  C12 UNL     1     -13.485  -5.218  28.637  1.00  0.00     0.276 A 
HETATM   12  O1  UNL     1     -12.234  -5.121  28.585  1.00  0.00    -0.266 OA
HETATM   13  N5  UNL     1     -14.173  -6.243  28.106  1.00  0.00    -0.295 N 
ATOM     14  H5  UNL     1     -13.648  -6.980  27.636  1.00  0.00     0.171 HD
ENDROOT
BRANCH   6  15
HETATM   15  C4  UNL     1     -17.443  -2.935  30.293  1.00  0.00     0.082 C 
BRANCH  15  16
HETATM   16  C5  UNL     1     -18.140  -2.855  28.989  1.00  0.00    -0.038 A 
HETATM   17  C6  UNL     1     -17.557  -2.127  27.983  1.00  0.00     0.010 A 
HETATM   18  C7  UNL     1     -18.227  -2.065  26.765  1.00  0.00     0.018 A 
HETATM   19  C8  UNL     1     -19.428  -2.729  26.634  1.00  0.00     0.087 A 
HETATM   20  N3  UNL     1     -19.960  -3.435  27.660  1.00  0.00    -0.375 N 
HETATM   21  C9  UNL     1     -19.339  -3.517  28.853  1.00  0.00     0.095 A 
ATOM     22  H3  UNL     1     -20.850  -3.915  27.527  1.00  0.00     0.164 HD
ENDBRANCH  15  16
ENDBRANCH   6  15
TORSDOF 2
ENDMDL
