MODEL 7
REMARK VINA RESULT: -7.500583128      3.338      5.689
REMARK  2 active torsions:
REMARK  status: ('A' for Active; 'I' for Inactive)
REMARK    1  A    between atoms: C3_6  and  C4_7 
REMARK    2  A    between atoms: C4_7  and  C5_8 
ROOT
HETATM    1  N1  UNL     1     -19.177  -3.007  24.545  1.00  0.00    -0.063 NA
HETATM    2  C1  UNL     1     -19.499  -2.837  25.925  1.00  0.00     0.195 A 
HETATM    3  N2  UNL     1     -18.675  -3.314  26.876  1.00  0.00    -0.328 N 
ATOM      4  H2  UNL     1     -17.819  -3.796  26.601  1.00  0.00     0.168 HD
HETATM    5  C2  UNL     1     -18.964  -3.163  28.191  1.00  0.00     0.075 A 
HETATM    6  C3  UNL     1     -18.301  -3.549  29.335  1.00  0.00    -0.009 A 
HETATM    7  C10 UNL     1     -19.044  -3.137  30.418  1.00  0.00     0.098 A 
HETATM    8  N4  UNL     1     -20.134  -2.515  29.958  1.00  0.00    -0.359 N 
ATOM      9  H4  UNL     1     -20.869  -2.104  30.534  1.00  0.00     0.165 HD
HETATM   10  C11 UNL     1     -20.107  -2.517  28.606  1.00  0.00     0.128 A 
HETATM   11  C12 UNL     1     -20.947  -2.032  27.622  1.00  0.00     0.276 A 
HETATM   12  O1  UNL     1     -21.992  -1.442  27.995  1.00  0.00    -0.266 OA
HETATM   13  N5  UNL     1     -20.614  -2.209  26.333  1.00  0.00    -0.295 N 
ATOM     14  H5  UNL     1     -21.246  -1.844  25.620  1.00  0.00     0.171 HD
ENDROOT
BRANCH   6  15
HETATM   15  C4  UNL     1     -16.999  -4.287  29.339  1.00  0.00     0.082 C 
BRANCH  15  16
HETATM   16  C5  UNL     1     -15.953  -3.330  29.767  1.00  0.00    -0.038 A 
HETATM   17  C6  UNL     1     -16.036  -2.034  29.324  1.00  0.00     0.010 A 
HETATM   18  C7  UNL     1     -15.044  -1.151  29.738  1.00  0.00     0.018 A 
HETATM   19  C8  UNL     1     -14.040  -1.618  30.560  1.00  0.00     0.087 A 
HETATM   20  N3  UNL     1     -14.006  -2.909  30.969  1.00  0.00    -0.375 N 
HETATM   21  C9  UNL     1     -14.949  -3.791  30.588  1.00  0.00     0.095 A 
ATOM     22  H3  UNL     1     -13.249  -3.219  31.578  1.00  0.00     0.164 HD
ENDBRANCH  15  16
ENDBRANCH   6  15
TORSDOF 2
ENDMDL
