MODEL 1
REMARK VINA RESULT: -8.115697448      0.000      0.000
REMARK  2 active torsions:
REMARK  status: ('A' for Active; 'I' for Inactive)
REMARK    1  A    between atoms: C3_6  and  C4_7 
REMARK    2  A    between atoms: C4_7  and  C5_8 
ROOT
HETATM    1  N1  UNL     1     -16.020  -7.226  27.479  1.00  0.00    -0.063 NA
HETATM    2  C1  UNL     1     -15.640  -6.578  28.692  1.00  0.00     0.195 A 
HETATM    3  N2  UNL     1     -15.796  -5.248  28.825  1.00  0.00    -0.328 N 
ATOM      4  H2  UNL     1     -16.189  -4.709  28.053  1.00  0.00     0.168 HD
HETATM    5  C2  UNL     1     -15.441  -4.614  29.969  1.00  0.00     0.075 A 
HETATM    6  C3  UNL     1     -15.497  -3.292  30.351  1.00  0.00    -0.009 A 
HETATM    7  C10 UNL     1     -15.003  -3.196  31.633  1.00  0.00     0.098 A 
HETATM    8  N4  UNL     1     -14.651  -4.423  32.031  1.00  0.00    -0.359 N 
ATOM      9  H4  UNL     1     -14.251  -4.658  32.940  1.00  0.00     0.165 HD
HETATM   10  C11 UNL     1     -14.908  -5.302  31.037  1.00  0.00     0.128 A 
HETATM   11  C12 UNL     1     -14.752  -6.667  30.890  1.00  0.00     0.276 A 
HETATM   12  O1  UNL     1     -14.267  -7.300  31.860  1.00  0.00    -0.266 OA
HETATM   13  N5  UNL     1     -15.121  -7.246  29.734  1.00  0.00    -0.295 N 
ATOM     14  H5  UNL     1     -14.998  -8.254  29.643  1.00  0.00     0.171 HD
ENDROOT
BRANCH   6  15
HETATM   15  C4  UNL     1     -16.017  -2.191  29.481  1.00  0.00     0.082 C 
BRANCH  15  16
HETATM   16  C5  UNL     1     -17.478  -2.387  29.349  1.00  0.00    -0.038 A 
HETATM   17  C6  UNL     1     -17.991  -2.638  28.101  1.00  0.00     0.010 A 
HETATM   18  C7  UNL     1     -19.366  -2.821  27.999  1.00  0.00     0.018 A 
HETATM   19  C8  UNL     1     -20.134  -2.741  29.141  1.00  0.00     0.087 A 
HETATM   20  N3  UNL     1     -19.576  -2.490  30.350  1.00  0.00    -0.375 N 
HETATM   21  C9  UNL     1     -18.248  -2.309  30.487  1.00  0.00     0.095 A 
ATOM     22  H3  UNL     1     -20.174  -2.439  31.174  1.00  0.00     0.164 HD
ENDBRANCH  15  16
ENDBRANCH   6  15
TORSDOF 2
ENDMDL
