MODEL 10
REMARK VINA RESULT: -7.378188435      3.293      5.644
REMARK  2 active torsions:
REMARK  status: ('A' for Active; 'I' for Inactive)
REMARK    1  A    between atoms: C3_6  and  C4_7 
REMARK    2  A    between atoms: C4_7  and  C5_8 
ROOT
HETATM    1  N1  UNL     1     -19.059  -2.846  24.553  1.00  0.00    -0.063 NA
HETATM    2  C1  UNL     1     -19.326  -2.806  25.954  1.00  0.00     0.195 A 
HETATM    3  N2  UNL     1     -18.407  -3.250  26.831  1.00  0.00    -0.328 N 
ATOM      4  H2  UNL     1     -17.519  -3.614  26.485  1.00  0.00     0.168 HD
HETATM    5  C2  UNL     1     -18.641  -3.220  28.165  1.00  0.00     0.075 A 
HETATM    6  C3  UNL     1     -17.883  -3.606  29.248  1.00  0.00    -0.009 A 
HETATM    7  C10 UNL     1     -18.608  -3.353  30.390  1.00  0.00     0.098 A 
HETATM    8  N4  UNL     1     -19.782  -2.827  30.025  1.00  0.00    -0.359 N 
ATOM      9  H4  UNL     1     -20.526  -2.540  30.661  1.00  0.00     0.165 HD
HETATM   10  C11 UNL     1     -19.825  -2.736  28.676  1.00  0.00     0.128 A 
HETATM   11  C12 UNL     1     -20.762  -2.282  27.768  1.00  0.00     0.276 A 
HETATM   12  O1  UNL     1     -21.844  -1.839  28.228  1.00  0.00    -0.266 OA
HETATM   13  N5  UNL     1     -20.479  -2.334  26.455  1.00  0.00    -0.295 N 
ATOM     14  H5  UNL     1     -21.183  -1.995  25.800  1.00  0.00     0.171 HD
ENDROOT
BRANCH   6  15
HETATM   15  C4  UNL     1     -16.510  -4.193  29.141  1.00  0.00     0.082 C 
BRANCH  15  16
HETATM   16  C5  UNL     1     -15.734  -3.714  30.308  1.00  0.00    -0.038 A 
HETATM   17  C6  UNL     1     -15.270  -4.642  31.205  1.00  0.00     0.010 A 
HETATM   18  C7  UNL     1     -14.543  -4.172  32.294  1.00  0.00     0.018 A 
HETATM   19  C8  UNL     1     -14.330  -2.815  32.415  1.00  0.00     0.087 A 
HETATM   20  N3  UNL     1     -14.812  -1.941  31.499  1.00  0.00    -0.375 N 
HETATM   21  C9  UNL     1     -15.519  -2.360  30.432  1.00  0.00     0.095 A 
ATOM     22  H3  UNL     1     -14.635  -0.944  31.619  1.00  0.00     0.164 HD
ENDBRANCH  15  16
ENDBRANCH   6  15
TORSDOF 2
ENDMDL
