MODEL 2
REMARK VINA RESULT: -8.036109264      0.687      1.141
REMARK  2 active torsions:
REMARK  status: ('A' for Active; 'I' for Inactive)
REMARK    1  A    between atoms: C3_6  and  C4_7 
REMARK    2  A    between atoms: C4_7  and  C5_8 
ROOT
HETATM    1  N1  UNL     1     -16.041  -7.248  27.483  1.00  0.00    -0.063 NA
HETATM    2  C1  UNL     1     -15.647  -6.592  28.687  1.00  0.00     0.195 A 
HETATM    3  N2  UNL     1     -15.769  -5.257  28.800  1.00  0.00    -0.328 N 
ATOM      4  H2  UNL     1     -16.146  -4.719  28.019  1.00  0.00     0.168 HD
HETATM    5  C2  UNL     1     -15.400  -4.614  29.935  1.00  0.00     0.075 A 
HETATM    6  C3  UNL     1     -15.423  -3.286  30.298  1.00  0.00    -0.009 A 
HETATM    7  C10 UNL     1     -14.930  -3.184  31.579  1.00  0.00     0.098 A 
HETATM    8  N4  UNL     1     -14.611  -4.413  31.997  1.00  0.00    -0.359 N 
ATOM      9  H4  UNL     1     -14.220  -4.645  32.910  1.00  0.00     0.165 HD
HETATM   10  C11 UNL     1     -14.888  -5.300  31.015  1.00  0.00     0.128 A 
HETATM   11  C12 UNL     1     -14.767  -6.671  30.889  1.00  0.00     0.276 A 
HETATM   12  O1  UNL     1     -14.301  -7.302  31.870  1.00  0.00    -0.266 OA
HETATM   13  N5  UNL     1     -15.148  -7.257  29.741  1.00  0.00    -0.295 N 
ATOM     14  H5  UNL     1     -15.051  -8.270  29.665  1.00  0.00     0.171 HD
ENDROOT
BRANCH   6  15
HETATM   15  C4  UNL     1     -15.912  -2.185  29.409  1.00  0.00     0.082 C 
BRANCH  15  16
HETATM   16  C5  UNL     1     -17.366  -2.389  29.216  1.00  0.00    -0.038 A 
HETATM   17  C6  UNL     1     -18.173  -2.411  30.325  1.00  0.00     0.010 A 
HETATM   18  C7  UNL     1     -19.536  -2.603  30.122  1.00  0.00     0.018 A 
HETATM   19  C8  UNL     1     -19.999  -2.762  28.834  1.00  0.00     0.087 A 
HETATM   20  N3  UNL     1     -19.158  -2.732  27.772  1.00  0.00    -0.375 N 
HETATM   21  C9  UNL     1     -17.833  -2.548  27.931  1.00  0.00     0.095 A 
ATOM     22  H3  UNL     1     -19.536  -2.853  26.832  1.00  0.00     0.164 HD
ENDBRANCH  15  16
ENDBRANCH   6  15
TORSDOF 2
ENDMDL
