MODEL 4
REMARK VINA RESULT: -8.361946759      2.327      5.176
REMARK  14 active torsions:
REMARK  status: ('A' for Active; 'I' for Inactive)
REMARK    1  A    between atoms: O1_2  and  C2_3 
REMARK    2  A    between atoms: C5_6  and  S1_7 
REMARK    3  A    between atoms: S1_7  and  N1_10 
REMARK    4  A    between atoms: N1_10  and  C6_11 
REMARK    5  A    between atoms: N1_10  and  C10_15 
REMARK    6  A    between atoms: C6_11  and  C7_12 
REMARK    7  A    between atoms: C10_15  and  C11_16 
REMARK    8  A    between atoms: C11_16  and  O4_17 
REMARK    9  A    between atoms: C11_16  and  C12_19 
REMARK   10  A    between atoms: C12_19  and  C13_20 
REMARK   11  A    between atoms: C12_19  and  N2_27 
REMARK   12  A    between atoms: C13_20  and  C14_21 
REMARK       I    between atoms: N2_27  and  C20_29 
REMARK   13  A    between atoms: C20_29  and  O6_31 
REMARK   14  A    between atoms: O6_31  and  C21_32 
ROOT
HETATM    1  C11 UNL     1      18.447  24.035  15.936  1.00  0.00     0.160 C 
ENDROOT
BRANCH   1   2
HETATM    2  C10 UNL     1      17.568  23.972  17.134  1.00  0.00     0.174 C 
BRANCH   2   3
HETATM    3  N1  UNL     1      17.450  22.700  17.771  1.00  0.00    -0.283 N 
BRANCH   3   4
HETATM    4  S1  UNL     1      16.771  21.475  16.879  1.00  0.00     0.264 S 
HETATM    5  O2  UNL     1      16.442  21.876  15.441  1.00  0.00    -0.200 OA
HETATM    6  O3  UNL     1      17.761  20.330  16.785  1.00  0.00    -0.200 OA
BRANCH   4   7
HETATM    7  C5  UNL     1      15.340  20.832  17.613  1.00  0.00     0.080 A 
HETATM    8  C4  UNL     1      14.141  20.798  16.895  1.00  0.00     0.028 A 
HETATM    9  C3  UNL     1      13.001  20.315  17.455  1.00  0.00     0.038 A 
HETATM   10  C2  UNL     1      12.965  19.837  18.746  1.00  0.00     0.068 A 
HETATM   11  C27 UNL     1      14.149  19.863  19.474  1.00  0.00     0.038 A 
HETATM   12  C26 UNL     1      15.291  20.352  18.900  1.00  0.00     0.028 A 
BRANCH  10  13
HETATM   13  O1  UNL     1      11.782  19.344  19.305  1.00  0.00    -0.356 OA
HETATM   14  C1  UNL     1      11.857  18.382  20.341  1.00  0.00     0.210 C 
ENDBRANCH  10  13
ENDBRANCH   4   7
ENDBRANCH   3   4
BRANCH   3  15
HETATM   15  C6  UNL     1      18.272  22.450  18.863  1.00  0.00     0.080 C 
BRANCH  15  16
HETATM   16  C7  UNL     1      17.788  22.732  20.238  1.00  0.00     0.017 C 
HETATM   17  C8  UNL     1      18.642  21.867  21.181  1.00  0.00     0.015 C 
HETATM   18  C9  UNL     1      17.974  24.144  20.693  1.00  0.00     0.015 C 
ENDBRANCH  15  16
ENDBRANCH   3  15
ENDBRANCH   2   3
ENDBRANCH   1   2
BRANCH   1  19
HETATM   19  O4  UNL     1      17.837  24.451  14.771  1.00  0.00    -0.392 OA
ATOM     20  H4  UNL     1      17.526  25.349  14.769  1.00  0.00     0.210 HD
ENDBRANCH   1  19
BRANCH   1  21
HETATM   21  C12 UNL     1      19.647  24.900  16.259  1.00  0.00     0.121 C 
BRANCH  21  22
HETATM   22  C13 UNL     1      20.626  25.032  15.126  1.00  0.00     0.066 C 
BRANCH  22  23
HETATM   23  C14 UNL     1      21.216  26.359  14.956  1.00  0.00    -0.056 A 
HETATM   24  C15 UNL     1      20.556  27.338  14.261  1.00  0.00     0.007 A 
HETATM   25  C16 UNL     1      21.127  28.596  14.091  1.00  0.00     0.001 A 
HETATM   26  C17 UNL     1      22.371  28.884  14.618  1.00  0.00     0.000 A 
HETATM   27  C18 UNL     1      23.040  27.904  15.318  1.00  0.00     0.001 A 
HETATM   28  C19 UNL     1      22.451  26.640  15.480  1.00  0.00     0.007 A 
ENDBRANCH  22  23
ENDBRANCH  21  22
BRANCH  21  29
HETATM   29  N2  UNL     1      20.366  24.395  17.412  1.00  0.00    -0.329 N 
HETATM   30  C20 UNL     1      20.615  25.276  18.495  1.00  0.00     0.361 C 
HETATM   31  O5  UNL     1      20.208  26.488  18.448  1.00  0.00    -0.238 OA
ATOM     32  H2  UNL     1      20.687  23.426  17.444  1.00  0.00     0.165 HD
BRANCH  30  33
HETATM   33  O6  UNL     1      21.283  24.902  19.628  1.00  0.00    -0.296 OA
BRANCH  33  34
HETATM   34  C21 UNL     1      22.529  25.415  20.049  1.00  0.00     0.159 C 
HETATM   35  C22 UNL     1      22.393  26.209  21.342  1.00  0.00     0.061 C 
HETATM   36  C23 UNL     1      23.634  25.996  22.162  1.00  0.00     0.173 C 
HETATM   37  O7  UNL     1      24.678  26.821  21.778  1.00  0.00    -0.367 OA
HETATM   38  C24 UNL     1      24.960  26.701  20.416  1.00  0.00     0.337 C 
HETATM   39  O8  UNL     1      23.936  27.240  19.641  1.00  0.00    -0.364 OA
HETATM   40  C25 UNL     1      23.226  26.207  18.985  1.00  0.00     0.203 C 
ENDBRANCH  33  34
ENDBRANCH  30  33
ENDBRANCH  21  29
ENDBRANCH   1  21
TORSDOF 14
ENDMDL
