MODEL 3
REMARK VINA RESULT: -8.383150898      2.485      5.692
REMARK  14 active torsions:
REMARK  status: ('A' for Active; 'I' for Inactive)
REMARK    1  A    between atoms: O1_2  and  C2_3 
REMARK    2  A    between atoms: C5_6  and  S1_7 
REMARK    3  A    between atoms: S1_7  and  N1_10 
REMARK    4  A    between atoms: N1_10  and  C6_11 
REMARK    5  A    between atoms: N1_10  and  C10_15 
REMARK    6  A    between atoms: C6_11  and  C7_12 
REMARK    7  A    between atoms: C10_15  and  C11_16 
REMARK    8  A    between atoms: C11_16  and  O4_17 
REMARK    9  A    between atoms: C11_16  and  C12_19 
REMARK   10  A    between atoms: C12_19  and  C13_20 
REMARK   11  A    between atoms: C12_19  and  N2_27 
REMARK   12  A    between atoms: C13_20  and  C14_21 
REMARK       I    between atoms: N2_27  and  C20_29 
REMARK   13  A    between atoms: C20_29  and  O6_31 
REMARK   14  A    between atoms: O6_31  and  C21_32 
ROOT
HETATM    1  C11 UNL     1      17.322  21.918  18.282  1.00  0.00     0.160 C 
ENDROOT
BRANCH   1   2
HETATM    2  C10 UNL     1      16.868  21.121  17.112  1.00  0.00     0.174 C 
BRANCH   2   3
HETATM    3  N1  UNL     1      15.466  21.130  16.841  1.00  0.00    -0.283 N 
BRANCH   3   4
HETATM    4  S1  UNL     1      14.962  22.020  15.534  1.00  0.00     0.264 S 
HETATM    5  O2  UNL     1      14.628  23.472  15.875  1.00  0.00    -0.200 OA
HETATM    6  O3  UNL     1      16.081  22.070  14.512  1.00  0.00    -0.200 OA
BRANCH   4   7
HETATM    7  C5  UNL     1      13.597  21.313  14.735  1.00  0.00     0.080 A 
HETATM    8  C4  UNL     1      13.789  20.311  13.778  1.00  0.00     0.028 A 
HETATM    9  C3  UNL     1      12.737  19.753  13.124  1.00  0.00     0.038 A 
HETATM   10  C2  UNL     1      11.437  20.139  13.366  1.00  0.00     0.068 A 
HETATM   11  C27 UNL     1      11.227  21.134  14.314  1.00  0.00     0.038 A 
HETATM   12  C26 UNL     1      12.295  21.689  14.966  1.00  0.00     0.028 A 
BRANCH  10  13
HETATM   13  O1  UNL     1      10.367  19.554  12.683  1.00  0.00    -0.356 OA
HETATM   14  C1  UNL     1      10.498  19.277  11.301  1.00  0.00     0.210 C 
ENDBRANCH  10  13
ENDBRANCH   4   7
ENDBRANCH   3   4
BRANCH   3  15
HETATM   15  C6  UNL     1      14.705  20.093  17.367  1.00  0.00     0.080 C 
BRANCH  15  16
HETATM   16  C7  UNL     1      13.745  20.361  18.468  1.00  0.00     0.017 C 
HETATM   17  C8  UNL     1      12.396  19.778  18.015  1.00  0.00     0.015 C 
HETATM   18  C9  UNL     1      14.070  19.689  19.763  1.00  0.00     0.015 C 
ENDBRANCH  15  16
ENDBRANCH   3  15
ENDBRANCH   2   3
ENDBRANCH   1   2
BRANCH   1  19
HETATM   19  O4  UNL     1      18.116  21.246  19.188  1.00  0.00    -0.392 OA
ATOM     20  H4  UNL     1      19.009  21.562  19.265  1.00  0.00     0.210 HD
ENDBRANCH   1  19
BRANCH   1  21
HETATM   21  C12 UNL     1      18.012  23.168  17.780  1.00  0.00     0.121 C 
BRANCH  21  22
HETATM   22  C13 UNL     1      18.629  23.018  16.417  1.00  0.00     0.066 C 
BRANCH  22  23
HETATM   23  C14 UNL     1      18.914  24.267  15.713  1.00  0.00    -0.056 A 
HETATM   24  C15 UNL     1      17.897  25.082  15.289  1.00  0.00     0.007 A 
HETATM   25  C16 UNL     1      18.172  26.264  14.608  1.00  0.00     0.001 A 
HETATM   26  C17 UNL     1      19.475  26.643  14.347  1.00  0.00     0.000 A 
HETATM   27  C18 UNL     1      20.502  25.828  14.772  1.00  0.00     0.001 A 
HETATM   28  C19 UNL     1      20.208  24.638  15.456  1.00  0.00     0.007 A 
ENDBRANCH  22  23
ENDBRANCH  21  22
BRANCH  21  29
HETATM   29  N2  UNL     1      19.052  23.601  18.694  1.00  0.00    -0.329 N 
HETATM   30  C20 UNL     1      18.718  24.541  19.702  1.00  0.00     0.361 C 
HETATM   31  O5  UNL     1      17.525  24.991  19.797  1.00  0.00    -0.238 OA
ATOM     32  H2  UNL     1      20.002  23.237  18.613  1.00  0.00     0.165 HD
BRANCH  30  33
HETATM   33  O6  UNL     1      19.622  25.014  20.613  1.00  0.00    -0.296 OA
BRANCH  33  34
HETATM   34  C21 UNL     1      20.845  25.646  20.300  1.00  0.00     0.159 C 
HETATM   35  C22 UNL     1      21.370  26.453  21.480  1.00  0.00     0.061 C 
HETATM   36  C23 UNL     1      22.870  26.370  21.481  1.00  0.00     0.173 C 
HETATM   37  O7  UNL     1      23.457  27.277  20.613  1.00  0.00    -0.367 OA
HETATM   38  C24 UNL     1      22.957  27.152  19.317  1.00  0.00     0.337 C 
HETATM   39  O8  UNL     1      21.633  27.580  19.245  1.00  0.00    -0.364 OA
HETATM   40  C25 UNL     1      20.773  26.473  19.053  1.00  0.00     0.203 C 
ENDBRANCH  33  34
ENDBRANCH  30  33
ENDBRANCH  21  29
ENDBRANCH   1  21
TORSDOF 14
ENDMDL
