MODEL 6
REMARK VINA RESULT: -8.325089303      2.041      8.213
REMARK  14 active torsions:
REMARK  status: ('A' for Active; 'I' for Inactive)
REMARK    1  A    between atoms: O1_2  and  C2_3 
REMARK    2  A    between atoms: C5_6  and  S1_7 
REMARK    3  A    between atoms: S1_7  and  N1_10 
REMARK    4  A    between atoms: N1_10  and  C6_11 
REMARK    5  A    between atoms: N1_10  and  C10_15 
REMARK    6  A    between atoms: C6_11  and  C7_12 
REMARK    7  A    between atoms: C10_15  and  C11_16 
REMARK    8  A    between atoms: C11_16  and  O4_17 
REMARK    9  A    between atoms: C11_16  and  C12_19 
REMARK   10  A    between atoms: C12_19  and  C13_20 
REMARK   11  A    between atoms: C12_19  and  N2_27 
REMARK   12  A    between atoms: C13_20  and  C14_21 
REMARK       I    between atoms: N2_27  and  C20_29 
REMARK   13  A    between atoms: C20_29  and  O6_31 
REMARK   14  A    between atoms: O6_31  and  C21_32 
ROOT
HETATM    1  C11 UNL     1      15.130  23.853  17.937  1.00  0.00     0.160 C 
ENDROOT
BRANCH   1   2
HETATM    2  C10 UNL     1      16.135  24.781  17.352  1.00  0.00     0.174 C 
BRANCH   2   3
HETATM    3  N1  UNL     1      17.505  24.405  17.493  1.00  0.00    -0.283 N 
BRANCH   3   4
HETATM    4  S1  UNL     1      18.311  23.979  16.105  1.00  0.00     0.264 S 
HETATM    5  O2  UNL     1      19.157  22.715  16.253  1.00  0.00    -0.200 OA
HETATM    6  O3  UNL     1      17.295  23.687  15.018  1.00  0.00    -0.200 OA
BRANCH   4   7
HETATM    7  C5  UNL     1      19.321  25.252  15.506  1.00  0.00     0.080 A 
HETATM    8  C4  UNL     1      18.759  26.482  15.151  1.00  0.00     0.028 A 
HETATM    9  C3  UNL     1      19.527  27.491  14.661  1.00  0.00     0.038 A 
HETATM   10  C2  UNL     1      20.887  27.358  14.490  1.00  0.00     0.068 A 
HETATM   11  C27 UNL     1      21.463  26.142  14.839  1.00  0.00     0.038 A 
HETATM   12  C26 UNL     1      20.679  25.133  15.331  1.00  0.00     0.028 A 
BRANCH  10  13
HETATM   13  O1  UNL     1      21.661  28.407  13.985  1.00  0.00    -0.356 OA
HETATM   14  C1  UNL     1      22.724  28.919  14.767  1.00  0.00     0.210 C 
ENDBRANCH  10  13
ENDBRANCH   4   7
ENDBRANCH   3   4
BRANCH   3  15
HETATM   15  C6  UNL     1      18.174  24.832  18.634  1.00  0.00     0.080 C 
BRANCH  15  16
HETATM   16  C7  UNL     1      18.833  23.842  19.523  1.00  0.00     0.017 C 
HETATM   17  C8  UNL     1      19.343  24.631  20.741  1.00  0.00     0.015 C 
HETATM   18  C9  UNL     1      17.927  22.785  20.067  1.00  0.00     0.015 C 
ENDBRANCH  15  16
ENDBRANCH   3  15
ENDBRANCH   2   3
ENDBRANCH   1   2
BRANCH   1  19
HETATM   19  O4  UNL     1      13.943  24.434  18.333  1.00  0.00    -0.392 OA
ATOM     20  H4  UNL     1      13.207  24.305  17.746  1.00  0.00     0.210 HD
ENDBRANCH   1  19
BRANCH   1  21
HETATM   21  C12 UNL     1      14.882  22.727  16.956  1.00  0.00     0.121 C 
BRANCH  21  22
HETATM   22  C13 UNL     1      13.906  23.072  15.865  1.00  0.00     0.066 C 
BRANCH  22  23
HETATM   23  C14 UNL     1      13.521  21.965  14.991  1.00  0.00    -0.056 A 
HETATM   24  C15 UNL     1      14.447  21.345  14.193  1.00  0.00     0.007 A 
HETATM   25  C16 UNL     1      14.074  20.300  13.353  1.00  0.00     0.001 A 
HETATM   26  C17 UNL     1      12.764  19.865  13.306  1.00  0.00     0.000 A 
HETATM   27  C18 UNL     1      11.827  20.484  14.106  1.00  0.00     0.001 A 
HETATM   28  C19 UNL     1      12.220  21.537  14.947  1.00  0.00     0.007 A 
ENDBRANCH  22  23
ENDBRANCH  21  22
BRANCH  21  29
HETATM   29  N2  UNL     1      14.394  21.539  17.629  1.00  0.00    -0.329 N 
HETATM   30  C20 UNL     1      15.307  20.486  17.891  1.00  0.00     0.361 C 
HETATM   31  O5  UNL     1      16.532  20.590  17.538  1.00  0.00    -0.238 OA
ATOM     32  H2  UNL     1      13.416  21.462  17.909  1.00  0.00     0.165 HD
BRANCH  30  33
HETATM   33  O6  UNL     1      14.952  19.324  18.519  1.00  0.00    -0.296 OA
BRANCH  33  34
HETATM   34  C21 UNL     1      13.639  18.969  18.899  1.00  0.00     0.159 C 
HETATM   35  C22 UNL     1      13.628  18.227  20.229  1.00  0.00     0.061 C 
HETATM   36  C23 UNL     1      12.383  18.611  20.976  1.00  0.00     0.173 C 
HETATM   37  O7  UNL     1      11.272  17.886  20.575  1.00  0.00    -0.367 OA
HETATM   38  C24 UNL     1      11.067  17.972  19.198  1.00  0.00     0.337 C 
HETATM   39  O8  UNL     1      12.060  17.289  18.497  1.00  0.00    -0.364 OA
HETATM   40  C25 UNL     1      12.907  18.208  17.835  1.00  0.00     0.203 C 
ENDBRANCH  33  34
ENDBRANCH  30  33
ENDBRANCH  21  29
ENDBRANCH   1  21
TORSDOF 14
ENDMDL
