MODEL 1
REMARK VINA RESULT: -8.583548747      0.000      0.000
REMARK  14 active torsions:
REMARK  status: ('A' for Active; 'I' for Inactive)
REMARK    1  A    between atoms: O1_2  and  C2_3 
REMARK    2  A    between atoms: C5_6  and  S1_7 
REMARK    3  A    between atoms: S1_7  and  N1_10 
REMARK    4  A    between atoms: N1_10  and  C6_11 
REMARK    5  A    between atoms: N1_10  and  C10_15 
REMARK    6  A    between atoms: C6_11  and  C7_12 
REMARK    7  A    between atoms: C10_15  and  C11_16 
REMARK    8  A    between atoms: C11_16  and  O4_17 
REMARK    9  A    between atoms: C11_16  and  C12_19 
REMARK   10  A    between atoms: C12_19  and  C13_20 
REMARK   11  A    between atoms: C12_19  and  N2_27 
REMARK   12  A    between atoms: C13_20  and  C14_21 
REMARK       I    between atoms: N2_27  and  C20_29 
REMARK   13  A    between atoms: C20_29  and  O6_31 
REMARK   14  A    between atoms: O6_31  and  C21_32 
ROOT
HETATM    1  C11 UNL     1      16.905  24.759  16.840  1.00  0.00     0.160 C 
ENDROOT
BRANCH   1   2
HETATM    2  C10 UNL     1      18.211  24.536  17.516  1.00  0.00     0.174 C 
BRANCH   2   3
HETATM    3  N1  UNL     1      18.192  23.714  18.683  1.00  0.00    -0.283 N 
BRANCH   3   4
HETATM    4  S1  UNL     1      18.088  22.074  18.443  1.00  0.00     0.264 S 
HETATM    5  O2  UNL     1      18.803  21.595  17.181  1.00  0.00    -0.200 OA
HETATM    6  O3  UNL     1      18.754  21.364  19.605  1.00  0.00    -0.200 OA
BRANCH   4   7
HETATM    7  C5  UNL     1      16.449  21.513  18.395  1.00  0.00     0.080 A 
HETATM    8  C4  UNL     1      15.406  22.371  18.756  1.00  0.00     0.028 A 
HETATM    9  C3  UNL     1      14.114  21.950  18.744  1.00  0.00     0.038 A 
HETATM   10  C2  UNL     1      13.766  20.668  18.381  1.00  0.00     0.068 A 
HETATM   11  C27 UNL     1      14.791  19.801  18.020  1.00  0.00     0.038 A 
HETATM   12  C26 UNL     1      16.088  20.236  18.035  1.00  0.00     0.028 A 
BRANCH  10  13
HETATM   13  O1  UNL     1      12.431  20.251  18.376  1.00  0.00    -0.356 OA
HETATM   14  C1  UNL     1      12.070  19.102  17.634  1.00  0.00     0.210 C 
ENDBRANCH  10  13
ENDBRANCH   4   7
ENDBRANCH   3   4
BRANCH   3  15
HETATM   15  C6  UNL     1      18.694  24.257  19.860  1.00  0.00     0.080 C 
BRANCH  15  16
HETATM   16  C7  UNL     1      19.908  25.112  19.824  1.00  0.00     0.017 C 
HETATM   17  C8  UNL     1      20.180  25.533  21.278  1.00  0.00     0.015 C 
HETATM   18  C9  UNL     1      21.149  24.423  19.355  1.00  0.00     0.015 C 
ENDBRANCH  15  16
ENDBRANCH   3  15
ENDBRANCH   2   3
ENDBRANCH   1   2
BRANCH   1  19
HETATM   19  O4  UNL     1      16.354  26.012  17.008  1.00  0.00    -0.392 OA
ATOM     20  H4  UNL     1      16.973  26.732  17.038  1.00  0.00     0.210 HD
ENDBRANCH   1  19
BRANCH   1  21
HETATM   21  C12 UNL     1      17.057  24.425  15.371  1.00  0.00     0.121 C 
BRANCH  21  22
HETATM   22  C13 UNL     1      16.763  22.989  15.038  1.00  0.00     0.066 C 
BRANCH  22  23
HETATM   23  C14 UNL     1      15.347  22.629  15.003  1.00  0.00    -0.056 A 
HETATM   24  C15 UNL     1      14.379  23.547  15.318  1.00  0.00     0.007 A 
HETATM   25  C16 UNL     1      13.033  23.196  15.295  1.00  0.00     0.001 A 
HETATM   26  C17 UNL     1      12.642  21.916  14.955  1.00  0.00     0.000 A 
HETATM   27  C18 UNL     1      13.610  20.987  14.638  1.00  0.00     0.001 A 
HETATM   28  C19 UNL     1      14.963  21.356  14.666  1.00  0.00     0.007 A 
ENDBRANCH  22  23
ENDBRANCH  21  22
BRANCH  21  29
HETATM   29  N2  UNL     1      18.394  24.727  14.898  1.00  0.00    -0.329 N 
HETATM   30  C20 UNL     1      18.653  26.022  14.379  1.00  0.00     0.361 C 
HETATM   31  O5  UNL     1      17.722  26.898  14.336  1.00  0.00    -0.238 OA
ATOM     32  H2  UNL     1      19.132  24.024  14.936  1.00  0.00     0.165 HD
BRANCH  30  33
HETATM   33  O6  UNL     1      19.877  26.409  13.907  1.00  0.00    -0.296 OA
BRANCH  33  34
HETATM   34  C21 UNL     1      20.841  27.139  14.636  1.00  0.00     0.159 C 
HETATM   35  C22 UNL     1      20.662  26.947  16.137  1.00  0.00     0.061 C 
HETATM   36  C23 UNL     1      22.020  26.953  16.780  1.00  0.00     0.173 C 
HETATM   37  O7  UNL     1      22.498  28.233  17.011  1.00  0.00    -0.367 OA
HETATM   38  C24 UNL     1      22.500  29.003  15.848  1.00  0.00     0.337 C 
HETATM   39  O8  UNL     1      21.202  29.306  15.442  1.00  0.00    -0.364 OA
HETATM   40  C25 UNL     1      20.880  28.590  14.265  1.00  0.00     0.203 C 
ENDBRANCH  33  34
ENDBRANCH  30  33
ENDBRANCH  21  29
ENDBRANCH   1  21
TORSDOF 14
ENDMDL
