MODEL 2
REMARK VINA RESULT: -8.430438101      1.981      8.578
REMARK  14 active torsions:
REMARK  status: ('A' for Active; 'I' for Inactive)
REMARK    1  A    between atoms: O1_2  and  C2_3 
REMARK    2  A    between atoms: C5_6  and  S1_7 
REMARK    3  A    between atoms: S1_7  and  N1_10 
REMARK    4  A    between atoms: N1_10  and  C6_11 
REMARK    5  A    between atoms: N1_10  and  C10_15 
REMARK    6  A    between atoms: C6_11  and  C7_12 
REMARK    7  A    between atoms: C10_15  and  C11_16 
REMARK    8  A    between atoms: C11_16  and  O4_17 
REMARK    9  A    between atoms: C11_16  and  C12_19 
REMARK   10  A    between atoms: C12_19  and  C13_20 
REMARK   11  A    between atoms: C12_19  and  N2_27 
REMARK   12  A    between atoms: C13_20  and  C14_21 
REMARK       I    between atoms: N2_27  and  C20_29 
REMARK   13  A    between atoms: C20_29  and  O6_31 
REMARK   14  A    between atoms: O6_31  and  C21_32 
ROOT
HETATM    1  C11 UNL     1      15.058  23.873  17.916  1.00  0.00     0.160 C 
ENDROOT
BRANCH   1   2
HETATM    2  C10 UNL     1      16.052  24.543  17.036  1.00  0.00     0.174 C 
BRANCH   2   3
HETATM    3  N1  UNL     1      17.424  24.408  17.408  1.00  0.00    -0.283 N 
BRANCH   3   4
HETATM    4  S1  UNL     1      18.530  24.313  16.173  1.00  0.00     0.264 S 
HETATM    5  O2  UNL     1      19.541  23.180  16.343  1.00  0.00    -0.200 OA
HETATM    6  O3  UNL     1      17.794  24.034  14.877  1.00  0.00    -0.200 OA
BRANCH   4   7
HETATM    7  C5  UNL     1      19.395  25.796  15.940  1.00  0.00     0.080 A 
HETATM    8  C4  UNL     1      20.469  26.117  16.776  1.00  0.00     0.028 A 
HETATM    9  C3  UNL     1      21.152  27.282  16.625  1.00  0.00     0.038 A 
HETATM   10  C2  UNL     1      20.827  28.200  15.652  1.00  0.00     0.068 A 
HETATM   11  C27 UNL     1      19.762  27.897  14.811  1.00  0.00     0.038 A 
HETATM   12  C26 UNL     1      19.081  26.720  14.973  1.00  0.00     0.028 A 
BRANCH  10  13
HETATM   13  O1  UNL     1      21.541  29.394  15.512  1.00  0.00    -0.356 OA
HETATM   14  C1  UNL     1      22.955  29.363  15.572  1.00  0.00     0.210 C 
ENDBRANCH  10  13
ENDBRANCH   4   7
ENDBRANCH   3   4
BRANCH   3  15
HETATM   15  C6  UNL     1      17.783  24.802  18.691  1.00  0.00     0.080 C 
BRANCH  15  16
HETATM   16  C7  UNL     1      18.623  23.914  19.534  1.00  0.00     0.017 C 
HETATM   17  C8  UNL     1      18.787  24.632  20.885  1.00  0.00     0.015 C 
HETATM   18  C9  UNL     1      18.017  22.584  19.845  1.00  0.00     0.015 C 
ENDBRANCH  15  16
ENDBRANCH   3  15
ENDBRANCH   2   3
ENDBRANCH   1   2
BRANCH   1  19
HETATM   19  O4  UNL     1      14.045  24.681  18.392  1.00  0.00    -0.392 OA
ATOM     20  H4  UNL     1      13.724  24.467  19.260  1.00  0.00     0.210 HD
ENDBRANCH   1  19
BRANCH   1  21
HETATM   21  C12 UNL     1      14.495  22.672  17.185  1.00  0.00     0.121 C 
BRANCH  21  22
HETATM   22  C13 UNL     1      13.699  23.023  15.959  1.00  0.00     0.066 C 
BRANCH  22  23
HETATM   23  C14 UNL     1      13.377  21.902  15.077  1.00  0.00    -0.056 A 
HETATM   24  C15 UNL     1      14.363  21.231  14.403  1.00  0.00     0.007 A 
HETATM   25  C16 UNL     1      14.050  20.173  13.555  1.00  0.00     0.001 A 
HETATM   26  C17 UNL     1      12.739  19.776  13.374  1.00  0.00     0.000 A 
HETATM   27  C18 UNL     1      11.742  20.448  14.048  1.00  0.00     0.001 A 
HETATM   28  C19 UNL     1      12.074  21.513  14.900  1.00  0.00     0.007 A 
ENDBRANCH  22  23
ENDBRANCH  21  22
BRANCH  21  29
HETATM   29  N2  UNL     1      13.647  21.877  18.053  1.00  0.00    -0.329 N 
HETATM   30  C20 UNL     1      14.225  20.782  18.745  1.00  0.00     0.361 C 
HETATM   31  O5  UNL     1      15.466  20.510  18.602  1.00  0.00    -0.238 OA
ATOM     32  H2  UNL     1      12.658  22.101  18.163  1.00  0.00     0.165 HD
BRANCH  30  33
HETATM   33  O6  UNL     1      13.516  19.969  19.586  1.00  0.00    -0.296 OA
BRANCH  33  34
HETATM   34  C21 UNL     1      12.610  18.965  19.181  1.00  0.00     0.159 C 
HETATM   35  C22 UNL     1      11.710  19.452  18.053  1.00  0.00     0.061 C 
HETATM   36  C23 UNL     1      11.435  18.297  17.133  1.00  0.00     0.173 C 
HETATM   37  O7  UNL     1      10.409  17.483  17.586  1.00  0.00    -0.367 OA
HETATM   38  C24 UNL     1      10.640  17.034  18.887  1.00  0.00     0.337 C 
HETATM   39  O8  UNL     1      10.537  18.077  19.805  1.00  0.00    -0.364 OA
HETATM   40  C25 UNL     1      11.814  18.401  20.319  1.00  0.00     0.203 C 
ENDBRANCH  33  34
ENDBRANCH  30  33
ENDBRANCH  21  29
ENDBRANCH   1  21
TORSDOF 14
ENDMDL
