MODEL 7
REMARK VINA RESULT: -8.319406385      1.962      8.692
REMARK  14 active torsions:
REMARK  status: ('A' for Active; 'I' for Inactive)
REMARK    1  A    between atoms: O1_2  and  C2_3 
REMARK    2  A    between atoms: C5_6  and  S1_7 
REMARK    3  A    between atoms: S1_7  and  N1_10 
REMARK    4  A    between atoms: N1_10  and  C6_11 
REMARK    5  A    between atoms: N1_10  and  C10_15 
REMARK    6  A    between atoms: C6_11  and  C7_12 
REMARK    7  A    between atoms: C10_15  and  C11_16 
REMARK    8  A    between atoms: C11_16  and  O4_17 
REMARK    9  A    between atoms: C11_16  and  C12_19 
REMARK   10  A    between atoms: C12_19  and  C13_20 
REMARK   11  A    between atoms: C12_19  and  N2_27 
REMARK   12  A    between atoms: C13_20  and  C14_21 
REMARK       I    between atoms: N2_27  and  C20_29 
REMARK   13  A    between atoms: C20_29  and  O6_31 
REMARK   14  A    between atoms: O6_31  and  C21_32 
ROOT
HETATM    1  C11 UNL     1      16.904  23.258  18.722  1.00  0.00     0.160 C 
ENDROOT
BRANCH   1   2
HETATM    2  C10 UNL     1      16.957  24.615  18.115  1.00  0.00     0.174 C 
BRANCH   2   3
HETATM    3  N1  UNL     1      18.223  25.037  17.608  1.00  0.00    -0.283 N 
BRANCH   3   4
HETATM    4  S1  UNL     1      18.347  25.223  15.963  1.00  0.00     0.264 S 
HETATM    5  O2  UNL     1      18.523  23.906  15.210  1.00  0.00    -0.200 OA
HETATM    6  O3  UNL     1      17.065  25.843  15.442  1.00  0.00    -0.200 OA
BRANCH   4   7
HETATM    7  C5  UNL     1      19.631  26.294  15.510  1.00  0.00     0.080 A 
HETATM    8  C4  UNL     1      20.946  25.820  15.447  1.00  0.00     0.028 A 
HETATM    9  C3  UNL     1      21.973  26.644  15.112  1.00  0.00     0.038 A 
HETATM   10  C2  UNL     1      21.779  27.976  14.820  1.00  0.00     0.068 A 
HETATM   11  C27 UNL     1      20.478  28.463  14.878  1.00  0.00     0.038 A 
HETATM   12  C26 UNL     1      19.451  27.624  15.217  1.00  0.00     0.028 A 
BRANCH  10  13
HETATM   13  O1  UNL     1      22.848  28.808  14.478  1.00  0.00    -0.356 OA
HETATM   14  C1  UNL     1      23.789  29.167  15.472  1.00  0.00     0.210 C 
ENDBRANCH  10  13
ENDBRANCH   4   7
ENDBRANCH   3   4
BRANCH   3  15
HETATM   15  C6  UNL     1      19.088  25.672  18.490  1.00  0.00     0.080 C 
BRANCH  15  16
HETATM   16  C7  UNL     1      20.125  24.888  19.208  1.00  0.00     0.017 C 
HETATM   17  C8  UNL     1      21.421  25.713  19.129  1.00  0.00     0.015 C 
HETATM   18  C9  UNL     1      19.859  24.678  20.664  1.00  0.00     0.015 C 
ENDBRANCH  15  16
ENDBRANCH   3  15
ENDBRANCH   2   3
ENDBRANCH   1   2
BRANCH   1  19
HETATM   19  O4  UNL     1      16.674  23.222  20.082  1.00  0.00    -0.392 OA
ATOM     20  H4  UNL     1      15.762  23.256  20.345  1.00  0.00     0.210 HD
ENDBRANCH   1  19
BRANCH   1  21
HETATM   21  C12 UNL     1      15.876  22.433  17.977  1.00  0.00     0.121 C 
BRANCH  21  22
HETATM   22  C13 UNL     1      15.150  23.192  16.901  1.00  0.00     0.066 C 
BRANCH  22  23
HETATM   23  C14 UNL     1      14.800  22.417  15.711  1.00  0.00    -0.056 A 
HETATM   24  C15 UNL     1      13.680  21.627  15.690  1.00  0.00     0.007 A 
HETATM   25  C16 UNL     1      13.359  20.881  14.560  1.00  0.00     0.001 A 
HETATM   26  C17 UNL     1      14.161  20.921  13.436  1.00  0.00     0.000 A 
HETATM   27  C18 UNL     1      15.288  21.713  13.450  1.00  0.00     0.001 A 
HETATM   28  C19 UNL     1      15.599  22.459  14.598  1.00  0.00     0.007 A 
ENDBRANCH  22  23
ENDBRANCH  21  22
BRANCH  21  29
HETATM   29  N2  UNL     1      14.884  21.885  18.881  1.00  0.00    -0.329 N 
HETATM   30  C20 UNL     1      14.780  20.475  18.998  1.00  0.00     0.361 C 
HETATM   31  O5  UNL     1      15.550  19.712  18.319  1.00  0.00    -0.238 OA
ATOM     32  H2  UNL     1      14.274  22.500  19.421  1.00  0.00     0.165 HD
BRANCH  30  33
HETATM   33  O6  UNL     1      13.880  19.856  19.821  1.00  0.00    -0.296 OA
BRANCH  33  34
HETATM   34  C21 UNL     1      12.862  18.972  19.401  1.00  0.00     0.159 C 
HETATM   35  C22 UNL     1      12.043  19.570  18.264  1.00  0.00     0.061 C 
HETATM   36  C23 UNL     1      11.640  18.460  17.336  1.00  0.00     0.173 C 
HETATM   37  O7  UNL     1      10.516  17.777  17.773  1.00  0.00    -0.367 OA
HETATM   38  C24 UNL     1      10.673  17.299  19.074  1.00  0.00     0.337 C 
HETATM   39  O8  UNL     1      10.688  18.344  19.996  1.00  0.00    -0.364 OA
HETATM   40  C25 UNL     1      11.989  18.507  20.526  1.00  0.00     0.203 C 
ENDBRANCH  33  34
ENDBRANCH  30  33
ENDBRANCH  21  29
ENDBRANCH   1  21
TORSDOF 14
ENDMDL
