MODEL 1
REMARK VINA RESULT: -6.057253927      0.000      0.000
REMARK  6 active torsions:
REMARK  status: ('A' for Active; 'I' for Inactive)
REMARK    1  A    between atoms: N1_5  and  C4_6 
REMARK    2  A    between atoms: C5_8  and  C6_9 
REMARK    3  A    between atoms: C6_9  and  O3_10 
REMARK    4  A    between atoms: C7_12  and  O4_13 
REMARK    5  A    between atoms: C8_15  and  O5_16 
REMARK    6  A    between atoms: O5_16  and  P1_17 
ROOT
HETATM    1  C4  UNL     1      30.107  39.826   8.510  1.00  0.00     0.264 C 
HETATM    2  O2  UNL     1      29.473  40.938   9.026  1.00  0.00    -0.353 OA
HETATM    3  C5  UNL     1      30.196  41.408  10.089  1.00  0.00     0.179 C 
HETATM    4  C7  UNL     1      31.639  41.175   9.619  1.00  0.00     0.183 C 
HETATM    5  C8  UNL     1      31.469  39.752   9.102  1.00  0.00     0.216 C 
ENDROOT
BRANCH   1   6
HETATM    6  N1  UNL     1      30.048  39.881   7.086  1.00  0.00    -0.280 N 
HETATM    7  C3  UNL     1      30.114  41.014   6.368  1.00  0.00     0.104 A 
HETATM    8  C2  UNL     1      30.048  40.940   4.997  1.00  0.00     0.092 A 
HETATM    9  C1  UNL     1      29.915  39.743   4.316  1.00  0.00     0.250 A 
HETATM   10  O1  UNL     1      29.854  39.672   3.058  1.00  0.00    -0.268 OA
HETATM   11  N2  UNL     1      29.854  38.630   5.082  1.00  0.00    -0.275 N 
HETATM   12  C9  UNL     1      29.919  38.719   6.411  1.00  0.00     0.331 A 
ATOM     13  H2  UNL     1      29.757  37.716   4.640  1.00  0.00     0.173 HD
HETATM   14  O9  UNL     1      29.853  37.614   7.049  1.00  0.00    -0.246 OA
ENDBRANCH   1   6
BRANCH   5  15
HETATM   15  O5  UNL     1      31.430  38.926  10.205  1.00  0.00    -0.270 OA
BRANCH  15  16
HETATM   16  P1  UNL     1      32.392  37.667  10.319  1.00  0.00     0.422 P 
HETATM   17  O6  UNL     1      33.471  37.258   9.105  1.00  0.00    -0.617 OA
HETATM   18  O7  UNL     1      32.283  36.589  11.621  1.00  0.00    -0.617 OA
HETATM   19  O8  UNL     1      33.527  38.376  11.078  1.00  0.00    -0.617 OA
ENDBRANCH  15  16
ENDBRANCH   5  15
BRANCH   3  20
HETATM   20  C6  UNL     1      29.978  42.881  10.343  1.00  0.00     0.198 C 
BRANCH  20  21
HETATM   21  O3  UNL     1      30.958  43.618   9.729  1.00  0.00    -0.398 OA
ATOM     22  H3  UNL     1      30.864  43.566   8.785  1.00  0.00     0.209 HD
ENDBRANCH  20  21
ENDBRANCH   3  20
BRANCH   4  23
HETATM   23  O4  UNL     1      32.528  41.259  10.665  1.00  0.00    -0.390 OA
ATOM     24  H4  UNL     1      33.405  41.010  10.396  1.00  0.00     0.210 HD
ENDBRANCH   4  23
TORSDOF 6
ENDMDL
