MODEL 11
REMARK VINA RESULT: -5.483101487      4.031      6.238
REMARK  6 active torsions:
REMARK  status: ('A' for Active; 'I' for Inactive)
REMARK    1  A    between atoms: N1_5  and  C4_6 
REMARK    2  A    between atoms: C5_8  and  C6_9 
REMARK    3  A    between atoms: C6_9  and  O3_10 
REMARK    4  A    between atoms: C7_12  and  O4_13 
REMARK    5  A    between atoms: C8_15  and  O5_16 
REMARK    6  A    between atoms: O5_16  and  P1_17 
ROOT
HETATM    1  C4  UNL     1      30.122  42.830   5.424  1.00  0.00     0.264 C 
HETATM    2  O2  UNL     1      31.115  43.305   6.256  1.00  0.00    -0.353 OA
HETATM    3  C5  UNL     1      30.670  44.439   6.878  1.00  0.00     0.179 C 
HETATM    4  C7  UNL     1      29.194  44.105   7.130  1.00  0.00     0.183 C 
HETATM    5  C8  UNL     1      28.861  43.548   5.751  1.00  0.00     0.216 C 
ENDROOT
BRANCH   1   6
HETATM    6  N1  UNL     1      30.074  41.409   5.525  1.00  0.00    -0.280 N 
HETATM    7  C3  UNL     1      30.138  40.729   6.681  1.00  0.00     0.104 A 
HETATM    8  C2  UNL     1      30.081  39.355   6.652  1.00  0.00     0.092 A 
HETATM    9  C1  UNL     1      29.961  38.635   5.477  1.00  0.00     0.250 A 
HETATM   10  O1  UNL     1      29.908  37.375   5.447  1.00  0.00    -0.268 OA
HETATM   11  N2  UNL     1      29.900  39.364   4.339  1.00  0.00    -0.275 N 
HETATM   12  C9  UNL     1      29.957  40.695   4.385  1.00  0.00     0.331 A 
ATOM     13  H2  UNL     1      29.809  38.891   3.440  1.00  0.00     0.173 HD
HETATM   14  O9  UNL     1      29.892  41.296   3.259  1.00  0.00    -0.246 OA
ENDBRANCH   1   6
BRANCH   5  15
HETATM   15  O5  UNL     1      28.730  44.627   4.903  1.00  0.00    -0.270 OA
BRANCH  15  16
HETATM   16  P1  UNL     1      27.668  44.616   3.722  1.00  0.00     0.422 P 
HETATM   17  O6  UNL     1      27.968  43.850   2.262  1.00  0.00    -0.617 OA
HETATM   18  O7  UNL     1      26.224  45.494   3.827  1.00  0.00    -0.617 OA
HETATM   19  O8  UNL     1      26.883  43.382   4.199  1.00  0.00    -0.617 OA
ENDBRANCH  15  16
ENDBRANCH   5  15
BRANCH   3  20
HETATM   20  C6  UNL     1      31.363  44.699   8.194  1.00  0.00     0.198 C 
BRANCH  20  21
HETATM   21  O3  UNL     1      30.644  44.148   9.225  1.00  0.00    -0.398 OA
ATOM     22  H3  UNL     1      29.829  44.620   9.345  1.00  0.00     0.209 HD
ENDBRANCH  20  21
ENDBRANCH   3  20
BRANCH   4  23
HETATM   23  O4  UNL     1      28.467  45.232   7.438  1.00  0.00    -0.390 OA
ATOM     24  H4  UNL     1      28.292  45.288   8.370  1.00  0.00     0.210 HD
ENDBRANCH   4  23
TORSDOF 6
ENDMDL
