MODEL 2
REMARK VINA RESULT: -5.924787028      0.588      1.119
REMARK  6 active torsions:
REMARK  status: ('A' for Active; 'I' for Inactive)
REMARK    1  A    between atoms: N1_5  and  C4_6 
REMARK    2  A    between atoms: C5_8  and  C6_9 
REMARK    3  A    between atoms: C6_9  and  O3_10 
REMARK    4  A    between atoms: C7_12  and  O4_13 
REMARK    5  A    between atoms: C8_15  and  O5_16 
REMARK    6  A    between atoms: O5_16  and  P1_17 
ROOT
HETATM    1  C4  UNL     1      30.020  39.388   8.186  1.00  0.00     0.264 C 
HETATM    2  O2  UNL     1      29.223  40.305   8.840  1.00  0.00    -0.353 OA
HETATM    3  C5  UNL     1      29.859  40.713   9.981  1.00  0.00     0.179 C 
HETATM    4  C7  UNL     1      31.324  40.766   9.527  1.00  0.00     0.183 C 
HETATM    5  C8  UNL     1      31.374  39.426   8.803  1.00  0.00     0.216 C 
ENDROOT
BRANCH   1   6
HETATM    6  N1  UNL     1      29.967  39.645   6.785  1.00  0.00    -0.280 N 
HETATM    7  C3  UNL     1      30.073  40.864   6.233  1.00  0.00     0.104 A 
HETATM    8  C2  UNL     1      30.007  40.987   4.865  1.00  0.00     0.092 A 
HETATM    9  C1  UNL     1      29.833  39.903   4.023  1.00  0.00     0.250 A 
HETATM   10  O1  UNL     1      29.772  40.013   2.768  1.00  0.00    -0.268 OA
HETATM   11  N2  UNL     1      29.732  38.696   4.625  1.00  0.00    -0.275 N 
HETATM   12  C9  UNL     1      29.797  38.595   5.953  1.00  0.00     0.331 A 
ATOM     13  H2  UNL     1      29.604  37.858   4.059  1.00  0.00     0.173 HD
HETATM   14  O9  UNL     1      29.691  37.414   6.429  1.00  0.00    -0.246 OA
ENDBRANCH   1   6
BRANCH   5  15
HETATM   15  O5  UNL     1      31.449  38.449   9.771  1.00  0.00    -0.270 OA
BRANCH  15  16
HETATM   16  P1  UNL     1      32.845  37.815  10.187  1.00  0.00     0.422 P 
HETATM   17  O6  UNL     1      33.634  38.246  11.600  1.00  0.00    -0.617 OA
HETATM   18  O7  UNL     1      33.678  36.764   9.153  1.00  0.00    -0.617 OA
HETATM   19  O8  UNL     1      32.275  36.572  10.893  1.00  0.00    -0.617 OA
ENDBRANCH  15  16
ENDBRANCH   5  15
BRANCH   3  20
HETATM   20  C6  UNL     1      29.420  42.082  10.441  1.00  0.00     0.198 C 
BRANCH  20  21
HETATM   21  O3  UNL     1      30.287  43.038   9.975  1.00  0.00    -0.398 OA
ATOM     22  H3  UNL     1      29.852  43.593   9.338  1.00  0.00     0.209 HD
ENDBRANCH  20  21
ENDBRANCH   3  20
BRANCH   4  23
HETATM   23  O4  UNL     1      32.182  40.822  10.600  1.00  0.00    -0.390 OA
ATOM     24  H4  UNL     1      32.837  40.135  10.558  1.00  0.00     0.210 HD
ENDBRANCH   4  23
TORSDOF 6
ENDMDL
