MODEL 4
REMARK VINA RESULT: -5.696675014      3.956      7.003
REMARK  6 active torsions:
REMARK  status: ('A' for Active; 'I' for Inactive)
REMARK    1  A    between atoms: N1_5  and  C4_6 
REMARK    2  A    between atoms: C5_8  and  C6_9 
REMARK    3  A    between atoms: C6_9  and  O3_10 
REMARK    4  A    between atoms: C7_12  and  O4_13 
REMARK    5  A    between atoms: C8_15  and  O5_16 
REMARK    6  A    between atoms: O5_16  and  P1_17 
ROOT
HETATM    1  C4  UNL     1      30.097  41.937   6.346  1.00  0.00     0.264 C 
HETATM    2  O2  UNL     1      29.856  40.716   6.943  1.00  0.00    -0.353 OA
HETATM    3  C5  UNL     1      29.576  39.793   5.972  1.00  0.00     0.179 C 
HETATM    4  C7  UNL     1      30.532  40.215   4.848  1.00  0.00     0.183 C 
HETATM    5  C8  UNL     1      30.259  41.714   4.884  1.00  0.00     0.216 C 
ENDROOT
BRANCH   1   6
HETATM    6  N1  UNL     1      31.192  42.566   7.006  1.00  0.00    -0.280 N 
HETATM    7  C3  UNL     1      32.151  41.909   7.679  1.00  0.00     0.104 A 
HETATM    8  C2  UNL     1      33.160  42.627   8.275  1.00  0.00     0.092 A 
HETATM    9  C1  UNL     1      33.235  44.008   8.214  1.00  0.00     0.250 A 
HETATM   10  O1  UNL     1      34.160  44.669   8.760  1.00  0.00    -0.268 OA
HETATM   11  N2  UNL     1      32.248  44.624   7.525  1.00  0.00    -0.275 N 
HETATM   12  C9  UNL     1      31.276  43.913   6.953  1.00  0.00     0.331 A 
ATOM     13  H2  UNL     1      32.248  45.641   7.443  1.00  0.00     0.173 HD
HETATM   14  O9  UNL     1      30.389  44.584   6.324  1.00  0.00    -0.246 OA
ENDBRANCH   1   6
BRANCH   5  15
HETATM   15  O5  UNL     1      29.044  41.915   4.265  1.00  0.00    -0.270 OA
BRANCH  15  16
HETATM   16  P1  UNL     1      28.916  42.876   3.007  1.00  0.00     0.422 P 
HETATM   17  O6  UNL     1      30.228  43.251   2.035  1.00  0.00    -0.617 OA
HETATM   18  O7  UNL     1      27.469  43.683   2.658  1.00  0.00    -0.617 OA
HETATM   19  O8  UNL     1      28.487  41.796   1.999  1.00  0.00    -0.617 OA
ENDBRANCH  15  16
ENDBRANCH   5  15
BRANCH   3  20
HETATM   20  C6  UNL     1      29.887  38.379   6.398  1.00  0.00     0.198 C 
BRANCH  20  21
HETATM   21  O3  UNL     1      29.846  37.538   5.315  1.00  0.00    -0.398 OA
ATOM     22  H3  UNL     1      29.952  38.033   4.511  1.00  0.00     0.209 HD
ENDBRANCH  20  21
ENDBRANCH   3  20
BRANCH   4  23
HETATM   23  O4  UNL     1      30.184  39.640   3.648  1.00  0.00    -0.390 OA
ATOM     24  H4  UNL     1      29.499  40.133   3.212  1.00  0.00     0.210 HD
ENDBRANCH   4  23
TORSDOF 6
ENDMDL
