MODEL 4
REMARK VINA RESULT: -5.804767748      4.742      7.929
REMARK  6 active torsions:
REMARK  status: ('A' for Active; 'I' for Inactive)
REMARK    1  A    between atoms: N1_5  and  C4_6 
REMARK    2  A    between atoms: C5_8  and  C6_9 
REMARK    3  A    between atoms: C6_9  and  O3_10 
REMARK    4  A    between atoms: C7_12  and  O4_13 
REMARK    5  A    between atoms: O4_13  and  P1_14 
REMARK    6  A    between atoms: C8_18  and  O8_19 
ROOT
HETATM    1  C4  UNL     1      31.795  39.633   9.027  1.00  0.00     0.264 C 
HETATM    2  O2  UNL     1      31.348  40.892   9.327  1.00  0.00    -0.353 OA
HETATM    3  C5  UNL     1      30.709  41.321   8.150  1.00  0.00     0.180 C 
HETATM    4  C7  UNL     1      29.808  40.137   7.901  1.00  0.00     0.199 C 
HETATM    5  C8  UNL     1      30.813  39.014   8.054  1.00  0.00     0.199 C 
ENDROOT
BRANCH   1   6
HETATM    6  N1  UNL     1      31.886  38.757  10.163  1.00  0.00    -0.280 N 
HETATM    7  C3  UNL     1      31.256  39.130  11.292  1.00  0.00     0.104 A 
HETATM    8  C2  UNL     1      31.272  38.374  12.442  1.00  0.00     0.092 A 
HETATM    9  C1  UNL     1      31.968  37.183  12.428  1.00  0.00     0.250 A 
HETATM   10  O1  UNL     1      31.976  36.502  13.483  1.00  0.00    -0.268 OA
HETATM   11  N2  UNL     1      32.594  36.816  11.303  1.00  0.00    -0.275 N 
HETATM   12  C9  UNL     1      32.555  37.593  10.182  1.00  0.00     0.331 A 
ATOM     13  H2  UNL     1      33.111  35.937  11.282  1.00  0.00     0.173 HD
HETATM   14  O9  UNL     1      33.150  37.229   9.137  1.00  0.00    -0.246 OA
ENDBRANCH   1   6
BRANCH   5  15
HETATM   15  O8  UNL     1      30.182  37.898   8.553  1.00  0.00    -0.388 OA
ATOM     16  H8  UNL     1      30.663  37.093   8.399  1.00  0.00     0.210 HD
ENDBRANCH   5  15
BRANCH   3  17
HETATM   17  C6  UNL     1      29.990  42.621   8.341  1.00  0.00     0.198 C 
BRANCH  17  18
HETATM   18  O3  UNL     1      28.611  42.387   8.135  1.00  0.00    -0.398 OA
ATOM     19  H3  UNL     1      28.409  42.608   7.233  1.00  0.00     0.209 HD
ENDBRANCH  17  18
ENDBRANCH   3  17
BRANCH   4  20
HETATM   20  O4  UNL     1      29.176  40.155   6.687  1.00  0.00    -0.272 OA
BRANCH  20  21
HETATM   21  P1  UNL     1      29.936  40.389   5.378  1.00  0.00     0.422 P 
HETATM   22  O5  UNL     1      29.019  41.748   5.125  1.00  0.00    -0.617 OA
HETATM   23  O6  UNL     1      30.736  40.622   4.091  1.00  0.00    -0.617 OA
HETATM   24  O7  UNL     1      29.367  38.956   4.787  1.00  0.00    -0.617 OA
ENDBRANCH  20  21
ENDBRANCH   4  20
TORSDOF 6
ENDMDL
