MODEL 1
REMARK VINA RESULT: -6.010379473      0.000      0.000
REMARK  6 active torsions:
REMARK  status: ('A' for Active; 'I' for Inactive)
REMARK    1  A    between atoms: N1_5  and  C4_6 
REMARK    2  A    between atoms: C5_8  and  C6_9 
REMARK    3  A    between atoms: C6_9  and  O3_10 
REMARK    4  A    between atoms: C7_12  and  O4_13 
REMARK    5  A    between atoms: O4_13  and  P1_14 
REMARK    6  A    between atoms: C8_18  and  O8_19 
ROOT
HETATM    1  C4  UNL     1      29.926  40.634   3.771  1.00  0.00     0.264 C 
HETATM    2  O2  UNL     1      29.554  39.422   4.289  1.00  0.00    -0.353 OA
HETATM    3  C5  UNL     1      30.040  39.448   5.609  1.00  0.00     0.180 C 
HETATM    4  C7  UNL     1      29.481  40.773   6.063  1.00  0.00     0.199 C 
HETATM    5  C8  UNL     1      29.910  41.644   4.900  1.00  0.00     0.199 C 
ENDROOT
BRANCH   1   6
HETATM    6  N1  UNL     1      29.053  41.125   2.742  1.00  0.00    -0.280 N 
HETATM    7  C3  UNL     1      27.823  40.585   2.656  1.00  0.00     0.104 A 
HETATM    8  C2  UNL     1      26.900  40.973   1.712  1.00  0.00     0.092 A 
HETATM    9  C1  UNL     1      27.259  41.962   0.818  1.00  0.00     0.250 A 
HETATM   10  O1  UNL     1      26.409  42.307  -0.039  1.00  0.00    -0.268 OA
HETATM   11  N2  UNL     1      28.484  42.496   0.907  1.00  0.00    -0.275 N 
HETATM   12  C9  UNL     1      29.372  42.083   1.858  1.00  0.00     0.331 A 
ATOM     13  H2  UNL     1      28.759  43.228   0.251  1.00  0.00     0.173 HD
HETATM   14  O9  UNL     1      30.515  42.599   1.923  1.00  0.00    -0.246 OA
ENDBRANCH   1   6
BRANCH   5  15
HETATM   15  O8  UNL     1      28.992  42.652   4.717  1.00  0.00    -0.388 OA
ATOM     16  H8  UNL     1      29.377  43.520   4.741  1.00  0.00     0.210 HD
ENDBRANCH   5  15
BRANCH   3  17
HETATM   17  C6  UNL     1      29.570  38.270   6.406  1.00  0.00     0.198 C 
BRANCH  17  18
HETATM   18  O3  UNL     1      29.190  38.735   7.685  1.00  0.00    -0.398 OA
ATOM     19  H3  UNL     1      28.429  39.293   7.579  1.00  0.00     0.209 HD
ENDBRANCH  17  18
ENDBRANCH   3  17
BRANCH   4  20
HETATM   20  O4  UNL     1      29.950  41.198   7.277  1.00  0.00    -0.272 OA
BRANCH  20  21
HETATM   21  P1  UNL     1      31.424  41.553   7.500  1.00  0.00     0.422 P 
HETATM   22  O5  UNL     1      31.497  40.379   8.671  1.00  0.00    -0.617 OA
HETATM   23  O6  UNL     1      32.905  41.901   7.679  1.00  0.00    -0.617 OA
HETATM   24  O7  UNL     1      30.990  43.076   7.965  1.00  0.00    -0.617 OA
ENDBRANCH  20  21
ENDBRANCH   4  20
TORSDOF 6
ENDMDL
