MODEL 2
REMARK VINA RESULT: -5.943702897      2.559      6.119
REMARK  6 active torsions:
REMARK  status: ('A' for Active; 'I' for Inactive)
REMARK    1  A    between atoms: N1_5  and  C4_6 
REMARK    2  A    between atoms: C5_8  and  C6_9 
REMARK    3  A    between atoms: C6_9  and  O3_10 
REMARK    4  A    between atoms: C7_12  and  O4_13 
REMARK    5  A    between atoms: O4_13  and  P1_14 
REMARK    6  A    between atoms: C8_18  and  O8_19 
ROOT
HETATM    1  C4  UNL     1      28.871  41.401   4.383  1.00  0.00     0.264 C 
HETATM    2  O2  UNL     1      27.879  40.825   3.635  1.00  0.00    -0.353 OA
HETATM    3  C5  UNL     1      27.973  41.462   2.385  1.00  0.00     0.180 C 
HETATM    4  C7  UNL     1      29.448  41.288   2.118  1.00  0.00     0.199 C 
HETATM    5  C8  UNL     1      30.006  41.761   3.446  1.00  0.00     0.199 C 
ENDROOT
BRANCH   1   6
HETATM    6  N1  UNL     1      29.409  40.545   5.403  1.00  0.00    -0.280 N 
HETATM    7  C3  UNL     1      29.202  39.221   5.281  1.00  0.00     0.104 A 
HETATM    8  C2  UNL     1      29.668  38.304   6.195  1.00  0.00     0.092 A 
HETATM    9  C1  UNL     1      30.381  38.771   7.281  1.00  0.00     0.250 A 
HETATM   10  O1  UNL     1      30.801  37.925   8.108  1.00  0.00    -0.268 OA
HETATM   11  N2  UNL     1      30.585  40.090   7.398  1.00  0.00    -0.275 N 
HETATM   12  C9  UNL     1      30.105  40.968   6.470  1.00  0.00     0.331 A 
ATOM     13  H2  UNL     1      31.110  40.445   8.197  1.00  0.00     0.173 HD
HETATM   14  O9  UNL     1      30.308  42.200   6.600  1.00  0.00    -0.246 OA
ENDBRANCH   1   6
BRANCH   5  15
HETATM   15  O8  UNL     1      31.173  41.087   3.720  1.00  0.00    -0.388 OA
ATOM     16  H8  UNL     1      31.571  40.696   2.951  1.00  0.00     0.210 HD
ENDBRANCH   5  15
BRANCH   3  17
HETATM   17  C6  UNL     1      27.078  40.833   1.362  1.00  0.00     0.198 C 
BRANCH  17  18
HETATM   18  O3  UNL     1      27.897  40.194   0.404  1.00  0.00    -0.398 OA
ATOM     19  H3  UNL     1      27.937  40.751  -0.365  1.00  0.00     0.209 HD
ENDBRANCH  17  18
ENDBRANCH   3  17
BRANCH   4  20
HETATM   20  O4  UNL     1      29.914  41.990   1.039  1.00  0.00    -0.272 OA
BRANCH  20  21
HETATM   21  P1  UNL     1      29.454  43.421   0.741  1.00  0.00     0.422 P 
HETATM   22  O5  UNL     1      28.880  42.897  -0.726  1.00  0.00    -0.617 OA
HETATM   23  O6  UNL     1      28.971  44.851   0.480  1.00  0.00    -0.617 OA
HETATM   24  O7  UNL     1      31.019  43.942   0.812  1.00  0.00    -0.617 OA
ENDBRANCH  20  21
ENDBRANCH   4  20
TORSDOF 6
ENDMDL
