MODEL 17
REMARK VINA RESULT: -5.383130640      3.578      5.576
REMARK  6 active torsions:
REMARK  status: ('A' for Active; 'I' for Inactive)
REMARK    1  A    between atoms: N1_5  and  C4_6 
REMARK    2  A    between atoms: C5_8  and  C6_9 
REMARK    3  A    between atoms: C6_9  and  O3_10 
REMARK    4  A    between atoms: C7_12  and  O4_13 
REMARK    5  A    between atoms: O4_13  and  P1_14 
REMARK    6  A    between atoms: C8_18  and  O8_19 
ROOT
HETATM    1  C4  UNL     1      29.596  39.515   8.753  1.00  0.00     0.264 C 
HETATM    2  O2  UNL     1      29.391  40.687   9.433  1.00  0.00    -0.353 OA
HETATM    3  C5  UNL     1      30.005  40.475  10.679  1.00  0.00     0.180 C 
HETATM    4  C7  UNL     1      31.356  39.985  10.221  1.00  0.00     0.199 C 
HETATM    5  C8  UNL     1      30.921  38.942   9.212  1.00  0.00     0.199 C 
ENDROOT
BRANCH   1   6
HETATM    6  N1  UNL     1      29.664  39.669   7.327  1.00  0.00    -0.280 N 
HETATM    7  C3  UNL     1      29.896  40.903   6.841  1.00  0.00     0.104 A 
HETATM    8  C2  UNL     1      29.982  41.173   5.495  1.00  0.00     0.092 A 
HETATM    9  C1  UNL     1      29.822  40.126   4.609  1.00  0.00     0.250 A 
HETATM   10  O1  UNL     1      29.902  40.384   3.383  1.00  0.00    -0.268 OA
HETATM   11  N2  UNL     1      29.591  38.900   5.097  1.00  0.00    -0.275 N 
HETATM   12  C9  UNL     1      29.512  38.673   6.440  1.00  0.00     0.331 A 
ATOM     13  H2  UNL     1      29.472  38.120   4.451  1.00  0.00     0.173 HD
HETATM   14  O9  UNL     1      29.295  37.515   6.875  1.00  0.00    -0.246 OA
ENDBRANCH   1   6
BRANCH   5  15
HETATM   15  O8  UNL     1      31.855  38.857   8.206  1.00  0.00    -0.388 OA
ATOM     16  H8  UNL     1      32.277  38.007   8.155  1.00  0.00     0.210 HD
ENDBRANCH   5  15
BRANCH   3  17
HETATM   17  C6  UNL     1      30.045  41.722  11.508  1.00  0.00     0.198 C 
BRANCH  17  18
HETATM   18  O3  UNL     1      30.300  41.345  12.847  1.00  0.00    -0.398 OA
ATOM     19  H3  UNL     1      30.477  42.135  13.344  1.00  0.00     0.209 HD
ENDBRANCH  17  18
ENDBRANCH   3  17
BRANCH   4  20
HETATM   20  O4  UNL     1      32.148  39.491  11.223  1.00  0.00    -0.272 OA
BRANCH  20  21
HETATM   21  P1  UNL     1      31.827  38.177  11.940  1.00  0.00     0.422 P 
HETATM   22  O5  UNL     1      31.856  38.993  13.384  1.00  0.00    -0.617 OA
HETATM   23  O6  UNL     1      31.469  36.856  12.631  1.00  0.00    -0.617 OA
HETATM   24  O7  UNL     1      33.244  37.529  11.394  1.00  0.00    -0.617 OA
ENDBRANCH  20  21
ENDBRANCH   4  20
TORSDOF 6
ENDMDL
