MODEL 18
REMARK VINA RESULT: -5.364145308      2.329      4.085
REMARK  6 active torsions:
REMARK  status: ('A' for Active; 'I' for Inactive)
REMARK    1  A    between atoms: N1_5  and  C4_6 
REMARK    2  A    between atoms: C5_8  and  C6_9 
REMARK    3  A    between atoms: C6_9  and  O3_10 
REMARK    4  A    between atoms: C7_12  and  O4_13 
REMARK    5  A    between atoms: O4_13  and  P1_14 
REMARK    6  A    between atoms: C8_18  and  O8_19 
ROOT
HETATM    1  C4  UNL     1      29.285  40.618   6.912  1.00  0.00     0.264 C 
HETATM    2  O2  UNL     1      29.295  41.878   7.449  1.00  0.00    -0.353 OA
HETATM    3  C5  UNL     1      29.831  41.700   8.736  1.00  0.00     0.180 C 
HETATM    4  C7  UNL     1      31.072  40.914   8.392  1.00  0.00     0.199 C 
HETATM    5  C8  UNL     1      30.466  39.862   7.486  1.00  0.00     0.199 C 
ENDROOT
BRANCH   1   6
HETATM    6  N1  UNL     1      29.410  40.590   5.481  1.00  0.00    -0.280 N 
HETATM    7  C3  UNL     1      29.819  41.715   4.867  1.00  0.00     0.104 A 
HETATM    8  C2  UNL     1      29.975  41.808   3.503  1.00  0.00     0.092 A 
HETATM    9  C1  UNL     1      29.700  40.693   2.738  1.00  0.00     0.250 A 
HETATM   10  O1  UNL     1      29.846  40.790   1.495  1.00  0.00    -0.268 OA
HETATM   11  N2  UNL     1      29.294  39.575   3.353  1.00  0.00    -0.275 N 
HETATM   12  C9  UNL     1      29.150  39.522   4.710  1.00  0.00     0.331 A 
ATOM     13  H2  UNL     1      29.088  38.745   2.797  1.00  0.00     0.173 HD
HETATM   14  O9  UNL     1      28.768  38.463   5.265  1.00  0.00    -0.246 OA
ENDBRANCH   1   6
BRANCH   5  15
HETATM   15  O8  UNL     1      31.387  39.487   6.536  1.00  0.00    -0.388 OA
ATOM     16  H8  UNL     1      31.146  39.748   5.655  1.00  0.00     0.210 HD
ENDBRANCH   5  15
BRANCH   3  17
HETATM   17  C6  UNL     1      30.093  43.005   9.424  1.00  0.00     0.198 C 
BRANCH  17  18
HETATM   18  O3  UNL     1      31.491  43.211   9.445  1.00  0.00    -0.398 OA
ATOM     19  H3  UNL     1      31.649  44.112   9.703  1.00  0.00     0.209 HD
ENDBRANCH  17  18
ENDBRANCH   3  17
BRANCH   4  20
HETATM   20  O4  UNL     1      31.734  40.400   9.474  1.00  0.00    -0.272 OA
BRANCH  20  21
HETATM   21  P1  UNL     1      30.994  39.923  10.728  1.00  0.00     0.422 P 
HETATM   22  O5  UNL     1      31.922  40.960  11.632  1.00  0.00    -0.617 OA
HETATM   23  O6  UNL     1      30.215  39.456  11.962  1.00  0.00    -0.617 OA
HETATM   24  O7  UNL     1      31.566  38.393  10.486  1.00  0.00    -0.617 OA
ENDBRANCH  20  21
ENDBRANCH   4  20
TORSDOF 6
ENDMDL
