MODEL 2
REMARK VINA RESULT: -7.259800859      2.853      4.486
REMARK  8 active torsions:
REMARK  status: ('A' for Active; 'I' for Inactive)
REMARK    1  A    between atoms: N1_5  and  C4_6 
REMARK    2  A    between atoms: C5_8  and  C6_9 
REMARK    3  A    between atoms: C6_9  and  O3_10 
REMARK    4  A    between atoms: O3_10  and  P1_11 
REMARK    5  A    between atoms: P1_11  and  O6_14 
REMARK    6  A    between atoms: O6_14  and  P2_15 
REMARK    7  A    between atoms: C7_19  and  O10_20 
REMARK    8  A    between atoms: C8_22  and  O11_23 
ROOT
HETATM    1  C4  UNL     1      29.399  40.335   3.562  1.00  0.00     0.263 C 
HETATM    2  O2  UNL     1      30.080  41.396   2.985  1.00  0.00    -0.353 OA
HETATM    3  C5  UNL     1      29.757  41.442   1.653  1.00  0.00     0.180 C 
HETATM    4  C7  UNL     1      28.463  40.693   1.458  1.00  0.00     0.182 C 
HETATM    5  C8  UNL     1      28.018  40.492   2.911  1.00  0.00     0.198 C 
ENDROOT
BRANCH   3   6
HETATM    6  C6  UNL     1      29.533  42.883   1.269  1.00  0.00     0.216 C 
BRANCH   6   7
HETATM    7  O3  UNL     1      29.255  43.617   2.386  1.00  0.00    -0.287 OA
BRANCH   7   8
HETATM    8  P1  UNL     1      27.870  44.476   2.411  1.00  0.00     0.418 P 
HETATM    9  O4  UNL     1      27.161  43.606   3.435  1.00  0.00    -0.624 OA
HETATM   10  O5  UNL     1      27.760  45.782   3.516  1.00  0.00    -0.624 OA
BRANCH   8  11
HETATM   11  O6  UNL     1      26.722  44.318   1.277  1.00  0.00    -0.173 OA
BRANCH  11  12
HETATM   12  P2  UNL     1      26.212  45.442   0.391  1.00  0.00     0.431 P 
HETATM   13  O7  UNL     1      25.180  45.984   1.535  1.00  0.00    -0.616 OA
HETATM   14  O8  UNL     1      27.692  46.150   0.212  1.00  0.00    -0.616 OA
HETATM   15  O9  UNL     1      25.676  44.315  -0.708  1.00  0.00    -0.616 OA
ENDBRANCH  11  12
ENDBRANCH   8  11
ENDBRANCH   7   8
ENDBRANCH   6   7
ENDBRANCH   3   6
BRANCH   4  16
HETATM   16  O10 UNL     1      28.739  39.459   0.891  1.00  0.00    -0.390 OA
ATOM     17  H10 UNL     1      28.951  39.583  -0.026  1.00  0.00     0.210 HD
ENDBRANCH   4  16
BRANCH   1  18
HETATM   18  N1  UNL     1      29.252  40.482   4.988  1.00  0.00    -0.280 N 
HETATM   19  C3  UNL     1      29.196  41.666   5.611  1.00  0.00     0.104 A 
HETATM   20  C2  UNL     1      29.054  41.692   6.983  1.00  0.00     0.092 A 
HETATM   21  C1  UNL     1      28.966  40.535   7.745  1.00  0.00     0.250 A 
HETATM   22  O1  UNL     1      28.837  40.585   8.996  1.00  0.00    -0.268 OA
HETATM   23  N2  UNL     1      29.028  39.373   7.071  1.00  0.00    -0.275 N 
HETATM   24  C9  UNL     1      29.167  39.362   5.728  1.00  0.00     0.331 A 
ATOM     25  H2  UNL     1      28.969  38.490   7.579  1.00  0.00     0.173 HD
HETATM   26  O12 UNL     1      29.217  38.233   5.157  1.00  0.00    -0.246 OA
ENDBRANCH   1  18
BRANCH   5  27
HETATM   27  O11 UNL     1      27.239  39.373   3.065  1.00  0.00    -0.388 OA
ATOM     28  H11 UNL     1      27.434  38.706   2.418  1.00  0.00     0.210 HD
ENDBRANCH   5  27
TORSDOF 8
ENDMDL
