MODEL 3
REMARK VINA RESULT: -7.158539758      2.841      4.591
REMARK  8 active torsions:
REMARK  status: ('A' for Active; 'I' for Inactive)
REMARK    1  A    between atoms: N1_5  and  C4_6 
REMARK    2  A    between atoms: C5_8  and  C6_9 
REMARK    3  A    between atoms: C6_9  and  O3_10 
REMARK    4  A    between atoms: O3_10  and  P1_11 
REMARK    5  A    between atoms: P1_11  and  O6_14 
REMARK    6  A    between atoms: O6_14  and  P2_15 
REMARK    7  A    between atoms: C7_19  and  O10_20 
REMARK    8  A    between atoms: C8_22  and  O11_23 
ROOT
HETATM    1  C4  UNL     1      29.369  40.317   3.513  1.00  0.00     0.263 C 
HETATM    2  O2  UNL     1      30.081  41.348   2.918  1.00  0.00    -0.353 OA
HETATM    3  C5  UNL     1      29.763  41.377   1.584  1.00  0.00     0.180 C 
HETATM    4  C7  UNL     1      28.450  40.660   1.399  1.00  0.00     0.182 C 
HETATM    5  C8  UNL     1      27.995  40.499   2.854  1.00  0.00     0.198 C 
ENDROOT
BRANCH   3   6
HETATM    6  C6  UNL     1      29.580  42.816   1.173  1.00  0.00     0.216 C 
BRANCH   6   7
HETATM    7  O3  UNL     1      29.538  43.609   2.283  1.00  0.00    -0.287 OA
BRANCH   7   8
HETATM    8  P1  UNL     1      28.183  44.474   2.553  1.00  0.00     0.418 P 
HETATM    9  O4  UNL     1      27.469  44.054   1.278  1.00  0.00    -0.624 OA
HETATM   10  O5  UNL     1      26.924  43.727   3.446  1.00  0.00    -0.624 OA
BRANCH   8  11
HETATM   11  O6  UNL     1      28.083  46.063   2.250  1.00  0.00    -0.173 OA
BRANCH  11  12
HETATM   12  P2  UNL     1      29.172  47.078   2.553  1.00  0.00     0.431 P 
HETATM   13  O7  UNL     1      29.454  46.453   4.035  1.00  0.00    -0.616 OA
HETATM   14  O8  UNL     1      30.121  46.638   1.277  1.00  0.00    -0.616 OA
HETATM   15  O9  UNL     1      28.057  48.302   2.394  1.00  0.00    -0.616 OA
ENDBRANCH  11  12
ENDBRANCH   8  11
ENDBRANCH   7   8
ENDBRANCH   6   7
ENDBRANCH   3   6
BRANCH   4  16
HETATM   16  O10 UNL     1      28.694  39.408   0.856  1.00  0.00    -0.390 OA
ATOM     17  H10 UNL     1      29.488  39.448   0.337  1.00  0.00     0.210 HD
ENDBRANCH   4  16
BRANCH   1  18
HETATM   18  N1  UNL     1      29.221  40.494   4.935  1.00  0.00    -0.280 N 
HETATM   19  C3  UNL     1      29.167  41.692   5.532  1.00  0.00     0.104 A 
HETATM   20  C2  UNL     1      29.025  41.748   6.903  1.00  0.00     0.092 A 
HETATM   21  C1  UNL     1      28.935  40.608   7.691  1.00  0.00     0.250 A 
HETATM   22  O1  UNL     1      28.805  40.685   8.939  1.00  0.00    -0.268 OA
HETATM   23  N2  UNL     1      28.995  39.432   7.041  1.00  0.00    -0.275 N 
HETATM   24  C9  UNL     1      29.135  39.391   5.699  1.00  0.00     0.331 A 
ATOM     25  H2  UNL     1      28.935  38.560   7.569  1.00  0.00     0.173 HD
HETATM   26  O12 UNL     1      29.184  38.250   5.152  1.00  0.00    -0.246 OA
ENDBRANCH   1  18
BRANCH   5  27
HETATM   27  O11 UNL     1      27.185  39.405   3.026  1.00  0.00    -0.388 OA
ATOM     28  H11 UNL     1      26.327  39.640   3.358  1.00  0.00     0.210 HD
ENDBRANCH   5  27
TORSDOF 8
ENDMDL
