MODEL 1
REMARK VINA RESULT: -7.570023500      0.000      0.000
REMARK  8 active torsions:
REMARK  status: ('A' for Active; 'I' for Inactive)
REMARK    1  A    between atoms: N1_5  and  C4_6 
REMARK    2  A    between atoms: C5_8  and  C6_9 
REMARK    3  A    between atoms: C6_9  and  O3_10 
REMARK    4  A    between atoms: O3_10  and  P1_11 
REMARK    5  A    between atoms: P1_11  and  O6_14 
REMARK    6  A    between atoms: O6_14  and  P2_15 
REMARK    7  A    between atoms: C7_19  and  O10_20 
REMARK    8  A    between atoms: C8_22  and  O11_23 
ROOT
HETATM    1  C4  UNL     1      30.959  39.147   7.329  1.00  0.00     0.263 C 
HETATM    2  O2  UNL     1      31.014  40.114   6.337  1.00  0.00    -0.353 OA
HETATM    3  C5  UNL     1      30.225  39.704   5.292  1.00  0.00     0.180 C 
HETATM    4  C7  UNL     1      29.251  38.679   5.814  1.00  0.00     0.182 C 
HETATM    5  C8  UNL     1      29.460  38.817   7.326  1.00  0.00     0.198 C 
ENDROOT
BRANCH   3   6
HETATM    6  C6  UNL     1      29.441  40.894   4.797  1.00  0.00     0.216 C 
BRANCH   6   7
HETATM    7  O3  UNL     1      29.912  41.277   3.574  1.00  0.00    -0.287 OA
BRANCH   7   8
HETATM    8  P1  UNL     1      28.970  41.003   2.273  1.00  0.00     0.418 P 
HETATM    9  O4  UNL     1      29.640  39.703   1.861  1.00  0.00    -0.624 OA
HETATM   10  O5  UNL     1      27.518  40.122   2.510  1.00  0.00    -0.624 OA
BRANCH   8  11
HETATM   11  O6  UNL     1      29.209  41.739   0.849  1.00  0.00    -0.173 OA
BRANCH  11  12
HETATM   12  P2  UNL     1      29.008  43.221   0.589  1.00  0.00     0.431 P 
HETATM   13  O7  UNL     1      28.618  42.977  -0.978  1.00  0.00    -0.616 OA
HETATM   14  O8  UNL     1      27.817  43.393   1.719  1.00  0.00    -0.616 OA
HETATM   15  O9  UNL     1      30.599  43.494   0.990  1.00  0.00    -0.616 OA
ENDBRANCH  11  12
ENDBRANCH   8  11
ENDBRANCH   7   8
ENDBRANCH   6   7
ENDBRANCH   3   6
BRANCH   4  16
HETATM   16  O10 UNL     1      29.666  37.420   5.410  1.00  0.00    -0.390 OA
ATOM     17  H10 UNL     1      28.941  36.812   5.506  1.00  0.00     0.210 HD
ENDBRANCH   4  16
BRANCH   1  18
HETATM   18  N1  UNL     1      31.310  39.665   8.627  1.00  0.00    -0.280 N 
HETATM   19  C3  UNL     1      31.182  40.952   8.973  1.00  0.00     0.104 A 
HETATM   20  C2  UNL     1      31.550  41.342  10.244  1.00  0.00     0.092 A 
HETATM   21  C1  UNL     1      32.049  40.448  11.182  1.00  0.00     0.250 A 
HETATM   22  O1  UNL     1      32.378  40.828  12.336  1.00  0.00    -0.268 OA
HETATM   23  N2  UNL     1      32.158  39.168  10.784  1.00  0.00    -0.275 N 
HETATM   24  C9  UNL     1      31.794  38.800   9.537  1.00  0.00     0.331 A 
ATOM     25  H2  UNL     1      32.520  38.467  11.431  1.00  0.00     0.173 HD
HETATM   26  O12 UNL     1      31.922  37.579   9.229  1.00  0.00    -0.246 OA
ENDBRANCH   1  18
BRANCH   5  27
HETATM   27  O11 UNL     1      29.180  37.654   7.997  1.00  0.00    -0.388 OA
ATOM     28  H11 UNL     1      29.242  37.758   8.940  1.00  0.00     0.210 HD
ENDBRANCH   5  27
TORSDOF 8
ENDMDL
