MODEL 6
REMARK VINA RESULT: -5.779792782      3.556      5.912
REMARK  7 active torsions:
REMARK  status: ('A' for Active; 'I' for Inactive)
REMARK    1  A    between atoms: N1_1  and  C1_4 
REMARK    2  A    between atoms: N2_7  and  C4_8 
REMARK    3  A    between atoms: C5_10  and  C6_11 
REMARK    4  A    between atoms: C6_11  and  O2_12 
REMARK    5  A    between atoms: C7_14  and  O3_15 
REMARK    6  A    between atoms: O3_15  and  P1_16 
REMARK    7  A    between atoms: C8_20  and  O7_21 
ROOT
HETATM    1  C4  UNL     1      30.203  40.566   7.777  1.00  0.00     0.264 C 
HETATM    2  O1  UNL     1      29.146  39.995   7.067  1.00  0.00    -0.353 OA
HETATM    3  C5  UNL     1      29.719  39.498   5.918  1.00  0.00     0.180 C 
HETATM    4  C7  UNL     1      30.586  40.655   5.411  1.00  0.00     0.199 C 
HETATM    5  C8  UNL     1      31.065  41.241   6.731  1.00  0.00     0.199 C 
ENDROOT
BRANCH   1   6
HETATM    6  N2  UNL     1      29.758  41.462   8.799  1.00  0.00    -0.280 N 
HETATM    7  C3  UNL     1      28.578  42.083   8.674  1.00  0.00     0.102 A 
HETATM    8  C2  UNL     1      28.080  42.960   9.614  1.00  0.00     0.065 A 
HETATM    9  C1  UNL     1      28.840  43.204  10.734  1.00  0.00     0.103 A 
HETATM   10  N3  UNL     1      30.023  42.569  10.842  1.00  0.00    -0.295 N 
HETATM   11  C9  UNL     1      30.488  41.721   9.917  1.00  0.00     0.330 A 
ATOM     12  H3  UNL     1      30.592  42.744  11.669  1.00  0.00     0.172 HD
HETATM   13  O8  UNL     1      31.590  41.128  10.014  1.00  0.00    -0.246 OA
BRANCH   9  14
HETATM   14  N1  UNL     1      28.425  44.018  11.655  1.00  0.00    -0.385 N 
ATOM     15  H12 UNL     1      27.430  44.180  11.811  1.00  0.00     0.157 HD
ATOM     16  H11 UNL     1      29.087  44.520  12.247  1.00  0.00     0.157 HD
ENDBRANCH   9  14
ENDBRANCH   1   6
BRANCH   5  17
HETATM   17  O7  UNL     1      32.384  40.934   6.988  1.00  0.00    -0.388 OA
ATOM     18  H7  UNL     1      32.925  41.362   6.335  1.00  0.00     0.210 HD
ENDBRANCH   5  17
BRANCH   3  19
HETATM   19  C6  UNL     1      30.554  38.271   6.185  1.00  0.00     0.198 C 
BRANCH  19  20
HETATM   20  O2  UNL     1      29.891  37.184   5.657  1.00  0.00    -0.398 OA
ATOM     21  H2  UNL     1      29.417  36.758   6.362  1.00  0.00     0.209 HD
ENDBRANCH  19  20
ENDBRANCH   3  19
BRANCH   4  22
HETATM   22  O3  UNL     1      29.841  41.589   4.772  1.00  0.00    -0.272 OA
BRANCH  22  23
HETATM   23  P1  UNL     1      29.464  41.320   3.205  1.00  0.00     0.422 P 
HETATM   24  O4  UNL     1      28.242  42.228   3.255  1.00  0.00    -0.617 OA
HETATM   25  O5  UNL     1      28.463  40.034   2.769  1.00  0.00    -0.617 OA
HETATM   26  O6  UNL     1      30.255  42.141   2.035  1.00  0.00    -0.617 OA
ENDBRANCH  22  23
ENDBRANCH   4  22
TORSDOF 7
ENDMDL
