MODEL 3
REMARK VINA RESULT: -5.953463772      3.434      5.455
REMARK  7 active torsions:
REMARK  status: ('A' for Active; 'I' for Inactive)
REMARK    1  A    between atoms: N1_1  and  C1_4 
REMARK    2  A    between atoms: N2_7  and  C4_8 
REMARK    3  A    between atoms: C5_10  and  C6_11 
REMARK    4  A    between atoms: C6_11  and  O2_12 
REMARK    5  A    between atoms: C7_14  and  O3_15 
REMARK    6  A    between atoms: O3_15  and  P1_16 
REMARK    7  A    between atoms: C8_20  and  O7_21 
ROOT
HETATM    1  C4  UNL     1      30.218  40.854   6.580  1.00  0.00     0.264 C 
HETATM    2  O1  UNL     1      29.071  40.138   6.924  1.00  0.00    -0.353 OA
HETATM    3  C5  UNL     1      29.304  38.859   6.469  1.00  0.00     0.180 C 
HETATM    4  C7  UNL     1      29.807  39.064   5.037  1.00  0.00     0.199 C 
HETATM    5  C8  UNL     1      30.606  40.349   5.206  1.00  0.00     0.199 C 
ENDROOT
BRANCH   1   6
HETATM    6  N2  UNL     1      30.015  42.269   6.619  1.00  0.00    -0.280 N 
HETATM    7  C3  UNL     1      28.819  42.780   6.299  1.00  0.00     0.102 A 
HETATM    8  C2  UNL     1      28.543  44.131   6.312  1.00  0.00     0.065 A 
HETATM    9  C1  UNL     1      29.554  44.991   6.672  1.00  0.00     0.103 A 
HETATM   10  N3  UNL     1      30.750  44.458   6.990  1.00  0.00    -0.295 N 
HETATM   11  C9  UNL     1      30.996  43.143   6.971  1.00  0.00     0.330 A 
ATOM     12  H3  UNL     1      31.504  45.089   7.259  1.00  0.00     0.172 HD
HETATM   13  O8  UNL     1      32.109  42.643   7.267  1.00  0.00    -0.246 OA
BRANCH   9  14
HETATM   14  N1  UNL     1      29.357  46.272   6.705  1.00  0.00    -0.385 N 
ATOM     15  H12 UNL     1      28.594  46.678   7.247  1.00  0.00     0.157 HD
ATOM     16  H11 UNL     1      29.962  46.908   6.185  1.00  0.00     0.157 HD
ENDBRANCH   9  14
ENDBRANCH   1   6
BRANCH   5  17
HETATM   17  O7  UNL     1      31.965  40.121   5.192  1.00  0.00    -0.388 OA
ATOM     18  H7  UNL     1      32.178  39.523   5.899  1.00  0.00     0.210 HD
ENDBRANCH   5  17
BRANCH   3  19
HETATM   19  C6  UNL     1      30.329  38.137   7.307  1.00  0.00     0.198 C 
BRANCH  19  20
HETATM   20  O2  UNL     1      29.689  37.115   7.975  1.00  0.00    -0.398 OA
ATOM     21  H2  UNL     1      29.447  37.434   8.836  1.00  0.00     0.209 HD
ENDBRANCH  19  20
ENDBRANCH   3  19
BRANCH   4  22
HETATM   22  O3  UNL     1      28.783  39.305   4.183  1.00  0.00    -0.272 OA
BRANCH  22  23
HETATM   23  P1  UNL     1      29.075  40.273   2.900  1.00  0.00     0.422 P 
HETATM   24  O4  UNL     1      27.854  39.774   2.138  1.00  0.00    -0.617 OA
HETATM   25  O5  UNL     1      30.054  39.748   1.631  1.00  0.00    -0.617 OA
HETATM   26  O6  UNL     1      28.627  41.843   2.958  1.00  0.00    -0.617 OA
ENDBRANCH  22  23
ENDBRANCH   4  22
TORSDOF 7
ENDMDL
