MODEL 7
REMARK VINA RESULT: -5.727727855      3.379      5.789
REMARK  7 active torsions:
REMARK  status: ('A' for Active; 'I' for Inactive)
REMARK    1  A    between atoms: N1_1  and  C1_4 
REMARK    2  A    between atoms: N2_7  and  C4_8 
REMARK    3  A    between atoms: C5_10  and  C6_11 
REMARK    4  A    between atoms: C6_11  and  O2_12 
REMARK    5  A    between atoms: C7_14  and  O3_15 
REMARK    6  A    between atoms: O3_15  and  P1_16 
REMARK    7  A    between atoms: C8_20  and  O7_21 
ROOT
HETATM    1  C4  UNL     1      30.601  39.695   7.917  1.00  0.00     0.264 C 
HETATM    2  O1  UNL     1      29.311  39.526   7.412  1.00  0.00    -0.353 OA
HETATM    3  C5  UNL     1      29.364  40.029   6.132  1.00  0.00     0.180 C 
HETATM    4  C7  UNL     1      30.065  41.380   6.296  1.00  0.00     0.199 C 
HETATM    5  C8  UNL     1      31.056  41.044   7.403  1.00  0.00     0.199 C 
ENDROOT
BRANCH   1   6
HETATM    6  N2  UNL     1      30.652  39.592   9.342  1.00  0.00    -0.280 N 
HETATM    7  C3  UNL     1      29.761  40.256  10.091  1.00  0.00     0.102 A 
HETATM    8  C2  UNL     1      29.744  40.209  11.468  1.00  0.00     0.065 A 
HETATM    9  C1  UNL     1      30.693  39.439  12.098  1.00  0.00     0.103 A 
HETATM   10  N3  UNL     1      31.580  38.778  11.328  1.00  0.00    -0.295 N 
HETATM   11  C9  UNL     1      31.579  38.838   9.991  1.00  0.00     0.330 A 
ATOM     12  H3  UNL     1      32.286  38.205  11.788  1.00  0.00     0.172 HD
HETATM   13  O8  UNL     1      32.403  38.224   9.271  1.00  0.00    -0.246 OA
BRANCH   9  14
HETATM   14  N1  UNL     1      30.728  39.353  13.392  1.00  0.00    -0.385 N 
ATOM     15  H12 UNL     1      30.923  40.169  13.973  1.00  0.00     0.157 HD
ATOM     16  H11 UNL     1      30.563  38.463  13.862  1.00  0.00     0.157 HD
ENDBRANCH   9  14
ENDBRANCH   1   6
BRANCH   5  17
HETATM   17  O7  UNL     1      32.343  40.920   6.927  1.00  0.00    -0.388 OA
ATOM     18  H7  UNL     1      32.345  41.134   6.002  1.00  0.00     0.210 HD
ENDBRANCH   5  17
BRANCH   3  19
HETATM   19  C6  UNL     1      30.133  39.128   5.199  1.00  0.00     0.198 C 
BRANCH  19  20
HETATM   20  O2  UNL     1      29.357  38.018   4.943  1.00  0.00    -0.398 OA
ATOM     21  H2  UNL     1      29.374  37.465   5.716  1.00  0.00     0.209 HD
ENDBRANCH  19  20
ENDBRANCH   3  19
BRANCH   4  22
HETATM   22  O3  UNL     1      29.213  42.328   6.756  1.00  0.00    -0.272 OA
BRANCH  22  23
HETATM   23  P1  UNL     1      28.825  43.555   5.749  1.00  0.00     0.422 P 
HETATM   24  O4  UNL     1      29.601  42.955   4.583  1.00  0.00    -0.617 OA
HETATM   25  O5  UNL     1      29.795  44.932   5.658  1.00  0.00    -0.617 OA
HETATM   26  O6  UNL     1      27.366  43.562   5.014  1.00  0.00    -0.617 OA
ENDBRANCH  22  23
ENDBRANCH   4  22
TORSDOF 7
ENDMDL
