MODEL 1
REMARK VINA RESULT: -6.947069919      0.000      0.000
REMARK  6 active torsions:
REMARK  status: ('A' for Active; 'I' for Inactive)
REMARK    1  A    between atoms: N2_5  and  C4_6 
REMARK    2  A    between atoms: C5_8  and  C6_9 
REMARK    3  A    between atoms: C6_9  and  O2_10 
REMARK    4  A    between atoms: O2_10  and  P1_11 
REMARK    5  A    between atoms: C7_15  and  O6_16 
REMARK    6  A    between atoms: C8_18  and  O7_19 
ROOT
HETATM    1  C4  UNL     1      31.130  38.723   7.677  1.00  0.00     0.263 C 
HETATM    2  O1  UNL     1      31.242  39.929   6.997  1.00  0.00    -0.353 OA
HETATM    3  C5  UNL     1      30.767  39.618   5.736  1.00  0.00     0.180 C 
HETATM    4  C7  UNL     1      29.687  38.574   5.906  1.00  0.00     0.182 C 
HETATM    5  C8  UNL     1      29.671  38.407   7.413  1.00  0.00     0.198 C 
ENDROOT
BRANCH   1   6
HETATM    6  N2  UNL     1      31.481  38.763   9.042  1.00  0.00    -0.280 N 
HETATM    7  C3  UNL     1      30.915  39.575   9.950  1.00  0.00     0.102 A 
HETATM    8  C2  UNL     1      31.289  39.582  11.280  1.00  0.00     0.062 A 
HETATM    9  C1  UNL     1      32.283  38.728  11.718  1.00  0.00     0.121 A 
HETATM   10  N1  UNL     1      32.708  38.689  13.068  1.00  0.00    -0.083 NA
HETATM   11  N3  UNL     1      32.835  37.918  10.770  1.00  0.00    -0.297 N 
HETATM   12  C9  UNL     1      32.447  37.936   9.480  1.00  0.00     0.329 A 
ATOM     13  H3  UNL     1      33.573  37.271  11.050  1.00  0.00     0.171 HD
HETATM   14  O8  UNL     1      33.039  37.134   8.698  1.00  0.00    -0.246 OA
ENDBRANCH   1   6
BRANCH   5  15
HETATM   15  O7  UNL     1      29.320  37.135   7.809  1.00  0.00    -0.388 OA
ATOM     16  H7  UNL     1      28.381  37.022   7.895  1.00  0.00     0.210 HD
ENDBRANCH   5  15
BRANCH   3  17
HETATM   17  C6  UNL     1      30.121  40.803   5.045  1.00  0.00     0.217 C 
BRANCH  17  18
HETATM   18  O2  UNL     1      30.447  40.739   3.711  1.00  0.00    -0.280 OA
BRANCH  18  19
HETATM   19  P1  UNL     1      29.276  40.854   2.619  1.00  0.00     0.422 P 
HETATM   20  O3  UNL     1      29.646  39.632   1.771  1.00  0.00    -0.617 OA
HETATM   21  O4  UNL     1      29.552  41.752   1.211  1.00  0.00    -0.617 OA
HETATM   22  O5  UNL     1      28.578  42.141   3.156  1.00  0.00    -0.617 OA
ENDBRANCH  18  19
ENDBRANCH  17  18
ENDBRANCH   3  17
BRANCH   4  23
HETATM   23  O6  UNL     1      30.159  37.396   5.346  1.00  0.00    -0.390 OA
ATOM     24  H6  UNL     1      29.627  37.213   4.581  1.00  0.00     0.210 HD
ENDBRANCH   4  23
TORSDOF 6
ENDMDL
