MODEL 3
REMARK VINA RESULT: -6.730741620      4.127      7.434
REMARK  6 active torsions:
REMARK  status: ('A' for Active; 'I' for Inactive)
REMARK    1  A    between atoms: N2_5  and  C4_6 
REMARK    2  A    between atoms: C5_8  and  C6_9 
REMARK    3  A    between atoms: C6_9  and  O2_10 
REMARK    4  A    between atoms: O2_10  and  P1_11 
REMARK    5  A    between atoms: C7_15  and  O6_16 
REMARK    6  A    between atoms: C8_18  and  O7_19 
ROOT
HETATM    1  C4  UNL     1      30.435  40.961   5.860  1.00  0.00     0.263 C 
HETATM    2  O1  UNL     1      30.772  39.650   6.170  1.00  0.00    -0.353 OA
HETATM    3  C5  UNL     1      31.002  39.704   7.533  1.00  0.00     0.180 C 
HETATM    4  C7  UNL     1      30.063  40.739   8.108  1.00  0.00     0.182 C 
HETATM    5  C8  UNL     1      29.323  41.192   6.864  1.00  0.00     0.198 C 
ENDROOT
BRANCH   1   6
HETATM    6  N2  UNL     1      30.067  41.190   4.519  1.00  0.00    -0.280 N 
HETATM    7  C3  UNL     1      29.519  40.268   3.711  1.00  0.00     0.102 A 
HETATM    8  C2  UNL     1      29.173  40.534   2.401  1.00  0.00     0.062 A 
HETATM    9  C1  UNL     1      29.388  41.795   1.877  1.00  0.00     0.121 A 
HETATM   10  N1  UNL     1      29.053  42.128   0.541  1.00  0.00    -0.083 NA
HETATM   11  N3  UNL     1      29.945  42.706   2.723  1.00  0.00    -0.297 N 
HETATM   12  C9  UNL     1      30.272  42.414   3.997  1.00  0.00     0.329 A 
ATOM     13  H3  UNL     1      30.122  43.650   2.378  1.00  0.00     0.171 HD
HETATM   14  O8  UNL     1      30.783  43.349   4.682  1.00  0.00    -0.246 OA
ENDBRANCH   1   6
BRANCH   5  15
HETATM   15  O7  UNL     1      28.923  42.509   6.926  1.00  0.00    -0.388 OA
ATOM     16  H7  UNL     1      29.349  42.990   7.625  1.00  0.00     0.210 HD
ENDBRANCH   5  15
BRANCH   3  17
HETATM   17  C6  UNL     1      30.688  38.395   8.232  1.00  0.00     0.217 C 
BRANCH  17  18
HETATM   18  O2  UNL     1      31.862  37.687   8.341  1.00  0.00    -0.280 OA
BRANCH  18  19
HETATM   19  P1  UNL     1      32.679  37.744   9.721  1.00  0.00     0.422 P 
HETATM   20  O3  UNL     1      33.853  36.845   9.319  1.00  0.00    -0.617 OA
HETATM   21  O4  UNL     1      32.365  36.581  10.910  1.00  0.00    -0.617 OA
HETATM   22  O5  UNL     1      31.708  38.658  10.532  1.00  0.00    -0.617 OA
ENDBRANCH  18  19
ENDBRANCH  17  18
ENDBRANCH   3  17
BRANCH   4  23
HETATM   23  O6  UNL     1      30.839  41.797   8.557  1.00  0.00    -0.390 OA
ATOM     24  H6  UNL     1      30.412  42.155   9.326  1.00  0.00     0.210 HD
ENDBRANCH   4  23
TORSDOF 6
ENDMDL
