MODEL 2
REMARK VINA RESULT: -6.791475487      4.169      7.560
REMARK  6 active torsions:
REMARK  status: ('A' for Active; 'I' for Inactive)
REMARK    1  A    between atoms: N2_5  and  C4_6 
REMARK    2  A    between atoms: C5_8  and  C6_9 
REMARK    3  A    between atoms: C6_9  and  O2_10 
REMARK    4  A    between atoms: O2_10  and  P1_11 
REMARK    5  A    between atoms: C7_15  and  O6_16 
REMARK    6  A    between atoms: C8_18  and  O7_19 
ROOT
HETATM    1  C4  UNL     1      30.535  41.130   6.170  1.00  0.00     0.263 C 
HETATM    2  O1  UNL     1      31.166  39.942   6.517  1.00  0.00    -0.353 OA
HETATM    3  C5  UNL     1      31.332  40.067   7.885  1.00  0.00     0.180 C 
HETATM    4  C7  UNL     1      30.153  40.854   8.411  1.00  0.00     0.182 C 
HETATM    5  C8  UNL     1      29.368  41.099   7.137  1.00  0.00     0.198 C 
ENDROOT
BRANCH   1   6
HETATM    6  N2  UNL     1      30.168  41.248   4.815  1.00  0.00    -0.280 N 
HETATM    7  C3  UNL     1      29.790  40.221   4.037  1.00  0.00     0.102 A 
HETATM    8  C2  UNL     1      29.437  40.380   2.711  1.00  0.00     0.062 A 
HETATM    9  C1  UNL     1      29.466  41.637   2.138  1.00  0.00     0.121 A 
HETATM   10  N1  UNL     1      29.116  41.862   0.785  1.00  0.00    -0.083 NA
HETATM   11  N3  UNL     1      29.855  42.657   2.956  1.00  0.00    -0.297 N 
HETATM   12  C9  UNL     1      30.193  42.468   4.246  1.00  0.00     0.329 A 
ATOM     13  H3  UNL     1      29.891  43.602   2.575  1.00  0.00     0.171 HD
HETATM   14  O8  UNL     1      30.536  43.497   4.900  1.00  0.00    -0.246 OA
ENDBRANCH   1   6
BRANCH   5  15
HETATM   15  O7  UNL     1      28.662  42.282   7.160  1.00  0.00    -0.388 OA
ATOM     16  H7  UNL     1      28.212  42.426   7.984  1.00  0.00     0.210 HD
ENDBRANCH   5  15
BRANCH   3  17
HETATM   17  C6  UNL     1      31.318  38.731   8.600  1.00  0.00     0.217 C 
BRANCH  17  18
HETATM   18  O2  UNL     1      32.292  38.764   9.570  1.00  0.00    -0.280 OA
BRANCH  18  19
HETATM   19  P1  UNL     1      32.792  37.383  10.216  1.00  0.00     0.422 P 
HETATM   20  O3  UNL     1      31.974  37.437  11.511  1.00  0.00    -0.617 OA
HETATM   21  O4  UNL     1      34.150  37.393  11.226  1.00  0.00    -0.617 OA
HETATM   22  O5  UNL     1      33.782  36.942   9.094  1.00  0.00    -0.617 OA
ENDBRANCH  18  19
ENDBRANCH  17  18
ENDBRANCH   3  17
BRANCH   4  23
HETATM   23  O6  UNL     1      30.637  42.072   8.861  1.00  0.00    -0.390 OA
ATOM     24  H6  UNL     1      29.891  42.582   9.155  1.00  0.00     0.210 HD
ENDBRANCH   4  23
TORSDOF 6
ENDMDL
