MODEL 2
REMARK VINA RESULT: -9.172554332      2.384      6.350
REMARK  14 active torsions:
REMARK  status: ('A' for Active; 'I' for Inactive)
REMARK    1  A    between atoms: O1_2  and  C2_3 
REMARK    2  A    between atoms: C5_6  and  S1_7 
REMARK    3  A    between atoms: S1_7  and  N1_10 
REMARK    4  A    between atoms: N1_10  and  C6_11 
REMARK    5  A    between atoms: N1_10  and  C10_15 
REMARK    6  A    between atoms: C6_11  and  C7_12 
REMARK    7  A    between atoms: C10_15  and  C11_16 
REMARK    8  A    between atoms: C11_16  and  O4_17 
REMARK    9  A    between atoms: C11_16  and  C12_19 
REMARK   10  A    between atoms: C12_19  and  C13_20 
REMARK   11  A    between atoms: C12_19  and  N2_27 
REMARK   12  A    between atoms: C13_20  and  C14_21 
REMARK       I    between atoms: N2_27  and  C20_29 
REMARK   13  A    between atoms: C20_29  and  O6_31 
REMARK   14  A    between atoms: O6_31  and  C21_32 
ROOT
HETATM    1  C12 UNL     1      16.474  24.099  17.787  1.00  0.00     0.029 C 
ENDROOT
BRANCH   1   2
HETATM    2  C11 UNL     1      15.127  24.252  17.182  1.00  0.00     0.203 C 
BRANCH   2   3
HETATM    3  C10 UNL     1      14.424  23.097  16.613  1.00  0.00     0.113 C 
BRANCH   3   4
HETATM    4  N1  UNL     1      14.957  21.810  16.665  1.00  0.00    -0.283 N 
BRANCH   4   5
HETATM    5  S1  UNL     1      14.919  20.846  18.014  1.00  0.00     0.264 S 
HETATM    6  O2  UNL     1      14.547  21.601  19.256  1.00  0.00    -0.200 OA
HETATM    7  O3  UNL     1      16.333  20.322  18.272  1.00  0.00    -0.200 OA
BRANCH   5   8
HETATM    8  C5  UNL     1      13.850  19.461  17.963  1.00  0.00     0.080 A 
HETATM    9  C4  UNL     1      12.551  19.611  17.550  1.00  0.00     0.028 A 
HETATM   10  C3  UNL     1      11.707  18.521  17.497  1.00  0.00     0.038 A 
HETATM   11  C2  UNL     1      12.159  17.273  17.858  1.00  0.00     0.068 A 
HETATM   12  C29 UNL     1      13.466  17.151  18.268  1.00  0.00     0.038 A 
HETATM   13  C28 UNL     1      14.337  18.233  18.330  1.00  0.00     0.028 A 
BRANCH  11  14
HETATM   14  O1  UNL     1      11.327  16.160  17.813  1.00  0.00    -0.356 OA
HETATM   15  C1  UNL     1      10.736  15.694  16.636  1.00  0.00     0.210 C 
ENDBRANCH  11  14
ENDBRANCH   5   8
ENDBRANCH   4   5
BRANCH   4  16
HETATM   16  C6  UNL     1      15.290  21.220  15.413  1.00  0.00     0.144 C 
BRANCH  16  17
HETATM   17  C7  UNL     1      14.356  21.414  14.283  1.00  0.00    -0.004 C 
HETATM   18  C8  UNL     1      15.224  21.777  13.061  1.00  0.00     0.011 C 
HETATM   19  C9  UNL     1      13.520  20.242  13.883  1.00  0.00     0.011 C 
ENDBRANCH  16  17
ENDBRANCH   4  16
ENDBRANCH   3   4
ENDBRANCH   2   3
BRANCH   2  20
HETATM   20  O4  UNL     1      14.321  24.633  18.334  1.00  0.00    -0.385 OA
ATOM     21  H4  UNL     1      14.484  25.563  18.437  1.00  0.00     0.211 HD
ENDBRANCH   2  20
ENDBRANCH   1   2
BRANCH   1  22
HETATM   22  C13 UNL     1      16.660  24.542  19.198  1.00  0.00     0.094 C 
BRANCH  22  23
HETATM   23  C14 UNL     1      17.815  23.913  19.892  1.00  0.00    -0.053 A 
HETATM   24  C15 UNL     1      18.904  24.702  20.231  1.00  0.00     0.007 A 
HETATM   25  C16 UNL     1      20.000  24.191  20.886  1.00  0.00     0.001 A 
HETATM   26  C17 UNL     1      19.977  22.835  21.201  1.00  0.00     0.000 A 
HETATM   27  C18 UNL     1      18.895  22.056  20.862  1.00  0.00     0.001 A 
HETATM   28  C19 UNL     1      17.785  22.574  20.199  1.00  0.00     0.007 A 
ENDBRANCH  22  23
ENDBRANCH   1  22
BRANCH   1  29
HETATM   29  N2  UNL     1      17.560  24.493  16.925  1.00  0.00    -0.307 N 
HETATM   30  C20 UNL     1      18.486  23.524  16.425  1.00  0.00     0.365 C 
HETATM   31  O5  UNL     1      18.352  22.338  16.742  1.00  0.00    -0.238 OA
ATOM     32  H2  UNL     1      17.669  25.474  16.667  1.00  0.00     0.170 HD
BRANCH  30  33
HETATM   33  O6  UNL     1      19.536  23.879  15.591  1.00  0.00    -0.298 OA
BRANCH  33  34
HETATM   34  C21 UNL     1      19.862  25.188  15.240  1.00  0.00     0.138 C 
HETATM   35  C22 UNL     1      21.130  25.356  14.482  1.00  0.00     0.067 C 
HETATM   36  C23 UNL     1      21.514  26.806  14.676  1.00  0.00     0.153 C 
HETATM   37  O7  UNL     1      22.830  26.833  15.157  1.00  0.00    -0.381 OA
HETATM   38  C26 UNL     1      20.544  27.353  15.723  1.00  0.00     0.153 C 
HETATM   39  C24 UNL     1      23.278  28.122  15.386  1.00  0.00     0.194 C 
HETATM   40  C25 UNL     1      22.068  28.993  15.703  1.00  0.00     0.194 C 
HETATM   41  O8  UNL     1      21.234  28.213  16.537  1.00  0.00    -0.381 OA
HETATM   42  C27 UNL     1      20.070  26.086  16.451  1.00  0.00     0.067 C 
ENDBRANCH  33  34
ENDBRANCH  30  33
ENDBRANCH   1  29
TORSDOF 14
ENDMDL
