MODEL 1
REMARK VINA RESULT: -9.360069551      0.000      0.000
REMARK  14 active torsions:
REMARK  status: ('A' for Active; 'I' for Inactive)
REMARK    1  A    between atoms: O1_2  and  C2_3 
REMARK    2  A    between atoms: C5_6  and  S1_7 
REMARK    3  A    between atoms: S1_7  and  N1_10 
REMARK    4  A    between atoms: N1_10  and  C6_11 
REMARK    5  A    between atoms: N1_10  and  C10_15 
REMARK    6  A    between atoms: C6_11  and  C7_12 
REMARK    7  A    between atoms: C10_15  and  C11_16 
REMARK    8  A    between atoms: C11_16  and  O4_17 
REMARK    9  A    between atoms: C11_16  and  C12_19 
REMARK   10  A    between atoms: C12_19  and  C13_20 
REMARK   11  A    between atoms: C12_19  and  N2_27 
REMARK   12  A    between atoms: C13_20  and  C14_21 
REMARK       I    between atoms: N2_27  and  C20_29 
REMARK   13  A    between atoms: C20_29  and  O6_31 
REMARK   14  A    between atoms: O6_31  and  C21_32 
ROOT
HETATM    1  C12 UNL     1      15.497  22.445  18.701  1.00  0.00     0.029 C 
ENDROOT
BRANCH   1   2
HETATM    2  C11 UNL     1      15.203  23.547  17.751  1.00  0.00     0.203 C 
BRANCH   2   3
HETATM    3  C10 UNL     1      14.149  23.405  16.739  1.00  0.00     0.113 C 
BRANCH   3   4
HETATM    4  N1  UNL     1      14.399  22.840  15.489  1.00  0.00    -0.283 N 
BRANCH   4   5
HETATM    5  S1  UNL     1      15.918  22.583  14.876  1.00  0.00     0.264 S 
HETATM    6  O2  UNL     1      15.913  22.347  13.393  1.00  0.00    -0.200 OA
HETATM    7  O3  UNL     1      16.471  21.292  15.484  1.00  0.00    -0.200 OA
BRANCH   5   8
HETATM    8  C5  UNL     1      17.103  23.841  15.152  1.00  0.00     0.080 A 
HETATM    9  C4  UNL     1      18.369  23.513  15.562  1.00  0.00     0.028 A 
HETATM   10  C3  UNL     1      19.311  24.499  15.770  1.00  0.00     0.038 A 
HETATM   11  C2  UNL     1      18.989  25.821  15.568  1.00  0.00     0.068 A 
HETATM   12  C29 UNL     1      17.712  26.122  15.157  1.00  0.00     0.038 A 
HETATM   13  C28 UNL     1      16.745  25.147  14.939  1.00  0.00     0.028 A 
BRANCH  11  14
HETATM   14  O1  UNL     1      19.922  26.833  15.772  1.00  0.00    -0.356 OA
HETATM   15  C1  UNL     1      19.998  27.975  14.971  1.00  0.00     0.210 C 
ENDBRANCH  11  14
ENDBRANCH   5   8
ENDBRANCH   4   5
BRANCH   4  16
HETATM   16  C6  UNL     1      13.291  22.211  14.854  1.00  0.00     0.144 C 
BRANCH  16  17
HETATM   17  C7  UNL     1      13.209  20.735  14.901  1.00  0.00    -0.004 C 
HETATM   18  C8  UNL     1      12.105  20.394  15.921  1.00  0.00     0.011 C 
HETATM   19  C9  UNL     1      12.853  20.034  13.630  1.00  0.00     0.011 C 
ENDBRANCH  16  17
ENDBRANCH   4  16
ENDBRANCH   3   4
ENDBRANCH   2   3
BRANCH   2  20
HETATM   20  O4  UNL     1      14.710  24.589  18.640  1.00  0.00    -0.385 OA
ATOM     21  H4  UNL     1      15.072  25.392  18.284  1.00  0.00     0.211 HD
ENDBRANCH   2  20
ENDBRANCH   1   2
BRANCH   1  22
HETATM   22  C13 UNL     1      14.346  21.759  19.352  1.00  0.00     0.094 C 
BRANCH  22  23
HETATM   23  C14 UNL     1      14.291  20.292  19.116  1.00  0.00    -0.053 A 
HETATM   24  C15 UNL     1      13.446  19.517  19.896  1.00  0.00     0.007 A 
HETATM   25  C16 UNL     1      13.334  18.158  19.722  1.00  0.00     0.001 A 
HETATM   26  C17 UNL     1      14.111  17.579  18.722  1.00  0.00     0.000 A 
HETATM   27  C18 UNL     1      14.948  18.350  17.951  1.00  0.00     0.001 A 
HETATM   28  C19 UNL     1      15.061  19.728  18.126  1.00  0.00     0.007 A 
ENDBRANCH  22  23
ENDBRANCH   1  22
BRANCH   1  29
HETATM   29  N2  UNL     1      16.578  22.722  19.613  1.00  0.00    -0.307 N 
HETATM   30  C20 UNL     1      17.877  22.164  19.398  1.00  0.00     0.365 C 
HETATM   31  O5  UNL     1      18.070  21.433  18.421  1.00  0.00    -0.238 OA
ATOM     32  H2  UNL     1      16.415  23.323  20.421  1.00  0.00     0.170 HD
BRANCH  30  33
HETATM   33  O6  UNL     1      18.934  22.419  20.261  1.00  0.00    -0.298 OA
BRANCH  33  34
HETATM   34  C21 UNL     1      20.002  23.267  19.975  1.00  0.00     0.138 C 
HETATM   35  C22 UNL     1      20.736  23.800  21.154  1.00  0.00     0.067 C 
HETATM   36  C23 UNL     1      21.452  25.032  20.647  1.00  0.00     0.153 C 
HETATM   37  O7  UNL     1      21.107  26.098  21.489  1.00  0.00    -0.381 OA
HETATM   38  C26 UNL     1      20.919  25.266  19.233  1.00  0.00     0.153 C 
HETATM   39  C24 UNL     1      21.700  27.286  21.100  1.00  0.00     0.194 C 
HETATM   40  C25 UNL     1      21.941  27.223  19.597  1.00  0.00     0.194 C 
HETATM   41  O8  UNL     1      20.791  26.617  19.042  1.00  0.00    -0.381 OA
HETATM   42  C27 UNL     1      19.569  24.530  19.245  1.00  0.00     0.067 C 
ENDBRANCH  33  34
ENDBRANCH  30  33
ENDBRANCH   1  29
TORSDOF 14
ENDMDL
