MODEL 4
REMARK VINA RESULT: -9.021825456      1.946      2.786
REMARK  14 active torsions:
REMARK  status: ('A' for Active; 'I' for Inactive)
REMARK    1  A    between atoms: O1_2  and  C2_3 
REMARK    2  A    between atoms: C5_6  and  S1_7 
REMARK    3  A    between atoms: S1_7  and  N1_10 
REMARK    4  A    between atoms: N1_10  and  C6_11 
REMARK    5  A    between atoms: N1_10  and  C10_15 
REMARK    6  A    between atoms: C6_11  and  C7_12 
REMARK    7  A    between atoms: C10_15  and  C11_16 
REMARK    8  A    between atoms: C11_16  and  O4_17 
REMARK    9  A    between atoms: C11_16  and  C12_19 
REMARK   10  A    between atoms: C12_19  and  C13_20 
REMARK   11  A    between atoms: C12_19  and  N2_27 
REMARK   12  A    between atoms: C13_20  and  C14_21 
REMARK       I    between atoms: N2_27  and  C20_29 
REMARK   13  A    between atoms: C20_29  and  O6_31 
REMARK   14  A    between atoms: O6_31  and  C21_32 
ROOT
HETATM    1  C12 UNL     1      16.204  22.018  18.733  1.00  0.00     0.029 C 
ENDROOT
BRANCH   1   2
HETATM    2  C11 UNL     1      16.787  21.586  17.439  1.00  0.00     0.203 C 
BRANCH   2   3
HETATM    3  C10 UNL     1      17.677  22.473  16.682  1.00  0.00     0.113 C 
BRANCH   3   4
HETATM    4  N1  UNL     1      17.188  23.529  15.914  1.00  0.00    -0.283 N 
BRANCH   4   5
HETATM    5  S1  UNL     1      17.502  25.126  16.229  1.00  0.00     0.264 S 
HETATM    6  O2  UNL     1      17.178  25.514  17.642  1.00  0.00    -0.200 OA
HETATM    7  O3  UNL     1      16.579  25.980  15.358  1.00  0.00    -0.200 OA
BRANCH   5   8
HETATM    8  C5  UNL     1      19.140  25.677  15.950  1.00  0.00     0.080 A 
HETATM    9  C4  UNL     1      19.913  25.074  14.992  1.00  0.00     0.028 A 
HETATM   10  C3  UNL     1      21.202  25.510  14.760  1.00  0.00     0.038 A 
HETATM   11  C2  UNL     1      21.722  26.555  15.488  1.00  0.00     0.068 A 
HETATM   12  C29 UNL     1      20.926  27.142  16.442  1.00  0.00     0.038 A 
HETATM   13  C28 UNL     1      19.625  26.721  16.695  1.00  0.00     0.028 A 
BRANCH  11  14
HETATM   14  O1  UNL     1      23.018  27.013  15.272  1.00  0.00    -0.356 OA
HETATM   15  C1  UNL     1      24.078  26.750  16.143  1.00  0.00     0.210 C 
ENDBRANCH  11  14
ENDBRANCH   5   8
ENDBRANCH   4   5
BRANCH   4  16
HETATM   16  C6  UNL     1      16.630  23.179  14.652  1.00  0.00     0.144 C 
BRANCH  16  17
HETATM   17  C7  UNL     1      15.437  22.305  14.639  1.00  0.00    -0.004 C 
HETATM   18  C8  UNL     1      14.251  23.182  15.088  1.00  0.00     0.011 C 
HETATM   19  C9  UNL     1      15.052  21.701  13.327  1.00  0.00     0.011 C 
ENDBRANCH  16  17
ENDBRANCH   4  16
ENDBRANCH   3   4
ENDBRANCH   2   3
BRANCH   2  20
HETATM   20  O4  UNL     1      17.641  20.479  17.846  1.00  0.00    -0.385 OA
ATOM     21  H4  UNL     1      17.425  19.780  17.240  1.00  0.00     0.211 HD
ENDBRANCH   2  20
ENDBRANCH   1   2
BRANCH   1  22
HETATM   22  C13 UNL     1      14.719  22.073  18.847  1.00  0.00     0.094 C 
BRANCH  22  23
HETATM   23  C14 UNL     1      14.035  20.778  18.589  1.00  0.00    -0.053 A 
HETATM   24  C15 UNL     1      14.287  19.706  19.433  1.00  0.00     0.007 A 
HETATM   25  C16 UNL     1      13.679  18.485  19.263  1.00  0.00     0.001 A 
HETATM   26  C17 UNL     1      12.791  18.360  18.199  1.00  0.00     0.000 A 
HETATM   27  C18 UNL     1      12.543  19.424  17.364  1.00  0.00     0.001 A 
HETATM   28  C19 UNL     1      13.159  20.662  17.537  1.00  0.00     0.007 A 
ENDBRANCH  22  23
ENDBRANCH   1  22
BRANCH   1  29
HETATM   29  N2  UNL     1      16.857  23.157  19.327  1.00  0.00    -0.307 N 
HETATM   30  C20 UNL     1      17.945  22.984  20.239  1.00  0.00     0.365 C 
HETATM   31  O5  UNL     1      18.324  21.843  20.521  1.00  0.00    -0.238 OA
ATOM     32  H2  UNL     1      16.539  24.099  19.094  1.00  0.00     0.170 HD
BRANCH  30  33
HETATM   33  O6  UNL     1      18.592  24.066  20.820  1.00  0.00    -0.298 OA
BRANCH  33  34
HETATM   34  C21 UNL     1      19.540  24.860  20.178  1.00  0.00     0.138 C 
HETATM   35  C22 UNL     1      20.622  24.126  19.469  1.00  0.00     0.067 C 
HETATM   36  C23 UNL     1      21.746  25.128  19.323  1.00  0.00     0.153 C 
HETATM   37  O7  UNL     1      22.904  24.543  19.852  1.00  0.00    -0.381 OA
HETATM   38  C26 UNL     1      21.326  26.342  20.152  1.00  0.00     0.153 C 
HETATM   39  C24 UNL     1      23.997  25.389  19.783  1.00  0.00     0.194 C 
HETATM   40  C25 UNL     1      23.485  26.824  19.813  1.00  0.00     0.194 C 
HETATM   41  O8  UNL     1      22.442  26.846  20.767  1.00  0.00    -0.381 OA
HETATM   42  C27 UNL     1      20.310  25.750  21.142  1.00  0.00     0.067 C 
ENDBRANCH  33  34
ENDBRANCH  30  33
ENDBRANCH   1  29
TORSDOF 14
ENDMDL
