MODEL 7
REMARK VINA RESULT: -8.917852774      2.621      7.390
REMARK  14 active torsions:
REMARK  status: ('A' for Active; 'I' for Inactive)
REMARK    1  A    between atoms: O1_2  and  C2_3 
REMARK    2  A    between atoms: C5_6  and  S1_7 
REMARK    3  A    between atoms: S1_7  and  N1_10 
REMARK    4  A    between atoms: N1_10  and  C6_11 
REMARK    5  A    between atoms: N1_10  and  C10_15 
REMARK    6  A    between atoms: C6_11  and  C7_12 
REMARK    7  A    between atoms: C10_15  and  C11_16 
REMARK    8  A    between atoms: C11_16  and  O4_17 
REMARK    9  A    between atoms: C11_16  and  C12_19 
REMARK   10  A    between atoms: C12_19  and  C13_20 
REMARK   11  A    between atoms: C12_19  and  N2_27 
REMARK   12  A    between atoms: C13_20  and  C14_21 
REMARK       I    between atoms: N2_27  and  C20_29 
REMARK   13  A    between atoms: C20_29  and  O6_31 
REMARK   14  A    between atoms: O6_31  and  C21_32 
ROOT
HETATM    1  C12 UNL     1      14.592  22.585  17.365  1.00  0.00     0.029 C 
ENDROOT
BRANCH   1   2
HETATM    2  C11 UNL     1      15.027  23.599  18.358  1.00  0.00     0.203 C 
BRANCH   2   3
HETATM    3  C10 UNL     1      16.286  24.332  18.180  1.00  0.00     0.113 C 
BRANCH   3   4
HETATM    4  N1  UNL     1      17.425  23.725  17.655  1.00  0.00    -0.283 N 
BRANCH   4   5
HETATM    5  S1  UNL     1      18.020  24.028  16.137  1.00  0.00     0.264 S 
HETATM    6  O2  UNL     1      16.951  24.024  15.083  1.00  0.00    -0.200 OA
HETATM    7  O3  UNL     1      18.965  22.888  15.753  1.00  0.00    -0.200 OA
BRANCH   5   8
HETATM    8  C5  UNL     1      18.896  25.528  15.919  1.00  0.00     0.080 A 
HETATM    9  C4  UNL     1      19.619  26.057  16.955  1.00  0.00     0.028 A 
HETATM   10  C3  UNL     1      20.321  27.234  16.786  1.00  0.00     0.038 A 
HETATM   11  C2  UNL     1      20.300  27.886  15.575  1.00  0.00     0.068 A 
HETATM   12  C29 UNL     1      19.567  27.333  14.552  1.00  0.00     0.038 A 
HETATM   13  C28 UNL     1      18.852  26.149  14.698  1.00  0.00     0.028 A 
BRANCH  11  14
HETATM   14  O1  UNL     1      21.000  29.073  15.381  1.00  0.00    -0.356 OA
HETATM   15  C1  UNL     1      22.390  29.132  15.268  1.00  0.00     0.210 C 
ENDBRANCH  11  14
ENDBRANCH   5   8
ENDBRANCH   4   5
BRANCH   4  16
HETATM   16  C6  UNL     1      18.250  23.032  18.586  1.00  0.00     0.144 C 
BRANCH  16  17
HETATM   17  C7  UNL     1      18.216  23.464  20.000  1.00  0.00    -0.004 C 
HETATM   18  C8  UNL     1      18.571  22.222  20.841  1.00  0.00     0.011 C 
HETATM   19  C9  UNL     1      19.168  24.544  20.404  1.00  0.00     0.011 C 
ENDBRANCH  16  17
ENDBRANCH   4  16
ENDBRANCH   3   4
ENDBRANCH   2   3
BRANCH   2  20
HETATM   20  O4  UNL     1      13.995  24.617  18.222  1.00  0.00    -0.385 OA
ATOM     21  H4  UNL     1      13.413  24.461  18.957  1.00  0.00     0.211 HD
ENDBRANCH   2  20
ENDBRANCH   1   2
BRANCH   1  22
HETATM   22  C13 UNL     1      13.851  23.059  16.162  1.00  0.00     0.094 C 
BRANCH  22  23
HETATM   23  C14 UNL     1      13.572  22.001  15.156  1.00  0.00    -0.053 A 
HETATM   24  C15 UNL     1      12.256  21.637  14.911  1.00  0.00     0.007 A 
HETATM   25  C16 UNL     1      11.925  20.677  13.984  1.00  0.00     0.001 A 
HETATM   26  C17 UNL     1      12.971  20.075  13.291  1.00  0.00     0.000 A 
HETATM   27  C18 UNL     1      14.275  20.438  13.536  1.00  0.00     0.001 A 
HETATM   28  C19 UNL     1      14.611  21.411  14.475  1.00  0.00     0.007 A 
ENDBRANCH  22  23
ENDBRANCH   1  22
BRANCH   1  29
HETATM   29  N2  UNL     1      14.025  21.394  17.944  1.00  0.00    -0.307 N 
HETATM   30  C20 UNL     1      14.825  20.226  18.146  1.00  0.00     0.365 C 
HETATM   31  O5  UNL     1      16.015  20.241  17.816  1.00  0.00    -0.238 OA
ATOM     32  H2  UNL     1      13.040  21.383  18.212  1.00  0.00     0.170 HD
BRANCH  30  33
HETATM   33  O6  UNL     1      14.301  19.068  18.705  1.00  0.00    -0.298 OA
BRANCH  33  34
HETATM   34  C21 UNL     1      12.982  18.644  18.557  1.00  0.00     0.138 C 
HETATM   35  C22 UNL     1      12.747  17.188  18.751  1.00  0.00     0.067 C 
HETATM   36  C23 UNL     1      11.434  16.906  18.055  1.00  0.00     0.153 C 
HETATM   37  O7  UNL     1      11.650  15.853  17.157  1.00  0.00    -0.381 OA
HETATM   38  C26 UNL     1      11.080  18.191  17.306  1.00  0.00     0.153 C 
HETATM   39  C24 UNL     1      10.507  15.523  16.450  1.00  0.00     0.194 C 
HETATM   40  C25 UNL     1       9.636  16.770  16.355  1.00  0.00     0.194 C 
HETATM   41  O8  UNL     1      10.519  17.846  16.104  1.00  0.00    -0.381 OA
HETATM   42  C27 UNL     1      12.440  18.891  17.156  1.00  0.00     0.067 C 
ENDBRANCH  33  34
ENDBRANCH  30  33
ENDBRANCH   1  29
TORSDOF 14
ENDMDL
