MODEL 1
REMARK VINA RESULT: -13.389313352      0.000      0.000
REMARK  11 active torsions:
REMARK  status: ('A' for Active; 'I' for Inactive)
REMARK    1  A    between atoms: C4_4  and  S1_5 
REMARK    2  A    between atoms: S1_5  and  N1_6 
REMARK    3  A    between atoms: C7_13  and  N2_14 
REMARK    4  A    between atoms: N2_14  and  C8_16 
REMARK    5  A    between atoms: C8_16  and  O3_17 
REMARK    6  A    between atoms: C8_16  and  C9_19 
REMARK    7  A    between atoms: C9_19  and  O4_20 
REMARK    8  A    between atoms: O4_20  and  C10_21 
REMARK    9  A    between atoms: C15_27  and  C16_28 
REMARK   10  A    between atoms: C16_28  and  C17_30 
REMARK   11  A    between atoms: C21_35  and  C22_36 
ROOT
HETATM    1  C10 UNL     1      -2.083 -34.911  22.986  1.00  0.00     0.089 A 
HETATM    2  C11 UNL     1      -1.476 -35.782  22.073  1.00  0.00     0.040 A 
HETATM    3  C12 UNL     1      -0.757 -36.872  22.503  1.00  0.00     0.026 A 
HETATM    4  C13 UNL     1      -0.627 -37.124  23.869  1.00  0.00     0.035 A 
HETATM    5 CL1  UNL     1       0.275 -38.522  24.427  1.00  0.00    -0.084 Cl
HETATM    6  C14 UNL     1      -1.215 -36.272  24.776  1.00  0.00     0.042 A 
HETATM    7  C15 UNL     1      -1.933 -35.185  24.371  1.00  0.00     0.050 A 
ENDROOT
BRANCH   1   8
HETATM    8  O4  UNL     1      -2.792 -33.875  22.613  1.00  0.00    -0.318 OA
BRANCH   8   9
HETATM    9  C9  UNL     1      -3.715 -33.205  22.067  1.00  0.00     0.198 C 
BRANCH   9  10
HETATM   10  C8  UNL     1      -4.998 -33.586  21.479  1.00  0.00     0.163 C 
BRANCH  10  11
HETATM   11  N2  UNL     1      -6.302 -33.406  21.952  1.00  0.00    -0.335 N 
ATOM     12  H2  UNL     1      -6.706 -32.482  21.802  1.00  0.00     0.168 HD
BRANCH  11  13
HETATM   13  C7  UNL     1      -7.136 -34.350  22.615  1.00  0.00     0.040 A 
HETATM   14  C2  UNL     1      -7.519 -34.083  23.934  1.00  0.00    -0.034 A 
HETATM   15  C1  UNL     1      -7.030 -32.889  24.677  1.00  0.00     0.050 C 
HETATM   16  C3  UNL     1      -8.374 -34.909  24.611  1.00  0.00     0.034 A 
HETATM   17  C4  UNL     1      -8.884 -36.037  23.999  1.00  0.00     0.080 A 
HETATM   18  C5  UNL     1      -8.522 -36.330  22.700  1.00  0.00     0.027 A 
HETATM   19  C6  UNL     1      -7.661 -35.475  22.056  1.00  0.00     0.031 A 
BRANCH  17  20
HETATM   20  S1  UNL     1      -9.998 -37.089  24.786  1.00  0.00     0.256 S 
HETATM   21  O1  UNL     1      -9.812 -38.579  24.280  1.00  0.00    -0.201 OA
HETATM   22  O2  UNL     1     -11.432 -36.487  24.740  1.00  0.00    -0.201 OA
BRANCH  20  23
HETATM   23  N1  UNL     1      -9.517 -37.125  26.475  1.00  0.00    -0.324 N 
ATOM     24  H12 UNL     1      -8.581 -37.313  26.832  1.00  0.00     0.169 HD
ATOM     25  H11 UNL     1     -10.360 -36.920  27.010  1.00  0.00     0.169 HD
ENDBRANCH  20  23
ENDBRANCH  17  20
ENDBRANCH  11  13
ENDBRANCH  10  11
BRANCH  10  26
HETATM   26  O3  UNL     1      -4.943 -34.194  20.316  1.00  0.00    -0.345 OA
ATOM     27  H3  UNL     1      -4.140 -34.684  20.184  1.00  0.00     0.219 HD
ENDBRANCH  10  26
ENDBRANCH   9  10
ENDBRANCH   8   9
ENDBRANCH   1   8
BRANCH   7  28
HETATM   28  C16 UNL     1      -2.572 -34.233  25.267  1.00  0.00     0.195 C 
HETATM   29  O5  UNL     1      -3.825 -34.022  25.237  1.00  0.00    -0.287 OA
BRANCH  28  30
HETATM   30  C17 UNL     1      -1.738 -33.510  26.225  1.00  0.00     0.019 A 
HETATM   31  C18 UNL     1      -2.325 -32.678  27.175  1.00  0.00     0.057 A 
HETATM   32  C19 UNL     1      -1.552 -32.034  28.092  1.00  0.00     0.118 A 
HETATM   33  F1  UNL     1      -2.125 -31.229  29.020  1.00  0.00    -0.206 F 
HETATM   34  C20 UNL     1      -0.190 -32.164  28.133  1.00  0.00     0.058 A 
HETATM   35  C21 UNL     1       0.389 -32.986  27.192  1.00  0.00     0.051 A 
HETATM   36  C23 UNL     1      -0.360 -33.645  26.259  1.00  0.00     0.032 A 
BRANCH  35  37
HETATM   37  C22 UNL     1       1.883 -33.137  27.238  1.00  0.00     0.417 C 
HETATM   38  F2  UNL     1       2.194 -34.445  27.013  1.00  0.00    -0.166 F 
HETATM   39  F3  UNL     1       2.399 -32.263  26.301  1.00  0.00    -0.166 F 
HETATM   40  F4  UNL     1       2.384 -32.718  28.471  1.00  0.00    -0.166 F 
ENDBRANCH  35  37
ENDBRANCH  28  30
ENDBRANCH   7  28
TORSDOF 11
ENDMDL
