MODEL 12
REMARK VINA RESULT: -10.464067815      3.040      4.944
REMARK  11 active torsions:
REMARK  status: ('A' for Active; 'I' for Inactive)
REMARK    1  A    between atoms: C4_4  and  S1_5 
REMARK    2  A    between atoms: S1_5  and  N1_6 
REMARK    3  A    between atoms: C7_13  and  N2_14 
REMARK    4  A    between atoms: N2_14  and  C8_16 
REMARK    5  A    between atoms: C8_16  and  O3_17 
REMARK    6  A    between atoms: C8_16  and  C9_19 
REMARK    7  A    between atoms: C9_19  and  O4_20 
REMARK    8  A    between atoms: O4_20  and  C10_21 
REMARK    9  A    between atoms: C15_27  and  C16_28 
REMARK   10  A    between atoms: C16_28  and  C17_30 
REMARK   11  A    between atoms: C21_35  and  C22_36 
ROOT
HETATM    1  C10 UNL     1      -1.629 -32.596  26.469  1.00  0.00     0.089 A 
HETATM    2  C11 UNL     1      -0.948 -31.402  26.739  1.00  0.00     0.040 A 
HETATM    3  C12 UNL     1       0.406 -31.395  26.975  1.00  0.00     0.026 A 
HETATM    4  C13 UNL     1       1.122 -32.591  26.944  1.00  0.00     0.035 A 
HETATM    5 CL1  UNL     1       2.854 -32.590  27.228  1.00  0.00    -0.084 Cl
HETATM    6  C14 UNL     1       0.464 -33.772  26.685  1.00  0.00     0.042 A 
HETATM    7  C15 UNL     1      -0.879 -33.802  26.448  1.00  0.00     0.050 A 
ENDROOT
BRANCH   1   8
HETATM    8  O4  UNL     1      -2.914 -32.638  26.220  1.00  0.00    -0.318 OA
BRANCH   8   9
HETATM    9  C9  UNL     1      -4.007 -32.492  25.600  1.00  0.00     0.198 C 
BRANCH   9  10
HETATM   10  C8  UNL     1      -4.354 -32.551  24.182  1.00  0.00     0.163 C 
BRANCH  10  11
HETATM   11  N2  UNL     1      -5.602 -32.508  23.551  1.00  0.00    -0.335 N 
ATOM     12  H2  UNL     1      -5.760 -31.713  22.933  1.00  0.00     0.168 HD
BRANCH  11  13
HETATM   13  C7  UNL     1      -6.677 -33.433  23.662  1.00  0.00     0.040 A 
HETATM   14  C2  UNL     1      -6.800 -34.427  22.684  1.00  0.00    -0.034 A 
HETATM   15  C1  UNL     1      -5.890 -34.500  21.508  1.00  0.00     0.050 C 
HETATM   16  C3  UNL     1      -7.767 -35.391  22.763  1.00  0.00     0.034 A 
HETATM   17  C4  UNL     1      -8.653 -35.406  23.822  1.00  0.00     0.080 A 
HETATM   18  C5  UNL     1      -8.560 -34.438  24.801  1.00  0.00     0.027 A 
HETATM   19  C6  UNL     1      -7.575 -33.487  24.684  1.00  0.00     0.031 A 
BRANCH  17  20
HETATM   20  S1  UNL     1      -9.861 -36.621  23.997  1.00  0.00     0.256 S 
HETATM   21  O1  UNL     1     -11.126 -36.045  24.759  1.00  0.00    -0.201 OA
HETATM   22  O2  UNL     1      -9.230 -37.935  24.539  1.00  0.00    -0.201 OA
BRANCH  20  23
HETATM   23  N1  UNL     1     -10.435 -36.967  22.374  1.00  0.00    -0.324 N 
ATOM     24  H12 UNL     1     -10.213 -36.440  21.529  1.00  0.00     0.169 HD
ATOM     25  H11 UNL     1     -11.026 -37.793  22.456  1.00  0.00     0.169 HD
ENDBRANCH  20  23
ENDBRANCH  17  20
ENDBRANCH  11  13
ENDBRANCH  10  11
BRANCH  10  26
HETATM   26  O3  UNL     1      -3.349 -32.657  23.344  1.00  0.00    -0.345 OA
ATOM     27  H3  UNL     1      -2.682 -33.271  23.629  1.00  0.00     0.219 HD
ENDBRANCH  10  26
ENDBRANCH   9  10
ENDBRANCH   8   9
ENDBRANCH   1   8
BRANCH   7  28
HETATM   28  C16 UNL     1      -1.647 -35.008  26.180  1.00  0.00     0.195 C 
HETATM   29  O5  UNL     1      -2.631 -35.351  26.908  1.00  0.00    -0.287 OA
BRANCH  28  30
HETATM   30  C17 UNL     1      -1.267 -35.837  25.038  1.00  0.00     0.019 A 
HETATM   31  C18 UNL     1      -0.708 -37.096  25.242  1.00  0.00     0.057 A 
HETATM   32  C19 UNL     1      -0.389 -37.884  24.179  1.00  0.00     0.118 A 
HETATM   33  F1  UNL     1       0.150 -39.112  24.380  1.00  0.00    -0.206 F 
HETATM   34  C20 UNL     1      -0.596 -37.496  22.883  1.00  0.00     0.058 A 
HETATM   35  C21 UNL     1      -1.147 -36.250  22.683  1.00  0.00     0.051 A 
HETATM   36  C23 UNL     1      -1.477 -35.436  23.729  1.00  0.00     0.032 A 
BRANCH  35  37
HETATM   37  C22 UNL     1      -1.382 -35.823  21.261  1.00  0.00     0.417 C 
HETATM   38  F2  UNL     1      -1.070 -34.502  21.149  1.00  0.00    -0.166 F 
HETATM   39  F3  UNL     1      -0.618 -36.655  20.466  1.00  0.00    -0.166 F 
HETATM   40  F4  UNL     1      -2.708 -36.049  20.890  1.00  0.00    -0.166 F 
ENDBRANCH  35  37
ENDBRANCH  28  30
ENDBRANCH   7  28
TORSDOF 11
ENDMDL
