MODEL 3
REMARK VINA RESULT: -13.047753368      1.173      1.769
REMARK  11 active torsions:
REMARK  status: ('A' for Active; 'I' for Inactive)
REMARK    1  A    between atoms: C4_4  and  S1_5 
REMARK    2  A    between atoms: S1_5  and  N1_6 
REMARK    3  A    between atoms: C7_13  and  N2_14 
REMARK    4  A    between atoms: N2_14  and  C8_16 
REMARK    5  A    between atoms: C8_16  and  O3_17 
REMARK    6  A    between atoms: C8_16  and  C9_19 
REMARK    7  A    between atoms: C9_19  and  O4_20 
REMARK    8  A    between atoms: O4_20  and  C10_21 
REMARK    9  A    between atoms: C15_27  and  C16_28 
REMARK   10  A    between atoms: C16_28  and  C17_30 
REMARK   11  A    between atoms: C21_35  and  C22_36 
ROOT
HETATM    1  C10 UNL     1      -1.956 -34.626  23.458  1.00  0.00     0.089 A 
HETATM    2  C11 UNL     1      -1.408 -35.287  22.351  1.00  0.00     0.040 A 
HETATM    3  C12 UNL     1      -0.752 -36.487  22.494  1.00  0.00     0.026 A 
HETATM    4  C13 UNL     1      -0.628 -37.064  23.758  1.00  0.00     0.035 A 
HETATM    5 CL1  UNL     1       0.193 -38.603  23.948  1.00  0.00    -0.084 Cl
HETATM    6  C14 UNL     1      -1.158 -36.422  24.854  1.00  0.00     0.042 A 
HETATM    7  C15 UNL     1      -1.813 -35.231  24.735  1.00  0.00     0.050 A 
ENDROOT
BRANCH   1   8
HETATM    8  O4  UNL     1      -2.604 -33.493  23.357  1.00  0.00    -0.318 OA
BRANCH   8   9
HETATM    9  C9  UNL     1      -3.568 -32.688  23.206  1.00  0.00     0.198 C 
BRANCH   9  10
HETATM   10  C8  UNL     1      -4.896 -32.612  23.812  1.00  0.00     0.163 C 
BRANCH  10  11
HETATM   11  N2  UNL     1      -6.165 -32.706  23.230  1.00  0.00    -0.335 N 
ATOM     12  H2  UNL     1      -6.400 -31.979  22.555  1.00  0.00     0.168 HD
BRANCH  11  13
HETATM   13  C7  UNL     1      -7.170 -33.686  23.462  1.00  0.00     0.040 A 
HETATM   14  C2  UNL     1      -7.252 -34.772  22.583  1.00  0.00    -0.034 A 
HETATM   15  C1  UNL     1      -6.373 -34.893  21.387  1.00  0.00     0.050 C 
HETATM   16  C3  UNL     1      -8.147 -35.787  22.782  1.00  0.00     0.034 A 
HETATM   17  C4  UNL     1      -8.998 -35.763  23.869  1.00  0.00     0.080 A 
HETATM   18  C5  UNL     1      -8.945 -34.705  24.753  1.00  0.00     0.027 A 
HETATM   19  C6  UNL     1      -8.032 -33.705  24.516  1.00  0.00     0.031 A 
BRANCH  17  20
HETATM   20  S1  UNL     1     -10.113 -37.034  24.195  1.00  0.00     0.256 S 
HETATM   21  O1  UNL     1     -11.357 -36.490  25.012  1.00  0.00    -0.201 OA
HETATM   22  O2  UNL     1      -9.366 -38.275  24.762  1.00  0.00    -0.201 OA
BRANCH  20  23
HETATM   23  N1  UNL     1     -10.772 -37.508  22.638  1.00  0.00    -0.324 N 
ATOM     24  H12 UNL     1     -10.991 -36.886  21.860  1.00  0.00     0.169 HD
ATOM     25  H11 UNL     1     -10.887 -38.521  22.679  1.00  0.00     0.169 HD
ENDBRANCH  20  23
ENDBRANCH  17  20
ENDBRANCH  11  13
ENDBRANCH  10  11
BRANCH  10  26
HETATM   26  O3  UNL     1      -4.930 -32.430  25.112  1.00  0.00    -0.345 OA
ATOM     27  H3  UNL     1      -4.068 -32.386  25.509  1.00  0.00     0.219 HD
ENDBRANCH  10  26
ENDBRANCH   9  10
ENDBRANCH   8   9
ENDBRANCH   1   8
BRANCH   7  28
HETATM   28  C16 UNL     1      -2.388 -34.487  25.844  1.00  0.00     0.195 C 
HETATM   29  O5  UNL     1      -3.613 -34.601  26.164  1.00  0.00    -0.287 OA
BRANCH  28  30
HETATM   30  C17 UNL     1      -1.522 -33.590  26.605  1.00  0.00     0.019 A 
HETATM   31  C18 UNL     1      -2.074 -32.659  27.482  1.00  0.00     0.057 A 
HETATM   32  C19 UNL     1      -1.266 -31.849  28.219  1.00  0.00     0.118 A 
HETATM   33  F1  UNL     1      -1.806 -30.948  29.076  1.00  0.00    -0.206 F 
HETATM   34  C20 UNL     1       0.100 -31.903  28.146  1.00  0.00     0.058 A 
HETATM   35  C21 UNL     1       0.645 -32.823  27.278  1.00  0.00     0.051 A 
HETATM   36  C23 UNL     1      -0.140 -33.648  26.525  1.00  0.00     0.032 A 
BRANCH  35  37
HETATM   37  C22 UNL     1       2.144 -32.889  27.200  1.00  0.00     0.417 C 
HETATM   38  F2  UNL     1       2.500 -34.121  26.741  1.00  0.00    -0.166 F 
HETATM   39  F3  UNL     1       2.545 -31.844  26.390  1.00  0.00    -0.166 F 
HETATM   40  F4  UNL     1       2.715 -32.646  28.450  1.00  0.00    -0.166 F 
ENDBRANCH  35  37
ENDBRANCH  28  30
ENDBRANCH   7  28
TORSDOF 11
ENDMDL
