MODEL 8
REMARK VINA RESULT: -11.216429816      3.174      5.141
REMARK  11 active torsions:
REMARK  status: ('A' for Active; 'I' for Inactive)
REMARK    1  A    between atoms: C4_4  and  S1_5 
REMARK    2  A    between atoms: S1_5  and  N1_6 
REMARK    3  A    between atoms: C7_13  and  N2_14 
REMARK    4  A    between atoms: N2_14  and  C8_16 
REMARK    5  A    between atoms: C8_16  and  O3_17 
REMARK    6  A    between atoms: C8_16  and  C9_19 
REMARK    7  A    between atoms: C9_19  and  O4_20 
REMARK    8  A    between atoms: O4_20  and  C10_21 
REMARK    9  A    between atoms: C15_27  and  C16_28 
REMARK   10  A    between atoms: C16_28  and  C17_30 
REMARK   11  A    between atoms: C21_35  and  C22_36 
ROOT
HETATM    1  C10 UNL     1      -2.066 -33.291  26.420  1.00  0.00     0.089 A 
HETATM    2  C11 UNL     1      -1.704 -32.108  27.076  1.00  0.00     0.040 A 
HETATM    3  C12 UNL     1      -0.390 -31.834  27.371  1.00  0.00     0.026 A 
HETATM    4  C13 UNL     1       0.606 -32.743  27.013  1.00  0.00     0.035 A 
HETATM    5 CL1  UNL     1       2.289 -32.394  27.371  1.00  0.00    -0.084 Cl
HETATM    6  C14 UNL     1       0.263 -33.911  26.372  1.00  0.00     0.042 A 
HETATM    7  C15 UNL     1      -1.036 -34.203  26.069  1.00  0.00     0.050 A 
ENDROOT
BRANCH   1   8
HETATM    8  O4  UNL     1      -3.305 -33.576  26.105  1.00  0.00    -0.318 OA
BRANCH   8   9
HETATM    9  C9  UNL     1      -4.461 -33.448  25.608  1.00  0.00     0.198 C 
BRANCH   9  10
HETATM   10  C8  UNL     1      -4.993 -32.592  24.550  1.00  0.00     0.163 C 
BRANCH  10  11
HETATM   11  N2  UNL     1      -6.262 -32.559  23.961  1.00  0.00    -0.335 N 
ATOM     12  H2  UNL     1      -6.488 -31.713  23.439  1.00  0.00     0.168 HD
BRANCH  11  13
HETATM   13  C7  UNL     1      -7.276 -33.557  23.999  1.00  0.00     0.040 A 
HETATM   14  C2  UNL     1      -7.255 -34.560  23.023  1.00  0.00    -0.034 A 
HETATM   15  C1  UNL     1      -6.256 -34.574  21.920  1.00  0.00     0.050 C 
HETATM   16  C3  UNL     1      -8.157 -35.589  23.036  1.00  0.00     0.034 A 
HETATM   17  C4  UNL     1      -9.117 -35.662  24.025  1.00  0.00     0.080 A 
HETATM   18  C5  UNL     1      -9.166 -34.686  25.001  1.00  0.00     0.027 A 
HETATM   19  C6  UNL     1      -8.243 -33.670  24.950  1.00  0.00     0.031 A 
BRANCH  17  20
HETATM   20  S1  UNL     1     -10.248 -36.957  24.119  1.00  0.00     0.256 S 
HETATM   21  O1  UNL     1     -11.560 -36.499  24.882  1.00  0.00    -0.201 OA
HETATM   22  O2  UNL     1      -9.544 -38.253  24.612  1.00  0.00    -0.201 OA
BRANCH  20  23
HETATM   23  N1  UNL     1     -10.771 -37.260  22.470  1.00  0.00    -0.324 N 
ATOM     24  H12 UNL     1     -10.289 -36.968  21.620  1.00  0.00     0.169 HD
ATOM     25  H11 UNL     1     -11.644 -37.781  22.545  1.00  0.00     0.169 HD
ENDBRANCH  20  23
ENDBRANCH  17  20
ENDBRANCH  11  13
ENDBRANCH  10  11
BRANCH  10  26
HETATM   26  O3  UNL     1      -4.167 -31.697  24.060  1.00  0.00    -0.345 OA
ATOM     27  H3  UNL     1      -3.697 -31.998  23.291  1.00  0.00     0.219 HD
ENDBRANCH  10  26
ENDBRANCH   9  10
ENDBRANCH   8   9
ENDBRANCH   1   8
BRANCH   7  28
HETATM   28  C16 UNL     1      -1.479 -35.419  25.407  1.00  0.00     0.195 C 
HETATM   29  O5  UNL     1      -1.854 -36.441  26.064  1.00  0.00    -0.287 OA
BRANCH  28  30
HETATM   30  C17 UNL     1      -1.489 -35.454  23.946  1.00  0.00     0.019 A 
HETATM   31  C18 UNL     1      -0.803 -36.456  23.264  1.00  0.00     0.057 A 
HETATM   32  C19 UNL     1      -0.844 -36.511  21.905  1.00  0.00     0.118 A 
HETATM   33  F1  UNL     1      -0.180 -37.490  21.243  1.00  0.00    -0.206 F 
HETATM   34  C20 UNL     1      -1.545 -35.609  21.149  1.00  0.00     0.058 A 
HETATM   35  C21 UNL     1      -2.222 -34.619  21.825  1.00  0.00     0.051 A 
HETATM   36  C23 UNL     1      -2.199 -34.537  23.188  1.00  0.00     0.032 A 
BRANCH  35  37
HETATM   37  C22 UNL     1      -2.998 -33.631  20.999  1.00  0.00     0.417 C 
HETATM   38  F2  UNL     1      -3.901 -34.315  20.243  1.00  0.00    -0.166 F 
HETATM   39  F3  UNL     1      -3.563 -32.733  21.883  1.00  0.00    -0.166 F 
HETATM   40  F4  UNL     1      -2.142 -32.885  20.189  1.00  0.00    -0.166 F 
ENDBRANCH  35  37
ENDBRANCH  28  30
ENDBRANCH   7  28
TORSDOF 11
ENDMDL
