MODEL 7
REMARK VINA RESULT: -11.253497902      3.089      4.886
REMARK  11 active torsions:
REMARK  status: ('A' for Active; 'I' for Inactive)
REMARK    1  A    between atoms: C4_4  and  S1_5 
REMARK    2  A    between atoms: S1_5  and  N1_6 
REMARK    3  A    between atoms: C7_13  and  N2_14 
REMARK    4  A    between atoms: N2_14  and  C8_16 
REMARK    5  A    between atoms: C8_16  and  O3_17 
REMARK    6  A    between atoms: C8_16  and  C9_19 
REMARK    7  A    between atoms: C9_19  and  O4_20 
REMARK    8  A    between atoms: O4_20  and  C10_21 
REMARK    9  A    between atoms: C15_27  and  C16_28 
REMARK   10  A    between atoms: C16_28  and  C17_30 
REMARK   11  A    between atoms: C21_35  and  C22_36 
ROOT
HETATM    1  C10 UNL     1      -1.785 -32.649  26.661  1.00  0.00     0.089 A 
HETATM    2  C11 UNL     1      -1.134 -31.516  27.165  1.00  0.00     0.040 A 
HETATM    3  C12 UNL     1       0.228 -31.505  27.352  1.00  0.00     0.026 A 
HETATM    4  C13 UNL     1       0.981 -32.636  27.035  1.00  0.00     0.035 A 
HETATM    5 CL1  UNL     1       2.723 -32.626  27.255  1.00  0.00    -0.084 Cl
HETATM    6  C14 UNL     1       0.352 -33.757  26.543  1.00  0.00     0.042 A 
HETATM    7  C15 UNL     1      -0.998 -33.789  26.349  1.00  0.00     0.050 A 
ENDROOT
BRANCH   1   8
HETATM    8  O4  UNL     1      -3.077 -32.688  26.451  1.00  0.00    -0.318 OA
BRANCH   8   9
HETATM    9  C9  UNL     1      -4.175 -32.793  25.832  1.00  0.00     0.198 C 
BRANCH   9  10
HETATM   10  C8  UNL     1      -4.636 -32.280  24.543  1.00  0.00     0.163 C 
BRANCH  10  11
HETATM   11  N2  UNL     1      -5.925 -32.207  24.004  1.00  0.00    -0.335 N 
ATOM     12  H2  UNL     1      -6.172 -31.322  23.561  1.00  0.00     0.168 HD
BRANCH  11  13
HETATM   13  C7  UNL     1      -6.934 -33.210  23.996  1.00  0.00     0.040 A 
HETATM   14  C2  UNL     1      -6.907 -34.168  22.976  1.00  0.00    -0.034 A 
HETATM   15  C1  UNL     1      -5.906 -34.128  21.875  1.00  0.00     0.050 C 
HETATM   16  C3  UNL     1      -7.803 -35.201  22.942  1.00  0.00     0.034 A 
HETATM   17  C4  UNL     1      -8.765 -35.323  23.926  1.00  0.00     0.080 A 
HETATM   18  C5  UNL     1      -8.820 -34.392  24.943  1.00  0.00     0.027 A 
HETATM   19  C6  UNL     1      -7.902 -33.370  24.940  1.00  0.00     0.031 A 
BRANCH  17  20
HETATM   20  S1  UNL     1      -9.889 -36.627  23.960  1.00  0.00     0.256 S 
HETATM   21  O1  UNL     1     -11.250 -36.173  24.633  1.00  0.00    -0.201 OA
HETATM   22  O2  UNL     1      -9.208 -37.913  24.509  1.00  0.00    -0.201 OA
BRANCH  20  23
HETATM   23  N1  UNL     1     -10.303 -36.950  22.284  1.00  0.00    -0.324 N 
ATOM     24  H12 UNL     1      -9.685 -37.340  21.573  1.00  0.00     0.169 HD
ATOM     25  H11 UNL     1     -11.277 -36.668  22.177  1.00  0.00     0.169 HD
ENDBRANCH  20  23
ENDBRANCH  17  20
ENDBRANCH  11  13
ENDBRANCH  10  11
BRANCH  10  26
HETATM   26  O3  UNL     1      -3.709 -31.801  23.746  1.00  0.00    -0.345 OA
ATOM     27  H3  UNL     1      -2.918 -32.328  23.727  1.00  0.00     0.219 HD
ENDBRANCH  10  26
ENDBRANCH   9  10
ENDBRANCH   8   9
ENDBRANCH   1   8
BRANCH   7  28
HETATM   28  C16 UNL     1      -1.736 -34.937  25.847  1.00  0.00     0.195 C 
HETATM   29  O5  UNL     1      -2.439 -35.669  26.613  1.00  0.00    -0.287 OA
BRANCH  28  30
HETATM   30  C17 UNL     1      -1.660 -35.245  24.421  1.00  0.00     0.019 A 
HETATM   31  C18 UNL     1      -2.099 -34.317  23.480  1.00  0.00     0.057 A 
HETATM   32  C19 UNL     1      -1.993 -34.589  22.150  1.00  0.00     0.118 A 
HETATM   33  F1  UNL     1      -2.416 -33.682  21.235  1.00  0.00    -0.206 F 
HETATM   34  C20 UNL     1      -1.460 -35.757  21.674  1.00  0.00     0.058 A 
HETATM   35  C21 UNL     1      -1.027 -36.673  22.605  1.00  0.00     0.051 A 
HETATM   36  C23 UNL     1      -1.121 -36.430  23.946  1.00  0.00     0.032 A 
BRANCH  35  37
HETATM   37  C22 UNL     1      -0.436 -37.953  22.086  1.00  0.00     0.417 C 
HETATM   38  F2  UNL     1       0.202 -37.691  20.912  1.00  0.00    -0.166 F 
HETATM   39  F3  UNL     1       0.387 -38.442  23.082  1.00  0.00    -0.166 F 
HETATM   40  F4  UNL     1      -1.429 -38.916  21.902  1.00  0.00    -0.166 F 
ENDBRANCH  35  37
ENDBRANCH  28  30
ENDBRANCH   7  28
TORSDOF 11
ENDMDL
