MODEL 3
REMARK VINA RESULT: -6.242991472      1.060      1.758
REMARK  2 active torsions:
REMARK  status: ('A' for Active; 'I' for Inactive)
REMARK    1  A    between atoms: C3_6  and  C4_7 
REMARK    2  A    between atoms: C4_7  and  C5_8 
ROOT
HETATM    1  N1  UNL     1      11.063   7.977   3.269  1.00  0.00    -0.074 NA
HETATM    2  C1  UNL     1      10.194   9.016   3.775  1.00  0.00     0.158 A 
HETATM    3  N2  UNL     1      10.385  10.327   3.752  1.00  0.00    -0.348 N 
ATOM      4  H2  UNL     1      11.234  10.711   3.338  1.00  0.00     0.167 HD
HETATM    5  C2  UNL     1       9.495  11.120   4.252  1.00  0.00     0.104 A 
HETATM    6  C3  UNL     1       8.369  10.549   4.798  1.00  0.00     0.005 A 
HETATM    7  S1  UNL     1       8.673   8.888   4.548  1.00  0.00    -0.060 SA
ENDROOT
BRANCH   6   8
HETATM    8  C4  UNL     1       7.203  11.265   5.436  1.00  0.00     0.086 C 
BRANCH   8   9
HETATM    9  C5  UNL     1       6.020  10.990   4.580  1.00  0.00    -0.053 A 
HETATM   10  C6  UNL     1       4.757  10.784   5.095  1.00  0.00     0.007 A 
HETATM   11  C7  UNL     1       3.666  10.530   4.289  1.00  0.00     0.001 A 
HETATM   12  C8  UNL     1       3.798  10.471   2.912  1.00  0.00     0.000 A 
HETATM   13  C9  UNL     1       5.048  10.674   2.387  1.00  0.00     0.001 A 
HETATM   14  C10 UNL     1       6.133  10.926   3.187  1.00  0.00     0.007 A 
ENDBRANCH   8   9
ENDBRANCH   6   8
TORSDOF 2
ENDMDL
