MODEL 2
REMARK VINA RESULT: -6.688207117      0.018      1.307
REMARK  2 active torsions:
REMARK  status: ('A' for Active; 'I' for Inactive)
REMARK    1  A    between atoms: C3_6  and  C4_7 
REMARK    2  A    between atoms: C4_7  and  C5_8 
ROOT
HETATM    1  N1  UNL     1      10.987   7.804   2.710  1.00  0.00    -0.074 NA
HETATM    2  C1  UNL     1      10.022   8.563   3.474  1.00  0.00     0.158 A 
HETATM    3  N2  UNL     1       9.357   8.187   4.557  1.00  0.00    -0.348 N 
ATOM      4  H2  UNL     1       9.501   7.256   4.946  1.00  0.00     0.167 HD
HETATM    5  C2  UNL     1       8.525   9.001   5.120  1.00  0.00     0.104 A 
HETATM    6  C3  UNL     1       8.369  10.244   4.553  1.00  0.00     0.005 A 
HETATM    7  S1  UNL     1       9.445  10.154   3.232  1.00  0.00    -0.060 SA
ENDROOT
BRANCH   6   8
HETATM    8  C4  UNL     1       7.462  11.353   5.029  1.00  0.00     0.086 C 
BRANCH   8   9
HETATM    9  C5  UNL     1       6.105  11.041   4.509  1.00  0.00    -0.053 A 
HETATM   10  C6  UNL     1       5.017  10.842   5.332  1.00  0.00     0.007 A 
HETATM   11  C7  UNL     1       3.762  10.553   4.837  1.00  0.00     0.001 A 
HETATM   12  C8  UNL     1       3.543  10.449   3.474  1.00  0.00     0.000 A 
HETATM   13  C9  UNL     1       4.616  10.644   2.644  1.00  0.00     0.001 A 
HETATM   14  C10 UNL     1       5.864  10.931   3.134  1.00  0.00     0.007 A 
ENDBRANCH   8   9
ENDBRANCH   6   8
TORSDOF 2
ENDMDL
