MODEL 1
REMARK VINA RESULT: -6.707949965      0.000      0.000
REMARK  2 active torsions:
REMARK  status: ('A' for Active; 'I' for Inactive)
REMARK    1  A    between atoms: C3_6  and  C4_7 
REMARK    2  A    between atoms: C4_7  and  C5_8 
ROOT
HETATM    1  N1  UNL     1      11.004   7.815   2.711  1.00  0.00    -0.074 NA
HETATM    2  C1  UNL     1      10.032   8.563   3.476  1.00  0.00     0.158 A 
HETATM    3  N2  UNL     1       9.363   8.177   4.553  1.00  0.00    -0.348 N 
ATOM      4  H2  UNL     1       9.510   7.244   4.936  1.00  0.00     0.167 HD
HETATM    5  C2  UNL     1       8.524   8.982   5.117  1.00  0.00     0.104 A 
HETATM    6  C3  UNL     1       8.364  10.229   4.558  1.00  0.00     0.005 A 
HETATM    7  S1  UNL     1       9.448  10.154   3.242  1.00  0.00    -0.060 SA
ENDROOT
BRANCH   6   8
HETATM    8  C4  UNL     1       7.450  11.331   5.037  1.00  0.00     0.086 C 
BRANCH   8   9
HETATM    9  C5  UNL     1       6.103  11.030   4.486  1.00  0.00    -0.053 A 
HETATM   10  C6  UNL     1       5.856  10.924   3.132  1.00  0.00     0.007 A 
HETATM   11  C7  UNL     1       4.601  10.645   2.633  1.00  0.00     0.001 A 
HETATM   12  C8  UNL     1       3.524  10.457   3.482  1.00  0.00     0.000 A 
HETATM   13  C9  UNL     1       3.755  10.560   4.829  1.00  0.00     0.001 A 
HETATM   14  C10 UNL     1       5.002  10.838   5.327  1.00  0.00     0.007 A 
ENDBRANCH   8   9
ENDBRANCH   6   8
TORSDOF 2
ENDMDL
