MODEL 3
REMARK VINA RESULT: -8.061020247      1.264      5.118
REMARK  1 active torsions:
REMARK  status: ('A' for Active; 'I' for Inactive)
REMARK    1  A    between atoms: C5_5  and  C6_6 
ROOT
HETATM    1  C1  UNL     1       3.399  10.296   4.485  1.00  0.00     0.002 A 
HETATM    2  C2  UNL     1       4.437  10.613   5.365  1.00  0.00     0.001 A 
HETATM    3  C3  UNL     1       5.742  10.653   4.919  1.00  0.00     0.016 A 
HETATM    4  C4  UNL     1       6.003  10.375   3.596  1.00  0.00     0.021 A 
HETATM    5  C5  UNL     1       7.202  10.348   2.916  1.00  0.00     0.071 A 
HETATM    6  N2  UNL     1       6.893  10.021   1.647  1.00  0.00    -0.299 N 
ATOM      7  H2  UNL     1       7.572   9.921   0.893  1.00  0.00     0.187 HD
HETATM    8  N3  UNL     1       5.589   9.847   1.511  1.00  0.00    -0.299 N 
ATOM      9  H3  UNL     1       5.110   9.594   0.647  1.00  0.00     0.187 HD
HETATM   10  C11 UNL     1       4.996  10.057   2.706  1.00  0.00     0.060 A 
HETATM   11  C12 UNL     1       3.710  10.024   3.168  1.00  0.00     0.032 A 
ENDROOT
BRANCH   5  12
HETATM   12  C6  UNL     1       8.555  10.619   3.436  1.00  0.00    -0.004 A 
HETATM   13  C7  UNL     1       8.725  11.117   4.726  1.00  0.00     0.030 A 
HETATM   14  C8  UNL     1      10.019  11.347   5.142  1.00  0.00     0.088 A 
HETATM   15  N1  UNL     1      11.083  11.116   4.371  1.00  0.00    -0.375 N 
HETATM   16  C9  UNL     1      10.966  10.634   3.116  1.00  0.00     0.088 A 
ATOM     17  H1  UNL     1      12.013  11.309   4.742  1.00  0.00     0.164 HD
HETATM   18  C10 UNL     1       9.661  10.396   2.681  1.00  0.00     0.030 A 
ENDBRANCH   5  12
TORSDOF 1
ENDMDL
