MODEL 15
REMARK VINA RESULT: -7.098712244      1.223      1.856
REMARK  1 active torsions:
REMARK  status: ('A' for Active; 'I' for Inactive)
REMARK    1  A    between atoms: C5_5  and  C6_6 
ROOT
HETATM    1  C1  UNL     1      12.302  10.337   5.365  1.00  0.00     0.002 A 
HETATM    2  C2  UNL     1      11.071  10.275   6.024  1.00  0.00     0.001 A 
HETATM    3  C3  UNL     1       9.893  10.317   5.307  1.00  0.00     0.016 A 
HETATM    4  C4  UNL     1       9.951  10.422   3.936  1.00  0.00     0.021 A 
HETATM    5  C5  UNL     1       8.933  10.482   3.007  1.00  0.00     0.071 A 
HETATM    6  N2  UNL     1       9.539  10.578   1.809  1.00  0.00    -0.299 N 
ATOM      7  H2  UNL     1       9.050  10.640   0.916  1.00  0.00     0.187 HD
HETATM    8  N3  UNL     1      10.854  10.581   1.946  1.00  0.00    -0.299 N 
ATOM      9  H3  UNL     1      11.531  10.645   1.186  1.00  0.00     0.187 HD
HETATM   10  C11 UNL     1      11.154  10.486   3.259  1.00  0.00     0.060 A 
HETATM   11  C12 UNL     1      12.309  10.442   3.989  1.00  0.00     0.032 A 
ENDROOT
BRANCH   5  12
HETATM   12  C6  UNL     1       7.477  10.447   3.243  1.00  0.00    -0.004 A 
HETATM   13  C7  UNL     1       6.603  10.167   2.195  1.00  0.00     0.030 A 
HETATM   14  C8  UNL     1       5.257  10.154   2.490  1.00  0.00     0.088 A 
HETATM   15  N1  UNL     1       4.778  10.396   3.711  1.00  0.00    -0.375 N 
HETATM   16  C9  UNL     1       5.587  10.673   4.756  1.00  0.00     0.088 A 
ATOM     17  H1  UNL     1       3.770  10.371   3.861  1.00  0.00     0.164 HD
HETATM   18  C10 UNL     1       6.953  10.688   4.471  1.00  0.00     0.030 A 
ENDBRANCH   5  12
TORSDOF 1
ENDMDL
