MODEL 5
REMARK VINA RESULT: -7.730615497      1.978      5.718
REMARK  1 active torsions:
REMARK  status: ('A' for Active; 'I' for Inactive)
REMARK    1  A    between atoms: C5_5  and  C6_6 
ROOT
HETATM    1  C1  UNL     1       6.023  10.813   4.494  1.00  0.00     0.002 A 
HETATM    2  C2  UNL     1       7.044  11.134   5.394  1.00  0.00     0.001 A 
HETATM    3  C3  UNL     1       8.365  11.053   5.007  1.00  0.00     0.016 A 
HETATM    4  C4  UNL     1       8.661  10.653   3.723  1.00  0.00     0.021 A 
HETATM    5  C5  UNL     1       9.882  10.494   3.103  1.00  0.00     0.071 A 
HETATM    6  N2  UNL     1       9.603  10.085   1.850  1.00  0.00    -0.299 N 
ATOM      7  H2  UNL     1      10.304   9.881   1.139  1.00  0.00     0.187 HD
HETATM    8  N3  UNL     1       8.297   9.985   1.669  1.00  0.00    -0.299 N 
ATOM      9  H3  UNL     1       7.838   9.694   0.806  1.00  0.00     0.187 HD
HETATM   10  C11 UNL     1       7.672  10.329   2.814  1.00  0.00     0.060 A 
HETATM   11  C12 UNL     1       6.369  10.416   3.219  1.00  0.00     0.032 A 
ENDROOT
BRANCH   5  12
HETATM   12  C6  UNL     1      11.228  10.719   3.662  1.00  0.00    -0.004 A 
HETATM   13  C7  UNL     1      12.066  11.686   3.110  1.00  0.00     0.030 A 
HETATM   14  C8  UNL     1      13.309  11.838   3.684  1.00  0.00     0.088 A 
HETATM   15  N1  UNL     1      13.726  11.108   4.721  1.00  0.00    -0.375 N 
HETATM   16  C9  UNL     1      12.949  10.160   5.287  1.00  0.00     0.088 A 
ATOM     17  H1  UNL     1      14.659  11.271   5.097  1.00  0.00     0.164 HD
HETATM   18  C10 UNL     1      11.686   9.996   4.716  1.00  0.00     0.030 A 
ENDBRANCH   5  12
TORSDOF 1
ENDMDL
