MODEL 1
REMARK VINA RESULT: -8.453629457      0.000      0.000
REMARK  1 active torsions:
REMARK  status: ('A' for Active; 'I' for Inactive)
REMARK    1  A    between atoms: C5_5  and  C6_6 
ROOT
HETATM    1  C1  UNL     1      10.488  11.087   5.027  1.00  0.00     0.002 A 
HETATM    2  C2  UNL     1       9.251  11.157   5.673  1.00  0.00     0.001 A 
HETATM    3  C3  UNL     1       8.087  10.893   4.981  1.00  0.00     0.016 A 
HETATM    4  C4  UNL     1       8.165  10.559   3.647  1.00  0.00     0.021 A 
HETATM    5  C5  UNL     1       7.164  10.255   2.749  1.00  0.00     0.071 A 
HETATM    6  N2  UNL     1       7.786  10.004   1.582  1.00  0.00    -0.299 N 
ATOM      7  H2  UNL     1       7.312   9.747   0.717  1.00  0.00     0.187 HD
HETATM    8  N3  UNL     1       9.096  10.136   1.710  1.00  0.00    -0.299 N 
ATOM      9  H3  UNL     1       9.782   9.999   0.968  1.00  0.00     0.187 HD
HETATM   10  C11 UNL     1       9.375  10.483   2.985  1.00  0.00     0.060 A 
HETATM   11  C12 UNL     1      10.516  10.749   3.689  1.00  0.00     0.032 A 
ENDROOT
BRANCH   5  12
HETATM   12  C6  UNL     1       5.709  10.202   2.985  1.00  0.00    -0.004 A 
HETATM   13  C7  UNL     1       4.824  10.155   1.909  1.00  0.00     0.030 A 
HETATM   14  C8  UNL     1       3.480  10.109   2.207  1.00  0.00     0.088 A 
HETATM   15  N1  UNL     1       3.011  10.109   3.456  1.00  0.00    -0.375 N 
HETATM   16  C9  UNL     1       3.830  10.154   4.528  1.00  0.00     0.088 A 
ATOM     17  H1  UNL     1       2.003  10.075   3.606  1.00  0.00     0.164 HD
HETATM   18  C10 UNL     1       5.195  10.200   4.241  1.00  0.00     0.030 A 
ENDBRANCH   5  12
TORSDOF 1
ENDMDL
