MODEL 2
REMARK VINA RESULT: -8.445583257      0.046      1.217
REMARK  1 active torsions:
REMARK  status: ('A' for Active; 'I' for Inactive)
REMARK    1  A    between atoms: C5_5  and  C6_6 
ROOT
HETATM    1  C1  UNL     1      10.517  11.078   5.027  1.00  0.00     0.002 A 
HETATM    2  C2  UNL     1       9.285  11.145   5.683  1.00  0.00     0.001 A 
HETATM    3  C3  UNL     1       8.115  10.886   5.000  1.00  0.00     0.016 A 
HETATM    4  C4  UNL     1       8.183  10.560   3.663  1.00  0.00     0.021 A 
HETATM    5  C5  UNL     1       7.174  10.262   2.772  1.00  0.00     0.071 A 
HETATM    6  N2  UNL     1       7.787  10.019   1.598  1.00  0.00    -0.299 N 
ATOM      7  H2  UNL     1       7.305   9.768   0.734  1.00  0.00     0.187 HD
HETATM    8  N3  UNL     1       9.097  10.150   1.716  1.00  0.00    -0.299 N 
ATOM      9  H3  UNL     1       9.777  10.017   0.968  1.00  0.00     0.187 HD
HETATM   10  C11 UNL     1       9.387  10.488   2.990  1.00  0.00     0.060 A 
HETATM   11  C12 UNL     1      10.534  10.749   3.687  1.00  0.00     0.032 A 
ENDROOT
BRANCH   5  12
HETATM   12  C6  UNL     1       5.721  10.208   3.019  1.00  0.00    -0.004 A 
HETATM   13  C7  UNL     1       5.231  10.178   4.323  1.00  0.00     0.030 A 
HETATM   14  C8  UNL     1       3.862  10.126   4.475  1.00  0.00     0.088 A 
HETATM   15  N1  UNL     1       3.016  10.103   3.444  1.00  0.00    -0.375 N 
HETATM   16  C9  UNL     1       3.446  10.130   2.164  1.00  0.00     0.088 A 
ATOM     17  H1  UNL     1       2.013  10.064   3.628  1.00  0.00     0.164 HD
HETATM   18  C10 UNL     1       4.830  10.184   1.995  1.00  0.00     0.030 A 
ENDBRANCH   5  12
TORSDOF 1
ENDMDL
