MODEL 4
REMARK VINA RESULT: -7.767413204      1.967      5.797
REMARK  1 active torsions:
REMARK  status: ('A' for Active; 'I' for Inactive)
REMARK    1  A    between atoms: C5_5  and  C6_6 
ROOT
HETATM    1  C1  UNL     1       6.003  10.868   4.491  1.00  0.00     0.002 A 
HETATM    2  C2  UNL     1       7.023  11.194   5.389  1.00  0.00     0.001 A 
HETATM    3  C3  UNL     1       8.345  11.098   5.008  1.00  0.00     0.016 A 
HETATM    4  C4  UNL     1       8.642  10.676   3.732  1.00  0.00     0.021 A 
HETATM    5  C5  UNL     1       9.863  10.499   3.118  1.00  0.00     0.071 A 
HETATM    6  N2  UNL     1       9.586  10.074   1.871  1.00  0.00    -0.299 N 
ATOM      7  H2  UNL     1      10.288   9.853   1.164  1.00  0.00     0.187 HD
HETATM    8  N3  UNL     1       8.280   9.980   1.686  1.00  0.00    -0.299 N 
ATOM      9  H3  UNL     1       7.822   9.680   0.826  1.00  0.00     0.187 HD
HETATM   10  C11 UNL     1       7.653  10.346   2.824  1.00  0.00     0.060 A 
HETATM   11  C12 UNL     1       6.350  10.449   3.223  1.00  0.00     0.032 A 
ENDROOT
BRANCH   5  12
HETATM   12  C6  UNL     1      11.210  10.722   3.678  1.00  0.00    -0.004 A 
HETATM   13  C7  UNL     1      11.622  10.027   4.814  1.00  0.00     0.030 A 
HETATM   14  C8  UNL     1      12.892  10.289   5.280  1.00  0.00     0.088 A 
HETATM   15  N1  UNL     1      13.715  11.162   4.698  1.00  0.00    -0.375 N 
HETATM   16  C9  UNL     1      13.358  11.857   3.597  1.00  0.00     0.088 A 
ATOM     17  H1  UNL     1      14.642  11.309   5.096  1.00  0.00     0.164 HD
HETATM   18  C10 UNL     1      12.075  11.602   3.113  1.00  0.00     0.030 A 
ENDBRANCH   5  12
TORSDOF 1
ENDMDL
