MODEL 6
REMARK VINA RESULT: -8.807368168      3.501      6.291
REMARK  10 active torsions:
REMARK  status: ('A' for Active; 'I' for Inactive)
REMARK    1  A    between atoms: N5_13  and  C6_14 
REMARK    2  A    between atoms: C7_16  and  C8_17 
REMARK    3  A    between atoms: C8_17  and  O2_18 
REMARK    4  A    between atoms: O2_18  and  P1_19 
REMARK    5  A    between atoms: P1_19  and  O5_22 
REMARK    6  A    between atoms: O5_22  and  P2_23 
REMARK    7  A    between atoms: P2_23  and  O8_26 
REMARK    8  A    between atoms: O8_26  and  P3_27 
REMARK    9  A    between atoms: C9_31  and  O12_32 
REMARK   10  A    between atoms: C10_34  and  O13_35 
ROOT
HETATM    1  C6  UNL     1      -2.831   9.336  56.698  1.00  0.00     0.159 C 
HETATM    2  O1  UNL     1      -3.285   9.044  55.400  1.00  0.00    -0.326 OA
HETATM    3  C7  UNL     1      -3.319  10.246  54.825  1.00  0.00     0.186 C 
HETATM    4  C9  UNL     1      -2.710  11.344  55.707  1.00  0.00     0.186 C 
HETATM    5  C10 UNL     1      -1.785  10.373  56.496  1.00  0.00     0.224 C 
ENDROOT
BRANCH   3   6
HETATM    6  C8  UNL     1      -2.890  10.570  53.452  1.00  0.00     0.216 C 
BRANCH   6   7
HETATM    7  O2  UNL     1      -1.978   9.580  53.007  1.00  0.00    -0.287 OA
BRANCH   7   8
HETATM    8  P1  UNL     1      -2.890   8.844  51.714  1.00  0.00     0.417 P 
HETATM    9  O3  UNL     1      -4.277   8.747  52.097  1.00  0.00    -0.624 OA
HETATM   10  O4  UNL     1      -2.674  10.069  50.444  1.00  0.00    -0.624 OA
BRANCH   8  11
HETATM   11  O5  UNL     1      -2.143   7.473  51.117  1.00  0.00    -0.180 OA
BRANCH  11  12
HETATM   12  P2  UNL     1      -1.676   6.485  52.469  1.00  0.00     0.428 P 
HETATM   13  O6  UNL     1      -2.948   6.132  53.179  1.00  0.00    -0.624 OA
HETATM   14  O7  UNL     1      -0.574   7.233  53.464  1.00  0.00    -0.624 OA
BRANCH  12  15
HETATM   15  O8  UNL     1      -1.019   5.052  51.801  1.00  0.00    -0.173 OA
BRANCH  15  16
HETATM   16  P3  UNL     1      -2.259   3.982  51.444  1.00  0.00     0.431 P 
HETATM   17  O9  UNL     1      -3.034   3.563  52.644  1.00  0.00    -0.616 OA
HETATM   18  O10 UNL     1      -3.307   4.765  50.358  1.00  0.00    -0.616 OA
HETATM   19  O11 UNL     1      -1.554   2.626  50.704  1.00  0.00    -0.616 OA
ENDBRANCH  15  16
ENDBRANCH  12  15
ENDBRANCH  11  12
ENDBRANCH   8  11
ENDBRANCH   7   8
ENDBRANCH   6   7
ENDBRANCH   3   6
BRANCH   4  20
HETATM   20  O12 UNL     1      -3.683  11.845  56.510  1.00  0.00    -0.390 OA
ATOM     21  H12 UNL     1      -3.504  12.764  56.668  1.00  0.00     0.210 HD
ENDBRANCH   4  20
BRANCH   1  22
HETATM   22  N5  UNL     1      -2.655   8.295  57.585  1.00  0.00    -0.273 N 
HETATM   23  C3  UNL     1      -2.193   7.067  57.297  1.00  0.00     0.146 A 
HETATM   24  N3  UNL     1      -1.971   6.492  56.126  1.00  0.00    -0.336 N 
HETATM   25  C4  UNL     1      -1.945   6.368  58.432  1.00  0.00     0.120 A 
HETATM   26  C2  UNL     1      -1.503   5.233  56.082  1.00  0.00     0.183 A 
ATOM     27  H3  UNL     1      -2.154   7.001  55.261  1.00  0.00     0.168 HD
HETATM   28  N2  UNL     1      -1.239   4.527  57.197  1.00  0.00    -0.339 N 
HETATM   29  C1  UNL     1      -1.458   5.087  58.386  1.00  0.00     0.148 A 
ATOM     30  H2  UNL     1      -0.877   3.576  57.133  1.00  0.00     0.167 HD
HETATM   31  N1  UNL     1      -1.045   4.396  59.547  1.00  0.00    -0.080 NA
HETATM   32  N4  UNL     1      -2.281   7.185  59.450  1.00  0.00    -0.346 N 
HETATM   33  C5  UNL     1      -2.714   8.349  58.930  1.00  0.00     0.192 A 
ATOM     34  H4  UNL     1      -2.217   6.961  60.443  1.00  0.00     0.167 HD
ENDBRANCH   1  22
BRANCH   5  35
HETATM   35  O13 UNL     1      -1.451  11.138  57.606  1.00  0.00    -0.385 OA
ATOM     36  H13 UNL     1      -0.952  11.930  57.439  1.00  0.00     0.210 HD
ENDBRANCH   5  35
TORSDOF 10
ENDMDL
