MODEL 13
REMARK VINA RESULT: -8.463398031      1.573      3.249
REMARK  10 active torsions:
REMARK  status: ('A' for Active; 'I' for Inactive)
REMARK    1  A    between atoms: N5_13  and  C6_14 
REMARK    2  A    between atoms: C7_16  and  C8_17 
REMARK    3  A    between atoms: C8_17  and  O2_18 
REMARK    4  A    between atoms: O2_18  and  P1_19 
REMARK    5  A    between atoms: P1_19  and  O5_22 
REMARK    6  A    between atoms: O5_22  and  P2_23 
REMARK    7  A    between atoms: P2_23  and  O8_26 
REMARK    8  A    between atoms: O8_26  and  P3_27 
REMARK    9  A    between atoms: C9_31  and  O12_32 
REMARK   10  A    between atoms: C10_34  and  O13_35 
ROOT
HETATM    1  C6  UNL     1      -1.705   6.228  54.194  1.00  0.00     0.159 C 
HETATM    2  O1  UNL     1      -1.309   7.436  53.596  1.00  0.00    -0.326 OA
HETATM    3  C7  UNL     1      -1.637   7.250  52.317  1.00  0.00     0.186 C 
HETATM    4  C9  UNL     1      -2.427   5.955  52.089  1.00  0.00     0.186 C 
HETATM    5  C10 UNL     1      -2.996   5.898  53.536  1.00  0.00     0.224 C 
ENDROOT
BRANCH   3   6
HETATM    6  C8  UNL     1      -2.256   8.244  51.421  1.00  0.00     0.216 C 
BRANCH   6   7
HETATM    7  O2  UNL     1      -1.701   9.521  51.692  1.00  0.00    -0.287 OA
BRANCH   7   8
HETATM    8  P1  UNL     1      -3.055  10.319  52.451  1.00  0.00     0.417 P 
HETATM    9  O3  UNL     1      -4.285   9.707  52.011  1.00  0.00    -0.624 OA
HETATM   10  O4  UNL     1      -2.732   9.925  54.154  1.00  0.00    -0.624 OA
BRANCH   8  11
HETATM   11  O5  UNL     1      -2.933  11.983  52.367  1.00  0.00    -0.180 OA
BRANCH  11  12
HETATM   12  P2  UNL     1      -3.035  12.445  50.695  1.00  0.00     0.428 P 
HETATM   13  O6  UNL     1      -1.622  12.494  50.194  1.00  0.00    -0.624 OA
HETATM   14  O7  UNL     1      -3.842  13.880  50.469  1.00  0.00    -0.624 OA
BRANCH  12  15
HETATM   15  O8  UNL     1      -3.841  11.161  49.899  1.00  0.00    -0.173 OA
BRANCH  15  16
HETATM   16  P3  UNL     1      -4.442  11.702  48.430  1.00  0.00     0.431 P 
HETATM   17  O9  UNL     1      -3.744  12.916  47.925  1.00  0.00    -0.616 OA
HETATM   18  O10 UNL     1      -4.240  10.444  47.306  1.00  0.00    -0.616 OA
HETATM   19  O11 UNL     1      -6.093  12.030  48.654  1.00  0.00    -0.616 OA
ENDBRANCH  15  16
ENDBRANCH  12  15
ENDBRANCH  11  12
ENDBRANCH   8  11
ENDBRANCH   7   8
ENDBRANCH   6   7
ENDBRANCH   3   6
BRANCH   4  20
HETATM   20  O12 UNL     1      -1.546   4.943  51.875  1.00  0.00    -0.390 OA
ATOM     21  H12 UNL     1      -1.816   4.466  51.100  1.00  0.00     0.210 HD
ENDBRANCH   4  20
BRANCH   1  22
HETATM   22  N5  UNL     1      -1.527   6.076  55.554  1.00  0.00    -0.273 N 
HETATM   23  C3  UNL     1      -1.880   6.949  56.511  1.00  0.00     0.146 A 
HETATM   24  N3  UNL     1      -2.300   8.201  56.410  1.00  0.00    -0.336 N 
HETATM   25  C4  UNL     1      -1.757   6.392  57.740  1.00  0.00     0.120 A 
HETATM   26  C2  UNL     1      -2.597   8.893  57.524  1.00  0.00     0.183 A 
ATOM     27  H3  UNL     1      -2.396   8.638  55.494  1.00  0.00     0.168 HD
HETATM   28  N2  UNL     1      -2.492   8.354  58.752  1.00  0.00    -0.339 N 
HETATM   29  C1  UNL     1      -2.071   7.096  58.874  1.00  0.00     0.148 A 
ATOM     30  H2  UNL     1      -2.733   8.901  59.579  1.00  0.00     0.167 HD
HETATM   31  N1  UNL     1      -2.100   6.492  60.151  1.00  0.00    -0.080 NA
HETATM   32  N4  UNL     1      -1.297   5.142  57.535  1.00  0.00    -0.346 N 
HETATM   33  C5  UNL     1      -1.156   4.958  56.208  1.00  0.00     0.192 A 
ATOM     34  H4  UNL     1      -1.092   4.454  58.259  1.00  0.00     0.167 HD
ENDBRANCH   1  22
BRANCH   5  35
HETATM   35  O13 UNL     1      -3.415   4.577  53.624  1.00  0.00    -0.385 OA
ATOM     36  H13 UNL     1      -3.340   4.165  54.477  1.00  0.00     0.210 HD
ENDBRANCH   5  35
TORSDOF 10
ENDMDL
