MODEL 4
REMARK VINA RESULT: -9.050291846      3.593      6.293
REMARK  10 active torsions:
REMARK  status: ('A' for Active; 'I' for Inactive)
REMARK    1  A    between atoms: N5_13  and  C6_14 
REMARK    2  A    between atoms: C7_16  and  C8_17 
REMARK    3  A    between atoms: C8_17  and  O2_18 
REMARK    4  A    between atoms: O2_18  and  P1_19 
REMARK    5  A    between atoms: P1_19  and  O5_22 
REMARK    6  A    between atoms: O5_22  and  P2_23 
REMARK    7  A    between atoms: P2_23  and  O8_26 
REMARK    8  A    between atoms: O8_26  and  P3_27 
REMARK    9  A    between atoms: C9_31  and  O12_32 
REMARK   10  A    between atoms: C10_34  and  O13_35 
ROOT
HETATM    1  C6  UNL     1      -2.773   9.259  56.514  1.00  0.00     0.159 C 
HETATM    2  O1  UNL     1      -3.079   8.935  55.182  1.00  0.00    -0.326 OA
HETATM    3  C7  UNL     1      -3.120  10.131  54.593  1.00  0.00     0.186 C 
HETATM    4  C9  UNL     1      -2.662  11.265  55.519  1.00  0.00     0.186 C 
HETATM    5  C10 UNL     1      -1.769  10.350  56.406  1.00  0.00     0.224 C 
ENDROOT
BRANCH   3   6
HETATM    6  C8  UNL     1      -2.575  10.470  53.265  1.00  0.00     0.216 C 
BRANCH   6   7
HETATM    7  O2  UNL     1      -3.609  10.371  52.301  1.00  0.00    -0.287 OA
BRANCH   7   8
HETATM    8  P1  UNL     1      -3.315   8.776  51.657  1.00  0.00     0.417 P 
HETATM    9  O3  UNL     1      -4.477   7.948  51.869  1.00  0.00    -0.624 OA
HETATM   10  O4  UNL     1      -3.130   9.167  49.933  1.00  0.00    -0.624 OA
BRANCH   8  11
HETATM   11  O5  UNL     1      -1.827   8.174  52.120  1.00  0.00    -0.180 OA
BRANCH  11  12
HETATM   12  P2  UNL     1      -1.827   6.461  51.826  1.00  0.00     0.428 P 
HETATM   13  O6  UNL     1      -0.392   6.031  51.896  1.00  0.00    -0.624 OA
HETATM   14  O7  UNL     1      -2.545   6.054  50.383  1.00  0.00    -0.624 OA
BRANCH  12  15
HETATM   15  O8  UNL     1      -2.663   5.756  53.143  1.00  0.00    -0.173 OA
BRANCH  15  16
HETATM   16  P3  UNL     1      -3.230   4.242  52.699  1.00  0.00     0.431 P 
HETATM   17  O9  UNL     1      -4.371   4.302  51.745  1.00  0.00    -0.616 OA
HETATM   18  O10 UNL     1      -1.940   3.413  51.964  1.00  0.00    -0.616 OA
HETATM   19  O11 UNL     1      -3.703   3.446  54.123  1.00  0.00    -0.616 OA
ENDBRANCH  15  16
ENDBRANCH  12  15
ENDBRANCH  11  12
ENDBRANCH   8  11
ENDBRANCH   7   8
ENDBRANCH   6   7
ENDBRANCH   3   6
BRANCH   4  20
HETATM   20  O12 UNL     1      -3.736  11.716  56.216  1.00  0.00    -0.390 OA
ATOM     21  H12 UNL     1      -3.722  11.325  57.081  1.00  0.00     0.210 HD
ENDBRANCH   4  20
BRANCH   1  22
HETATM   22  N5  UNL     1      -2.630   8.234  57.426  1.00  0.00    -0.273 N 
HETATM   23  C3  UNL     1      -2.123   7.014  57.187  1.00  0.00     0.146 A 
HETATM   24  N3  UNL     1      -1.811   6.429  56.040  1.00  0.00    -0.336 N 
HETATM   25  C4  UNL     1      -1.932   6.336  58.346  1.00  0.00     0.120 A 
HETATM   26  C2  UNL     1      -1.312   5.181  56.046  1.00  0.00     0.183 A 
ATOM     27  H3  UNL     1      -1.950   6.922  55.158  1.00  0.00     0.168 HD
HETATM   28  N2  UNL     1      -1.105   4.497  57.185  1.00  0.00    -0.339 N 
HETATM   29  C1  UNL     1      -1.413   5.067  58.349  1.00  0.00     0.148 A 
ATOM     30  H2  UNL     1      -0.717   3.554  57.159  1.00  0.00     0.167 HD
HETATM   31  N1  UNL     1      -1.061   4.401  59.544  1.00  0.00    -0.080 NA
HETATM   32  N4  UNL     1      -2.352   7.158  59.327  1.00  0.00    -0.346 N 
HETATM   33  C5  UNL     1      -2.777   8.304  58.763  1.00  0.00     0.192 A 
ATOM     34  H4  UNL     1      -2.348   6.948  60.325  1.00  0.00     0.167 HD
ENDBRANCH   1  22
BRANCH   5  35
HETATM   35  O13 UNL     1      -1.589  11.138  57.535  1.00  0.00    -0.385 OA
ATOM     36  H13 UNL     1      -0.811  11.684  57.549  1.00  0.00     0.210 HD
ENDBRANCH   5  35
TORSDOF 10
ENDMDL
