MODEL 5
REMARK VINA RESULT: -9.002556107      2.604      4.100
REMARK  10 active torsions:
REMARK  status: ('A' for Active; 'I' for Inactive)
REMARK    1  A    between atoms: N5_13  and  C6_14 
REMARK    2  A    between atoms: C7_16  and  C8_17 
REMARK    3  A    between atoms: C8_17  and  O2_18 
REMARK    4  A    between atoms: O2_18  and  P1_19 
REMARK    5  A    between atoms: P1_19  and  O5_22 
REMARK    6  A    between atoms: O5_22  and  P2_23 
REMARK    7  A    between atoms: P2_23  and  O8_26 
REMARK    8  A    between atoms: O8_26  and  P3_27 
REMARK    9  A    between atoms: C9_31  and  O12_32 
REMARK   10  A    between atoms: C10_34  and  O13_35 
ROOT
HETATM    1  C6  UNL     1      -2.628   8.515  53.482  1.00  0.00     0.159 C 
HETATM    2  O1  UNL     1      -3.395   9.244  52.557  1.00  0.00    -0.326 OA
HETATM    3  C7  UNL     1      -3.001  10.499  52.776  1.00  0.00     0.186 C 
HETATM    4  C9  UNL     1      -1.820  10.589  53.751  1.00  0.00     0.186 C 
HETATM    5  C10 UNL     1      -1.289   9.160  53.440  1.00  0.00     0.224 C 
ENDROOT
BRANCH   3   6
HETATM    6  C8  UNL     1      -2.735  11.523  51.749  1.00  0.00     0.216 C 
BRANCH   6   7
HETATM    7  O2  UNL     1      -3.733  11.443  50.746  1.00  0.00    -0.287 OA
BRANCH   7   8
HETATM    8  P1  UNL     1      -3.343  12.839  49.775  1.00  0.00     0.417 P 
HETATM    9  O3  UNL     1      -3.993  14.005  50.323  1.00  0.00    -0.624 OA
HETATM   10  O4  UNL     1      -1.587  12.919  50.036  1.00  0.00    -0.624 OA
BRANCH   8  11
HETATM   11  O5  UNL     1      -3.519  12.540  48.140  1.00  0.00    -0.180 OA
BRANCH  11  12
HETATM   12  P2  UNL     1      -4.843  11.432  47.938  1.00  0.00     0.428 P 
HETATM   13  O6  UNL     1      -6.018  12.065  48.622  1.00  0.00    -0.624 OA
HETATM   14  O7  UNL     1      -4.508   9.912  48.521  1.00  0.00    -0.624 OA
BRANCH  12  15
HETATM   15  O8  UNL     1      -5.164  11.382  46.257  1.00  0.00    -0.173 OA
BRANCH  15  16
HETATM   16  P3  UNL     1      -5.824  12.845  45.770  1.00  0.00     0.431 P 
HETATM   17  O9  UNL     1      -5.294  14.008  46.533  1.00  0.00    -0.616 OA
HETATM   18  O10 UNL     1      -5.445  13.048  44.125  1.00  0.00    -0.616 OA
HETATM   19  O11 UNL     1      -7.505  12.730  45.975  1.00  0.00    -0.616 OA
ENDBRANCH  15  16
ENDBRANCH  12  15
ENDBRANCH  11  12
ENDBRANCH   8  11
ENDBRANCH   7   8
ENDBRANCH   6   7
ENDBRANCH   3   6
BRANCH   4  20
HETATM   20  O12 UNL     1      -2.308  10.659  55.017  1.00  0.00    -0.390 OA
ATOM     21  H12 UNL     1      -1.579  10.767  55.617  1.00  0.00     0.210 HD
ENDBRANCH   4  20
BRANCH   1  22
HETATM   22  N5  UNL     1      -2.768   7.143  53.520  1.00  0.00    -0.273 N 
HETATM   23  C3  UNL     1      -2.995   6.333  52.473  1.00  0.00     0.146 A 
HETATM   24  N3  UNL     1      -3.314   6.624  51.222  1.00  0.00    -0.336 N 
HETATM   25  C4  UNL     1      -2.864   5.033  52.835  1.00  0.00     0.120 A 
HETATM   26  C2  UNL     1      -3.499   5.631  50.335  1.00  0.00     0.183 A 
ATOM     27  H3  UNL     1      -3.420   7.596  50.932  1.00  0.00     0.168 HD
HETATM   28  N2  UNL     1      -3.361   4.335  50.672  1.00  0.00    -0.339 N 
HETATM   29  C1  UNL     1      -3.042   4.021  51.926  1.00  0.00     0.148 A 
ATOM     30  H2  UNL     1      -3.500   3.603  49.975  1.00  0.00     0.167 HD
HETATM   31  N1  UNL     1      -2.760   2.672  52.236  1.00  0.00    -0.080 NA
HETATM   32  N4  UNL     1      -2.563   5.043  54.148  1.00  0.00    -0.346 N 
HETATM   33  C5  UNL     1      -2.511   6.324  54.558  1.00  0.00     0.192 A 
ATOM     34  H4  UNL     1      -2.403   4.222  54.731  1.00  0.00     0.167 HD
ENDBRANCH   1  22
BRANCH   5  35
HETATM   35  O13 UNL     1      -0.455   8.925  54.524  1.00  0.00    -0.385 OA
ATOM     36  H13 UNL     1      -0.572   9.490  55.279  1.00  0.00     0.210 HD
ENDBRANCH   5  35
TORSDOF 10
ENDMDL
