MODEL 9
REMARK VINA RESULT: -6.573587992      1.992      4.666
REMARK  4 active torsions:
REMARK  status: ('A' for Active; 'I' for Inactive)
REMARK    1  A    between atoms: C4_8  and  C5_9 
REMARK    2  A    between atoms: C5_9  and  C6_10 
REMARK    3  A    between atoms: C6_10  and  N2_11 
REMARK    4  A    between atoms: C6_10  and  C7_15 
ROOT
HETATM    1  C5  UNL     1      23.980  18.912  15.219  1.00  0.00     0.091 C 
ENDROOT
BRANCH   1   2
HETATM    2  C4  UNL     1      22.520  19.091  15.181  1.00  0.00     0.045 A 
HETATM    3  C2  UNL     1      21.825  20.278  15.254  1.00  0.00     0.084 A 
HETATM    4  C1  UNL     1      22.399  21.662  15.388  1.00  0.00     0.079 C 
HETATM    5  O1  UNL     1      20.557  19.954  15.183  1.00  0.00    -0.239 OA
HETATM    6  N1  UNL     1      20.382  18.673  15.070  1.00  0.00    -0.225 N 
HETATM    7  C3  UNL     1      21.587  18.089  15.065  1.00  0.00     0.274 A 
ATOM      8  H1  UNL     1      19.484  18.194  14.998  1.00  0.00     0.198 HD
HETATM    9  O2  UNL     1      21.769  16.838  14.970  1.00  0.00    -0.266 OA
ENDBRANCH   1   2
BRANCH   1  10
HETATM   10  C6  UNL     1      24.568  18.961  16.601  1.00  0.00     0.287 C 
BRANCH  10  11
HETATM   11  N2  UNL     1      25.412  20.115  16.811  1.00  0.00    -0.065 N 
ATOM     12  H23 UNL     1      25.650  20.560  15.925  1.00  0.00     0.275 HD
ATOM     13  H22 UNL     1      24.889  20.875  17.245  1.00  0.00     0.275 HD
ATOM     14  H21 UNL     1      26.253  19.898  17.347  1.00  0.00     0.275 HD
ENDBRANCH  10  11
BRANCH  10  15
HETATM   15  C7  UNL     1      25.374  17.721  16.769  1.00  0.00     0.204 C 
HETATM   16  O3  UNL     1      25.232  16.786  15.939  1.00  0.00    -0.646 OA
HETATM   17  O4  UNL     1      26.285  17.519  17.792  1.00  0.00    -0.646 OA
ENDBRANCH  10  15
ENDBRANCH   1  10
TORSDOF 4
ENDMDL
