MODEL 1
REMARK VINA RESULT: -7.875324262      0.000      0.000
REMARK  4 active torsions:
REMARK  status: ('A' for Active; 'I' for Inactive)
REMARK    1  A    between atoms: C4_8  and  C5_9 
REMARK    2  A    between atoms: C5_9  and  C6_10 
REMARK    3  A    between atoms: C6_10  and  N2_11 
REMARK    4  A    between atoms: C6_10  and  C7_15 
ROOT
HETATM    1  C5  UNL     1      21.286  19.754  15.570  1.00  0.00     0.091 C 
ENDROOT
BRANCH   1   2
HETATM    2  C4  UNL     1      22.632  19.166  15.660  1.00  0.00     0.045 A 
HETATM    3  C2  UNL     1      23.830  19.840  15.757  1.00  0.00     0.084 A 
HETATM    4  C1  UNL     1      24.035  21.329  15.796  1.00  0.00     0.079 C 
HETATM    5  O1  UNL     1      24.756  18.914  15.809  1.00  0.00    -0.239 OA
HETATM    6  N1  UNL     1      24.259  17.716  15.754  1.00  0.00    -0.225 N 
HETATM    7  C3  UNL     1      22.928  17.824  15.660  1.00  0.00     0.274 A 
ATOM      8  H1  UNL     1      24.789  16.845  15.779  1.00  0.00     0.198 HD
HETATM    9  O2  UNL     1      22.139  16.835  15.585  1.00  0.00    -0.266 OA
ENDBRANCH   1   2
BRANCH   1  10
HETATM   10  C6  UNL     1      20.665  19.660  14.206  1.00  0.00     0.287 C 
BRANCH  10  11
HETATM   11  N2  UNL     1      20.715  20.907  13.478  1.00  0.00    -0.065 N 
ATOM     12  H23 UNL     1      21.669  21.267  13.436  1.00  0.00     0.275 HD
ATOM     13  H22 UNL     1      20.550  20.756  12.483  1.00  0.00     0.275 HD
ATOM     14  H21 UNL     1      20.076  21.610  13.852  1.00  0.00     0.275 HD
ENDBRANCH  10  11
BRANCH  10  15
HETATM   15  C7  UNL     1      19.244  19.262  14.407  1.00  0.00     0.204 C 
HETATM   16  O3  UNL     1      18.995  18.154  14.948  1.00  0.00    -0.646 OA
HETATM   17  O4  UNL     1      18.160  20.038  14.035  1.00  0.00    -0.646 OA
ENDBRANCH  10  15
ENDBRANCH   1  10
TORSDOF 4
ENDMDL
