MODEL 3
REMARK VINA RESULT: -6.921245586      3.773      7.950
REMARK  8 active torsions:
REMARK  status: ('A' for Active; 'I' for Inactive)
REMARK    1  A    between atoms: C2_2  and  C3_3 
REMARK    2  A    between atoms: C3_3  and  C4_4 
REMARK    3  A    between atoms: C4_4  and  S1_5 
REMARK    4  A    between atoms: S1_5  and  C5_6 
REMARK    5  A    between atoms: C5_6  and  C6_7 
REMARK    6  A    between atoms: N1_9  and  C8_10 
REMARK    7  A    between atoms: C8_10  and  C9_11 
REMARK    8  A    between atoms: C16_25  and  O1_26 
ROOT
HETATM    1  C8  UNL     1      -1.852   1.933   3.381  1.00  0.00     0.074 C 
ENDROOT
BRANCH   1   2
HETATM    2  N1  UNL     1      -1.897   1.531   4.713  1.00  0.00    -0.289 NA
HETATM    3  C7  UNL     1      -2.670   0.401   5.092  1.00  0.00     0.102 C 
HETATM    4  C6  UNL     1      -2.165   0.207   6.530  1.00  0.00     0.038 C 
HETATM    5  C16 UNL     1      -2.003   1.641   6.979  1.00  0.00     0.137 C 
HETATM    6  C15 UNL     1      -2.187   2.495   5.719  1.00  0.00     0.127 C 
BRANCH   4   7
HETATM    7  C5  UNL     1      -3.189  -0.531   7.355  1.00  0.00     0.082 C 
BRANCH   7   8
HETATM    8  S1  UNL     1      -4.217  -1.519   6.203  1.00  0.00    -0.169 SA
BRANCH   8   9
HETATM    9  C4  UNL     1      -3.580  -3.224   6.115  1.00  0.00     0.073 C 
BRANCH   9  10
HETATM   10  C3  UNL     1      -2.167  -3.164   5.561  1.00  0.00     0.010 C 
BRANCH  10  11
HETATM   11  C2  UNL     1      -1.903  -4.292   4.604  1.00  0.00    -0.004 C 
HETATM   12  C1  UNL     1      -3.154  -4.691   3.847  1.00  0.00     0.005 C 
ENDBRANCH  10  11
ENDBRANCH   9  10
ENDBRANCH   8   9
ENDBRANCH   7   8
ENDBRANCH   4   7
BRANCH   5  13
HETATM   13  O1  UNL     1      -0.681   1.771   7.447  1.00  0.00    -0.394 OA
ATOM     14  H1  UNL     1      -0.245   0.947   7.266  1.00  0.00     0.210 HD
ENDBRANCH   5  13
ENDBRANCH   1   2
BRANCH   1  15
HETATM   15  C9  UNL     1      -1.093   3.099   2.986  1.00  0.00     0.019 A 
HETATM   16  C10 UNL     1       0.201   3.473   3.235  1.00  0.00     0.103 A 
HETATM   17  N2  UNL     1       0.446   4.662   2.642  1.00  0.00    -0.360 N 
HETATM   18  C11 UNL     1      -0.658   5.096   2.001  1.00  0.00     0.101 A 
ATOM     19  H2  UNL     1       1.336   5.160   2.676  1.00  0.00     0.165 HD
HETATM   20  C12 UNL     1      -0.924   6.229   1.259  1.00  0.00     0.146 A 
HETATM   21  C14 UNL     1      -1.614   4.125   2.215  1.00  0.00     0.076 A 
HETATM   22  N3  UNL     1       0.061   7.213   1.046  1.00  0.00    -0.080 NA
HETATM   23  N4  UNL     1      -2.138   6.389   0.734  1.00  0.00    -0.339 N 
HETATM   24  C13 UNL     1      -3.098   5.462   0.921  1.00  0.00     0.182 A 
ATOM     25  H4  UNL     1      -2.343   7.224   0.185  1.00  0.00     0.167 HD
HETATM   26  N5  UNL     1      -2.816   4.369   1.645  1.00  0.00    -0.350 N 
ATOM     27  H5  UNL     1      -3.555   3.677   1.775  1.00  0.00     0.166 HD
ENDBRANCH   1  15
TORSDOF 8
ENDMDL
