MODEL 5
REMARK VINA RESULT: -6.435011531      2.928      5.521
REMARK  8 active torsions:
REMARK  status: ('A' for Active; 'I' for Inactive)
REMARK    1  A    between atoms: C2_2  and  C3_3 
REMARK    2  A    between atoms: C3_3  and  C4_4 
REMARK    3  A    between atoms: C4_4  and  S1_5 
REMARK    4  A    between atoms: S1_5  and  C5_6 
REMARK    5  A    between atoms: C5_6  and  C6_7 
REMARK    6  A    between atoms: N1_9  and  C8_10 
REMARK    7  A    between atoms: C8_10  and  C9_11 
REMARK    8  A    between atoms: C16_25  and  O1_26 
ROOT
HETATM    1  C8  UNL     1      -1.446   2.052   3.707  1.00  0.00     0.074 C 
ENDROOT
BRANCH   1   2
HETATM    2  N1  UNL     1      -1.316   3.298   3.100  1.00  0.00    -0.289 NA
HETATM    3  C7  UNL     1      -2.279   3.735   2.151  1.00  0.00     0.102 C 
HETATM    4  C6  UNL     1      -1.869   5.209   2.021  1.00  0.00     0.038 C 
HETATM    5  C16 UNL     1      -0.364   5.104   2.105  1.00  0.00     0.137 C 
HETATM    6  C15 UNL     1      -0.071   3.655   2.510  1.00  0.00     0.127 C 
BRANCH   4   7
HETATM    7  C5  UNL     1      -2.324   5.770   0.696  1.00  0.00     0.082 C 
BRANCH   7   8
HETATM    8  S1  UNL     1      -4.089   6.232   0.871  1.00  0.00    -0.169 SA
BRANCH   8   9
HETATM    9  C4  UNL     1      -5.088   5.331  -0.359  1.00  0.00     0.073 C 
BRANCH   9  10
HETATM   10  C3  UNL     1      -6.492   5.911  -0.331  1.00  0.00     0.010 C 
BRANCH  10  11
HETATM   11  C2  UNL     1      -7.187   5.605   0.966  1.00  0.00    -0.004 C 
HETATM   12  C1  UNL     1      -8.319   6.575   1.240  1.00  0.00     0.005 C 
ENDBRANCH  10  11
ENDBRANCH   9  10
ENDBRANCH   8   9
ENDBRANCH   7   8
ENDBRANCH   4   7
BRANCH   5  13
HETATM   13  O1  UNL     1       0.045   5.973   3.134  1.00  0.00    -0.394 OA
ATOM     14  H1  UNL     1      -0.245   6.844   2.888  1.00  0.00     0.210 HD
ENDBRANCH   5  13
ENDBRANCH   1   2
BRANCH   1  15
HETATM   15  C9  UNL     1      -1.735   1.945   5.120  1.00  0.00     0.019 A 
HETATM   16  C10 UNL     1      -1.339   2.700   6.192  1.00  0.00     0.103 A 
HETATM   17  N2  UNL     1      -1.879   2.193   7.322  1.00  0.00    -0.360 N 
HETATM   18  C11 UNL     1      -2.631   1.111   7.031  1.00  0.00     0.101 A 
ATOM     19  H2  UNL     1      -1.740   2.573   8.259  1.00  0.00     0.165 HD
HETATM   20  C12 UNL     1      -3.377   0.253   7.813  1.00  0.00     0.146 A 
HETATM   21  C14 UNL     1      -2.540   0.957   5.663  1.00  0.00     0.076 A 
HETATM   22  N3  UNL     1      -3.462   0.421   9.209  1.00  0.00    -0.080 NA
HETATM   23  N4  UNL     1      -4.029  -0.752   7.231  1.00  0.00    -0.339 N 
HETATM   24  C13 UNL     1      -3.965  -0.935   5.897  1.00  0.00     0.182 A 
ATOM     25  H4  UNL     1      -4.582  -1.391   7.801  1.00  0.00     0.167 HD
HETATM   26  N5  UNL     1      -3.234  -0.087   5.158  1.00  0.00    -0.350 N 
ATOM     27  H5  UNL     1      -3.199  -0.241   4.149  1.00  0.00     0.166 HD
ENDBRANCH   1  15
TORSDOF 8
ENDMDL
