MODEL 2
REMARK VINA RESULT: -8.533988229      0.933      1.138
REMARK  8 active torsions:
REMARK  status: ('A' for Active; 'I' for Inactive)
REMARK    1  A    between atoms: C2_2  and  C3_3 
REMARK    2  A    between atoms: C3_3  and  C4_4 
REMARK    3  A    between atoms: C4_4  and  S1_5 
REMARK    4  A    between atoms: S1_5  and  C5_6 
REMARK    5  A    between atoms: C5_6  and  C6_7 
REMARK    6  A    between atoms: N1_9  and  C8_10 
REMARK    7  A    between atoms: C8_10  and  C9_11 
REMARK    8  A    between atoms: C16_25  and  O1_26 
ROOT
HETATM    1  C8  UNL     1      -4.099  -1.315   7.519  1.00  0.00     0.074 C 
ENDROOT
BRANCH   1   2
HETATM    2  N1  UNL     1      -3.491  -0.063   7.493  1.00  0.00    -0.289 NA
HETATM    3  C7  UNL     1      -2.949   0.443   6.281  1.00  0.00     0.102 C 
HETATM    4  C6  UNL     1      -2.690   1.898   6.697  1.00  0.00     0.038 C 
HETATM    5  C16 UNL     1      -2.232   1.718   8.126  1.00  0.00     0.137 C 
HETATM    6  C15 UNL     1      -2.499   0.247   8.465  1.00  0.00     0.127 C 
BRANCH   4   7
HETATM    7  C5  UNL     1      -1.616   2.512   5.833  1.00  0.00     0.082 C 
BRANCH   7   8
HETATM    8  S1  UNL     1      -1.665   1.663   4.209  1.00  0.00    -0.169 SA
BRANCH   8   9
HETATM    9  C4  UNL     1      -0.132   2.007   3.286  1.00  0.00     0.073 C 
BRANCH   9  10
HETATM   10  C3  UNL     1      -0.260   3.391   2.672  1.00  0.00     0.010 C 
BRANCH  10  11
HETATM   11  C2  UNL     1      -1.699   3.766   2.460  1.00  0.00    -0.004 C 
HETATM   12  C1  UNL     1      -1.840   4.959   1.536  1.00  0.00     0.005 C 
ENDBRANCH  10  11
ENDBRANCH   9  10
ENDBRANCH   8   9
ENDBRANCH   7   8
ENDBRANCH   4   7
BRANCH   5  13
HETATM   13  O1  UNL     1      -3.053   2.541   8.920  1.00  0.00    -0.394 OA
ATOM     14  H1  UNL     1      -3.533   1.966   9.504  1.00  0.00     0.210 HD
ENDBRANCH   5  13
ENDBRANCH   1   2
BRANCH   1  15
HETATM   15  C9  UNL     1      -4.229  -2.099   6.311  1.00  0.00     0.019 A 
HETATM   16  C10 UNL     1      -5.263  -2.245   5.425  1.00  0.00     0.103 A 
HETATM   17  N2  UNL     1      -4.897  -3.099   4.444  1.00  0.00    -0.360 N 
HETATM   18  C11 UNL     1      -3.636  -3.530   4.653  1.00  0.00     0.101 A 
ATOM     19  H2  UNL     1      -5.487  -3.376   3.659  1.00  0.00     0.165 HD
HETATM   20  C12 UNL     1      -2.816  -4.394   3.955  1.00  0.00     0.146 A 
HETATM   21  C14 UNL     1      -3.222  -2.910   5.814  1.00  0.00     0.076 A 
HETATM   22  N3  UNL     1      -3.249  -5.020   2.771  1.00  0.00    -0.080 NA
HETATM   23  N4  UNL     1      -1.589  -4.635   4.416  1.00  0.00    -0.339 N 
HETATM   24  C13 UNL     1      -1.148  -4.047   5.546  1.00  0.00     0.182 A 
ATOM     25  H4  UNL     1      -0.976  -5.272   3.907  1.00  0.00     0.167 HD
HETATM   26  N5  UNL     1      -1.964  -3.211   6.206  1.00  0.00    -0.350 N 
ATOM     27  H5  UNL     1      -1.612  -2.775   7.059  1.00  0.00     0.166 HD
ENDBRANCH   1  15
TORSDOF 8
ENDMDL
