MODEL 4
REMARK VINA RESULT: -6.865656625      3.337      7.348
REMARK  8 active torsions:
REMARK  status: ('A' for Active; 'I' for Inactive)
REMARK    1  A    between atoms: C2_2  and  C3_3 
REMARK    2  A    between atoms: C3_3  and  C4_4 
REMARK    3  A    between atoms: C4_4  and  S1_5 
REMARK    4  A    between atoms: S1_5  and  C5_6 
REMARK    5  A    between atoms: C5_6  and  C6_7 
REMARK    6  A    between atoms: N1_9  and  C8_10 
REMARK    7  A    between atoms: C8_10  and  C9_11 
REMARK    8  A    between atoms: C16_25  and  O1_26 
ROOT
HETATM    1  C8  UNL     1      -2.619   2.353   5.586  1.00  0.00     0.074 C 
ENDROOT
BRANCH   1   2
HETATM    2  N1  UNL     1      -2.660   1.182   6.338  1.00  0.00    -0.289 NA
HETATM    3  C7  UNL     1      -3.433   0.075   5.895  1.00  0.00     0.102 C 
HETATM    4  C6  UNL     1      -2.923  -1.005   6.860  1.00  0.00     0.038 C 
HETATM    5  C16 UNL     1      -2.757  -0.206   8.132  1.00  0.00     0.137 C 
HETATM    6  C15 UNL     1      -2.946   1.261   7.730  1.00  0.00     0.127 C 
BRANCH   4   7
HETATM    7  C5  UNL     1      -3.944  -2.104   7.011  1.00  0.00     0.082 C 
BRANCH   7   8
HETATM    8  S1  UNL     1      -4.983  -2.102   5.501  1.00  0.00    -0.169 SA
BRANCH   8   9
HETATM    9  C4  UNL     1      -4.412  -3.399   4.356  1.00  0.00     0.073 C 
BRANCH   9  10
HETATM   10  C3  UNL     1      -3.421  -4.275   5.104  1.00  0.00     0.010 C 
BRANCH  10  11
HETATM   11  C2  UNL     1      -2.101  -4.345   4.389  1.00  0.00    -0.004 C 
HETATM   12  C1  UNL     1      -0.941  -4.048   5.317  1.00  0.00     0.005 C 
ENDBRANCH  10  11
ENDBRANCH   9  10
ENDBRANCH   8   9
ENDBRANCH   7   8
ENDBRANCH   4   7
BRANCH   5  13
HETATM   13  O1  UNL     1      -1.434  -0.409   8.568  1.00  0.00    -0.394 OA
ATOM     14  H1  UNL     1      -0.871   0.045   7.953  1.00  0.00     0.210 HD
ENDBRANCH   5  13
ENDBRANCH   1   2
BRANCH   1  15
HETATM   15  C9  UNL     1      -1.497   2.637   4.720  1.00  0.00     0.019 A 
HETATM   16  C10 UNL     1      -0.219   2.144   4.691  1.00  0.00     0.103 A 
HETATM   17  N2  UNL     1       0.465   2.728   3.683  1.00  0.00    -0.360 N 
HETATM   18  C11 UNL     1      -0.328   3.605   3.033  1.00  0.00     0.101 A 
ATOM     19  H2  UNL     1       1.438   2.534   3.447  1.00  0.00     0.165 HD
HETATM   20  C12 UNL     1      -0.113   4.439   1.955  1.00  0.00     0.146 A 
HETATM   21  C14 UNL     1      -1.546   3.549   3.678  1.00  0.00     0.076 A 
HETATM   22  N3  UNL     1       1.135   4.487   1.303  1.00  0.00    -0.080 NA
HETATM   23  N4  UNL     1      -1.110   5.212   1.525  1.00  0.00    -0.339 N 
HETATM   24  C13 UNL     1      -2.314   5.184   2.129  1.00  0.00     0.182 A 
ATOM     25  H4  UNL     1      -0.959   5.831   0.729  1.00  0.00     0.167 HD
HETATM   26  N5  UNL     1      -2.499   4.365   3.175  1.00  0.00    -0.350 N 
ATOM     27  H5  UNL     1      -3.418   4.357   3.619  1.00  0.00     0.166 HD
ENDBRANCH   1  15
TORSDOF 8
ENDMDL
