MODEL 1
REMARK VINA RESULT: -8.787224202      0.000      0.000
REMARK  8 active torsions:
REMARK  status: ('A' for Active; 'I' for Inactive)
REMARK    1  A    between atoms: C2_2  and  C3_3 
REMARK    2  A    between atoms: C3_3  and  C4_4 
REMARK    3  A    between atoms: C4_4  and  S1_5 
REMARK    4  A    between atoms: S1_5  and  C5_6 
REMARK    5  A    between atoms: C5_6  and  C6_7 
REMARK    6  A    between atoms: N1_9  and  C8_10 
REMARK    7  A    between atoms: C8_10  and  C9_11 
REMARK    8  A    between atoms: C16_25  and  O1_26 
ROOT
HETATM    1  C8  UNL     1      -3.873  -0.726   7.215  1.00  0.00     0.074 C 
ENDROOT
BRANCH   1   2
HETATM    2  N1  UNL     1      -2.937   0.278   6.982  1.00  0.00    -0.289 NA
HETATM    3  C7  UNL     1      -2.526   0.579   5.655  1.00  0.00     0.102 C 
HETATM    4  C6  UNL     1      -1.765   1.889   5.906  1.00  0.00     0.038 C 
HETATM    5  C16 UNL     1      -1.103   1.594   7.232  1.00  0.00     0.137 C 
HETATM    6  C15 UNL     1      -1.722   0.280   7.723  1.00  0.00     0.127 C 
BRANCH   4   7
HETATM    7  C5  UNL     1      -0.756   2.132   4.811  1.00  0.00     0.082 C 
BRANCH   7   8
HETATM    8  S1  UNL     1      -1.506   3.308   3.622  1.00  0.00    -0.169 SA
BRANCH   8   9
HETATM    9  C4  UNL     1      -0.217   3.983   2.525  1.00  0.00     0.073 C 
BRANCH   9  10
HETATM   10  C3  UNL     1      -0.871   5.011   1.618  1.00  0.00     0.010 C 
BRANCH  10  11
HETATM   11  C2  UNL     1      -2.350   4.773   1.496  1.00  0.00    -0.004 C 
HETATM   12  C1  UNL     1      -3.015   5.808   0.610  1.00  0.00     0.005 C 
ENDBRANCH  10  11
ENDBRANCH   9  10
ENDBRANCH   8   9
ENDBRANCH   7   8
ENDBRANCH   4   7
BRANCH   5  13
HETATM   13  O1  UNL     1      -1.462   2.639   8.104  1.00  0.00    -0.394 OA
ATOM     14  H1  UNL     1      -0.844   2.617   8.826  1.00  0.00     0.210 HD
ENDBRANCH   5  13
ENDBRANCH   1   2
BRANCH   1  15
HETATM   15  C9  UNL     1      -4.155  -1.721   6.205  1.00  0.00     0.019 A 
HETATM   16  C10 UNL     1      -5.294  -2.006   5.499  1.00  0.00     0.103 A 
HETATM   17  N2  UNL     1      -5.055  -3.040   4.661  1.00  0.00    -0.360 N 
HETATM   18  C11 UNL     1      -3.778  -3.456   4.791  1.00  0.00     0.101 A 
ATOM     19  H2  UNL     1      -5.741  -3.446   4.024  1.00  0.00     0.165 HD
HETATM   20  C12 UNL     1      -3.054  -4.456   4.176  1.00  0.00     0.146 A 
HETATM   21  C14 UNL     1      -3.220  -2.637   5.751  1.00  0.00     0.076 A 
HETATM   22  N3  UNL     1      -3.635  -5.285   3.197  1.00  0.00    -0.080 NA
HETATM   23  N4  UNL     1      -1.779  -4.636   4.518  1.00  0.00    -0.339 N 
HETATM   24  C13 UNL     1      -1.198  -3.856   5.450  1.00  0.00     0.182 A 
ATOM     25  H4  UNL     1      -1.236  -5.373   4.068  1.00  0.00     0.167 HD
HETATM   26  N5  UNL     1      -1.923  -2.889   6.034  1.00  0.00    -0.350 N 
ATOM     27  H5  UNL     1      -1.466  -2.308   6.737  1.00  0.00     0.166 HD
ENDBRANCH   1  15
TORSDOF 8
ENDMDL
