MODEL 2
REMARK VINA RESULT: -7.634013556      4.881      6.628
REMARK  14 active torsions:
REMARK  status: ('A' for Active; 'I' for Inactive)
REMARK    1  A    between atoms: C4_4  and  C5_5 
REMARK    2  A    between atoms: C5_5  and  C6_6 
REMARK    3  A    between atoms: C6_6  and  C7_7 
REMARK    4  A    between atoms: C9_9  and  C10_10 
REMARK    5  A    between atoms: C10_10  and  C11_11 
REMARK    6  A    between atoms: C11_11  and  C12_12 
REMARK    7  A    between atoms: C14_14  and  C15_15 
REMARK    8  A    between atoms: C15_15  and  C16_16 
REMARK    9  A    between atoms: C16_16  and  C17_17 
REMARK   10  A    between atoms: C19_19  and  C20_20 
REMARK   11  A    between atoms: C20_20  and  O1_21 
REMARK   12  A    between atoms: O1_21  and  P1_22 
REMARK   13  A    between atoms: P1_22  and  O4_25 
REMARK   14  A    between atoms: O4_25  and  P2_26 
ROOT
HETATM    1  C15 UNL     1       6.398  26.615  23.393  1.00  0.00     0.031 C 
ENDROOT
BRANCH   1   2
HETATM    2  C14 UNL     1       5.830  26.945  22.046  1.00  0.00    -0.024 C 
HETATM    3  C12 UNL     1       5.016  26.107  21.411  1.00  0.00    -0.087 C 
HETATM    4  C13 UNL     1       4.716  24.836  22.128  1.00  0.00     0.043 C 
BRANCH   3   5
HETATM    5  C11 UNL     1       4.490  26.470  20.105  1.00  0.00     0.037 C 
BRANCH   5   6
HETATM    6  C10 UNL     1       5.506  26.679  19.029  1.00  0.00     0.031 C 
BRANCH   6   7
HETATM    7  C9  UNL     1       6.484  25.558  19.063  1.00  0.00    -0.024 C 
HETATM    8  C7  UNL     1       7.771  25.809  19.184  1.00  0.00    -0.087 C 
HETATM    9  C8  UNL     1       8.208  27.201  19.284  1.00  0.00     0.043 C 
BRANCH   8  10
HETATM   10  C6  UNL     1       8.784  24.690  19.222  1.00  0.00     0.037 C 
BRANCH  10  11
HETATM   11  C5  UNL     1       8.431  23.690  20.300  1.00  0.00     0.031 C 
BRANCH  11  12
HETATM   12  C4  UNL     1       8.037  22.431  19.619  1.00  0.00    -0.024 C 
HETATM   13  C2  UNL     1       7.296  21.534  20.245  1.00  0.00    -0.091 C 
HETATM   14  C1  UNL     1       6.861  21.792  21.633  1.00  0.00     0.042 C 
HETATM   15  C3  UNL     1       6.895  20.271  19.576  1.00  0.00     0.042 C 
ENDBRANCH  11  12
ENDBRANCH  10  11
ENDBRANCH   8  10
ENDBRANCH   6   7
ENDBRANCH   5   6
ENDBRANCH   3   5
ENDBRANCH   1   2
BRANCH   1  16
HETATM   16  C16 UNL     1       7.825  26.175  23.215  1.00  0.00     0.037 C 
BRANCH  16  17
HETATM   17  C17 UNL     1       8.228  25.332  24.355  1.00  0.00    -0.085 C 
HETATM   18  C18 UNL     1       8.385  25.966  25.691  1.00  0.00     0.043 C 
HETATM   19  C19 UNL     1       8.449  24.049  24.215  1.00  0.00     0.002 C 
BRANCH  19  20
HETATM   20  C20 UNL     1       8.856  23.189  25.363  1.00  0.00     0.209 C 
BRANCH  20  21
HETATM   21  O1  UNL     1      10.222  22.903  25.171  1.00  0.00    -0.286 OA
BRANCH  21  22
HETATM   22  P1  UNL     1      10.817  22.426  26.696  1.00  0.00     0.418 P 
HETATM   23  O2  UNL     1      12.173  21.808  26.468  1.00  0.00    -0.624 OA
HETATM   24  O3  UNL     1       9.717  21.256  27.278  1.00  0.00    -0.624 OA
BRANCH  22  25
HETATM   25  O4  UNL     1      10.893  23.731  27.746  1.00  0.00    -0.173 OA
BRANCH  25  26
HETATM   26  P2  UNL     1      12.082  23.413  28.903  1.00  0.00     0.431 P 
HETATM   27  O5  UNL     1      12.010  24.464  29.995  1.00  0.00    -0.616 OA
HETATM   28  O6  UNL     1      13.587  23.461  28.137  1.00  0.00    -0.616 OA
HETATM   29  O7  UNL     1      11.842  21.862  29.561  1.00  0.00    -0.616 OA
ENDBRANCH  25  26
ENDBRANCH  22  25
ENDBRANCH  21  22
ENDBRANCH  20  21
ENDBRANCH  19  20
ENDBRANCH  16  17
ENDBRANCH   1  16
TORSDOF 14
ENDMDL
