MODEL 3
REMARK VINA RESULT: -7.567278189      5.191      7.102
REMARK  14 active torsions:
REMARK  status: ('A' for Active; 'I' for Inactive)
REMARK    1  A    between atoms: C4_4  and  C5_5 
REMARK    2  A    between atoms: C5_5  and  C6_6 
REMARK    3  A    between atoms: C6_6  and  C7_7 
REMARK    4  A    between atoms: C9_9  and  C10_10 
REMARK    5  A    between atoms: C10_10  and  C11_11 
REMARK    6  A    between atoms: C11_11  and  C12_12 
REMARK    7  A    between atoms: C14_14  and  C15_15 
REMARK    8  A    between atoms: C15_15  and  C16_16 
REMARK    9  A    between atoms: C16_16  and  C17_17 
REMARK   10  A    between atoms: C19_19  and  C20_20 
REMARK   11  A    between atoms: C20_20  and  O1_21 
REMARK   12  A    between atoms: O1_21  and  P1_22 
REMARK   13  A    between atoms: P1_22  and  O4_25 
REMARK   14  A    between atoms: O4_25  and  P2_26 
ROOT
HETATM    1  C15 UNL     1       7.469  26.054  23.734  1.00  0.00     0.031 C 
ENDROOT
BRANCH   1   2
HETATM    2  C14 UNL     1       7.467  27.284  22.879  1.00  0.00    -0.024 C 
HETATM    3  C12 UNL     1       6.468  27.545  22.040  1.00  0.00    -0.087 C 
HETATM    4  C13 UNL     1       5.370  26.538  22.015  1.00  0.00     0.043 C 
BRANCH   3   5
HETATM    5  C11 UNL     1       6.510  28.752  21.230  1.00  0.00     0.037 C 
BRANCH   5   6
HETATM    6  C10 UNL     1       6.211  28.571  19.776  1.00  0.00     0.031 C 
BRANCH   6   7
HETATM    7  C9  UNL     1       7.124  27.535  19.220  1.00  0.00    -0.024 C 
HETATM    8  C7  UNL     1       6.637  26.537  18.514  1.00  0.00    -0.087 C 
HETATM    9  C8  UNL     1       5.193  26.474  18.292  1.00  0.00     0.043 C 
BRANCH   8  10
HETATM   10  C6  UNL     1       7.541  25.474  17.938  1.00  0.00     0.037 C 
BRANCH  10  11
HETATM   11  C5  UNL     1       8.286  24.756  19.041  1.00  0.00     0.031 C 
BRANCH  11  12
HETATM   12  C4  UNL     1       7.274  24.058  19.873  1.00  0.00    -0.024 C 
HETATM   13  C2  UNL     1       7.594  23.592  21.067  1.00  0.00    -0.091 C 
HETATM   14  C1  UNL     1       8.971  23.771  21.571  1.00  0.00     0.042 C 
HETATM   15  C3  UNL     1       6.592  22.892  21.909  1.00  0.00     0.042 C 
ENDBRANCH  11  12
ENDBRANCH  10  11
ENDBRANCH   8  10
ENDBRANCH   6   7
ENDBRANCH   5   6
ENDBRANCH   3   5
ENDBRANCH   1   2
BRANCH   1  16
HETATM   16  C16 UNL     1       8.301  26.323  24.958  1.00  0.00     0.037 C 
BRANCH  16  17
HETATM   17  C17 UNL     1       8.482  25.074  25.718  1.00  0.00    -0.085 C 
HETATM   18  C18 UNL     1       7.926  24.988  27.094  1.00  0.00     0.043 C 
HETATM   19  C19 UNL     1       9.117  24.048  25.209  1.00  0.00     0.002 C 
BRANCH  19  20
HETATM   20  C20 UNL     1       9.304  22.780  25.970  1.00  0.00     0.209 C 
BRANCH  20  21
HETATM   21  O1  UNL     1      10.567  22.281  25.594  1.00  0.00    -0.286 OA
BRANCH  21  22
HETATM   22  P1  UNL     1      11.496  22.239  27.021  1.00  0.00     0.418 P 
HETATM   23  O2  UNL     1      12.918  21.945  26.616  1.00  0.00    -0.624 OA
HETATM   24  O3  UNL     1      10.863  20.953  27.950  1.00  0.00    -0.624 OA
BRANCH  22  25
HETATM   25  O4  UNL     1      11.371  23.684  27.862  1.00  0.00    -0.173 OA
BRANCH  25  26
HETATM   26  P2  UNL     1      12.668  23.785  28.941  1.00  0.00     0.431 P 
HETATM   27  O5  UNL     1      12.888  22.429  29.586  1.00  0.00    -0.616 OA
HETATM   28  O6  UNL     1      12.287  24.941  30.113  1.00  0.00    -0.616 OA
HETATM   29  O7  UNL     1      14.069  24.276  28.109  1.00  0.00    -0.616 OA
ENDBRANCH  25  26
ENDBRANCH  22  25
ENDBRANCH  21  22
ENDBRANCH  20  21
ENDBRANCH  19  20
ENDBRANCH  16  17
ENDBRANCH   1  16
TORSDOF 14
ENDMDL
