MODEL 1
REMARK VINA RESULT: -9.471429913      0.000      0.000
REMARK  14 active torsions:
REMARK  status: ('A' for Active; 'I' for Inactive)
REMARK    1  A    between atoms: C2_2  and  C4_4 
REMARK    2  A    between atoms: C4_4  and  C5_5 
REMARK    3  A    between atoms: C5_5  and  N1_6 
REMARK    4  A    between atoms: C5_5  and  C12_25 
REMARK    5  A    between atoms: N1_6  and  P1_8 
REMARK    6  A    between atoms: P1_8  and  O3_11 
REMARK    7  A    between atoms: O3_11  and  C6_12 
REMARK    8  A    between atoms: C9_16  and  O5_17 
REMARK    9  A    between atoms: C10_19  and  O6_20 
REMARK   10  A    between atoms: C11_22  and  O7_23 
REMARK       I    between atoms: C12_25  and  N2_27 
REMARK   11  A    between atoms: N2_27  and  C13_29 
REMARK   12  A    between atoms: C13_29  and  C14_30 
REMARK   13  A    between atoms: C13_29  and  C23_41 
REMARK   14  A    between atoms: C14_30  and  C15_31 
ROOT
HETATM    1  C5  UNL     1      86.894  32.643  46.169  1.00  0.00     0.180 C 
ENDROOT
BRANCH   1   2
HETATM    2  C4  UNL     1      85.838  33.124  47.048  1.00  0.00     0.038 C 
BRANCH   2   3
HETATM    3  C2  UNL     1      85.551  32.564  48.368  1.00  0.00    -0.020 C 
HETATM    4  C1  UNL     1      85.173  33.492  49.469  1.00  0.00     0.009 C 
HETATM    5  C3  UNL     1      84.553  31.404  48.326  1.00  0.00     0.009 C 
ENDBRANCH   2   3
ENDBRANCH   1   2
BRANCH   1   6
HETATM    6  N1  UNL     1      88.037  33.599  46.329  1.00  0.00    -0.312 N 
ATOM      7  H1  UNL     1      87.922  34.601  46.480  1.00  0.00     0.166 HD
BRANCH   6   8
HETATM    8  P1  UNL     1      89.566  32.816  46.231  1.00  0.00     0.362 P 
HETATM    9  O1  UNL     1      89.981  32.484  44.812  1.00  0.00    -0.630 OA
HETATM   10  O2  UNL     1      89.493  31.359  47.088  1.00  0.00    -0.630 OA
BRANCH   8  11
HETATM   11  O3  UNL     1      90.787  33.754  46.987  1.00  0.00    -0.261 OA
BRANCH  11  12
HETATM   12  C6  UNL     1      91.093  34.786  46.127  1.00  0.00     0.303 C 
HETATM   13  O4  UNL     1      92.319  34.608  45.489  1.00  0.00    -0.350 OA
HETATM   14  C7  UNL     1      92.425  35.596  44.512  1.00  0.00     0.152 C 
HETATM   15  C8  UNL     1      91.370  35.458  43.451  1.00  0.00     0.042 C 
HETATM   16  C9  UNL     1      92.429  36.986  45.088  1.00  0.00     0.178 C 
HETATM   17  C10 UNL     1      91.293  37.220  46.054  1.00  0.00     0.183 C 
HETATM   18  C11 UNL     1      91.089  36.059  46.972  1.00  0.00     0.205 C 
BRANCH  16  19
HETATM   19  O5  UNL     1      93.608  37.293  45.755  1.00  0.00    -0.390 OA
ATOM     20  H5  UNL     1      93.498  37.344  46.697  1.00  0.00     0.210 HD
ENDBRANCH  16  19
BRANCH  17  21
HETATM   21  O6  UNL     1      90.109  37.549  45.440  1.00  0.00    -0.390 OA
ATOM     22  H6  UNL     1      89.373  37.023  45.729  1.00  0.00     0.210 HD
ENDBRANCH  17  21
BRANCH  18  23
HETATM   23  O7  UNL     1      89.833  36.122  47.577  1.00  0.00    -0.388 OA
ATOM     24  H7  UNL     1      89.696  37.032  47.813  1.00  0.00     0.210 HD
ENDBRANCH  18  23
ENDBRANCH  11  12
ENDBRANCH   8  11
ENDBRANCH   6   8
ENDBRANCH   1   6
BRANCH   1  25
HETATM   25  C12 UNL     1      86.698  32.493  44.744  1.00  0.00     0.241 C 
HETATM   26  O8  UNL     1      86.111  31.441  44.290  1.00  0.00    -0.271 OA
HETATM   27  N2  UNL     1      87.094  33.427  43.762  1.00  0.00    -0.344 N 
ATOM     28  H2  UNL     1      87.563  34.291  44.034  1.00  0.00     0.163 HD
BRANCH  27  29
HETATM   29  C13 UNL     1      86.824  33.144  42.337  1.00  0.00     0.190 C 
BRANCH  29  30
HETATM   30  C14 UNL     1      85.901  34.190  41.804  1.00  0.00     0.077 C 
BRANCH  30  31
HETATM   31  C15 UNL     1      84.601  33.661  41.397  1.00  0.00    -0.028 A 
HETATM   32  C16 UNL     1      84.266  32.308  41.234  1.00  0.00     0.096 A 
HETATM   33  N3  UNL     1      82.999  32.222  40.816  1.00  0.00    -0.365 N 
HETATM   34  C17 UNL     1      82.446  33.460  40.686  1.00  0.00     0.042 A 
ATOM     35  H3  UNL     1      82.513  31.347  40.621  1.00  0.00     0.165 HD
HETATM   36  C18 UNL     1      81.184  33.875  40.310  1.00  0.00     0.030 A 
HETATM   37  C22 UNL     1      83.437  34.343  41.046  1.00  0.00    -0.002 A 
HETATM   38  C19 UNL     1      80.879  35.211  40.287  1.00  0.00     0.002 A 
HETATM   39  C20 UNL     1      81.872  36.090  40.650  1.00  0.00     0.001 A 
HETATM   40  C21 UNL     1      83.136  35.703  41.027  1.00  0.00     0.014 A 
ENDBRANCH  30  31
ENDBRANCH  29  30
BRANCH  29  41
HETATM   41  C23 UNL     1      88.043  33.024  41.536  1.00  0.00     0.197 C 
HETATM   42  O9  UNL     1      88.653  31.926  41.327  1.00  0.00    -0.646 OA
HETATM   43  O10 UNL     1      88.538  34.214  40.970  1.00  0.00    -0.646 OA
ENDBRANCH  29  41
ENDBRANCH  27  29
ENDBRANCH   1  25
TORSDOF 14
ENDMDL
