MODEL 2
REMARK VINA RESULT: -9.454224536      1.148      2.146
REMARK  14 active torsions:
REMARK  status: ('A' for Active; 'I' for Inactive)
REMARK    1  A    between atoms: C2_2  and  C4_4 
REMARK    2  A    between atoms: C4_4  and  C5_5 
REMARK    3  A    between atoms: C5_5  and  N1_6 
REMARK    4  A    between atoms: C5_5  and  C12_25 
REMARK    5  A    between atoms: N1_6  and  P1_8 
REMARK    6  A    between atoms: P1_8  and  O3_11 
REMARK    7  A    between atoms: O3_11  and  C6_12 
REMARK    8  A    between atoms: C9_16  and  O5_17 
REMARK    9  A    between atoms: C10_19  and  O6_20 
REMARK   10  A    between atoms: C11_22  and  O7_23 
REMARK       I    between atoms: C12_25  and  N2_27 
REMARK   11  A    between atoms: N2_27  and  C13_29 
REMARK   12  A    between atoms: C13_29  and  C14_30 
REMARK   13  A    between atoms: C13_29  and  C23_41 
REMARK   14  A    between atoms: C14_30  and  C15_31 
ROOT
HETATM    1  C5  UNL     1      86.569  32.227  46.069  1.00  0.00     0.180 C 
ENDROOT
BRANCH   1   2
HETATM    2  C4  UNL     1      85.454  32.612  46.921  1.00  0.00     0.038 C 
BRANCH   2   3
HETATM    3  C2  UNL     1      85.350  32.271  48.340  1.00  0.00    -0.020 C 
HETATM    4  C1  UNL     1      85.315  33.376  49.336  1.00  0.00     0.009 C 
HETATM    5  C3  UNL     1      84.217  31.287  48.641  1.00  0.00     0.009 C 
ENDBRANCH   2   3
ENDBRANCH   1   2
BRANCH   1   6
HETATM    6  N1  UNL     1      87.672  33.199  46.361  1.00  0.00    -0.312 N 
ATOM      7  H1  UNL     1      87.520  34.190  46.549  1.00  0.00     0.166 HD
BRANCH   6   8
HETATM    8  P1  UNL     1      89.223  32.455  46.347  1.00  0.00     0.362 P 
HETATM    9  O1  UNL     1      89.220  31.048  46.908  1.00  0.00    -0.630 OA
HETATM   10  O2  UNL     1      90.282  33.373  47.295  1.00  0.00    -0.630 OA
BRANCH   8  11
HETATM   11  O3  UNL     1      89.886  32.446  44.764  1.00  0.00    -0.261 OA
BRANCH  11  12
HETATM   12  C6  UNL     1      90.325  33.726  44.505  1.00  0.00     0.303 C 
HETATM   13  O4  UNL     1      89.278  34.637  44.377  1.00  0.00    -0.350 OA
HETATM   14  C7  UNL     1      89.842  35.911  44.317  1.00  0.00     0.152 C 
HETATM   15  C8  UNL     1      90.566  36.270  45.584  1.00  0.00     0.042 C 
HETATM   16  C9  UNL     1      90.734  36.096  43.118  1.00  0.00     0.178 C 
HETATM   17  C10 UNL     1      91.745  34.987  42.966  1.00  0.00     0.183 C 
HETATM   18  C11 UNL     1      91.145  33.641  43.219  1.00  0.00     0.205 C 
BRANCH  16  19
HETATM   19  O5  UNL     1      90.028  36.177  41.925  1.00  0.00    -0.390 OA
ATOM     20  H5  UNL     1      90.503  35.810  41.189  1.00  0.00     0.210 HD
ENDBRANCH  16  19
BRANCH  17  21
HETATM   21  O6  UNL     1      92.866  35.154  43.744  1.00  0.00    -0.390 OA
ATOM     22  H6  UNL     1      92.787  34.775  44.611  1.00  0.00     0.210 HD
ENDBRANCH  17  21
BRANCH  18  23
HETATM   23  O7  UNL     1      92.140  32.691  43.452  1.00  0.00    -0.388 OA
ATOM     24  H7  UNL     1      92.866  33.158  43.849  1.00  0.00     0.210 HD
ENDBRANCH  18  23
ENDBRANCH  11  12
ENDBRANCH   8  11
ENDBRANCH   6   8
ENDBRANCH   1   6
BRANCH   1  25
HETATM   25  C12 UNL     1      86.453  32.179  44.628  1.00  0.00     0.241 C 
HETATM   26  O8  UNL     1      85.899  31.162  44.067  1.00  0.00    -0.271 OA
HETATM   27  N2  UNL     1      86.898  33.182  43.738  1.00  0.00    -0.344 N 
ATOM     28  H2  UNL     1      87.346  34.025  44.098  1.00  0.00     0.163 HD
BRANCH  27  29
HETATM   29  C13 UNL     1      86.710  33.001  42.284  1.00  0.00     0.190 C 
BRANCH  29  30
HETATM   30  C14 UNL     1      85.827  34.092  41.773  1.00  0.00     0.077 C 
BRANCH  30  31
HETATM   31  C15 UNL     1      84.508  33.621  41.358  1.00  0.00    -0.028 A 
HETATM   32  C16 UNL     1      84.126  32.286  41.153  1.00  0.00     0.096 A 
HETATM   33  N3  UNL     1      82.854  32.257  40.741  1.00  0.00    -0.365 N 
HETATM   34  C17 UNL     1      82.342  33.516  40.656  1.00  0.00     0.042 A 
ATOM     35  H3  UNL     1      82.337  31.406  40.521  1.00  0.00     0.165 HD
HETATM   36  C18 UNL     1      81.093  33.987  40.303  1.00  0.00     0.030 A 
HETATM   37  C22 UNL     1      83.365  34.353  41.038  1.00  0.00    -0.002 A 
HETATM   38  C19 UNL     1      80.833  35.331  40.326  1.00  0.00     0.002 A 
HETATM   39  C20 UNL     1      81.858  36.164  40.711  1.00  0.00     0.001 A 
HETATM   40  C21 UNL     1      83.110  35.722  41.066  1.00  0.00     0.014 A 
ENDBRANCH  30  31
ENDBRANCH  29  30
BRANCH  29  41
HETATM   41  C23 UNL     1      87.972  32.923  41.548  1.00  0.00     0.197 C 
HETATM   42  O9  UNL     1      88.635  31.849  41.383  1.00  0.00    -0.646 OA
HETATM   43  O10 UNL     1      88.448  34.127  40.996  1.00  0.00    -0.646 OA
ENDBRANCH  29  41
ENDBRANCH  27  29
ENDBRANCH   1  25
TORSDOF 14
ENDMDL
