MODEL 3
REMARK VINA RESULT: -9.047709886      2.695      4.501
REMARK  14 active torsions:
REMARK  status: ('A' for Active; 'I' for Inactive)
REMARK    1  A    between atoms: C2_2  and  C4_4 
REMARK    2  A    between atoms: C4_4  and  C5_5 
REMARK    3  A    between atoms: C5_5  and  N1_6 
REMARK    4  A    between atoms: C5_5  and  C12_25 
REMARK    5  A    between atoms: N1_6  and  P1_8 
REMARK    6  A    between atoms: P1_8  and  O3_11 
REMARK    7  A    between atoms: O3_11  and  C6_12 
REMARK    8  A    between atoms: C9_16  and  O5_17 
REMARK    9  A    between atoms: C10_19  and  O6_20 
REMARK   10  A    between atoms: C11_22  and  O7_23 
REMARK       I    between atoms: C12_25  and  N2_27 
REMARK   11  A    between atoms: N2_27  and  C13_29 
REMARK   12  A    between atoms: C13_29  and  C14_30 
REMARK   13  A    between atoms: C13_29  and  C23_41 
REMARK   14  A    between atoms: C14_30  and  C15_31 
ROOT
HETATM    1  C5  UNL     1      85.834  33.079  42.834  1.00  0.00     0.180 C 
ENDROOT
BRANCH   1   2
HETATM    2  C4  UNL     1      85.557  33.595  44.166  1.00  0.00     0.038 C 
BRANCH   2   3
HETATM    3  C2  UNL     1      86.038  32.977  45.402  1.00  0.00    -0.020 C 
HETATM    4  C1  UNL     1      87.374  33.376  45.923  1.00  0.00     0.009 C 
HETATM    5  C3  UNL     1      85.017  33.035  46.542  1.00  0.00     0.009 C 
ENDBRANCH   2   3
ENDBRANCH   1   2
BRANCH   1   6
HETATM    6  N1  UNL     1      86.573  34.165  42.113  1.00  0.00    -0.312 N 
ATOM      7  H1  UNL     1      86.149  35.048  41.829  1.00  0.00     0.166 HD
BRANCH   6   8
HETATM    8  P1  UNL     1      88.218  33.756  41.818  1.00  0.00     0.362 P 
HETATM    9  O1  UNL     1      88.385  32.522  40.955  1.00  0.00    -0.630 OA
HETATM   10  O2  UNL     1      88.981  33.444  43.296  1.00  0.00    -0.630 OA
BRANCH   8  11
HETATM   11  O3  UNL     1      89.063  35.073  41.113  1.00  0.00    -0.261 OA
BRANCH  11  12
HETATM   12  C6  UNL     1      90.346  35.041  41.612  1.00  0.00     0.303 C 
HETATM   13  O4  UNL     1      90.649  36.158  42.388  1.00  0.00    -0.350 OA
HETATM   14  C7  UNL     1      91.883  35.922  42.992  1.00  0.00     0.152 C 
HETATM   15  C8  UNL     1      91.838  34.751  43.932  1.00  0.00     0.042 C 
HETATM   16  C9  UNL     1      92.999  35.766  41.994  1.00  0.00     0.178 C 
HETATM   17  C10 UNL     1      92.670  34.780  40.900  1.00  0.00     0.183 C 
HETATM   18  C11 UNL     1      91.270  34.943  40.399  1.00  0.00     0.205 C 
BRANCH  16  19
HETATM   19  O5  UNL     1      93.348  36.962  41.380  1.00  0.00    -0.390 OA
ATOM     20  H5  UNL     1      94.277  37.026  41.196  1.00  0.00     0.210 HD
ENDBRANCH  16  19
BRANCH  17  21
HETATM   21  O6  UNL     1      92.893  33.471  41.254  1.00  0.00    -0.390 OA
ATOM     22  H6  UNL     1      92.555  33.248  42.113  1.00  0.00     0.210 HD
ENDBRANCH  17  21
BRANCH  18  23
HETATM   23  O7  UNL     1      90.864  33.813  39.689  1.00  0.00    -0.388 OA
ATOM     24  H7  UNL     1      91.647  33.456  39.285  1.00  0.00     0.210 HD
ENDBRANCH  18  23
ENDBRANCH  11  12
ENDBRANCH   8  11
ENDBRANCH   6   8
ENDBRANCH   1   6
BRANCH   1  25
HETATM   25  C12 UNL     1      84.780  32.653  41.940  1.00  0.00     0.241 C 
HETATM   26  O8  UNL     1      84.843  31.491  41.389  1.00  0.00    -0.271 OA
HETATM   27  N2  UNL     1      83.638  33.412  41.603  1.00  0.00    -0.344 N 
ATOM     28  H2  UNL     1      83.506  34.343  41.998  1.00  0.00     0.163 HD
BRANCH  27  29
HETATM   29  C13 UNL     1      82.636  32.848  40.677  1.00  0.00     0.190 C 
BRANCH  29  30
HETATM   30  C14 UNL     1      81.383  33.655  40.771  1.00  0.00     0.077 C 
BRANCH  30  31
HETATM   31  C15 UNL     1      81.624  35.066  41.064  1.00  0.00    -0.028 A 
HETATM   32  C16 UNL     1      81.790  35.636  42.336  1.00  0.00     0.096 A 
HETATM   33  N3  UNL     1      81.951  36.956  42.202  1.00  0.00    -0.365 N 
HETATM   34  C17 UNL     1      81.905  37.321  40.890  1.00  0.00     0.042 A 
ATOM     35  H3  UNL     1      82.090  37.604  42.978  1.00  0.00     0.165 HD
HETATM   36  C18 UNL     1      82.037  38.543  40.263  1.00  0.00     0.030 A 
HETATM   37  C22 UNL     1      81.704  36.151  40.193  1.00  0.00    -0.002 A 
HETATM   38  C19 UNL     1      81.972  38.625  38.897  1.00  0.00     0.002 A 
HETATM   39  C20 UNL     1      81.774  37.454  38.205  1.00  0.00     0.001 A 
HETATM   40  C21 UNL     1      81.638  36.225  38.804  1.00  0.00     0.014 A 
ENDBRANCH  30  31
ENDBRANCH  29  30
BRANCH  29  41
HETATM   41  C23 UNL     1      83.122  32.744  39.301  1.00  0.00     0.197 C 
HETATM   42  O9  UNL     1      83.742  33.674  38.692  1.00  0.00    -0.646 OA
HETATM   43  O10 UNL     1      82.880  31.522  38.644  1.00  0.00    -0.646 OA
ENDBRANCH  29  41
ENDBRANCH  27  29
ENDBRANCH   1  25
TORSDOF 14
ENDMDL
