MODEL 14
REMARK VINA RESULT: -4.352136876      4.661      5.981
REMARK  4 active torsions:
REMARK  status: ('A' for Active; 'I' for Inactive)
REMARK    1  A    between atoms: N1_1  and  C1_5 
REMARK    2  A    between atoms: C3_7  and  O1_8 
REMARK    3  A    between atoms: C4_10  and  O2_11 
REMARK    4  A    between atoms: C5_13  and  O3_14 
ROOT
HETATM    1  C1  UNL     1      28.011  63.954  11.401  1.00  0.00     0.217 C 
HETATM    2  C2  UNL     1      27.920  62.637  10.631  1.00  0.00     0.069 C 
HETATM    3  C3  UNL     1      26.419  62.662  10.308  1.00  0.00     0.151 C 
HETATM    4  C4  UNL     1      26.189  64.080   9.903  1.00  0.00     0.177 C 
HETATM    5  C5  UNL     1      27.375  64.890  10.385  1.00  0.00     0.179 C 
ENDROOT
BRANCH   1   6
HETATM    6  N1  UNL     1      29.347  64.309  11.739  1.00  0.00    -0.072 N 
ATOM      7  H13 UNL     1      29.894  63.483  11.979  1.00  0.00     0.274 HD
ATOM      8  H12 UNL     1      29.862  64.615  10.914  1.00  0.00     0.274 HD
ATOM      9  H11 UNL     1      29.398  65.008  12.480  1.00  0.00     0.274 HD
ENDBRANCH   1   6
BRANCH   5  10
HETATM   10  O3  UNL     1      28.315  65.071   9.355  1.00  0.00    -0.391 OA
ATOM     11  H3  UNL     1      28.742  65.903   9.516  1.00  0.00     0.210 HD
ENDBRANCH   5  10
BRANCH   3  12
HETATM   12  O1  UNL     1      26.088  61.778   9.313  1.00  0.00    -0.393 OA
ATOM     13  H1  UNL     1      25.332  61.249   9.539  1.00  0.00     0.210 HD
ENDBRANCH   3  12
BRANCH   4  14
HETATM   14  O2  UNL     1      26.103  64.181   8.515  1.00  0.00    -0.390 OA
ATOM     15  H2  UNL     1      26.630  64.907   8.202  1.00  0.00     0.210 HD
ENDBRANCH   4  14
TORSDOF 4
ENDMDL
