MODEL 11
REMARK VINA RESULT: -4.704030092      6.343      7.599
REMARK  4 active torsions:
REMARK  status: ('A' for Active; 'I' for Inactive)
REMARK    1  A    between atoms: N1_1  and  C1_5 
REMARK    2  A    between atoms: C3_7  and  O1_8 
REMARK    3  A    between atoms: C4_10  and  O2_11 
REMARK    4  A    between atoms: C5_13  and  O3_14 
ROOT
HETATM    1  C1  UNL     1      25.560  62.855  10.632  1.00  0.00     0.217 C 
HETATM    2  C2  UNL     1      25.592  61.717   9.612  1.00  0.00     0.069 C 
HETATM    3  C3  UNL     1      24.266  62.014   8.894  1.00  0.00     0.151 C 
HETATM    4  C4  UNL     1      24.294  63.498   8.743  1.00  0.00     0.177 C 
HETATM    5  C5  UNL     1      25.344  64.034   9.695  1.00  0.00     0.179 C 
ENDROOT
BRANCH   1   6
HETATM    6  N1  UNL     1      26.756  62.950  11.395  1.00  0.00    -0.072 N 
ATOM      7  H13 UNL     1      27.159  62.027  11.558  1.00  0.00     0.274 HD
ATOM      8  H12 UNL     1      27.508  63.365  10.845  1.00  0.00     0.274 HD
ATOM      9  H11 UNL     1      26.629  63.452  12.274  1.00  0.00     0.274 HD
ENDBRANCH   1   6
BRANCH   5  10
HETATM   10  O3  UNL     1      26.563  64.251   9.029  1.00  0.00    -0.391 OA
ATOM     11  H3  UNL     1      26.633  65.187   8.883  1.00  0.00     0.210 HD
ENDBRANCH   5  10
BRANCH   3  12
HETATM   12  O1  UNL     1      24.176  61.371   7.685  1.00  0.00    -0.393 OA
ATOM     13  H1  UNL     1      23.885  61.951   6.991  1.00  0.00     0.210 HD
ENDBRANCH   3  12
BRANCH   4  14
HETATM   14  O2  UNL     1      24.640  63.848   7.439  1.00  0.00    -0.390 OA
ATOM     15  H2  UNL     1      25.417  64.395   7.438  1.00  0.00     0.210 HD
ENDBRANCH   4  14
TORSDOF 4
ENDMDL
