MODEL 16
REMARK VINA RESULT: -4.327925877      4.225      5.414
REMARK  4 active torsions:
REMARK  status: ('A' for Active; 'I' for Inactive)
REMARK    1  A    between atoms: N1_1  and  C1_5 
REMARK    2  A    between atoms: C3_7  and  O1_8 
REMARK    3  A    between atoms: C4_10  and  O2_11 
REMARK    4  A    between atoms: C5_13  and  O3_14 
ROOT
HETATM    1  C1  UNL     1      28.404  64.156  12.277  1.00  0.00     0.217 C 
HETATM    2  C2  UNL     1      27.909  63.045  11.352  1.00  0.00     0.069 C 
HETATM    3  C3  UNL     1      26.918  63.868  10.514  1.00  0.00     0.151 C 
HETATM    4  C4  UNL     1      27.671  65.130  10.253  1.00  0.00     0.177 C 
HETATM    5  C5  UNL     1      28.820  65.188  11.240  1.00  0.00     0.179 C 
ENDROOT
BRANCH   1   6
HETATM    6  N1  UNL     1      29.472  63.740  13.122  1.00  0.00    -0.072 N 
ATOM      7  H13 UNL     1      29.134  63.119  13.856  1.00  0.00     0.274 HD
ATOM      8  H12 UNL     1      30.094  63.097  12.633  1.00  0.00     0.274 HD
ATOM      9  H11 UNL     1      29.994  64.522  13.517  1.00  0.00     0.274 HD
ENDBRANCH   1   6
BRANCH   5  10
HETATM   10  O3  UNL     1      30.010  64.720  10.656  1.00  0.00    -0.391 OA
ATOM     11  H3  UNL     1      29.938  63.774  10.606  1.00  0.00     0.210 HD
ENDBRANCH   5  10
BRANCH   3  12
HETATM   12  O1  UNL     1      26.563  63.227   9.354  1.00  0.00    -0.393 OA
ATOM     13  H1  UNL     1      26.057  62.440   9.519  1.00  0.00     0.210 HD
ENDBRANCH   3  12
BRANCH   4  14
HETATM   14  O2  UNL     1      28.184  65.132   8.957  1.00  0.00    -0.390 OA
ATOM     15  H2  UNL     1      27.564  64.738   8.355  1.00  0.00     0.210 HD
ENDBRANCH   4  14
TORSDOF 4
ENDMDL
