MODEL 4
REMARK VINA RESULT: -5.916048467      1.381      1.989
REMARK  4 active torsions:
REMARK  status: ('A' for Active; 'I' for Inactive)
REMARK    1  A    between atoms: N1_1  and  C1_5 
REMARK    2  A    between atoms: C3_7  and  O1_8 
REMARK    3  A    between atoms: C4_10  and  O2_11 
REMARK    4  A    between atoms: C5_13  and  O3_14 
ROOT
HETATM    1  C1  UNL     1      30.665  66.351   9.474  1.00  0.00     0.217 C 
HETATM    2  C2  UNL     1      30.447  65.849   8.047  1.00  0.00     0.069 C 
HETATM    3  C3  UNL     1      31.383  66.822   7.314  1.00  0.00     0.151 C 
HETATM    4  C4  UNL     1      32.588  66.850   8.195  1.00  0.00     0.177 C 
HETATM    5  C5  UNL     1      32.183  66.283   9.541  1.00  0.00     0.179 C 
ENDROOT
BRANCH   1   6
HETATM    6  N1  UNL     1      30.019  65.544  10.451  1.00  0.00    -0.072 N 
ATOM      7  H13 UNL     1      29.855  66.072  11.308  1.00  0.00     0.274 HD
ATOM      8  H12 UNL     1      29.053  65.353  10.186  1.00  0.00     0.274 HD
ATOM      9  H11 UNL     1      30.520  64.678  10.647  1.00  0.00     0.274 HD
ENDBRANCH   1   6
BRANCH   5  10
HETATM   10  O3  UNL     1      32.525  64.922   9.636  1.00  0.00    -0.391 OA
ATOM     11  H3  UNL     1      33.426  64.886   9.935  1.00  0.00     0.210 HD
ENDBRANCH   5  10
BRANCH   3  12
HETATM   12  O1  UNL     1      31.680  66.398   6.043  1.00  0.00    -0.393 OA
ATOM     13  H1  UNL     1      32.020  67.100   5.501  1.00  0.00     0.210 HD
ENDBRANCH   3  12
BRANCH   4  14
HETATM   14  O2  UNL     1      33.604  66.062   7.655  1.00  0.00    -0.390 OA
ATOM     15  H2  UNL     1      33.771  65.311   8.212  1.00  0.00     0.210 HD
ENDBRANCH   4  14
TORSDOF 4
ENDMDL
