MODEL 3
REMARK VINA RESULT: -5.935101796      2.131      3.303
REMARK  4 active torsions:
REMARK  status: ('A' for Active; 'I' for Inactive)
REMARK    1  A    between atoms: N1_1  and  C1_5 
REMARK    2  A    between atoms: C3_7  and  O1_8 
REMARK    3  A    between atoms: C4_10  and  O2_11 
REMARK    4  A    between atoms: C5_13  and  O3_14 
ROOT
HETATM    1  C1  UNL     1      31.901  66.273   9.156  1.00  0.00     0.217 C 
HETATM    2  C2  UNL     1      30.792  65.450   8.503  1.00  0.00     0.069 C 
HETATM    3  C3  UNL     1      30.175  66.550   7.626  1.00  0.00     0.151 C 
HETATM    4  C4  UNL     1      31.374  67.241   7.067  1.00  0.00     0.177 C 
HETATM    5  C5  UNL     1      32.567  66.841   7.912  1.00  0.00     0.179 C 
ENDROOT
BRANCH   1   6
HETATM    6  N1  UNL     1      32.777  65.488   9.957  1.00  0.00    -0.072 N 
ATOM      7  H13 UNL     1      32.934  65.927  10.863  1.00  0.00     0.274 HD
ATOM      8  H12 UNL     1      32.319  64.630  10.265  1.00  0.00     0.274 HD
ATOM      9  H11 UNL     1      33.662  65.280   9.494  1.00  0.00     0.274 HD
ENDBRANCH   1   6
BRANCH   5  10
HETATM   10  O3  UNL     1      33.277  65.786   7.313  1.00  0.00    -0.391 OA
ATOM     11  H3  UNL     1      33.980  66.180   6.809  1.00  0.00     0.210 HD
ENDBRANCH   5  10
BRANCH   3  12
HETATM   12  O1  UNL     1      29.367  66.037   6.643  1.00  0.00    -0.393 OA
ATOM     13  H1  UNL     1      29.684  66.245   5.772  1.00  0.00     0.210 HD
ENDBRANCH   3  12
BRANCH   4  14
HETATM   14  O2  UNL     1      31.595  66.842   5.749  1.00  0.00    -0.390 OA
ATOM     15  H2  UNL     1      31.522  65.898   5.672  1.00  0.00     0.210 HD
ENDBRANCH   4  14
TORSDOF 4
ENDMDL
