MODEL 2
REMARK VINA RESULT: -4.932849364      2.687      3.521
REMARK  5 active torsions:
REMARK  status: ('A' for Active; 'I' for Inactive)
REMARK    1  A    between atoms: S1_2  and  C2_4 
REMARK    2  A    between atoms: C3_5  and  N1_6 
REMARK    3  A    between atoms: C4_10  and  O2_11 
REMARK    4  A    between atoms: C5_13  and  O3_14 
REMARK    5  A    between atoms: C6_16  and  O4_17 
ROOT
HETATM    1  C2  UNL     1      27.249  64.250  10.485  1.00  0.00     0.143 C 
HETATM    2  C3  UNL     1      28.575  63.618  10.934  1.00  0.00     0.233 C 
HETATM    3  C4  UNL     1      28.375  63.773  12.447  1.00  0.00     0.181 C 
HETATM    4  C5  UNL     1      28.082  65.249  12.535  1.00  0.00     0.178 C 
HETATM    5  C6  UNL     1      27.083  65.430  11.392  1.00  0.00     0.167 C 
ENDROOT
BRANCH   2   6
HETATM    6  N1  UNL     1      29.706  64.358  10.468  1.00  0.00    -0.071 N 
ATOM      7  H13 UNL     1      29.576  65.360  10.608  1.00  0.00     0.274 HD
ATOM      8  H12 UNL     1      30.516  64.215  11.070  1.00  0.00     0.274 HD
ATOM      9  H11 UNL     1      29.926  64.146   9.495  1.00  0.00     0.274 HD
ENDBRANCH   2   6
BRANCH   1  10
HETATM   10  S1  UNL     1      26.006  62.949  10.905  1.00  0.00     0.020 S 
HETATM   11  C1  UNL     1      24.690  63.304   9.666  1.00  0.00     0.127 C 
HETATM   12  O1  UNL     1      26.687  61.692  10.275  1.00  0.00    -0.258 OA
ENDBRANCH   1  10
BRANCH   3  13
HETATM   13  O2  UNL     1      29.451  63.363  13.171  1.00  0.00    -0.391 OA
ATOM     14  H2  UNL     1      30.002  64.082  13.457  1.00  0.00     0.210 HD
ENDBRANCH   3  13
BRANCH   5  15
HETATM   15  O4  UNL     1      27.411  66.634  10.757  1.00  0.00    -0.392 OA
ATOM     16  H4  UNL     1      26.849  67.350  11.033  1.00  0.00     0.210 HD
ENDBRANCH   5  15
BRANCH   4  17
HETATM   17  O3  UNL     1      29.206  66.027  12.353  1.00  0.00    -0.390 OA
ATOM     18  H3  UNL     1      29.998  65.511  12.258  1.00  0.00     0.210 HD
ENDBRANCH   4  17
TORSDOF 5
ENDMDL
