MODEL 1
REMARK VINA RESULT: -5.131000068      0.000      0.000
REMARK  5 active torsions:
REMARK  status: ('A' for Active; 'I' for Inactive)
REMARK    1  A    between atoms: S1_2  and  C2_4 
REMARK    2  A    between atoms: C3_5  and  N1_6 
REMARK    3  A    between atoms: C4_10  and  O2_11 
REMARK    4  A    between atoms: C5_13  and  O3_14 
REMARK    5  A    between atoms: C6_16  and  O4_17 
ROOT
HETATM    1  C2  UNL     1      28.739  63.814  12.440  1.00  0.00     0.143 C 
HETATM    2  C3  UNL     1      27.853  62.567  12.583  1.00  0.00     0.233 C 
HETATM    3  C4  UNL     1      26.525  63.289  12.848  1.00  0.00     0.181 C 
HETATM    4  C5  UNL     1      26.918  64.170  14.006  1.00  0.00     0.178 C 
HETATM    5  C6  UNL     1      28.255  64.729  13.523  1.00  0.00     0.167 C 
ENDROOT
BRANCH   2   6
HETATM    6  N1  UNL     1      28.247  61.754  13.690  1.00  0.00    -0.071 N 
ATOM      7  H13 UNL     1      28.390  62.316  14.530  1.00  0.00     0.274 HD
ATOM      8  H12 UNL     1      27.475  61.172  14.016  1.00  0.00     0.274 HD
ATOM      9  H11 UNL     1      29.070  61.191  13.476  1.00  0.00     0.274 HD
ENDBRANCH   2   6
BRANCH   1  10
HETATM   10  S1  UNL     1      28.257  64.480  10.786  1.00  0.00     0.020 S 
HETATM   11  C1  UNL     1      28.706  66.256  10.976  1.00  0.00     0.127 C 
HETATM   12  O1  UNL     1      29.443  63.957   9.913  1.00  0.00    -0.258 OA
ENDBRANCH   1  10
BRANCH   3  13
HETATM   13  O2  UNL     1      25.498  62.434  13.106  1.00  0.00    -0.391 OA
ATOM     14  H2  UNL     1      24.979  62.236  12.336  1.00  0.00     0.210 HD
ENDBRANCH   3  13
BRANCH   5  15
HETATM   15  O4  UNL     1      29.113  64.737  14.630  1.00  0.00    -0.392 OA
ATOM     16  H4  UNL     1      28.997  65.511  15.169  1.00  0.00     0.210 HD
ENDBRANCH   5  15
BRANCH   4  17
HETATM   17  O3  UNL     1      27.058  63.469  15.185  1.00  0.00    -0.390 OA
ATOM     18  H3  UNL     1      27.793  63.770  15.706  1.00  0.00     0.210 HD
ENDBRANCH   4  17
TORSDOF 5
ENDMDL
