MODEL 3
REMARK VINA RESULT: -4.870764807      1.630      1.671
REMARK  5 active torsions:
REMARK  status: ('A' for Active; 'I' for Inactive)
REMARK    1  A    between atoms: S1_2  and  C2_4 
REMARK    2  A    between atoms: C3_5  and  N1_6 
REMARK    3  A    between atoms: C4_10  and  O2_11 
REMARK    4  A    between atoms: C5_13  and  O3_14 
REMARK    5  A    between atoms: C6_16  and  O4_17 
ROOT
HETATM    1  C2  UNL     1      28.262  63.923  11.165  1.00  0.00     0.143 C 
HETATM    2  C3  UNL     1      27.127  62.899  11.011  1.00  0.00     0.233 C 
HETATM    3  C4  UNL     1      26.239  63.403  12.156  1.00  0.00     0.181 C 
HETATM    4  C5  UNL     1      27.226  63.388  13.295  1.00  0.00     0.178 C 
HETATM    5  C6  UNL     1      28.448  64.037  12.647  1.00  0.00     0.167 C 
ENDROOT
BRANCH   2   6
HETATM    6  N1  UNL     1      27.577  61.561  11.236  1.00  0.00    -0.071 N 
ATOM      7  H13 UNL     1      28.525  61.426  10.883  1.00  0.00     0.274 HD
ATOM      8  H12 UNL     1      27.748  61.389  12.226  1.00  0.00     0.274 HD
ATOM      9  H11 UNL     1      26.935  60.871  10.846  1.00  0.00     0.274 HD
ENDBRANCH   2   6
BRANCH   1  10
HETATM   10  S1  UNL     1      27.515  65.475  10.499  1.00  0.00     0.020 S 
HETATM   11  C1  UNL     1      29.023  66.483  10.179  1.00  0.00     0.127 C 
HETATM   12  O1  UNL     1      27.145  65.013   9.053  1.00  0.00    -0.258 OA
ENDBRANCH   1  10
BRANCH   3  13
HETATM   13  O2  UNL     1      25.134  62.633  12.351  1.00  0.00    -0.391 OA
ATOM     14  H2  UNL     1      24.386  63.129  12.661  1.00  0.00     0.210 HD
ENDBRANCH   3  13
BRANCH   5  15
HETATM   15  O4  UNL     1      29.568  63.325  13.095  1.00  0.00    -0.392 OA
ATOM     16  H4  UNL     1      29.350  62.710  13.786  1.00  0.00     0.210 HD
ENDBRANCH   5  15
BRANCH   4  17
HETATM   17  O3  UNL     1      27.505  62.114  13.742  1.00  0.00    -0.390 OA
ATOM     18  H3  UNL     1      28.068  62.108  14.507  1.00  0.00     0.210 HD
ENDBRANCH   4  17
TORSDOF 5
ENDMDL
