MODEL 18
REMARK VINA RESULT: -4.559987652      6.706      7.707
REMARK  5 active torsions:
REMARK  status: ('A' for Active; 'I' for Inactive)
REMARK    1  A    between atoms: N1_1  and  C1_5 
REMARK    2  A    between atoms: C2_6  and  O1_7 
REMARK    3  A    between atoms: C3_9  and  O2_10 
REMARK    4  A    between atoms: C4_12  and  O3_13 
REMARK    5  A    between atoms: C5_15  and  O4_16 
ROOT
HETATM    1  C1  UNL     1      25.010  64.331  10.091  1.00  0.00     0.245 C 
HETATM    2  C2  UNL     1      26.028  63.225  10.131  1.00  0.00     0.182 C 
HETATM    3  C3  UNL     1      25.227  62.080   9.524  1.00  0.00     0.180 C 
HETATM    4  C4  UNL     1      24.164  62.727   8.661  1.00  0.00     0.180 C 
HETATM    5  C5  UNL     1      24.553  64.213   8.646  1.00  0.00     0.182 C 
ENDROOT
BRANCH   1   6
HETATM    6  N1  UNL     1      25.473  65.605  10.457  1.00  0.00    -0.070 N 
ATOM      7  H13 UNL     1      26.071  65.534  11.280  1.00  0.00     0.274 HD
ATOM      8  H12 UNL     1      26.147  65.940   9.769  1.00  0.00     0.274 HD
ATOM      9  H11 UNL     1      24.754  66.313  10.612  1.00  0.00     0.274 HD
ENDBRANCH   1   6
BRANCH   2  10
HETATM   10  O1  UNL     1      26.511  62.943  11.378  1.00  0.00    -0.391 OA
ATOM     11  H1  UNL     1      27.412  62.643  11.393  1.00  0.00     0.210 HD
ENDBRANCH   2  10
BRANCH   5  12
HETATM   12  O4  UNL     1      25.625  64.308   7.755  1.00  0.00    -0.391 OA
ATOM     13  H4  UNL     1      25.335  64.533   6.879  1.00  0.00     0.210 HD
ENDBRANCH   5  12
BRANCH   3  14
HETATM   14  O2  UNL     1      25.993  61.273   8.712  1.00  0.00    -0.390 OA
ATOM     15  H2  UNL     1      25.466  60.734   8.133  1.00  0.00     0.210 HD
ENDBRANCH   3  14
BRANCH   4  16
HETATM   16  O3  UNL     1      24.130  62.237   7.381  1.00  0.00    -0.390 OA
ATOM     17  H3  UNL     1      24.151  62.916   6.717  1.00  0.00     0.210 HD
ENDBRANCH   4  16
TORSDOF 5
ENDMDL
