MODEL 12
REMARK VINA RESULT: -4.856581468      4.794      5.834
REMARK  5 active torsions:
REMARK  status: ('A' for Active; 'I' for Inactive)
REMARK    1  A    between atoms: N1_1  and  C1_5 
REMARK    2  A    between atoms: C2_6  and  O1_7 
REMARK    3  A    between atoms: C3_9  and  O2_10 
REMARK    4  A    between atoms: C4_12  and  O3_13 
REMARK    5  A    between atoms: C5_15  and  O4_16 
ROOT
HETATM    1  C1  UNL     1      27.311  63.867  12.281  1.00  0.00     0.245 C 
HETATM    2  C2  UNL     1      27.912  63.099  11.137  1.00  0.00     0.182 C 
HETATM    3  C3  UNL     1      28.425  64.240  10.267  1.00  0.00     0.180 C 
HETATM    4  C4  UNL     1      28.652  65.408  11.204  1.00  0.00     0.180 C 
HETATM    5  C5  UNL     1      28.466  64.803  12.602  1.00  0.00     0.182 C 
ENDROOT
BRANCH   1   6
HETATM    6  N1  UNL     1      26.859  63.100  13.367  1.00  0.00    -0.070 N 
ATOM      7  H13 UNL     1      25.861  63.255  13.509  1.00  0.00     0.274 HD
ATOM      8  H12 UNL     1      26.857  62.111  13.115  1.00  0.00     0.274 HD
ATOM      9  H11 UNL     1      27.359  63.232  14.246  1.00  0.00     0.274 HD
ENDBRANCH   1   6
BRANCH   2  10
HETATM   10  O1  UNL     1      27.038  62.275  10.486  1.00  0.00    -0.391 OA
ATOM     11  H1  UNL     1      26.190  62.663  10.305  1.00  0.00     0.210 HD
ENDBRANCH   2  10
BRANCH   5  12
HETATM   12  O4  UNL     1      29.644  64.100  12.864  1.00  0.00    -0.391 OA
ATOM     13  H4  UNL     1      29.696  63.298  12.357  1.00  0.00     0.210 HD
ENDBRANCH   5  12
BRANCH   3  14
HETATM   14  O2  UNL     1      29.627  63.945   9.664  1.00  0.00    -0.390 OA
ATOM     15  H2  UNL     1      29.576  63.178   9.106  1.00  0.00     0.210 HD
ENDBRANCH   3  14
BRANCH   4  16
HETATM   16  O3  UNL     1      29.903  65.959  11.092  1.00  0.00    -0.390 OA
ATOM     17  H3  UNL     1      29.917  66.764  10.589  1.00  0.00     0.210 HD
ENDBRANCH   4  16
TORSDOF 5
ENDMDL
