MODEL 8
REMARK VINA RESULT: -5.416006400      1.897      3.036
REMARK  5 active torsions:
REMARK  status: ('A' for Active; 'I' for Inactive)
REMARK    1  A    between atoms: N1_1  and  C1_5 
REMARK    2  A    between atoms: C2_6  and  O1_7 
REMARK    3  A    between atoms: C3_9  and  O2_10 
REMARK    4  A    between atoms: C4_12  and  O3_13 
REMARK    5  A    between atoms: C5_15  and  O4_16 
ROOT
HETATM    1  C1  UNL     1      30.833  65.587   8.862  1.00  0.00     0.245 C 
HETATM    2  C2  UNL     1      31.843  66.587   8.372  1.00  0.00     0.182 C 
HETATM    3  C3  UNL     1      31.588  66.535   6.871  1.00  0.00     0.180 C 
HETATM    4  C4  UNL     1      30.156  66.069   6.707  1.00  0.00     0.180 C 
HETATM    5  C5  UNL     1      29.595  66.089   8.136  1.00  0.00     0.182 C 
ENDROOT
BRANCH   1   6
HETATM    6  N1  UNL     1      30.694  65.486  10.256  1.00  0.00    -0.070 N 
ATOM      7  H13 UNL     1      31.496  65.918  10.716  1.00  0.00     0.274 HD
ATOM      8  H12 UNL     1      29.946  66.101  10.575  1.00  0.00     0.274 HD
ATOM      9  H11 UNL     1      30.550  64.545  10.622  1.00  0.00     0.274 HD
ENDBRANCH   1   6
BRANCH   2  10
HETATM   10  O1  UNL     1      33.136  66.300   8.709  1.00  0.00    -0.391 OA
ATOM     11  H1  UNL     1      33.689  66.052   7.978  1.00  0.00     0.210 HD
ENDBRANCH   2  10
BRANCH   5  12
HETATM   12  O4  UNL     1      29.340  67.434   8.417  1.00  0.00    -0.391 OA
ATOM     13  H4  UNL     1      28.661  67.788   7.856  1.00  0.00     0.210 HD
ENDBRANCH   5  12
BRANCH   3  14
HETATM   14  O2  UNL     1      31.698  67.772   6.274  1.00  0.00    -0.390 OA
ATOM     15  H2  UNL     1      31.007  68.367   6.540  1.00  0.00     0.210 HD
ENDBRANCH   3  14
BRANCH   4  16
HETATM   16  O3  UNL     1      29.409  66.883   5.896  1.00  0.00    -0.390 OA
ATOM     17  H3  UNL     1      29.864  67.149   5.106  1.00  0.00     0.210 HD
ENDBRANCH   4  16
TORSDOF 5
ENDMDL
