MODEL 6
REMARK VINA RESULT: -5.667488436      1.642      2.441
REMARK  5 active torsions:
REMARK  status: ('A' for Active; 'I' for Inactive)
REMARK    1  A    between atoms: N1_1  and  C1_5 
REMARK    2  A    between atoms: C2_6  and  O1_7 
REMARK    3  A    between atoms: C3_9  and  O2_10 
REMARK    4  A    between atoms: C4_12  and  O3_13 
REMARK    5  A    between atoms: C5_15  and  O4_16 
ROOT
HETATM    1  C1  UNL     1      30.540  66.720   9.545  1.00  0.00     0.245 C 
HETATM    2  C2  UNL     1      30.148  65.975   8.299  1.00  0.00     0.182 C 
HETATM    3  C3  UNL     1      31.158  66.534   7.305  1.00  0.00     0.180 C 
HETATM    4  C4  UNL     1      32.343  66.994   8.129  1.00  0.00     0.180 C 
HETATM    5  C5  UNL     1      32.039  66.469   9.540  1.00  0.00     0.182 C 
ENDROOT
BRANCH   1   6
HETATM    6  N1  UNL     1      29.884  66.331  10.725  1.00  0.00    -0.070 N 
ATOM      7  H13 UNL     1      29.089  66.946  10.898  1.00  0.00     0.274 HD
ATOM      8  H12 UNL     1      29.402  65.445  10.577  1.00  0.00     0.274 HD
ATOM      9  H11 UNL     1      30.466  66.274  11.560  1.00  0.00     0.274 HD
ENDBRANCH   1   6
BRANCH   2  10
HETATM   10  O1  UNL     1      28.851  66.160   7.911  1.00  0.00    -0.391 OA
ATOM     11  H1  UNL     1      28.570  67.067   7.893  1.00  0.00     0.210 HD
ENDBRANCH   2  10
BRANCH   5  12
HETATM   12  O4  UNL     1      32.334  65.104   9.501  1.00  0.00    -0.391 OA
ATOM     13  H4  UNL     1      32.599  64.826   8.633  1.00  0.00     0.210 HD
ENDBRANCH   5  12
BRANCH   3  14
HETATM   14  O2  UNL     1      31.608  65.582   6.418  1.00  0.00    -0.390 OA
ATOM     15  H2  UNL     1      31.711  65.924   5.538  1.00  0.00     0.210 HD
ENDBRANCH   3  14
BRANCH   4  16
HETATM   16  O3  UNL     1      33.540  66.491   7.688  1.00  0.00    -0.390 OA
ATOM     17  H3  UNL     1      34.225  67.146   7.627  1.00  0.00     0.210 HD
ENDBRANCH   4  16
TORSDOF 5
ENDMDL
