MODEL 15
REMARK VINA RESULT: -4.661133749      4.323      6.032
REMARK  5 active torsions:
REMARK  status: ('A' for Active; 'I' for Inactive)
REMARK    1  A    between atoms: N1_1  and  C1_5 
REMARK    2  A    between atoms: C2_6  and  O1_7 
REMARK    3  A    between atoms: C3_9  and  O2_10 
REMARK    4  A    between atoms: C4_12  and  O3_13 
REMARK    5  A    between atoms: C5_15  and  O4_16 
ROOT
HETATM    1  C1  UNL     1      28.543  64.616  11.961  1.00  0.00     0.245 C 
HETATM    2  C2  UNL     1      27.499  63.658  11.456  1.00  0.00     0.182 C 
HETATM    3  C3  UNL     1      26.777  64.535  10.442  1.00  0.00     0.180 C 
HETATM    4  C4  UNL     1      27.779  65.585  10.009  1.00  0.00     0.180 C 
HETATM    5  C5  UNL     1      29.099  65.117  10.639  1.00  0.00     0.182 C 
ENDROOT
BRANCH   1   6
HETATM    6  N1  UNL     1      29.502  64.076  12.834  1.00  0.00    -0.070 N 
ATOM      7  H13 UNL     1      29.049  63.751  13.688  1.00  0.00     0.274 HD
ATOM      8  H12 UNL     1      29.849  63.192  12.462  1.00  0.00     0.274 HD
ATOM      9  H11 UNL     1      30.285  64.686  13.067  1.00  0.00     0.274 HD
ENDBRANCH   1   6
BRANCH   2  10
HETATM   10  O1  UNL     1      26.673  63.158  12.423  1.00  0.00    -0.391 OA
ATOM     11  H1  UNL     1      25.762  63.082  12.163  1.00  0.00     0.210 HD
ENDBRANCH   2  10
BRANCH   5  12
HETATM   12  O4  UNL     1      29.544  64.066   9.833  1.00  0.00    -0.391 OA
ATOM     13  H4  UNL     1      30.233  64.344   9.241  1.00  0.00     0.210 HD
ENDBRANCH   5  12
BRANCH   3  14
HETATM   14  O2  UNL     1      26.390  63.835   9.320  1.00  0.00    -0.390 OA
ATOM     15  H2  UNL     1      25.535  64.101   9.002  1.00  0.00     0.210 HD
ENDBRANCH   3  14
BRANCH   4  16
HETATM   16  O3  UNL     1      27.914  65.679   8.648  1.00  0.00    -0.390 OA
ATOM     17  H3  UNL     1      28.767  65.994   8.375  1.00  0.00     0.210 HD
ENDBRANCH   4  16
TORSDOF 5
ENDMDL
