MODEL 9
REMARK VINA RESULT: -4.530545211      5.527      6.854
REMARK  5 active torsions:
REMARK  status: ('A' for Active; 'I' for Inactive)
REMARK    1  A    between atoms: O1_2  and  C2_3 
REMARK    2  A    between atoms: C3_4  and  N1_5 
REMARK    3  A    between atoms: C4_9  and  O2_10 
REMARK    4  A    between atoms: C5_12  and  O3_13 
REMARK    5  A    between atoms: C6_15  and  O4_16 
ROOT
HETATM    1  C2  UNL     1      26.331  63.874  12.709  1.00  0.00     0.185 C 
HETATM    2  C3  UNL     1      26.937  64.163  11.379  1.00  0.00     0.245 C 
HETATM    3  C4  UNL     1      27.985  63.081  11.230  1.00  0.00     0.182 C 
HETATM    4  C5  UNL     1      28.518  62.829  12.601  1.00  0.00     0.180 C 
HETATM    5  C6  UNL     1      27.350  63.118  13.523  1.00  0.00     0.180 C 
ENDROOT
BRANCH   2   6
HETATM    6  N1  UNL     1      27.536  65.475  11.282  1.00  0.00    -0.070 N 
ATOM      7  H13 UNL     1      27.117  66.006  10.517  1.00  0.00     0.274 HD
ATOM      8  H12 UNL     1      27.253  66.058  12.070  1.00  0.00     0.274 HD
ATOM      9  H11 UNL     1      28.552  65.459  11.194  1.00  0.00     0.274 HD
ENDBRANCH   2   6
BRANCH   1  10
HETATM   10  O1  UNL     1      25.228  63.039  12.550  1.00  0.00    -0.386 OA
HETATM   11  C1  UNL     1      24.266  63.661  11.758  1.00  0.00     0.202 C 
ENDBRANCH   1  10
BRANCH   3  12
HETATM   12  O2  UNL     1      28.963  63.420  10.307  1.00  0.00    -0.391 OA
ATOM     13  H2  UNL     1      29.538  64.104  10.627  1.00  0.00     0.210 HD
ENDBRANCH   3  12
BRANCH   5  14
HETATM   14  O4  UNL     1      27.760  63.877  14.617  1.00  0.00    -0.390 OA
ATOM     15  H4  UNL     1      27.226  63.679  15.377  1.00  0.00     0.210 HD
ENDBRANCH   5  14
BRANCH   4  16
HETATM   16  O3  UNL     1      29.499  63.775  12.885  1.00  0.00    -0.390 OA
ATOM     17  H3  UNL     1      29.912  63.553  13.712  1.00  0.00     0.210 HD
ENDBRANCH   4  16
TORSDOF 5
ENDMDL
