MODEL 1
REMARK VINA RESULT: -5.449737659      0.000      0.000
REMARK  5 active torsions:
REMARK  status: ('A' for Active; 'I' for Inactive)
REMARK    1  A    between atoms: O1_2  and  C2_3 
REMARK    2  A    between atoms: C3_4  and  N1_5 
REMARK    3  A    between atoms: C4_9  and  O2_10 
REMARK    4  A    between atoms: C5_12  and  O3_13 
REMARK    5  A    between atoms: C6_15  and  O4_16 
ROOT
HETATM    1  C2  UNL     1      30.541  65.943   6.939  1.00  0.00     0.185 C 
HETATM    2  C3  UNL     1      30.147  65.810   8.370  1.00  0.00     0.245 C 
HETATM    3  C4  UNL     1      30.993  66.856   9.065  1.00  0.00     0.182 C 
HETATM    4  C5  UNL     1      32.289  66.897   8.325  1.00  0.00     0.180 C 
HETATM    5  C6  UNL     1      31.925  66.539   6.898  1.00  0.00     0.180 C 
ENDROOT
BRANCH   2   6
HETATM    6  N1  UNL     1      30.396  64.497   8.924  1.00  0.00    -0.070 N 
ATOM      7  H13 UNL     1      31.393  64.281   8.903  1.00  0.00     0.274 HD
ATOM      8  H12 UNL     1      30.241  64.497   9.932  1.00  0.00     0.274 HD
ATOM      9  H11 UNL     1      29.858  63.753   8.478  1.00  0.00     0.274 HD
ENDBRANCH   2   6
BRANCH   1  10
HETATM   10  O1  UNL     1      29.687  66.839   6.300  1.00  0.00    -0.386 OA
HETATM   11  C1  UNL     1      28.360  66.509   6.565  1.00  0.00     0.202 C 
ENDBRANCH   1  10
BRANCH   3  12
HETATM   12  O2  UNL     1      31.135  66.602  10.420  1.00  0.00    -0.391 OA
ATOM     13  H2  UNL     1      32.046  66.532  10.680  1.00  0.00     0.210 HD
ENDBRANCH   3  12
BRANCH   5  14
HETATM   14  O4  UNL     1      32.834  65.622   6.372  1.00  0.00    -0.390 OA
ATOM     15  H4  UNL     1      33.695  66.015   6.296  1.00  0.00     0.210 HD
ENDBRANCH   5  14
BRANCH   4  16
HETATM   16  O3  UNL     1      33.113  65.881   8.799  1.00  0.00    -0.390 OA
ATOM     17  H3  UNL     1      33.957  66.251   9.032  1.00  0.00     0.210 HD
ENDBRANCH   4  16
TORSDOF 5
ENDMDL
