MODEL 10
REMARK VINA RESULT: -4.492157449      5.920      6.441
REMARK  5 active torsions:
REMARK  status: ('A' for Active; 'I' for Inactive)
REMARK    1  A    between atoms: O1_2  and  C2_3 
REMARK    2  A    between atoms: C3_4  and  N1_5 
REMARK    3  A    between atoms: C4_9  and  O2_10 
REMARK    4  A    between atoms: C5_12  and  O3_13 
REMARK    5  A    between atoms: C6_15  and  O4_16 
ROOT
HETATM    1  C2  UNL     1      26.473  63.752  11.150  1.00  0.00     0.185 C 
HETATM    2  C3  UNL     1      26.167  64.008  12.587  1.00  0.00     0.245 C 
HETATM    3  C4  UNL     1      27.536  64.060  13.232  1.00  0.00     0.182 C 
HETATM    4  C5  UNL     1      28.380  63.078  12.490  1.00  0.00     0.180 C 
HETATM    5  C6  UNL     1      27.821  63.081  11.082  1.00  0.00     0.180 C 
ENDROOT
BRANCH   2   6
HETATM    6  N1  UNL     1      25.348  62.986  13.200  1.00  0.00    -0.070 N 
ATOM      7  H13 UNL     1      25.815  62.079  13.160  1.00  0.00     0.274 HD
ATOM      8  H12 UNL     1      25.311  63.115  14.211  1.00  0.00     0.274 HD
ATOM      9  H11 UNL     1      24.407  62.923  12.811  1.00  0.00     0.274 HD
ENDBRANCH   2   6
BRANCH   1  10
HETATM   10  O1  UNL     1      26.579  64.963  10.471  1.00  0.00    -0.386 OA
HETATM   11  C1  UNL     1      25.788  64.940   9.325  1.00  0.00     0.202 C 
ENDBRANCH   1  10
BRANCH   3  12
HETATM   12  O2  UNL     1      27.482  63.828  14.598  1.00  0.00    -0.391 OA
ATOM     13  H2  UNL     1      27.822  64.559  15.100  1.00  0.00     0.210 HD
ENDBRANCH   3  12
BRANCH   5  14
HETATM   14  O4  UNL     1      27.694  61.780  10.598  1.00  0.00    -0.390 OA
ATOM     15  H4  UNL     1      28.269  61.192  11.072  1.00  0.00     0.210 HD
ENDBRANCH   5  14
BRANCH   4  16
HETATM   16  O3  UNL     1      28.157  61.807  13.010  1.00  0.00    -0.390 OA
ATOM     17  H3  UNL     1      28.305  61.164  12.327  1.00  0.00     0.210 HD
ENDBRANCH   4  16
TORSDOF 5
ENDMDL
