MODEL 8
REMARK VINA RESULT: -4.536574081      4.399      5.314
REMARK  5 active torsions:
REMARK  status: ('A' for Active; 'I' for Inactive)
REMARK    1  A    between atoms: O1_2  and  C2_3 
REMARK    2  A    between atoms: C3_4  and  N1_5 
REMARK    3  A    between atoms: C4_9  and  O2_10 
REMARK    4  A    between atoms: C5_12  and  O3_13 
REMARK    5  A    between atoms: C6_15  and  O4_16 
ROOT
HETATM    1  C2  UNL     1      27.627  64.521  10.488  1.00  0.00     0.185 C 
HETATM    2  C3  UNL     1      26.954  63.459  11.290  1.00  0.00     0.245 C 
HETATM    3  C4  UNL     1      27.227  63.875  12.719  1.00  0.00     0.182 C 
HETATM    4  C5  UNL     1      28.585  64.495  12.718  1.00  0.00     0.180 C 
HETATM    5  C6  UNL     1      28.718  65.116  11.342  1.00  0.00     0.180 C 
ENDROOT
BRANCH   2   6
HETATM    6  N1  UNL     1      27.457  62.128  11.036  1.00  0.00    -0.070 N 
ATOM      7  H13 UNL     1      27.717  62.023  10.054  1.00  0.00     0.274 HD
ATOM      8  H12 UNL     1      28.371  62.001  11.469  1.00  0.00     0.274 HD
ATOM      9  H11 UNL     1      26.818  61.385  11.319  1.00  0.00     0.274 HD
ENDBRANCH   2   6
BRANCH   1  10
HETATM   10  O1  UNL     1      26.722  65.540  10.205  1.00  0.00    -0.386 OA
HETATM   11  C1  UNL     1      26.896  65.986   8.897  1.00  0.00     0.202 C 
ENDBRANCH   1  10
BRANCH   3  12
HETATM   12  O2  UNL     1      27.100  62.817  13.607  1.00  0.00    -0.391 OA
ATOM     13  H2  UNL     1      27.155  63.099  14.512  1.00  0.00     0.210 HD
ENDBRANCH   3  12
BRANCH   5  14
HETATM   14  O4  UNL     1      29.970  64.839  10.795  1.00  0.00    -0.390 OA
ATOM     15  H4  UNL     1      30.658  65.065  11.410  1.00  0.00     0.210 HD
ENDBRANCH   5  14
BRANCH   4  16
HETATM   16  O3  UNL     1      29.542  63.489  12.802  1.00  0.00    -0.390 OA
ATOM     17  H3  UNL     1      30.294  63.733  12.275  1.00  0.00     0.210 HD
ENDBRANCH   4  16
TORSDOF 5
ENDMDL
