MODEL 5
REMARK VINA RESULT: -5.624244545      2.294      3.846
REMARK  7 active torsions:
REMARK  status: ('A' for Active; 'I' for Inactive)
REMARK    1  A    between atoms: C2_2  and  S1_4 
REMARK    2  A    between atoms: S1_4  and  C4_5 
REMARK    3  A    between atoms: C5_7  and  C6_8 
REMARK    4  A    between atoms: C6_8  and  O2_9 
REMARK    5  A    between atoms: C7_11  and  O3_12 
REMARK    6  A    between atoms: C8_14  and  O4_15 
REMARK    7  A    between atoms: C9_17  and  O5_18 
ROOT
HETATM    1  C4  UNL     1     -15.311 -27.722 -26.781  1.00  0.00     0.215 C 
HETATM    2  O1  UNL     1     -14.332 -28.210 -27.620  1.00  0.00    -0.363 OA
HETATM    3  C5  UNL     1     -13.103 -27.805 -27.134  1.00  0.00     0.178 C 
HETATM    4  C7  UNL     1     -12.808 -28.780 -25.999  1.00  0.00     0.180 C 
HETATM    5  C8  UNL     1     -13.743 -28.384 -24.896  1.00  0.00     0.181 C 
HETATM    6  C9  UNL     1     -15.046 -27.822 -25.329  1.00  0.00     0.188 C 
ENDROOT
BRANCH   1   7
HETATM    7  S1  UNL     1     -16.890 -28.542 -27.189  1.00  0.00    -0.131 SA
BRANCH   7   8
HETATM    8  C2  UNL     1     -17.972 -28.672 -25.760  1.00  0.00     0.041 C 
HETATM    9  C1  UNL     1     -18.797 -29.926 -25.741  1.00  0.00     0.021 C 
HETATM   10  C3  UNL     1     -18.867 -27.479 -25.567  1.00  0.00     0.021 C 
ENDBRANCH   7   8
ENDBRANCH   1   7
BRANCH   6  11
HETATM   11  O5  UNL     1     -15.223 -26.552 -24.753  1.00  0.00    -0.389 OA
ATOM     12  H5  UNL     1     -15.368 -26.660 -23.821  1.00  0.00     0.210 HD
ENDBRANCH   6  11
BRANCH   3  13
HETATM   13  C6  UNL     1     -12.014 -27.751 -28.152  1.00  0.00     0.198 C 
BRANCH  13  14
HETATM   14  O2  UNL     1     -12.200 -28.788 -29.061  1.00  0.00    -0.398 OA
ATOM     15  H2  UNL     1     -11.505 -28.755 -29.708  1.00  0.00     0.209 HD
ENDBRANCH  13  14
ENDBRANCH   3  13
BRANCH   5  16
HETATM   16  O4  UNL     1     -13.873 -29.503 -24.055  1.00  0.00    -0.390 OA
ATOM     17  H4  UNL     1     -13.821 -29.182 -23.163  1.00  0.00     0.210 HD
ENDBRANCH   5  16
BRANCH   4  18
HETATM   18  O3  UNL     1     -13.051 -30.059 -26.481  1.00  0.00    -0.390 OA
ATOM     19  H3  UNL     1     -12.370 -30.624 -26.136  1.00  0.00     0.210 HD
ENDBRANCH   4  18
TORSDOF 7
ENDMDL
