MODEL 7
REMARK VINA RESULT: -5.569803925      1.895      3.700
REMARK  7 active torsions:
REMARK  status: ('A' for Active; 'I' for Inactive)
REMARK    1  A    between atoms: C2_2  and  S1_4 
REMARK    2  A    between atoms: S1_4  and  C4_5 
REMARK    3  A    between atoms: C5_7  and  C6_8 
REMARK    4  A    between atoms: C6_8  and  O2_9 
REMARK    5  A    between atoms: C7_11  and  O3_12 
REMARK    6  A    between atoms: C8_14  and  O4_15 
REMARK    7  A    between atoms: C9_17  and  O5_18 
ROOT
HETATM    1  C4  UNL     1     -15.191 -27.682 -25.997  1.00  0.00     0.215 C 
HETATM    2  O1  UNL     1     -15.113 -28.672 -26.954  1.00  0.00    -0.363 OA
HETATM    3  C5  UNL     1     -14.096 -28.347 -27.832  1.00  0.00     0.178 C 
HETATM    4  C7  UNL     1     -12.824 -28.765 -27.102  1.00  0.00     0.180 C 
HETATM    5  C8  UNL     1     -12.652 -27.750 -26.011  1.00  0.00     0.181 C 
HETATM    6  C9  UNL     1     -13.907 -27.188 -25.454  1.00  0.00     0.188 C 
ENDROOT
BRANCH   1   7
HETATM    7  S1  UNL     1     -16.263 -28.267 -24.641  1.00  0.00    -0.131 SA
BRANCH   7   8
HETATM    8  C2  UNL     1     -17.950 -27.673 -24.810  1.00  0.00     0.041 C 
HETATM    9  C1  UNL     1     -18.498 -27.804 -26.202  1.00  0.00     0.021 C 
HETATM   10  C3  UNL     1     -18.149 -26.265 -24.323  1.00  0.00     0.021 C 
ENDBRANCH   7   8
ENDBRANCH   1   7
BRANCH   6  11
HETATM   11  O5  UNL     1     -13.883 -25.786 -25.566  1.00  0.00    -0.389 OA
ATOM     12  H5  UNL     1     -13.114 -25.536 -26.064  1.00  0.00     0.210 HD
ENDBRANCH   6  11
BRANCH   3  13
HETATM   13  C6  UNL     1     -14.216 -28.961 -29.186  1.00  0.00     0.198 C 
BRANCH  13  14
HETATM   14  O2  UNL     1     -12.949 -29.338 -29.620  1.00  0.00    -0.398 OA
ATOM     15  H2  UNL     1     -12.430 -28.554 -29.760  1.00  0.00     0.209 HD
ENDBRANCH  13  14
ENDBRANCH   3  13
BRANCH   5  16
HETATM   16  O4  UNL     1     -11.826 -28.338 -25.038  1.00  0.00    -0.390 OA
ATOM     17  H4  UNL     1     -12.324 -28.351 -24.229  1.00  0.00     0.210 HD
ENDBRANCH   5  16
BRANCH   4  18
HETATM   18  O3  UNL     1     -13.029 -30.049 -26.616  1.00  0.00    -0.390 OA
ATOM     19  H3  UNL     1     -12.387 -30.614 -27.031  1.00  0.00     0.210 HD
ENDBRANCH   4  18
TORSDOF 7
ENDMDL
