MODEL 4
REMARK VINA RESULT: -5.766470381      1.735      3.194
REMARK  7 active torsions:
REMARK  status: ('A' for Active; 'I' for Inactive)
REMARK    1  A    between atoms: C2_2  and  S1_4 
REMARK    2  A    between atoms: S1_4  and  C4_5 
REMARK    3  A    between atoms: C5_7  and  C6_8 
REMARK    4  A    between atoms: C6_8  and  O2_9 
REMARK    5  A    between atoms: C7_11  and  O3_12 
REMARK    6  A    between atoms: C8_14  and  O4_15 
REMARK    7  A    between atoms: C9_17  and  O5_18 
ROOT
HETATM    1  C4  UNL     1     -14.467 -28.060 -25.910  1.00  0.00     0.215 C 
HETATM    2  O1  UNL     1     -14.078 -28.958 -26.882  1.00  0.00    -0.363 OA
HETATM    3  C5  UNL     1     -13.280 -28.292 -27.793  1.00  0.00     0.178 C 
HETATM    4  C7  UNL     1     -11.915 -28.225 -27.118  1.00  0.00     0.180 C 
HETATM    5  C8  UNL     1     -12.075 -27.214 -26.021  1.00  0.00     0.181 C 
HETATM    6  C9  UNL     1     -13.424 -27.137 -25.411  1.00  0.00     0.188 C 
ENDROOT
BRANCH   1   7
HETATM    7  S1  UNL     1     -15.203 -28.988 -24.522  1.00  0.00    -0.131 SA
BRANCH   7   8
HETATM    8  C2  UNL     1     -16.504 -28.058 -23.704  1.00  0.00     0.041 C 
HETATM    9  C1  UNL     1     -17.183 -27.059 -24.596  1.00  0.00     0.021 C 
HETATM   10  C3  UNL     1     -16.062 -27.381 -22.437  1.00  0.00     0.021 C 
ENDBRANCH   7   8
ENDBRANCH   1   7
BRANCH   6  11
HETATM   11  O5  UNL     1     -13.909 -25.821 -25.506  1.00  0.00    -0.389 OA
ATOM     12  H5  UNL     1     -13.709 -25.366 -24.697  1.00  0.00     0.210 HD
ENDBRANCH   6  11
BRANCH   3  13
HETATM   13  C6  UNL     1     -13.227 -28.911 -29.150  1.00  0.00     0.198 C 
BRANCH  13  14
HETATM   14  O2  UNL     1     -11.897 -28.999 -29.549  1.00  0.00    -0.398 OA
ATOM     15  H2  UNL     1     -11.640 -28.171 -29.938  1.00  0.00     0.209 HD
ENDBRANCH  13  14
ENDBRANCH   3  13
BRANCH   5  16
HETATM   16  O4  UNL     1     -11.055 -27.465 -25.088  1.00  0.00    -0.390 OA
ATOM     17  H4  UNL     1     -11.435 -27.337 -24.227  1.00  0.00     0.210 HD
ENDBRANCH   5  16
BRANCH   4  18
HETATM   18  O3  UNL     1     -11.627 -29.496 -26.641  1.00  0.00    -0.390 OA
ATOM     19  H3  UNL     1     -10.754 -29.467 -26.268  1.00  0.00     0.210 HD
ENDBRANCH   4  18
TORSDOF 7
ENDMDL
