MODEL 8
REMARK VINA RESULT: -5.470728377      2.569      5.310
REMARK  7 active torsions:
REMARK  status: ('A' for Active; 'I' for Inactive)
REMARK    1  A    between atoms: C2_2  and  S1_4 
REMARK    2  A    between atoms: S1_4  and  C4_5 
REMARK    3  A    between atoms: C5_7  and  C6_8 
REMARK    4  A    between atoms: C6_8  and  O2_9 
REMARK    5  A    between atoms: C7_11  and  O3_12 
REMARK    6  A    between atoms: C8_14  and  O4_15 
REMARK    7  A    between atoms: C9_17  and  O5_18 
ROOT
HETATM    1  C4  UNL     1     -13.850 -28.314 -25.970  1.00  0.00     0.215 C 
HETATM    2  O1  UNL     1     -14.963 -27.759 -26.567  1.00  0.00    -0.363 OA
HETATM    3  C5  UNL     1     -16.068 -28.503 -26.200  1.00  0.00     0.178 C 
HETATM    4  C7  UNL     1     -16.406 -28.007 -24.798  1.00  0.00     0.180 C 
HETATM    5  C8  UNL     1     -15.327 -28.566 -23.919  1.00  0.00     0.181 C 
HETATM    6  C9  UNL     1     -13.998 -28.729 -24.557  1.00  0.00     0.188 C 
ENDROOT
BRANCH   1   7
HETATM    7  S1  UNL     1     -12.457 -27.147 -26.139  1.00  0.00    -0.131 SA
BRANCH   7   8
HETATM    8  C2  UNL     1     -11.130 -27.823 -27.144  1.00  0.00     0.041 C 
HETATM    9  C1  UNL     1     -11.595 -28.391 -28.454  1.00  0.00     0.021 C 
HETATM   10  C3  UNL     1     -10.284 -28.840 -26.429  1.00  0.00     0.021 C 
ENDBRANCH   7   8
ENDBRANCH   1   7
BRANCH   6  11
HETATM   11  O5  UNL     1     -13.581 -30.066 -24.438  1.00  0.00    -0.389 OA
ATOM     12  H5  UNL     1     -12.634 -30.094 -24.500  1.00  0.00     0.210 HD
ENDBRANCH   6  11
BRANCH   3  13
HETATM   13  C6  UNL     1     -17.223 -28.416 -27.140  1.00  0.00     0.198 C 
BRANCH  13  14
HETATM   14  O2  UNL     1     -16.873 -29.037 -28.336  1.00  0.00    -0.398 OA
ATOM     15  H2  UNL     1     -17.282 -28.568 -29.054  1.00  0.00     0.209 HD
ENDBRANCH  13  14
ENDBRANCH   3  13
BRANCH   5  16
HETATM   16  O4  UNL     1     -15.295 -27.769 -22.762  1.00  0.00    -0.390 OA
ATOM     17  H4  UNL     1     -15.182 -28.360 -22.027  1.00  0.00     0.210 HD
ENDBRANCH   5  16
BRANCH   4  18
HETATM   18  O3  UNL     1     -16.402 -26.619 -24.839  1.00  0.00    -0.390 OA
ATOM     19  H3  UNL     1     -16.770 -26.311 -24.019  1.00  0.00     0.210 HD
ENDBRANCH   4  18
TORSDOF 7
ENDMDL
