MODEL 9
REMARK VINA RESULT: -5.412166237      3.200      5.599
REMARK  7 active torsions:
REMARK  status: ('A' for Active; 'I' for Inactive)
REMARK    1  A    between atoms: C2_2  and  S1_4 
REMARK    2  A    between atoms: S1_4  and  C4_5 
REMARK    3  A    between atoms: C5_7  and  C6_8 
REMARK    4  A    between atoms: C6_8  and  O2_9 
REMARK    5  A    between atoms: C7_11  and  O3_12 
REMARK    6  A    between atoms: C8_14  and  O4_15 
REMARK    7  A    between atoms: C9_17  and  O5_18 
ROOT
HETATM    1  C4  UNL     1     -14.627 -26.815 -25.308  1.00  0.00     0.215 C 
HETATM    2  O1  UNL     1     -14.710 -25.604 -24.654  1.00  0.00    -0.363 OA
HETATM    3  C5  UNL     1     -15.961 -25.508 -24.076  1.00  0.00     0.178 C 
HETATM    4  C7  UNL     1     -15.851 -26.341 -22.803  1.00  0.00     0.180 C 
HETATM    5  C8  UNL     1     -15.816 -27.765 -23.274  1.00  0.00     0.181 C 
HETATM    6  C9  UNL     1     -15.179 -27.988 -24.595  1.00  0.00     0.188 C 
ENDROOT
BRANCH   1   7
HETATM    7  S1  UNL     1     -12.884 -27.117 -25.757  1.00  0.00    -0.131 SA
BRANCH   7   8
HETATM    8  C2  UNL     1     -12.694 -27.501 -27.502  1.00  0.00     0.041 C 
HETATM    9  C1  UNL     1     -13.696 -28.496 -28.012  1.00  0.00     0.021 C 
HETATM   10  C3  UNL     1     -11.308 -27.946 -27.878  1.00  0.00     0.021 C 
ENDBRANCH   7   8
ENDBRANCH   1   7
BRANCH   6  11
HETATM   11  O5  UNL     1     -16.084 -28.645 -25.447  1.00  0.00    -0.389 OA
ATOM     12  H5  UNL     1     -16.920 -28.197 -25.403  1.00  0.00     0.210 HD
ENDBRANCH   6  11
BRANCH   3  13
HETATM   13  C6  UNL     1     -16.428 -24.115 -23.819  1.00  0.00     0.198 C 
BRANCH  13  14
HETATM   14  O2  UNL     1     -15.390 -23.397 -23.231  1.00  0.00    -0.398 OA
ATOM     15  H2  UNL     1     -15.274 -23.705 -22.339  1.00  0.00     0.209 HD
ENDBRANCH  13  14
ENDBRANCH   3  13
BRANCH   5  16
HETATM   16  O4  UNL     1     -15.233 -28.518 -22.241  1.00  0.00    -0.390 OA
ATOM     17  H4  UNL     1     -15.771 -29.293 -22.131  1.00  0.00     0.210 HD
ENDBRANCH   5  16
BRANCH   4  18
HETATM   18  O3  UNL     1     -14.683 -25.957 -22.158  1.00  0.00    -0.390 OA
ATOM     19  H3  UNL     1     -14.139 -26.732 -22.076  1.00  0.00     0.210 HD
ENDBRANCH   4  18
TORSDOF 7
ENDMDL
