MODEL 6
REMARK VINA RESULT: -5.608882109      1.879      3.640
REMARK  7 active torsions:
REMARK  status: ('A' for Active; 'I' for Inactive)
REMARK    1  A    between atoms: C2_2  and  S1_4 
REMARK    2  A    between atoms: S1_4  and  C4_5 
REMARK    3  A    between atoms: C5_7  and  C6_8 
REMARK    4  A    between atoms: C6_8  and  O2_9 
REMARK    5  A    between atoms: C7_11  and  O3_12 
REMARK    6  A    between atoms: C8_14  and  O4_15 
REMARK    7  A    between atoms: C9_17  and  O5_18 
ROOT
HETATM    1  C4  UNL     1     -15.222 -27.763 -25.827  1.00  0.00     0.215 C 
HETATM    2  O1  UNL     1     -15.151 -28.737 -26.800  1.00  0.00    -0.363 OA
HETATM    3  C5  UNL     1     -14.219 -28.344 -27.741  1.00  0.00     0.178 C 
HETATM    4  C7  UNL     1     -12.876 -28.690 -27.106  1.00  0.00     0.180 C 
HETATM    5  C8  UNL     1     -12.690 -27.676 -26.016  1.00  0.00     0.181 C 
HETATM    6  C9  UNL     1     -13.935 -27.197 -25.367  1.00  0.00     0.188 C 
ENDROOT
BRANCH   1   7
HETATM    7  S1  UNL     1     -16.159 -28.426 -24.408  1.00  0.00    -0.131 SA
BRANCH   7   8
HETATM    8  C2  UNL     1     -16.906 -27.121 -23.424  1.00  0.00     0.041 C 
HETATM    9  C1  UNL     1     -17.363 -25.942 -24.235  1.00  0.00     0.021 C 
HETATM   10  C3  UNL     1     -16.041 -26.644 -22.291  1.00  0.00     0.021 C 
ENDBRANCH   7   8
ENDBRANCH   1   7
BRANCH   6  11
HETATM   11  O5  UNL     1     -14.003 -25.796 -25.461  1.00  0.00    -0.389 OA
ATOM     12  H5  UNL     1     -14.476 -25.464 -24.708  1.00  0.00     0.210 HD
ENDBRANCH   6  11
BRANCH   3  13
HETATM   13  C6  UNL     1     -14.396 -28.951 -29.092  1.00  0.00     0.198 C 
BRANCH  13  14
HETATM   14  O2  UNL     1     -13.147 -29.319 -29.584  1.00  0.00    -0.398 OA
ATOM     15  H2  UNL     1     -12.981 -28.835 -30.385  1.00  0.00     0.209 HD
ENDBRANCH  13  14
ENDBRANCH   3  13
BRANCH   5  16
HETATM   16  O4  UNL     1     -11.765 -28.222 -25.111  1.00  0.00    -0.390 OA
ATOM     17  H4  UNL     1     -11.476 -29.048 -25.480  1.00  0.00     0.210 HD
ENDBRANCH   5  16
BRANCH   4  18
HETATM   18  O3  UNL     1     -12.969 -29.988 -26.625  1.00  0.00    -0.390 OA
ATOM     19  H3  UNL     1     -13.611 -29.984 -25.925  1.00  0.00     0.210 HD
ENDBRANCH   4  18
TORSDOF 7
ENDMDL
