MODEL 10
REMARK VINA RESULT: -5.348599325      2.089      4.805
REMARK  7 active torsions:
REMARK  status: ('A' for Active; 'I' for Inactive)
REMARK    1  A    between atoms: C2_2  and  S1_4 
REMARK    2  A    between atoms: S1_4  and  C4_5 
REMARK    3  A    between atoms: C5_7  and  C6_8 
REMARK    4  A    between atoms: C6_8  and  O2_9 
REMARK    5  A    between atoms: C7_11  and  O3_12 
REMARK    6  A    between atoms: C8_14  and  O4_15 
REMARK    7  A    between atoms: C9_17  and  O5_18 
ROOT
HETATM    1  C4  UNL     1     -12.862 -28.607 -26.410  1.00  0.00     0.215 C 
HETATM    2  O1  UNL     1     -14.096 -29.164 -26.674  1.00  0.00    -0.363 OA
HETATM    3  C5  UNL     1     -14.717 -28.401 -27.645  1.00  0.00     0.178 C 
HETATM    4  C7  UNL     1     -14.079 -28.864 -28.950  1.00  0.00     0.180 C 
HETATM    5  C8  UNL     1     -12.691 -28.295 -28.925  1.00  0.00     0.181 C 
HETATM    6  C9  UNL     1     -12.077 -28.160 -27.582  1.00  0.00     0.188 C 
ENDROOT
BRANCH   1   7
HETATM    7  S1  UNL     1     -11.890 -29.791 -25.417  1.00  0.00    -0.131 SA
BRANCH   7   8
HETATM    8  C2  UNL     1     -10.126 -29.630 -25.714  1.00  0.00     0.041 C 
HETATM    9  C1  UNL     1      -9.318 -30.779 -25.181  1.00  0.00     0.021 C 
HETATM   10  C3  UNL     1      -9.542 -28.335 -25.221  1.00  0.00     0.021 C 
ENDBRANCH   7   8
ENDBRANCH   1   7
BRANCH   6  11
HETATM   11  O5  UNL     1     -11.688 -26.825 -27.376  1.00  0.00    -0.389 OA
ATOM     12  H5  UNL     1     -10.992 -26.615 -27.987  1.00  0.00     0.210 HD
ENDBRANCH   6  11
BRANCH   3  13
HETATM   13  C6  UNL     1     -16.206 -28.498 -27.660  1.00  0.00     0.198 C 
BRANCH  13  14
HETATM   14  O2  UNL     1     -16.595 -29.220 -28.784  1.00  0.00    -0.398 OA
ATOM     15  H2  UNL     1     -15.956 -29.906 -28.943  1.00  0.00     0.209 HD
ENDBRANCH  13  14
ENDBRANCH   3  13
BRANCH   5  16
HETATM   16  O4  UNL     1     -11.922 -29.067 -29.813  1.00  0.00    -0.390 OA
ATOM     17  H4  UNL     1     -11.050 -28.692 -29.815  1.00  0.00     0.210 HD
ENDBRANCH   5  16
BRANCH   4  18
HETATM   18  O3  UNL     1     -14.093 -30.252 -28.948  1.00  0.00    -0.390 OA
ATOM     19  H3  UNL     1     -13.198 -30.543 -29.070  1.00  0.00     0.210 HD
ENDBRANCH   4  18
TORSDOF 7
ENDMDL
