MODEL 12
REMARK VINA RESULT: -7.557096260      3.830      9.816
REMARK  17 active torsions:
REMARK  status: ('A' for Active; 'I' for Inactive)
REMARK    1  A    between atoms: C2_2  and  C3_3 
REMARK    2  A    between atoms: C3_3  and  C4_4 
REMARK    3  A    between atoms: C4_4  and  C5_5 
REMARK    4  A    between atoms: C5_5  and  C6_6 
REMARK    5  A    between atoms: C7_7  and  C8_8 
REMARK    6  A    between atoms: C8_8  and  C9_9 
REMARK    7  A    between atoms: C10_10  and  C11_11 
REMARK    8  A    between atoms: C11_11  and  C12_12 
REMARK    9  A    between atoms: C12_12  and  C13_13 
REMARK   10  A    between atoms: C13_13  and  C14_14 
REMARK   11  A    between atoms: C14_14  and  C15_15 
REMARK   12  A    between atoms: C15_15  and  C16_16 
REMARK   13  A    between atoms: C16_16  and  O1_17 
REMARK   14  A    between atoms: C16_16  and  C17_19 
REMARK   15  A    between atoms: C17_19  and  C18_20 
REMARK   16  A    between atoms: C18_20  and  C19_21 
REMARK   17  A    between atoms: C19_21  and  C20_22 
ROOT
HETATM    1  C12 UNL     1     -15.678   0.711   3.747  1.00  0.00     0.004 C 
ENDROOT
BRANCH   1   2
HETATM    2  C11 UNL     1     -16.629  -0.095   4.590  1.00  0.00     0.027 C 
BRANCH   2   3
HETATM    3  C10 UNL     1     -15.966  -0.473   5.852  1.00  0.00    -0.030 C 
HETATM    4  C9  UNL     1     -15.372  -1.601   6.041  1.00  0.00    -0.027 C 
BRANCH   4   5
HETATM    5  C8  UNL     1     -15.242  -2.700   5.068  1.00  0.00     0.053 C 
BRANCH   5   6
HETATM    6  C7  UNL     1     -16.217  -3.748   5.462  1.00  0.00    -0.027 C 
HETATM    7  C6  UNL     1     -15.893  -5.009   5.668  1.00  0.00    -0.030 C 
BRANCH   7   8
HETATM    8  C5  UNL     1     -14.584  -5.642   5.567  1.00  0.00     0.027 C 
BRANCH   8   9
HETATM    9  C4  UNL     1     -14.269  -6.721   6.538  1.00  0.00     0.004 C 
BRANCH   9  10
HETATM   10  C3  UNL     1     -13.731  -6.343   7.863  1.00  0.00    -0.000 C 
BRANCH  10  11
HETATM   11  C2  UNL     1     -13.055  -5.031   8.003  1.00  0.00    -0.005 C 
HETATM   12  C1  UNL     1     -11.549  -5.127   7.902  1.00  0.00     0.005 C 
ENDBRANCH  10  11
ENDBRANCH   9  10
ENDBRANCH   8   9
ENDBRANCH   7   8
ENDBRANCH   5   6
ENDBRANCH   4   5
ENDBRANCH   2   3
ENDBRANCH   1   2
BRANCH   1  13
HETATM   13  C13 UNL     1     -16.261   2.046   3.415  1.00  0.00     0.000 C 
BRANCH  13  14
HETATM   14  C14 UNL     1     -16.402   2.221   1.943  1.00  0.00     0.002 C 
BRANCH  14  15
HETATM   15  C15 UNL     1     -15.138   2.627   1.281  1.00  0.00     0.032 C 
BRANCH  15  16
HETATM   16  C16 UNL     1     -15.337   3.200  -0.075  1.00  0.00     0.118 C 
BRANCH  16  17
HETATM   17  O1  UNL     1     -16.556   3.811  -0.297  1.00  0.00    -0.396 OA
ATOM     18  H1  UNL     1     -16.670   4.208  -1.153  1.00  0.00     0.210 HD
ENDBRANCH  16  17
BRANCH  16  19
HETATM   19  C17 UNL     1     -14.188   4.155  -0.384  1.00  0.00     0.032 C 
BRANCH  19  20
HETATM   20  C18 UNL     1     -13.034   3.333  -0.902  1.00  0.00     0.013 C 
BRANCH  20  21
HETATM   21  C19 UNL     1     -12.407   3.877  -2.140  1.00  0.00     0.113 C 
BRANCH  21  22
HETATM   22  C20 UNL     1     -12.318   2.915  -3.259  1.00  0.00     0.172 C 
HETATM   23  O2  UNL     1     -13.321   2.572  -3.904  1.00  0.00    -0.648 OA
HETATM   24  O3  UNL     1     -11.103   2.371  -3.615  1.00  0.00    -0.648 OA
ENDBRANCH  21  22
ENDBRANCH  20  21
ENDBRANCH  19  20
ENDBRANCH  16  19
ENDBRANCH  15  16
ENDBRANCH  14  15
ENDBRANCH  13  14
ENDBRANCH   1  13
TORSDOF 17
ENDMDL
