MODEL 4
REMARK VINA RESULT: -7.839419459      4.157      9.679
REMARK  17 active torsions:
REMARK  status: ('A' for Active; 'I' for Inactive)
REMARK    1  A    between atoms: C2_2  and  C3_3 
REMARK    2  A    between atoms: C3_3  and  C4_4 
REMARK    3  A    between atoms: C4_4  and  C5_5 
REMARK    4  A    between atoms: C5_5  and  C6_6 
REMARK    5  A    between atoms: C7_7  and  C8_8 
REMARK    6  A    between atoms: C8_8  and  C9_9 
REMARK    7  A    between atoms: C10_10  and  C11_11 
REMARK    8  A    between atoms: C11_11  and  C12_12 
REMARK    9  A    between atoms: C12_12  and  C13_13 
REMARK   10  A    between atoms: C13_13  and  C14_14 
REMARK   11  A    between atoms: C14_14  and  C15_15 
REMARK   12  A    between atoms: C15_15  and  C16_16 
REMARK   13  A    between atoms: C16_16  and  O1_17 
REMARK   14  A    between atoms: C16_16  and  C17_19 
REMARK   15  A    between atoms: C17_19  and  C18_20 
REMARK   16  A    between atoms: C18_20  and  C19_21 
REMARK   17  A    between atoms: C19_21  and  C20_22 
ROOT
HETATM    1  C12 UNL     1     -14.525   3.317   1.146  1.00  0.00     0.004 C 
ENDROOT
BRANCH   1   2
HETATM    2  C11 UNL     1     -15.369   2.202   1.703  1.00  0.00     0.027 C 
BRANCH   2   3
HETATM    3  C10 UNL     1     -15.958   2.627   2.986  1.00  0.00    -0.030 C 
HETATM    4  C9  UNL     1     -16.137   1.838   3.989  1.00  0.00    -0.027 C 
BRANCH   4   5
HETATM    5  C8  UNL     1     -15.801   0.404   4.052  1.00  0.00     0.053 C 
BRANCH   5   6
HETATM    6  C7  UNL     1     -16.903  -0.268   4.786  1.00  0.00    -0.027 C 
HETATM    7  C6  UNL     1     -16.780  -0.755   6.006  1.00  0.00    -0.030 C 
BRANCH   7   8
HETATM    8  C5  UNL     1     -15.610  -0.751   6.874  1.00  0.00     0.027 C 
BRANCH   8   9
HETATM    9  C4  UNL     1     -15.720  -0.027   8.167  1.00  0.00     0.004 C 
BRANCH   9  10
HETATM   10  C3  UNL     1     -17.065   0.357   8.649  1.00  0.00    -0.000 C 
BRANCH  10  11
HETATM   11  C2  UNL     1     -17.512  -0.148   9.969  1.00  0.00    -0.005 C 
HETATM   12  C1  UNL     1     -16.561  -1.158  10.570  1.00  0.00     0.005 C 
ENDBRANCH  10  11
ENDBRANCH   9  10
ENDBRANCH   8   9
ENDBRANCH   7   8
ENDBRANCH   5   6
ENDBRANCH   4   5
ENDBRANCH   2   3
ENDBRANCH   1   2
BRANCH   1  13
HETATM   13  C13 UNL     1     -15.327   4.186   0.232  1.00  0.00     0.000 C 
BRANCH  13  14
HETATM   14  C14 UNL     1     -14.997   5.625   0.429  1.00  0.00     0.002 C 
BRANCH  14  15
HETATM   15  C15 UNL     1     -14.518   6.288  -0.809  1.00  0.00     0.032 C 
BRANCH  15  16
HETATM   16  C16 UNL     1     -14.064   5.333  -1.853  1.00  0.00     0.118 C 
BRANCH  16  17
HETATM   17  O1  UNL     1     -14.858   5.251  -2.980  1.00  0.00    -0.396 OA
ATOM     18  H1  UNL     1     -15.505   4.555  -2.981  1.00  0.00     0.210 HD
ENDBRANCH  16  17
BRANCH  16  19
HETATM   19  C17 UNL     1     -12.621   5.659  -2.228  1.00  0.00     0.032 C 
BRANCH  19  20
HETATM   20  C18 UNL     1     -11.742   4.572  -1.661  1.00  0.00     0.013 C 
BRANCH  20  21
HETATM   21  C19 UNL     1     -12.276   3.195  -1.852  1.00  0.00     0.113 C 
BRANCH  21  22
HETATM   22  C20 UNL     1     -12.183   2.685  -3.237  1.00  0.00     0.172 C 
HETATM   23  O2  UNL     1     -11.101   2.328  -3.728  1.00  0.00    -0.648 OA
HETATM   24  O3  UNL     1     -13.312   2.594  -4.023  1.00  0.00    -0.648 OA
ENDBRANCH  21  22
ENDBRANCH  20  21
ENDBRANCH  19  20
ENDBRANCH  16  19
ENDBRANCH  15  16
ENDBRANCH  14  15
ENDBRANCH  13  14
ENDBRANCH   1  13
TORSDOF 17
ENDMDL
