MODEL 8
REMARK VINA RESULT: -7.744390081      1.193      1.810
REMARK  17 active torsions:
REMARK  status: ('A' for Active; 'I' for Inactive)
REMARK    1  A    between atoms: C2_2  and  C3_3 
REMARK    2  A    between atoms: C3_3  and  C4_4 
REMARK    3  A    between atoms: C4_4  and  C5_5 
REMARK    4  A    between atoms: C5_5  and  C6_6 
REMARK    5  A    between atoms: C7_7  and  C8_8 
REMARK    6  A    between atoms: C8_8  and  C9_9 
REMARK    7  A    between atoms: C10_10  and  C11_11 
REMARK    8  A    between atoms: C11_11  and  C12_12 
REMARK    9  A    between atoms: C12_12  and  C13_13 
REMARK   10  A    between atoms: C13_13  and  C14_14 
REMARK   11  A    between atoms: C14_14  and  C15_15 
REMARK   12  A    between atoms: C15_15  and  C16_16 
REMARK   13  A    between atoms: C16_16  and  O1_17 
REMARK   14  A    between atoms: C16_16  and  C17_19 
REMARK   15  A    between atoms: C17_19  and  C18_20 
REMARK   16  A    between atoms: C18_20  and  C19_21 
REMARK   17  A    between atoms: C19_21  and  C20_22 
ROOT
HETATM    1  C12 UNL     1     -16.853   1.944   2.300  1.00  0.00     0.004 C 
ENDROOT
BRANCH   1   2
HETATM    2  C11 UNL     1     -16.391   2.701   1.084  1.00  0.00     0.027 C 
BRANCH   2   3
HETATM    3  C10 UNL     1     -14.968   3.057   1.240  1.00  0.00    -0.030 C 
HETATM    4  C9  UNL     1     -14.454   4.160   0.817  1.00  0.00    -0.027 C 
BRANCH   4   5
HETATM    5  C8  UNL     1     -15.161   5.249   0.117  1.00  0.00     0.053 C 
BRANCH   5   6
HETATM    6  C7  UNL     1     -14.127   6.079  -0.550  1.00  0.00    -0.027 C 
HETATM    7  C6  UNL     1     -13.591   5.782  -1.718  1.00  0.00    -0.030 C 
BRANCH   7   8
HETATM    8  C5  UNL     1     -13.867   4.642  -2.583  1.00  0.00     0.027 C 
BRANCH   8   9
HETATM    9  C4  UNL     1     -12.909   3.506  -2.543  1.00  0.00     0.004 C 
BRANCH   9  10
HETATM   10  C3  UNL     1     -11.677   3.649  -1.737  1.00  0.00    -0.000 C 
BRANCH  10  11
HETATM   11  C2  UNL     1     -11.313   2.555  -0.805  1.00  0.00    -0.005 C 
HETATM   12  C1  UNL     1      -9.819   2.351  -0.687  1.00  0.00     0.005 C 
ENDBRANCH  10  11
ENDBRANCH   9  10
ENDBRANCH   8   9
ENDBRANCH   7   8
ENDBRANCH   5   6
ENDBRANCH   4   5
ENDBRANCH   2   3
ENDBRANCH   1   2
BRANCH   1  13
HETATM   13  C13 UNL     1     -15.843   2.033   3.398  1.00  0.00     0.000 C 
BRANCH  13  14
HETATM   14  C14 UNL     1     -15.678   0.722   4.086  1.00  0.00     0.002 C 
BRANCH  14  15
HETATM   15  C15 UNL     1     -16.970   0.092   4.455  1.00  0.00     0.032 C 
BRANCH  15  16
HETATM   16  C16 UNL     1     -16.816  -1.230   5.116  1.00  0.00     0.118 C 
BRANCH  16  17
HETATM   17  O1  UNL     1     -17.235  -2.322   4.381  1.00  0.00    -0.396 OA
ATOM     18  H1  UNL     1     -17.031  -2.300   3.453  1.00  0.00     0.210 HD
ENDBRANCH  16  17
BRANCH  16  19
HETATM   19  C17 UNL     1     -15.366  -1.398   5.558  1.00  0.00     0.032 C 
BRANCH  19  20
HETATM   20  C18 UNL     1     -15.312  -2.545   6.535  1.00  0.00     0.013 C 
BRANCH  20  21
HETATM   21  C19 UNL     1     -14.380  -3.639   6.139  1.00  0.00     0.113 C 
BRANCH  21  22
HETATM   22  C20 UNL     1     -15.043  -4.873   5.667  1.00  0.00     0.172 C 
HETATM   23  O2  UNL     1     -14.396  -5.893   5.383  1.00  0.00    -0.648 OA
HETATM   24  O3  UNL     1     -16.414  -4.918   5.528  1.00  0.00    -0.648 OA
ENDBRANCH  21  22
ENDBRANCH  20  21
ENDBRANCH  19  20
ENDBRANCH  16  19
ENDBRANCH  15  16
ENDBRANCH  14  15
ENDBRANCH  13  14
ENDBRANCH   1  13
TORSDOF 17
ENDMDL
