MODEL 7
REMARK VINA RESULT: -7.636457379      1.947      5.591
REMARK  13 active torsions:
REMARK  status: ('A' for Active; 'I' for Inactive)
REMARK    1  A    between atoms: C1_2  and  C2_4 
REMARK    2  A    between atoms: C2_4  and  C3_6 
REMARK    3  A    between atoms: C3_6  and  C4_7 
REMARK    4  A    between atoms: C4_7  and  O4_8 
REMARK    5  A    between atoms: C4_7  and  C5_10 
REMARK    6  A    between atoms: C5_10  and  O5_11 
REMARK    7  A    between atoms: C5_10  and  C6_13 
REMARK    8  A    between atoms: C6_13  and  O6_14 
REMARK    9  A    between atoms: C6_13  and  C7_16 
REMARK   10  A    between atoms: C7_16  and  O7_17 
REMARK   11  A    between atoms: C7_16  and  C8_19 
REMARK   12  A    between atoms: C8_19  and  O8_20 
REMARK   13  A    between atoms: O8_20  and  P1_21 
ROOT
HETATM    1  C5  UNL     1      36.026  52.861  17.941  1.00  0.00     0.178 C 
ENDROOT
BRANCH   1   2
HETATM    2  C4  UNL     1      35.067  52.331  16.929  1.00  0.00     0.157 C 
BRANCH   2   3
HETATM    3  C3  UNL     1      35.432  52.617  15.494  1.00  0.00     0.124 C 
BRANCH   3   4
HETATM    4  C2  UNL     1      34.319  52.451  14.544  1.00  0.00     0.227 C 
HETATM    5  O3  UNL     1      34.030  51.308  14.089  1.00  0.00    -0.286 OA
BRANCH   4   6
HETATM    6  C1  UNL     1      33.508  53.581  14.086  1.00  0.00     0.246 C 
HETATM    7  O1  UNL     1      34.037  54.451  13.365  1.00  0.00    -0.642 OA
HETATM    8  O2  UNL     1      32.177  53.714  14.430  1.00  0.00    -0.642 OA
ENDBRANCH   4   6
ENDBRANCH   3   4
ENDBRANCH   2   3
BRANCH   2   9
HETATM    9  O4  UNL     1      34.893  50.930  17.036  1.00  0.00    -0.392 OA
ATOM     10  H4  UNL     1      34.591  50.624  16.189  1.00  0.00     0.210 HD
ENDBRANCH   2   9
ENDBRANCH   1   2
BRANCH   1  11
HETATM   11  O5  UNL     1      35.973  54.274  17.819  1.00  0.00    -0.390 OA
ATOM     12  H5  UNL     1      36.633  54.608  18.414  1.00  0.00     0.210 HD
ENDBRANCH   1  11
BRANCH   1  13
HETATM   13  C6  UNL     1      35.589  52.592  19.361  1.00  0.00     0.180 C 
BRANCH  13  14
HETATM   14  O6  UNL     1      35.791  51.223  19.680  1.00  0.00    -0.390 OA
ATOM     15  H6  UNL     1      35.206  50.680  19.165  1.00  0.00     0.210 HD
ENDBRANCH  13  14
BRANCH  13  16
HETATM   16  C7  UNL     1      34.209  52.989  19.709  1.00  0.00     0.173 C 
BRANCH  16  17
HETATM   17  O7  UNL     1      34.319  54.088  20.601  1.00  0.00    -0.391 OA
ATOM     18  H7  UNL     1      34.948  54.686  20.215  1.00  0.00     0.210 HD
ENDBRANCH  16  17
BRANCH  16  19
HETATM   19  C8  UNL     1      33.401  51.878  20.365  1.00  0.00     0.217 C 
BRANCH  19  20
HETATM   20  O8  UNL     1      32.788  51.164  19.396  1.00  0.00    -0.280 OA
BRANCH  20  21
HETATM   21  P1  UNL     1      32.573  49.581  19.531  1.00  0.00     0.422 P 
HETATM   22  O9  UNL     1      31.177  49.541  18.921  1.00  0.00    -0.617 OA
HETATM   23  O10 UNL     1      33.242  48.506  18.435  1.00  0.00    -0.617 OA
HETATM   24  O11 UNL     1      31.924  48.908  20.931  1.00  0.00    -0.617 OA
ENDBRANCH  20  21
ENDBRANCH  19  20
ENDBRANCH  16  19
ENDBRANCH  13  16
ENDBRANCH   1  13
TORSDOF 13
ENDMDL
