MODEL 8
REMARK VINA RESULT: -7.585195423      2.864      3.922
REMARK  13 active torsions:
REMARK  status: ('A' for Active; 'I' for Inactive)
REMARK    1  A    between atoms: C1_2  and  C2_4 
REMARK    2  A    between atoms: C2_4  and  C3_6 
REMARK    3  A    between atoms: C3_6  and  C4_7 
REMARK    4  A    between atoms: C4_7  and  O4_8 
REMARK    5  A    between atoms: C4_7  and  C5_10 
REMARK    6  A    between atoms: C5_10  and  O5_11 
REMARK    7  A    between atoms: C5_10  and  C6_13 
REMARK    8  A    between atoms: C6_13  and  O6_14 
REMARK    9  A    between atoms: C6_13  and  C7_16 
REMARK   10  A    between atoms: C7_16  and  O7_17 
REMARK   11  A    between atoms: C7_16  and  C8_19 
REMARK   12  A    between atoms: C8_19  and  O8_20 
REMARK   13  A    between atoms: O8_20  and  P1_21 
ROOT
HETATM    1  C5  UNL     1      35.577  52.453  19.634  1.00  0.00     0.178 C 
ENDROOT
BRANCH   1   2
HETATM    2  C4  UNL     1      34.173  52.938  19.777  1.00  0.00     0.157 C 
BRANCH   2   3
HETATM    3  C3  UNL     1      33.145  51.858  19.999  1.00  0.00     0.124 C 
BRANCH   3   4
HETATM    4  C2  UNL     1      33.258  51.174  21.297  1.00  0.00     0.227 C 
HETATM    5  O3  UNL     1      33.789  50.029  21.374  1.00  0.00    -0.286 OA
BRANCH   4   6
HETATM    6  C1  UNL     1      32.771  51.773  22.541  1.00  0.00     0.246 C 
HETATM    7  O1  UNL     1      33.584  52.003  23.459  1.00  0.00    -0.642 OA
HETATM    8  O2  UNL     1      31.439  52.089  22.730  1.00  0.00    -0.642 OA
ENDBRANCH   4   6
ENDBRANCH   3   4
ENDBRANCH   2   3
BRANCH   2   9
HETATM    9  O4  UNL     1      34.031  53.864  20.839  1.00  0.00    -0.392 OA
ATOM     10  H4  UNL     1      34.760  53.719  21.431  1.00  0.00     0.210 HD
ENDBRANCH   2   9
ENDBRANCH   1   2
BRANCH   1  11
HETATM   11  O5  UNL     1      35.482  51.174  19.026  1.00  0.00    -0.390 OA
ATOM     12  H5  UNL     1      36.376  50.878  18.907  1.00  0.00     0.210 HD
ENDBRANCH   1  11
BRANCH   1  13
HETATM   13  C6  UNL     1      36.384  53.272  18.657  1.00  0.00     0.180 C 
BRANCH  13  14
HETATM   14  O6  UNL     1      36.258  54.653  18.960  1.00  0.00    -0.390 OA
ATOM     15  H6  UNL     1      35.873  55.113  18.223  1.00  0.00     0.210 HD
ENDBRANCH  13  14
BRANCH  13  16
HETATM   16  C7  UNL     1      36.105  53.046  17.223  1.00  0.00     0.173 C 
BRANCH  16  17
HETATM   17  O7  UNL     1      37.059  52.097  16.771  1.00  0.00    -0.391 OA
ATOM     18  H7  UNL     1      37.172  52.250  15.840  1.00  0.00     0.210 HD
ENDBRANCH  16  17
BRANCH  16  19
HETATM   19  C8  UNL     1      36.199  54.308  16.376  1.00  0.00     0.217 C 
BRANCH  19  20
HETATM   20  O8  UNL     1      37.348  54.265  15.668  1.00  0.00    -0.280 OA
BRANCH  20  21
HETATM   21  P1  UNL     1      38.587  55.218  16.023  1.00  0.00     0.422 P 
HETATM   22  O9  UNL     1      39.242  54.286  17.034  1.00  0.00    -0.617 OA
HETATM   23  O10 UNL     1      39.930  55.322  15.028  1.00  0.00    -0.617 OA
HETATM   24  O11 UNL     1      38.473  56.374  17.241  1.00  0.00    -0.617 OA
ENDBRANCH  20  21
ENDBRANCH  19  20
ENDBRANCH  16  19
ENDBRANCH  13  16
ENDBRANCH   1  13
TORSDOF 13
ENDMDL
