MODEL 4
REMARK VINA RESULT: -7.767563793      2.285      6.069
REMARK  13 active torsions:
REMARK  status: ('A' for Active; 'I' for Inactive)
REMARK    1  A    between atoms: C1_2  and  C2_4 
REMARK    2  A    between atoms: C2_4  and  C3_6 
REMARK    3  A    between atoms: C3_6  and  C4_7 
REMARK    4  A    between atoms: C4_7  and  O4_8 
REMARK    5  A    between atoms: C4_7  and  C5_10 
REMARK    6  A    between atoms: C5_10  and  O5_11 
REMARK    7  A    between atoms: C5_10  and  C6_13 
REMARK    8  A    between atoms: C6_13  and  O6_14 
REMARK    9  A    between atoms: C6_13  and  C7_16 
REMARK   10  A    between atoms: C7_16  and  O7_17 
REMARK   11  A    between atoms: C7_16  and  C8_19 
REMARK   12  A    between atoms: C8_19  and  O8_20 
REMARK   13  A    between atoms: O8_20  and  P1_21 
ROOT
HETATM    1  C5  UNL     1      35.945  53.232  17.819  1.00  0.00     0.178 C 
ENDROOT
BRANCH   1   2
HETATM    2  C4  UNL     1      35.460  52.314  16.747  1.00  0.00     0.157 C 
BRANCH   2   3
HETATM    3  C3  UNL     1      34.824  52.996  15.563  1.00  0.00     0.124 C 
BRANCH   3   4
HETATM    4  C2  UNL     1      35.706  53.116  14.389  1.00  0.00     0.227 C 
HETATM    5  O3  UNL     1      35.853  52.143  13.596  1.00  0.00    -0.286 OA
BRANCH   4   6
HETATM    6  C1  UNL     1      36.442  54.345  14.088  1.00  0.00     0.246 C 
HETATM    7  O1  UNL     1      36.199  55.372  14.753  1.00  0.00    -0.642 OA
HETATM    8  O2  UNL     1      37.395  54.402  13.090  1.00  0.00    -0.642 OA
ENDBRANCH   4   6
ENDBRANCH   3   4
ENDBRANCH   2   3
BRANCH   2   9
HETATM    9  O4  UNL     1      36.493  51.488  16.240  1.00  0.00    -0.392 OA
ATOM     10  H4  UNL     1      36.183  50.592  16.299  1.00  0.00     0.210 HD
ENDBRANCH   2   9
ENDBRANCH   1   2
BRANCH   1  11
HETATM   11  O5  UNL     1      35.208  54.434  17.658  1.00  0.00    -0.390 OA
ATOM     12  H5  UNL     1      35.076  54.774  18.535  1.00  0.00     0.210 HD
ENDBRANCH   1  11
BRANCH   1  13
HETATM   13  C6  UNL     1      35.587  52.756  19.206  1.00  0.00     0.180 C 
BRANCH  13  14
HETATM   14  O6  UNL     1      35.858  51.369  19.328  1.00  0.00    -0.390 OA
ATOM     15  H6  UNL     1      35.050  50.874  19.273  1.00  0.00     0.210 HD
ENDBRANCH  13  14
BRANCH  13  16
HETATM   16  C7  UNL     1      34.209  53.040  19.661  1.00  0.00     0.173 C 
BRANCH  16  17
HETATM   17  O7  UNL     1      34.304  54.106  20.594  1.00  0.00    -0.391 OA
ATOM     18  H7  UNL     1      34.254  54.910  20.089  1.00  0.00     0.210 HD
ENDBRANCH  16  17
BRANCH  16  19
HETATM   19  C8  UNL     1      33.526  51.847  20.316  1.00  0.00     0.217 C 
BRANCH  19  20
HETATM   20  O8  UNL     1      32.941  51.105  19.352  1.00  0.00    -0.280 OA
BRANCH  20  21
HETATM   21  P1  UNL     1      32.616  49.551  19.573  1.00  0.00     0.422 P 
HETATM   22  O9  UNL     1      31.237  49.566  18.927  1.00  0.00    -0.617 OA
HETATM   23  O10 UNL     1      33.238  48.370  18.562  1.00  0.00    -0.617 OA
HETATM   24  O11 UNL     1      31.889  49.008  20.991  1.00  0.00    -0.617 OA
ENDBRANCH  20  21
ENDBRANCH  19  20
ENDBRANCH  16  19
ENDBRANCH  13  16
ENDBRANCH   1  13
TORSDOF 13
ENDMDL
