MODEL 3
REMARK VINA RESULT: -7.800846664      2.037      5.668
REMARK  13 active torsions:
REMARK  status: ('A' for Active; 'I' for Inactive)
REMARK    1  A    between atoms: C1_2  and  C2_4 
REMARK    2  A    between atoms: C2_4  and  C3_6 
REMARK    3  A    between atoms: C3_6  and  C4_7 
REMARK    4  A    between atoms: C4_7  and  O4_8 
REMARK    5  A    between atoms: C4_7  and  C5_10 
REMARK    6  A    between atoms: C5_10  and  O5_11 
REMARK    7  A    between atoms: C5_10  and  C6_13 
REMARK    8  A    between atoms: C6_13  and  O6_14 
REMARK    9  A    between atoms: C6_13  and  C7_16 
REMARK   10  A    between atoms: C7_16  and  O7_17 
REMARK   11  A    between atoms: C7_16  and  C8_19 
REMARK   12  A    between atoms: C8_19  and  O8_20 
REMARK   13  A    between atoms: O8_20  and  P1_21 
ROOT
HETATM    1  C5  UNL     1      36.050  53.179  18.052  1.00  0.00     0.178 C 
ENDROOT
BRANCH   1   2
HETATM    2  C4  UNL     1      35.563  52.383  16.888  1.00  0.00     0.157 C 
BRANCH   2   3
HETATM    3  C3  UNL     1      34.927  53.190  15.785  1.00  0.00     0.124 C 
BRANCH   3   4
HETATM    4  C2  UNL     1      35.364  52.810  14.431  1.00  0.00     0.227 C 
HETATM    5  O3  UNL     1      36.409  53.314  13.929  1.00  0.00    -0.286 OA
BRANCH   4   6
HETATM    6  C1  UNL     1      34.623  51.848  13.613  1.00  0.00     0.246 C 
HETATM    7  O1  UNL     1      35.249  51.137  12.801  1.00  0.00    -0.642 OA
HETATM    8  O2  UNL     1      33.252  51.705  13.711  1.00  0.00    -0.642 OA
ENDBRANCH   4   6
ENDBRANCH   3   4
ENDBRANCH   2   3
BRANCH   2   9
HETATM    9  O4  UNL     1      36.593  51.615  16.294  1.00  0.00    -0.392 OA
ATOM     10  H4  UNL     1      37.383  52.142  16.324  1.00  0.00     0.210 HD
ENDBRANCH   2   9
ENDBRANCH   1   2
BRANCH   1  11
HETATM   11  O5  UNL     1      35.424  54.447  17.940  1.00  0.00    -0.390 OA
ATOM     12  H5  UNL     1      36.025  55.067  18.334  1.00  0.00     0.210 HD
ENDBRANCH   1  11
BRANCH   1  13
HETATM   13  C6  UNL     1      35.567  52.639  19.376  1.00  0.00     0.180 C 
BRANCH  13  14
HETATM   14  O6  UNL     1      35.762  51.234  19.428  1.00  0.00    -0.390 OA
ATOM     15  H6  UNL     1      36.682  51.029  19.310  1.00  0.00     0.210 HD
ENDBRANCH  13  14
BRANCH  13  16
HETATM   16  C7  UNL     1      34.175  52.966  19.750  1.00  0.00     0.173 C 
BRANCH  16  17
HETATM   17  O7  UNL     1      34.247  54.053  20.660  1.00  0.00    -0.391 OA
ATOM     18  H7  UNL     1      33.767  54.770  20.262  1.00  0.00     0.210 HD
ENDBRANCH  16  17
BRANCH  16  19
HETATM   19  C8  UNL     1      33.428  51.808  20.395  1.00  0.00     0.217 C 
BRANCH  19  20
HETATM   20  O8  UNL     1      32.803  51.106  19.426  1.00  0.00    -0.280 OA
BRANCH  20  21
HETATM   21  P1  UNL     1      32.554  49.528  19.561  1.00  0.00     0.422 P 
HETATM   22  O9  UNL     1      31.175  49.513  18.913  1.00  0.00    -0.617 OA
HETATM   23  O10 UNL     1      33.232  48.435  18.490  1.00  0.00    -0.617 OA
HETATM   24  O11 UNL     1      31.853  48.876  20.946  1.00  0.00    -0.617 OA
ENDBRANCH  20  21
ENDBRANCH  19  20
ENDBRANCH  16  19
ENDBRANCH  13  16
ENDBRANCH   1  13
TORSDOF 13
ENDMDL
