MODEL 5
REMARK VINA RESULT: -10.777974300      1.186      1.536
REMARK  10 active torsions:
REMARK  status: ('A' for Active; 'I' for Inactive)
REMARK    1  A    between atoms: C1_2  and  C2_4 
REMARK    2  A    between atoms: C5_7  and  C6_8 
REMARK    3  A    between atoms: C6_8  and  O3_9 
REMARK    4  A    between atoms: O3_9  and  C7_10 
REMARK    5  A    between atoms: C12_15  and  S1_16 
REMARK    6  A    between atoms: S1_16  and  C13_17 
REMARK    7  A    between atoms: C16_20  and  C17_21 
REMARK    8  A    between atoms: C18_22  and  C19_23 
REMARK       I    between atoms: C19_23  and  N1_25 
REMARK    9  A    between atoms: C24_31  and  C25_32 
REMARK   10  A    between atoms: C26_36  and  C27_37 
ROOT
HETATM    1  C13 UNL     1     -18.188  16.926  -5.590  1.00  0.00     0.021 A 
HETATM    2  C14 UNL     1     -18.083  18.265  -5.797  1.00  0.00     0.021 A 
HETATM    3  C15 UNL     1     -17.305  18.790  -6.801  1.00  0.00     0.013 A 
HETATM    4  C16 UNL     1     -16.601  17.943  -7.631  1.00  0.00    -0.020 A 
HETATM    5  C24 UNL     1     -16.701  16.529  -7.424  1.00  0.00     0.074 A 
HETATM    6  C26 UNL     1     -17.470  16.013  -6.435  1.00  0.00     0.080 A 
ENDROOT
BRANCH   1   7
HETATM    7  S1  UNL     1     -19.198  16.260  -4.305  1.00  0.00    -0.087 SA
BRANCH   7   8
HETATM    8  C12 UNL     1     -19.924  17.553  -3.291  1.00  0.00     0.039 A 
HETATM    9  C7  UNL     1     -21.135  18.133  -3.717  1.00  0.00     0.085 A 
HETATM   10  C8  UNL     1     -21.710  19.117  -2.965  1.00  0.00     0.038 A 
HETATM   11  C9  UNL     1     -21.090  19.537  -1.790  1.00  0.00     0.003 A 
HETATM   12  C10 UNL     1     -19.920  19.001  -1.347  1.00  0.00     0.002 A 
HETATM   13  C11 UNL     1     -19.362  18.004  -2.129  1.00  0.00     0.021 A 
BRANCH   9  14
HETATM   14  O3  UNL     1     -21.682  17.674  -4.868  1.00  0.00    -0.349 OA
BRANCH  14  15
HETATM   15  C6  UNL     1     -21.852  18.318  -6.070  1.00  0.00     0.180 C 
BRANCH  15  16
HETATM   16  C5  UNL     1     -23.265  18.743  -6.333  1.00  0.00     0.010 C 
HETATM   17  C4  UNL     1     -23.366  20.207  -5.925  1.00  0.00     0.007 C 
HETATM   18  C3  UNL     1     -22.590  21.113  -6.832  1.00  0.00     0.016 C 
HETATM   19  C2  UNL     1     -22.927  20.906  -8.290  1.00  0.00     0.087 C 
HETATM   20  C29 UNL     1     -24.008  19.860  -8.459  1.00  0.00     0.016 C 
HETATM   21  C28 UNL     1     -23.607  18.567  -7.800  1.00  0.00     0.007 C 
BRANCH  19  22
HETATM   22  C1  UNL     1     -23.469  22.177  -8.835  1.00  0.00     0.177 C 
HETATM   23  O1  UNL     1     -24.367  22.200  -9.713  1.00  0.00    -0.648 OA
HETATM   24  O2  UNL     1     -22.981  23.386  -8.375  1.00  0.00    -0.648 OA
ENDBRANCH  19  22
ENDBRANCH  15  16
ENDBRANCH  14  15
ENDBRANCH   9  14
ENDBRANCH   7   8
ENDBRANCH   1   7
BRANCH   6  25
HETATM   25  C27 UNL     1     -17.675  14.599  -6.134  1.00  0.00     0.419 C 
HETATM   26  F4  UNL     1     -16.493  14.200  -5.417  1.00  0.00    -0.166 F 
HETATM   27  F5  UNL     1     -17.582  13.827  -7.318  1.00  0.00    -0.166 F 
HETATM   28  F6  UNL     1     -18.678  14.174  -5.366  1.00  0.00    -0.166 F 
ENDBRANCH   6  25
BRANCH   5  29
HETATM   29  C25 UNL     1     -15.899  15.732  -8.364  1.00  0.00     0.419 C 
HETATM   30  F1  UNL     1     -15.098  16.323  -9.247  1.00  0.00    -0.166 F 
HETATM   31  F2  UNL     1     -15.099  14.805  -7.645  1.00  0.00    -0.166 F 
HETATM   32  F3  UNL     1     -16.762  14.909  -9.132  1.00  0.00    -0.166 F 
ENDBRANCH   5  29
BRANCH   4  33
HETATM   33  C17 UNL     1     -15.780  18.483  -8.687  1.00  0.00     0.018 C 
HETATM   34  C18 UNL     1     -15.274  19.700  -8.640  1.00  0.00     0.075 C 
BRANCH  34  35
HETATM   35  C19 UNL     1     -14.436  20.220  -9.743  1.00  0.00     0.243 C 
HETATM   36  O4  UNL     1     -13.536  19.390 -10.145  1.00  0.00    -0.268 OA
HETATM   37  N1  UNL     1     -14.563  21.476 -10.329  1.00  0.00    -0.345 N 
HETATM   38  C20 UNL     1     -15.544  22.427  -9.900  1.00  0.00     0.152 C 
HETATM   39  C23 UNL     1     -13.673  21.822 -11.414  1.00  0.00     0.152 C 
HETATM   40  C21 UNL     1     -14.858  23.806  -9.906  1.00  0.00     0.187 C 
HETATM   41  O5  UNL     1     -14.500  24.073 -11.225  1.00  0.00    -0.388 OA
HETATM   42  C22 UNL     1     -13.349  23.291 -11.472  1.00  0.00     0.187 C 
ENDBRANCH  34  35
ENDBRANCH   4  33
TORSDOF 10
ENDMDL
