MODEL 17
REMARK VINA RESULT: -9.077280538      3.663      8.165
REMARK  10 active torsions:
REMARK  status: ('A' for Active; 'I' for Inactive)
REMARK    1  A    between atoms: C1_2  and  C2_4 
REMARK    2  A    between atoms: C5_7  and  C6_8 
REMARK    3  A    between atoms: C6_8  and  O3_9 
REMARK    4  A    between atoms: O3_9  and  C7_10 
REMARK    5  A    between atoms: C12_15  and  S1_16 
REMARK    6  A    between atoms: S1_16  and  C13_17 
REMARK    7  A    between atoms: C16_20  and  C17_21 
REMARK    8  A    between atoms: C18_22  and  C19_23 
REMARK       I    between atoms: C19_23  and  N1_25 
REMARK    9  A    between atoms: C24_31  and  C25_32 
REMARK   10  A    between atoms: C26_36  and  C27_37 
ROOT
HETATM    1  C13 UNL     1     -19.094  19.246  -7.050  1.00  0.00     0.021 A 
HETATM    2  C14 UNL     1     -19.151  20.001  -8.180  1.00  0.00     0.021 A 
HETATM    3  C15 UNL     1     -20.318  20.585  -8.610  1.00  0.00     0.013 A 
HETATM    4  C16 UNL     1     -21.477  20.408  -7.883  1.00  0.00    -0.020 A 
HETATM    5  C24 UNL     1     -21.433  19.614  -6.691  1.00  0.00     0.074 A 
HETATM    6  C26 UNL     1     -20.281  19.039  -6.268  1.00  0.00     0.080 A 
ENDROOT
BRANCH   1   7
HETATM    7  S1  UNL     1     -17.589  18.507  -6.500  1.00  0.00    -0.087 SA
BRANCH   7   8
HETATM    8  C12 UNL     1     -17.036  17.213  -7.617  1.00  0.00     0.039 A 
HETATM    9  C7  UNL     1     -15.930  17.480  -8.449  1.00  0.00     0.085 A 
HETATM   10  C8  UNL     1     -15.487  16.514  -9.307  1.00  0.00     0.038 A 
HETATM   11  C9  UNL     1     -16.135  15.281  -9.350  1.00  0.00     0.003 A 
HETATM   12  C10 UNL     1     -17.205  14.988  -8.562  1.00  0.00     0.002 A 
HETATM   13  C11 UNL     1     -17.631  15.985  -7.701  1.00  0.00     0.021 A 
BRANCH   9  14
HETATM   14  O3  UNL     1     -15.348  18.699  -8.351  1.00  0.00    -0.349 OA
BRANCH  14  15
HETATM   15  C6  UNL     1     -14.307  19.228  -9.075  1.00  0.00     0.180 C 
BRANCH  15  16
HETATM   16  C5  UNL     1     -14.741  19.976 -10.300  1.00  0.00     0.010 C 
HETATM   17  C4  UNL     1     -15.897  20.874  -9.879  1.00  0.00     0.007 C 
HETATM   18  C3  UNL     1     -15.461  21.984  -8.971  1.00  0.00     0.016 C 
HETATM   19  C2  UNL     1     -14.302  22.775  -9.530  1.00  0.00     0.087 C 
HETATM   20  C29 UNL     1     -13.904  22.268 -10.900  1.00  0.00     0.016 C 
HETATM   21  C28 UNL     1     -13.593  20.796 -10.855  1.00  0.00     0.007 C 
BRANCH  19  22
HETATM   22  C1  UNL     1     -14.730  24.186  -9.701  1.00  0.00     0.177 C 
HETATM   23  O1  UNL     1     -14.393  24.873 -10.696  1.00  0.00    -0.648 OA
HETATM   24  O2  UNL     1     -15.527  24.784  -8.741  1.00  0.00    -0.648 OA
ENDBRANCH  19  22
ENDBRANCH  15  16
ENDBRANCH  14  15
ENDBRANCH   9  14
ENDBRANCH   7   8
ENDBRANCH   1   7
BRANCH   6  25
HETATM   25  C27 UNL     1     -20.096  18.231  -5.066  1.00  0.00     0.419 C 
HETATM   26  F4  UNL     1     -20.677  19.012  -4.005  1.00  0.00    -0.166 F 
HETATM   27  F5  UNL     1     -18.728  18.201  -4.701  1.00  0.00    -0.166 F 
HETATM   28  F6  UNL     1     -20.654  17.029  -4.925  1.00  0.00    -0.166 F 
ENDBRANCH   6  25
BRANCH   5  29
HETATM   29  C25 UNL     1     -22.729  19.491  -6.010  1.00  0.00     0.419 C 
HETATM   30  F1  UNL     1     -22.996  18.442  -5.235  1.00  0.00    -0.166 F 
HETATM   31  F2  UNL     1     -22.971  20.649  -5.225  1.00  0.00    -0.166 F 
HETATM   32  F3  UNL     1     -23.768  19.516  -6.976  1.00  0.00    -0.166 F 
ENDBRANCH   5  29
BRANCH   4  33
HETATM   33  C17 UNL     1     -22.708  21.016  -8.325  1.00  0.00     0.018 C 
HETATM   34  C18 UNL     1     -22.834  22.317  -8.500  1.00  0.00     0.075 C 
BRANCH  34  35
HETATM   35  C19 UNL     1     -24.112  22.905  -8.954  1.00  0.00     0.243 C 
HETATM   36  O4  UNL     1     -24.421  22.600 -10.167  1.00  0.00    -0.268 OA
HETATM   37  N1  UNL     1     -24.944  23.716  -8.187  1.00  0.00    -0.345 N 
HETATM   38  C20 UNL     1     -24.628  24.083  -6.840  1.00  0.00     0.152 C 
HETATM   39  C23 UNL     1     -26.174  24.194  -8.777  1.00  0.00     0.152 C 
HETATM   40  C21 UNL     1     -25.019  25.565  -6.680  1.00  0.00     0.187 C 
HETATM   41  O5  UNL     1     -26.396  25.641  -6.869  1.00  0.00    -0.388 OA
HETATM   42  C22 UNL     1     -26.594  25.546  -8.265  1.00  0.00     0.187 C 
ENDBRANCH  34  35
ENDBRANCH   4  33
TORSDOF 10
ENDMDL
