MODEL 3
REMARK VINA RESULT: -11.186436300      0.862      1.155
REMARK  10 active torsions:
REMARK  status: ('A' for Active; 'I' for Inactive)
REMARK    1  A    between atoms: C1_2  and  C2_4 
REMARK    2  A    between atoms: C5_7  and  C6_8 
REMARK    3  A    between atoms: C6_8  and  O3_9 
REMARK    4  A    between atoms: O3_9  and  C7_10 
REMARK    5  A    between atoms: C12_15  and  S1_16 
REMARK    6  A    between atoms: S1_16  and  C13_17 
REMARK    7  A    between atoms: C16_20  and  C17_21 
REMARK    8  A    between atoms: C18_22  and  C19_23 
REMARK       I    between atoms: C19_23  and  N1_25 
REMARK    9  A    between atoms: C24_31  and  C25_32 
REMARK   10  A    between atoms: C26_36  and  C27_37 
ROOT
HETATM    1  C13 UNL     1     -18.404  16.989  -5.313  1.00  0.00     0.021 A 
HETATM    2  C14 UNL     1     -18.271  18.308  -5.615  1.00  0.00     0.021 A 
HETATM    3  C15 UNL     1     -17.455  18.745  -6.632  1.00  0.00     0.013 A 
HETATM    4  C16 UNL     1     -16.743  17.829  -7.376  1.00  0.00    -0.020 A 
HETATM    5  C24 UNL     1     -16.872  16.435  -7.068  1.00  0.00     0.074 A 
HETATM    6  C26 UNL     1     -17.678  16.005  -6.067  1.00  0.00     0.080 A 
ENDROOT
BRANCH   1   7
HETATM    7  S1  UNL     1     -19.461  16.435  -4.013  1.00  0.00    -0.087 SA
BRANCH   7   8
HETATM    8  C12 UNL     1     -20.359  17.797  -3.260  1.00  0.00     0.039 A 
HETATM    9  C7  UNL     1     -21.519  18.269  -3.908  1.00  0.00     0.085 A 
HETATM   10  C8  UNL     1     -22.222  19.301  -3.357  1.00  0.00     0.038 A 
HETATM   11  C9  UNL     1     -21.783  19.876  -2.166  1.00  0.00     0.003 A 
HETATM   12  C10 UNL     1     -20.669  19.448  -1.514  1.00  0.00     0.002 A 
HETATM   13  C11 UNL     1     -19.976  18.399  -2.094  1.00  0.00     0.021 A 
BRANCH   9  14
HETATM   14  O3  UNL     1     -21.887  17.660  -5.060  1.00  0.00    -0.349 OA
BRANCH  14  15
HETATM   15  C6  UNL     1     -22.939  17.944  -5.898  1.00  0.00     0.180 C 
BRANCH  15  16
HETATM   16  C5  UNL     1     -22.542  18.098  -7.335  1.00  0.00     0.010 C 
HETATM   17  C4  UNL     1     -23.770  18.609  -8.077  1.00  0.00     0.007 C 
HETATM   18  C3  UNL     1     -24.129  20.014  -7.697  1.00  0.00     0.016 C 
HETATM   19  C2  UNL     1     -22.961  20.965  -7.810  1.00  0.00     0.087 C 
HETATM   20  C29 UNL     1     -21.728  20.258  -8.329  1.00  0.00     0.016 C 
HETATM   21  C28 UNL     1     -21.388  19.073  -7.465  1.00  0.00     0.007 C 
BRANCH  19  22
HETATM   22  C1  UNL     1     -23.303  22.018  -8.801  1.00  0.00     0.177 C 
HETATM   23  O1  UNL     1     -24.260  21.896  -9.604  1.00  0.00    -0.648 OA
HETATM   24  O2  UNL     1     -22.554  23.179  -8.857  1.00  0.00    -0.648 OA
ENDBRANCH  19  22
ENDBRANCH  15  16
ENDBRANCH  14  15
ENDBRANCH   9  14
ENDBRANCH   7   8
ENDBRANCH   1   7
BRANCH   6  25
HETATM   25  C27 UNL     1     -17.915  14.621  -5.668  1.00  0.00     0.419 C 
HETATM   26  F4  UNL     1     -19.323  14.558  -5.378  1.00  0.00    -0.166 F 
HETATM   27  F5  UNL     1     -17.337  14.371  -4.399  1.00  0.00    -0.166 F 
HETATM   28  F6  UNL     1     -17.709  13.597  -6.496  1.00  0.00    -0.166 F 
ENDBRANCH   6  25
BRANCH   5  29
HETATM   29  C25 UNL     1     -16.058  15.559  -7.923  1.00  0.00     0.419 C 
HETATM   30  F1  UNL     1     -15.208  16.070  -8.810  1.00  0.00    -0.166 F 
HETATM   31  F2  UNL     1     -15.311  14.661  -7.115  1.00  0.00    -0.166 F 
HETATM   32  F3  UNL     1     -16.914  14.709  -8.670  1.00  0.00    -0.166 F 
ENDBRANCH   5  29
BRANCH   4  33
HETATM   33  C17 UNL     1     -15.883  18.276  -8.445  1.00  0.00     0.018 C 
HETATM   34  C18 UNL     1     -15.316  19.467  -8.448  1.00  0.00     0.075 C 
BRANCH  34  35
HETATM   35  C19 UNL     1     -14.441  19.892  -9.561  1.00  0.00     0.243 C 
HETATM   36  O4  UNL     1     -13.584  18.997  -9.916  1.00  0.00    -0.268 OA
HETATM   37  N1  UNL     1     -14.493  21.126 -10.203  1.00  0.00    -0.345 N 
HETATM   38  C20 UNL     1     -15.425  22.146  -9.828  1.00  0.00     0.152 C 
HETATM   39  C23 UNL     1     -13.575  21.376 -11.291  1.00  0.00     0.152 C 
HETATM   40  C21 UNL     1     -14.665  23.485  -9.885  1.00  0.00     0.187 C 
HETATM   41  O5  UNL     1     -14.280  23.674 -11.210  1.00  0.00    -0.388 OA
HETATM   42  C22 UNL     1     -13.171  22.821 -11.409  1.00  0.00     0.187 C 
ENDBRANCH  34  35
ENDBRANCH   4  33
TORSDOF 10
ENDMDL
