MODEL 2
REMARK VINA RESULT: -11.484602429      0.391      1.070
REMARK  10 active torsions:
REMARK  status: ('A' for Active; 'I' for Inactive)
REMARK    1  A    between atoms: C1_2  and  C2_4 
REMARK    2  A    between atoms: C5_7  and  C6_8 
REMARK    3  A    between atoms: C6_8  and  O3_9 
REMARK    4  A    between atoms: O3_9  and  C7_10 
REMARK    5  A    between atoms: C12_15  and  S1_16 
REMARK    6  A    between atoms: S1_16  and  C13_17 
REMARK    7  A    between atoms: C16_20  and  C17_21 
REMARK    8  A    between atoms: C18_22  and  C19_23 
REMARK       I    between atoms: C19_23  and  N1_25 
REMARK    9  A    between atoms: C24_31  and  C25_32 
REMARK   10  A    between atoms: C26_36  and  C27_37 
ROOT
HETATM    1  C13 UNL     1     -18.416  17.014  -5.645  1.00  0.00     0.021 A 
HETATM    2  C14 UNL     1     -18.339  18.338  -5.939  1.00  0.00     0.021 A 
HETATM    3  C15 UNL     1     -17.497  18.822  -6.912  1.00  0.00     0.013 A 
HETATM    4  C16 UNL     1     -16.698  17.948  -7.619  1.00  0.00    -0.020 A 
HETATM    5  C24 UNL     1     -16.768  16.548  -7.318  1.00  0.00     0.074 A 
HETATM    6  C26 UNL     1     -17.600  16.073  -6.360  1.00  0.00     0.080 A 
ENDROOT
BRANCH   1   7
HETATM    7  S1  UNL     1     -19.508  16.400  -4.401  1.00  0.00    -0.087 SA
BRANCH   7   8
HETATM    8  C12 UNL     1     -20.184  17.726  -3.396  1.00  0.00     0.039 A 
HETATM    9  C7  UNL     1     -21.306  18.426  -3.885  1.00  0.00     0.085 A 
HETATM   10  C8  UNL     1     -21.842  19.438  -3.141  1.00  0.00     0.038 A 
HETATM   11  C9  UNL     1     -21.272  19.767  -1.912  1.00  0.00     0.003 A 
HETATM   12  C10 UNL     1     -20.189  19.114  -1.409  1.00  0.00     0.002 A 
HETATM   13  C11 UNL     1     -19.668  18.091  -2.184  1.00  0.00     0.021 A 
BRANCH   9  14
HETATM   14  O3  UNL     1     -21.808  18.051  -5.085  1.00  0.00    -0.349 OA
BRANCH  14  15
HETATM   15  C6  UNL     1     -23.053  18.280  -5.618  1.00  0.00     0.180 C 
BRANCH  15  16
HETATM   16  C5  UNL     1     -23.052  18.443  -7.109  1.00  0.00     0.010 C 
HETATM   17  C4  UNL     1     -23.363  19.907  -7.390  1.00  0.00     0.007 C 
HETATM   18  C3  UNL     1     -22.252  20.822  -6.971  1.00  0.00     0.016 C 
HETATM   19  C2  UNL     1     -20.913  20.409  -7.534  1.00  0.00     0.087 C 
HETATM   20  C29 UNL     1     -21.045  19.192  -8.424  1.00  0.00     0.016 C 
HETATM   21  C28 UNL     1     -21.703  18.058  -7.683  1.00  0.00     0.007 C 
BRANCH  19  22
HETATM   22  C1  UNL     1     -20.397  21.511  -8.386  1.00  0.00     0.177 C 
HETATM   23  O1  UNL     1     -19.209  21.544  -8.792  1.00  0.00    -0.648 OA
HETATM   24  O2  UNL     1     -21.236  22.546  -8.755  1.00  0.00    -0.648 OA
ENDBRANCH  19  22
ENDBRANCH  15  16
ENDBRANCH  14  15
ENDBRANCH   9  14
ENDBRANCH   7   8
ENDBRANCH   1   7
BRANCH   6  25
HETATM   25  C27 UNL     1     -17.783  14.676  -5.974  1.00  0.00     0.419 C 
HETATM   26  F4  UNL     1     -16.714  14.407  -5.049  1.00  0.00    -0.166 F 
HETATM   27  F5  UNL     1     -17.462  13.823  -7.059  1.00  0.00    -0.166 F 
HETATM   28  F6  UNL     1     -18.875  14.251  -5.340  1.00  0.00    -0.166 F 
ENDBRANCH   6  25
BRANCH   5  29
HETATM   29  C25 UNL     1     -15.865  15.720  -8.129  1.00  0.00     0.419 C 
HETATM   30  F1  UNL     1     -15.116  14.774  -7.566  1.00  0.00    -0.166 F 
HETATM   31  F2  UNL     1     -16.597  15.092  -9.172  1.00  0.00    -0.166 F 
HETATM   32  F3  UNL     1     -14.952  16.560  -8.817  1.00  0.00    -0.166 F 
ENDBRANCH   5  29
BRANCH   4  33
HETATM   33  C17 UNL     1     -15.810  18.444  -8.641  1.00  0.00     0.018 C 
HETATM   34  C18 UNL     1     -15.521  19.725  -8.769  1.00  0.00     0.075 C 
BRANCH  34  35
HETATM   35  C19 UNL     1     -14.606  20.197  -9.830  1.00  0.00     0.243 C 
HETATM   36  O4  UNL     1     -13.682  19.350 -10.132  1.00  0.00    -0.268 OA
HETATM   37  N1  UNL     1     -14.687  21.427 -10.476  1.00  0.00    -0.345 N 
HETATM   38  C20 UNL     1     -15.693  22.395 -10.159  1.00  0.00     0.152 C 
HETATM   39  C23 UNL     1     -13.721  21.727 -11.509  1.00  0.00     0.152 C 
HETATM   40  C21 UNL     1     -15.003  23.773 -10.174  1.00  0.00     0.187 C 
HETATM   41  O5  UNL     1     -14.552  23.984 -11.474  1.00  0.00    -0.388 OA
HETATM   42  C22 UNL     1     -13.389  23.192 -11.606  1.00  0.00     0.187 C 
ENDBRANCH  34  35
ENDBRANCH   4  33
TORSDOF 10
ENDMDL
