MODEL 4
REMARK VINA RESULT: -10.925414057      1.168      1.729
REMARK  10 active torsions:
REMARK  status: ('A' for Active; 'I' for Inactive)
REMARK    1  A    between atoms: C1_2  and  C2_4 
REMARK    2  A    between atoms: C5_7  and  C6_8 
REMARK    3  A    between atoms: C6_8  and  O3_9 
REMARK    4  A    between atoms: O3_9  and  C7_10 
REMARK    5  A    between atoms: C12_15  and  S1_16 
REMARK    6  A    between atoms: S1_16  and  C13_17 
REMARK    7  A    between atoms: C16_20  and  C17_21 
REMARK    8  A    between atoms: C18_22  and  C19_23 
REMARK       I    between atoms: C19_23  and  N1_25 
REMARK    9  A    between atoms: C24_31  and  C25_32 
REMARK   10  A    between atoms: C26_36  and  C27_37 
ROOT
HETATM    1  C13 UNL     1     -17.790  16.816  -5.837  1.00  0.00     0.021 A 
HETATM    2  C14 UNL     1     -17.708  18.168  -5.945  1.00  0.00     0.021 A 
HETATM    3  C15 UNL     1     -17.013  18.778  -6.962  1.00  0.00     0.013 A 
HETATM    4  C16 UNL     1     -16.372  18.006  -7.908  1.00  0.00    -0.020 A 
HETATM    5  C24 UNL     1     -16.449  16.579  -7.806  1.00  0.00     0.074 A 
HETATM    6  C26 UNL     1     -17.136  15.979  -6.803  1.00  0.00     0.080 A 
ENDROOT
BRANCH   1   7
HETATM    7  S1  UNL     1     -18.694  16.040  -4.533  1.00  0.00    -0.087 SA
BRANCH   7   8
HETATM    8  C12 UNL     1     -19.755  17.208  -3.674  1.00  0.00     0.039 A 
HETATM    9  C7  UNL     1     -20.985  17.553  -4.269  1.00  0.00     0.085 A 
HETATM   10  C8  UNL     1     -21.812  18.437  -3.637  1.00  0.00     0.038 A 
HETATM   11  C9  UNL     1     -21.427  18.987  -2.415  1.00  0.00     0.003 A 
HETATM   12  C10 UNL     1     -20.248  18.678  -1.811  1.00  0.00     0.002 A 
HETATM   13  C11 UNL     1     -19.431  17.778  -2.474  1.00  0.00     0.021 A 
BRANCH   9  14
HETATM   14  O3  UNL     1     -21.293  16.977  -5.455  1.00  0.00    -0.349 OA
BRANCH  14  15
HETATM   15  C6  UNL     1     -22.108  17.437  -6.461  1.00  0.00     0.180 C 
BRANCH  15  16
HETATM   16  C5  UNL     1     -21.367  18.103  -7.581  1.00  0.00     0.010 C 
HETATM   17  C4  UNL     1     -22.378  18.341  -8.695  1.00  0.00     0.007 C 
HETATM   18  C3  UNL     1     -23.399  19.377  -8.334  1.00  0.00     0.016 C 
HETATM   19  C2  UNL     1     -22.777  20.665  -7.847  1.00  0.00     0.087 C 
HETATM   20  C29 UNL     1     -21.266  20.595  -7.895  1.00  0.00     0.016 C 
HETATM   21  C28 UNL     1     -20.761  19.412  -7.113  1.00  0.00     0.007 C 
BRANCH  19  22
HETATM   22  C1  UNL     1     -23.187  21.762  -8.760  1.00  0.00     0.177 C 
HETATM   23  O1  UNL     1     -24.216  21.689  -9.476  1.00  0.00    -0.648 OA
HETATM   24  O2  UNL     1     -22.423  22.912  -8.840  1.00  0.00    -0.648 OA
ENDBRANCH  19  22
ENDBRANCH  15  16
ENDBRANCH  14  15
ENDBRANCH   9  14
ENDBRANCH   7   8
ENDBRANCH   1   7
BRANCH   6  25
HETATM   25  C27 UNL     1     -17.311  14.544  -6.599  1.00  0.00     0.419 C 
HETATM   26  F4  UNL     1     -16.000  14.059  -6.257  1.00  0.00    -0.166 F 
HETATM   27  F5  UNL     1     -17.555  13.899  -7.837  1.00  0.00    -0.166 F 
HETATM   28  F6  UNL     1     -18.098  14.052  -5.642  1.00  0.00    -0.166 F 
ENDBRANCH   6  25
BRANCH   5  29
HETATM   29  C25 UNL     1     -15.720  15.866  -8.865  1.00  0.00     0.419 C 
HETATM   30  F1  UNL     1     -14.755  15.000  -8.564  1.00  0.00    -0.166 F 
HETATM   31  F2  UNL     1     -16.639  15.178  -9.700  1.00  0.00    -0.166 F 
HETATM   32  F3  UNL     1     -15.117  16.812  -9.733  1.00  0.00    -0.166 F 
ENDBRANCH   5  29
BRANCH   4  33
HETATM   33  C17 UNL     1     -15.639  18.635  -8.980  1.00  0.00     0.018 C 
HETATM   34  C18 UNL     1     -15.433  19.937  -9.029  1.00  0.00     0.075 C 
BRANCH  34  35
HETATM   35  C19 UNL     1     -14.677  20.547 -10.144  1.00  0.00     0.243 C 
HETATM   36  O4  UNL     1     -13.642  19.866 -10.501  1.00  0.00    -0.268 OA
HETATM   37  N1  UNL     1     -15.004  21.738 -10.785  1.00  0.00    -0.345 N 
HETATM   38  C20 UNL     1     -16.140  22.524 -10.408  1.00  0.00     0.152 C 
HETATM   39  C23 UNL     1     -14.167  22.187 -11.874  1.00  0.00     0.152 C 
HETATM   40  C21 UNL     1     -15.698  23.999 -10.465  1.00  0.00     0.187 C 
HETATM   41  O5  UNL     1     -15.367  24.269 -11.790  1.00  0.00    -0.388 OA
HETATM   42  C22 UNL     1     -14.096  23.686 -11.992  1.00  0.00     0.187 C 
ENDBRANCH  34  35
ENDBRANCH   4  33
TORSDOF 10
ENDMDL
