MODEL 1
REMARK VINA RESULT: -11.917921484      0.000      0.000
REMARK  10 active torsions:
REMARK  status: ('A' for Active; 'I' for Inactive)
REMARK    1  A    between atoms: C1_2  and  C2_4 
REMARK    2  A    between atoms: C5_7  and  C6_8 
REMARK    3  A    between atoms: C6_8  and  O3_9 
REMARK    4  A    between atoms: O3_9  and  C7_10 
REMARK    5  A    between atoms: C12_15  and  S1_16 
REMARK    6  A    between atoms: S1_16  and  C13_17 
REMARK    7  A    between atoms: C16_20  and  C17_21 
REMARK    8  A    between atoms: C18_22  and  C19_23 
REMARK       I    between atoms: C19_23  and  N1_25 
REMARK    9  A    between atoms: C24_31  and  C25_32 
REMARK   10  A    between atoms: C26_36  and  C27_37 
ROOT
HETATM    1  C13 UNL     1     -18.390  16.963  -5.345  1.00  0.00     0.021 A 
HETATM    2  C14 UNL     1     -18.241  18.284  -5.628  1.00  0.00     0.021 A 
HETATM    3  C15 UNL     1     -17.408  18.728  -6.626  1.00  0.00     0.013 A 
HETATM    4  C16 UNL     1     -16.692  17.815  -7.373  1.00  0.00    -0.020 A 
HETATM    5  C24 UNL     1     -16.837  16.419  -7.085  1.00  0.00     0.074 A 
HETATM    6  C26 UNL     1     -17.661  15.983  -6.101  1.00  0.00     0.080 A 
ENDROOT
BRANCH   1   7
HETATM    7  S1  UNL     1     -19.470  16.401  -4.067  1.00  0.00    -0.087 SA
BRANCH   7   8
HETATM    8  C12 UNL     1     -20.250  17.771  -3.206  1.00  0.00     0.039 A 
HETATM    9  C7  UNL     1     -21.410  18.339  -3.770  1.00  0.00     0.085 A 
HETATM   10  C8  UNL     1     -22.024  19.380  -3.136  1.00  0.00     0.038 A 
HETATM   11  C9  UNL     1     -21.495  19.869  -1.942  1.00  0.00     0.003 A 
HETATM   12  C10 UNL     1     -20.378  19.346  -1.368  1.00  0.00     0.002 A 
HETATM   13  C11 UNL     1     -19.777  18.290  -2.032  1.00  0.00     0.021 A 
BRANCH   9  14
HETATM   14  O3  UNL     1     -21.868  17.812  -4.930  1.00  0.00    -0.349 OA
BRANCH  14  15
HETATM   15  C6  UNL     1     -23.028  18.086  -5.613  1.00  0.00     0.180 C 
BRANCH  15  16
HETATM   16  C5  UNL     1     -22.860  18.117  -7.103  1.00  0.00     0.010 C 
HETATM   17  C4  UNL     1     -23.216  19.527  -7.555  1.00  0.00     0.007 C 
HETATM   18  C3  UNL     1     -22.213  20.546  -7.104  1.00  0.00     0.016 C 
HETATM   19  C2  UNL     1     -20.796  20.172  -7.471  1.00  0.00     0.087 C 
HETATM   20  C29 UNL     1     -20.756  18.875  -8.250  1.00  0.00     0.016 C 
HETATM   21  C28 UNL     1     -21.434  17.771  -7.483  1.00  0.00     0.007 C 
BRANCH  19  22
HETATM   22  C1  UNL     1     -20.244  21.226  -8.361  1.00  0.00     0.177 C 
HETATM   23  O1  UNL     1     -20.928  22.210  -8.737  1.00  0.00    -0.648 OA
HETATM   24  O2  UNL     1     -18.937  21.138  -8.802  1.00  0.00    -0.648 OA
ENDBRANCH  19  22
ENDBRANCH  15  16
ENDBRANCH  14  15
ENDBRANCH   9  14
ENDBRANCH   7   8
ENDBRANCH   1   7
BRANCH   6  25
HETATM   25  C27 UNL     1     -17.915  14.596  -5.724  1.00  0.00     0.419 C 
HETATM   26  F4  UNL     1     -19.323  14.546  -5.432  1.00  0.00    -0.166 F 
HETATM   27  F5  UNL     1     -17.338  14.318  -4.460  1.00  0.00    -0.166 F 
HETATM   28  F6  UNL     1     -17.724  13.583  -6.569  1.00  0.00    -0.166 F 
ENDBRANCH   6  25
BRANCH   5  29
HETATM   29  C25 UNL     1     -16.018  15.547  -7.939  1.00  0.00     0.419 C 
HETATM   30  F1  UNL     1     -15.172  16.063  -8.828  1.00  0.00    -0.166 F 
HETATM   31  F2  UNL     1     -15.265  14.655  -7.131  1.00  0.00    -0.166 F 
HETATM   32  F3  UNL     1     -16.868  14.691  -8.684  1.00  0.00    -0.166 F 
ENDBRANCH   5  29
BRANCH   4  33
HETATM   33  C17 UNL     1     -15.813  18.269  -8.423  1.00  0.00     0.018 C 
HETATM   34  C18 UNL     1     -15.415  19.523  -8.521  1.00  0.00     0.075 C 
BRANCH  34  35
HETATM   35  C19 UNL     1     -14.514  19.952  -9.612  1.00  0.00     0.243 C 
HETATM   36  O4  UNL     1     -13.640  19.064  -9.942  1.00  0.00    -0.268 OA
HETATM   37  N1  UNL     1     -14.559  21.185 -10.258  1.00  0.00    -0.345 N 
HETATM   38  C20 UNL     1     -15.509  22.198  -9.911  1.00  0.00     0.152 C 
HETATM   39  C23 UNL     1     -13.614  21.439 -11.323  1.00  0.00     0.152 C 
HETATM   40  C21 UNL     1     -14.759  23.543  -9.952  1.00  0.00     0.187 C 
HETATM   41  O5  UNL     1     -14.340  23.731 -11.266  1.00  0.00    -0.388 OA
HETATM   42  C22 UNL     1     -13.219  22.887 -11.433  1.00  0.00     0.187 C 
ENDBRANCH  34  35
ENDBRANCH   4  33
TORSDOF 10
ENDMDL
