MODEL 15
REMARK VINA RESULT: -9.286167096      3.782      8.157
REMARK  10 active torsions:
REMARK  status: ('A' for Active; 'I' for Inactive)
REMARK    1  A    between atoms: C1_2  and  C2_4 
REMARK    2  A    between atoms: C5_7  and  C6_8 
REMARK    3  A    between atoms: C6_8  and  O3_9 
REMARK    4  A    between atoms: O3_9  and  C7_10 
REMARK    5  A    between atoms: C12_15  and  S1_16 
REMARK    6  A    between atoms: S1_16  and  C13_17 
REMARK    7  A    between atoms: C16_20  and  C17_21 
REMARK    8  A    between atoms: C18_22  and  C19_23 
REMARK       I    between atoms: C19_23  and  N1_25 
REMARK    9  A    between atoms: C24_31  and  C25_32 
REMARK   10  A    between atoms: C26_36  and  C27_37 
ROOT
HETATM    1  C13 UNL     1     -19.600  18.441  -5.402  1.00  0.00     0.021 A 
HETATM    2  C14 UNL     1     -19.907  18.928  -6.634  1.00  0.00     0.021 A 
HETATM    3  C15 UNL     1     -21.174  19.353  -6.955  1.00  0.00     0.013 A 
HETATM    4  C16 UNL     1     -22.175  19.289  -6.009  1.00  0.00    -0.020 A 
HETATM    5  C24 UNL     1     -21.866  18.777  -4.707  1.00  0.00     0.074 A 
HETATM    6  C26 UNL     1     -20.616  18.360  -4.391  1.00  0.00     0.080 A 
ENDROOT
BRANCH   1   7
HETATM    7  S1  UNL     1     -17.968  17.907  -4.995  1.00  0.00    -0.087 SA
BRANCH   7   8
HETATM    8  C12 UNL     1     -17.661  16.226  -5.549  1.00  0.00     0.039 A 
HETATM    9  C7  UNL     1     -17.507  15.998  -6.932  1.00  0.00     0.085 A 
HETATM   10  C8  UNL     1     -17.271  14.730  -7.381  1.00  0.00     0.038 A 
HETATM   11  C9  UNL     1     -17.189  13.680  -6.469  1.00  0.00     0.003 A 
HETATM   12  C10 UNL     1     -17.332  13.862  -5.128  1.00  0.00     0.002 A 
HETATM   13  C11 UNL     1     -17.569  15.158  -4.701  1.00  0.00     0.021 A 
BRANCH   9  14
HETATM   14  O3  UNL     1     -17.597  17.066  -7.759  1.00  0.00    -0.349 OA
BRANCH  14  15
HETATM   15  C6  UNL     1     -16.608  17.707  -8.465  1.00  0.00     0.180 C 
BRANCH  15  16
HETATM   16  C5  UNL     1     -16.349  19.111  -8.005  1.00  0.00     0.010 C 
HETATM   17  C4  UNL     1     -14.845  19.332  -8.096  1.00  0.00     0.007 C 
HETATM   18  C3  UNL     1     -14.354  19.369  -9.511  1.00  0.00     0.016 C 
HETATM   19  C2  UNL     1     -15.124  20.344 -10.371  1.00  0.00     0.087 C 
HETATM   20  C29 UNL     1     -16.174  21.075  -9.562  1.00  0.00     0.016 C 
HETATM   21  C28 UNL     1     -17.095  20.101  -8.878  1.00  0.00     0.007 C 
BRANCH  19  22
HETATM   22  C1  UNL     1     -14.181  21.371 -10.882  1.00  0.00     0.177 C 
HETATM   23  O1  UNL     1     -13.884  22.396 -10.220  1.00  0.00    -0.648 OA
HETATM   24  O2  UNL     1     -13.601  21.214 -12.127  1.00  0.00    -0.648 OA
ENDBRANCH  19  22
ENDBRANCH  15  16
ENDBRANCH  14  15
ENDBRANCH   9  14
ENDBRANCH   7   8
ENDBRANCH   1   7
BRANCH   6  25
HETATM   25  C27 UNL     1     -20.166  17.843  -3.101  1.00  0.00     0.419 C 
HETATM   26  F4  UNL     1     -20.771  16.542  -2.996  1.00  0.00    -0.166 F 
HETATM   27  F5  UNL     1     -20.790  18.550  -2.045  1.00  0.00    -0.166 F 
HETATM   28  F6  UNL     1     -18.879  17.624  -2.833  1.00  0.00    -0.166 F 
ENDBRANCH   6  25
BRANCH   5  29
HETATM   29  C25 UNL     1     -23.014  18.750  -3.790  1.00  0.00     0.419 C 
HETATM   30  F1  UNL     1     -23.105  17.824  -2.838  1.00  0.00    -0.166 F 
HETATM   31  F2  UNL     1     -23.144  20.009  -3.146  1.00  0.00    -0.166 F 
HETATM   32  F3  UNL     1     -24.210  18.631  -4.543  1.00  0.00    -0.166 F 
ENDBRANCH   5  29
BRANCH   4  33
HETATM   33  C17 UNL     1     -23.509  19.731  -6.335  1.00  0.00     0.018 C 
HETATM   34  C18 UNL     1     -23.767  20.953  -6.759  1.00  0.00     0.075 C 
BRANCH  34  35
HETATM   35  C19 UNL     1     -25.148  21.371  -7.083  1.00  0.00     0.243 C 
HETATM   36  O4  UNL     1     -25.662  20.734  -8.079  1.00  0.00    -0.268 OA
HETATM   37  N1  UNL     1     -25.872  22.353  -6.412  1.00  0.00    -0.345 N 
HETATM   38  C20 UNL     1     -25.329  23.087  -5.309  1.00  0.00     0.152 C 
HETATM   39  C23 UNL     1     -27.223  22.628  -6.845  1.00  0.00     0.152 C 
HETATM   40  C21 UNL     1     -25.786  24.548  -5.481  1.00  0.00     0.187 C 
HETATM   41  O5  UNL     1     -27.175  24.548  -5.398  1.00  0.00    -0.388 OA
HETATM   42  C22 UNL     1     -27.632  24.063  -6.644  1.00  0.00     0.187 C 
ENDBRANCH  34  35
ENDBRANCH   4  33
TORSDOF 10
ENDMDL
