MODEL 18
REMARK VINA RESULT: -9.076090895      2.529      4.704
REMARK  10 active torsions:
REMARK  status: ('A' for Active; 'I' for Inactive)
REMARK    1  A    between atoms: C1_2  and  C2_4 
REMARK    2  A    between atoms: C5_7  and  C6_8 
REMARK    3  A    between atoms: C6_8  and  O3_9 
REMARK    4  A    between atoms: O3_9  and  C7_10 
REMARK    5  A    between atoms: C12_15  and  S1_16 
REMARK    6  A    between atoms: S1_16  and  C13_17 
REMARK    7  A    between atoms: C16_20  and  C17_21 
REMARK    8  A    between atoms: C18_22  and  C19_23 
REMARK       I    between atoms: C19_23  and  N1_25 
REMARK    9  A    between atoms: C24_31  and  C25_32 
REMARK   10  A    between atoms: C26_36  and  C27_37 
ROOT
HETATM    1  C13 UNL     1     -18.841  20.039  -8.188  1.00  0.00     0.021 A 
HETATM    2  C14 UNL     1     -18.852  21.078  -9.066  1.00  0.00     0.021 A 
HETATM    3  C15 UNL     1     -17.737  21.441  -9.783  1.00  0.00     0.013 A 
HETATM    4  C16 UNL     1     -16.561  20.739  -9.615  1.00  0.00    -0.020 A 
HETATM    5  C24 UNL     1     -16.534  19.643  -8.693  1.00  0.00     0.074 A 
HETATM    6  C26 UNL     1     -17.635  19.285  -7.988  1.00  0.00     0.080 A 
ENDROOT
BRANCH   1   7
HETATM    7  S1  UNL     1     -20.280  19.574  -7.280  1.00  0.00    -0.087 SA
BRANCH   7   8
HETATM    8  C12 UNL     1     -21.525  20.869  -7.296  1.00  0.00     0.039 A 
HETATM    9  C7  UNL     1     -22.322  21.041  -6.147  1.00  0.00     0.085 A 
HETATM   10  C8  UNL     1     -23.275  22.019  -6.131  1.00  0.00     0.038 A 
HETATM   11  C9  UNL     1     -23.448  22.830  -7.251  1.00  0.00     0.003 A 
HETATM   12  C10 UNL     1     -22.698  22.693  -8.378  1.00  0.00     0.002 A 
HETATM   13  C11 UNL     1     -21.739  21.695  -8.365  1.00  0.00     0.021 A 
BRANCH   9  14
HETATM   14  O3  UNL     1     -22.096  20.219  -5.095  1.00  0.00    -0.349 OA
BRANCH  14  15
HETATM   15  C6  UNL     1     -22.924  19.278  -4.531  1.00  0.00     0.180 C 
BRANCH  15  16
HETATM   16  C5  UNL     1     -22.503  18.848  -3.158  1.00  0.00     0.010 C 
HETATM   17  C4  UNL     1     -22.107  17.381  -3.260  1.00  0.00     0.007 C 
HETATM   18  C3  UNL     1     -20.851  17.178  -4.052  1.00  0.00     0.016 C 
HETATM   19  C2  UNL     1     -19.710  18.042  -3.568  1.00  0.00     0.087 C 
HETATM   20  C29 UNL     1     -20.119  18.864  -2.365  1.00  0.00     0.016 C 
HETATM   21  C28 UNL     1     -21.340  19.689  -2.672  1.00  0.00     0.007 C 
BRANCH  19  22
HETATM   22  C1  UNL     1     -18.600  17.157  -3.128  1.00  0.00     0.177 C 
HETATM   23  O1  UNL     1     -17.967  17.357  -2.063  1.00  0.00    -0.648 OA
HETATM   24  O2  UNL     1     -18.237  16.073  -3.905  1.00  0.00    -0.648 OA
ENDBRANCH  19  22
ENDBRANCH  15  16
ENDBRANCH  14  15
ENDBRANCH   9  14
ENDBRANCH   7   8
ENDBRANCH   1   7
BRANCH   6  25
HETATM   25  C27 UNL     1     -17.746  18.181  -7.040  1.00  0.00     0.419 C 
HETATM   26  F4  UNL     1     -19.151  17.874  -6.996  1.00  0.00    -0.166 F 
HETATM   27  F5  UNL     1     -17.499  18.640  -5.722  1.00  0.00    -0.166 F 
HETATM   28  F6  UNL     1     -17.163  17.001  -7.250  1.00  0.00    -0.166 F 
ENDBRANCH   6  25
BRANCH   5  29
HETATM   29  C25 UNL     1     -15.225  18.981  -8.595  1.00  0.00     0.419 C 
HETATM   30  F1  UNL     1     -14.127  19.569  -9.062  1.00  0.00    -0.166 F 
HETATM   31  F2  UNL     1     -14.961  18.639  -7.242  1.00  0.00    -0.166 F 
HETATM   32  F3  UNL     1     -15.287  17.725  -9.253  1.00  0.00    -0.166 F 
ENDBRANCH   5  29
BRANCH   4  33
HETATM   33  C17 UNL     1     -15.384  21.111 -10.361  1.00  0.00     0.018 C 
HETATM   34  C18 UNL     1     -15.258  22.286 -10.947  1.00  0.00     0.075 C 
BRANCH  34  35
HETATM   35  C19 UNL     1     -14.036  22.632 -11.704  1.00  0.00     0.243 C 
HETATM   36  O4  UNL     1     -12.982  22.732 -10.970  1.00  0.00    -0.268 OA
HETATM   37  N1  UNL     1     -13.971  22.842 -13.079  1.00  0.00    -0.345 N 
HETATM   38  C20 UNL     1     -15.123  22.750 -13.924  1.00  0.00     0.152 C 
HETATM   39  C23 UNL     1     -12.689  23.155 -13.668  1.00  0.00     0.152 C 
HETATM   40  C21 UNL     1     -15.019  23.900 -14.944  1.00  0.00     0.187 C 
HETATM   41  O5  UNL     1     -13.873  23.668 -15.698  1.00  0.00    -0.388 OA
HETATM   42  C22 UNL     1     -12.790  24.051 -14.873  1.00  0.00     0.187 C 
ENDBRANCH  34  35
ENDBRANCH   4  33
TORSDOF 10
ENDMDL
