MODEL 3
REMARK VINA RESULT: -7.009961055      2.361      4.062
REMARK  11 active torsions:
REMARK  status: ('A' for Active; 'I' for Inactive)
REMARK    1  A    between atoms: C2_2  and  C3_3 
REMARK    2  A    between atoms: C3_3  and  C4_4 
REMARK    3  A    between atoms: C4_4  and  C5_5 
REMARK    4  A    between atoms: C5_5  and  C6_6 
REMARK    5  A    between atoms: C6_6  and  O2_8 
REMARK    6  A    between atoms: O2_8  and  C7_9 
REMARK    7  A    between atoms: C7_9  and  C8_10 
REMARK    8  A    between atoms: C8_10  and  O3_11 
REMARK    9  A    between atoms: C8_10  and  C9_13 
REMARK   10  A    between atoms: C9_13  and  O4_14 
REMARK   11  A    between atoms: O4_14  and  P1_15 
ROOT
HETATM    1  C7  UNL     1       4.939  25.466  33.024  1.00  0.00     0.212 C 
ENDROOT
BRANCH   1   2
HETATM    2  O2  UNL     1       5.384  24.630  32.039  1.00  0.00    -0.319 OA
BRANCH   2   3
HETATM    3  C6  UNL     1       6.418  24.683  31.159  1.00  0.00     0.258 C 
HETATM    4  O1  UNL     1       7.039  23.614  30.958  1.00  0.00    -0.265 OA
BRANCH   3   5
HETATM    5  C5  UNL     1       6.831  25.926  30.442  1.00  0.00     0.111 C 
BRANCH   5   6
HETATM    6  C4  UNL     1       6.724  25.790  28.960  1.00  0.00     0.010 C 
BRANCH   6   7
HETATM    7  C3  UNL     1       8.047  26.161  28.347  1.00  0.00     0.000 C 
BRANCH   7   8
HETATM    8  C2  UNL     1       9.061  26.622  29.354  1.00  0.00    -0.005 C 
HETATM    9  C1  UNL     1      10.116  27.416  28.576  1.00  0.00     0.005 C 
ENDBRANCH   7   8
ENDBRANCH   6   7
ENDBRANCH   5   6
ENDBRANCH   3   5
ENDBRANCH   2   3
ENDBRANCH   1   2
BRANCH   1  10
HETATM   10  C8  UNL     1       3.562  25.371  33.536  1.00  0.00     0.166 C 
BRANCH  10  11
HETATM   11  O3  UNL     1       2.656  24.713  32.692  1.00  0.00    -0.391 OA
ATOM     12  H3  UNL     1       1.794  25.108  32.638  1.00  0.00     0.210 HD
ENDBRANCH  10  11
BRANCH  10  13
HETATM   13  C9  UNL     1       2.975  26.549  34.203  1.00  0.00     0.216 C 
BRANCH  13  14
HETATM   14  O4  UNL     1       2.290  27.338  33.293  1.00  0.00    -0.280 OA
BRANCH  14  15
HETATM   15  P1  UNL     1       1.870  28.745  33.690  1.00  0.00     0.422 P 
HETATM   16  O5  UNL     1       0.397  28.586  32.977  1.00  0.00    -0.617 OA
HETATM   17  O6  UNL     1       2.085  28.373  35.294  1.00  0.00    -0.617 OA
HETATM   18  O7  UNL     1       3.097  29.417  32.832  1.00  0.00    -0.617 OA
ENDBRANCH  14  15
ENDBRANCH  13  14
ENDBRANCH  10  13
ENDBRANCH   1  10
TORSDOF 11
ENDMDL
