MODEL 9
REMARK VINA RESULT: -6.786516290      0.904      1.574
REMARK  11 active torsions:
REMARK  status: ('A' for Active; 'I' for Inactive)
REMARK    1  A    between atoms: C2_2  and  C3_3 
REMARK    2  A    between atoms: C3_3  and  C4_4 
REMARK    3  A    between atoms: C4_4  and  C5_5 
REMARK    4  A    between atoms: C5_5  and  C6_6 
REMARK    5  A    between atoms: C6_6  and  O2_8 
REMARK    6  A    between atoms: O2_8  and  C7_9 
REMARK    7  A    between atoms: C7_9  and  C8_10 
REMARK    8  A    between atoms: C8_10  and  O3_11 
REMARK    9  A    between atoms: C8_10  and  C9_13 
REMARK   10  A    between atoms: C9_13  and  O4_14 
REMARK   11  A    between atoms: O4_14  and  P1_15 
ROOT
HETATM    1  C7  UNL     1       6.555  25.834  29.822  1.00  0.00     0.212 C 
ENDROOT
BRANCH   1   2
HETATM    2  O2  UNL     1       7.751  25.856  29.160  1.00  0.00    -0.319 OA
BRANCH   2   3
HETATM    3  C6  UNL     1       9.039  26.036  29.555  1.00  0.00     0.258 C 
HETATM    4  O1  UNL     1       9.586  25.073  30.140  1.00  0.00    -0.265 OA
BRANCH   3   5
HETATM    5  C5  UNL     1       9.806  27.296  29.326  1.00  0.00     0.111 C 
BRANCH   5   6
HETATM    6  C4  UNL     1      11.281  27.073  29.329  1.00  0.00     0.010 C 
BRANCH   6   7
HETATM    7  C3  UNL     1      11.694  26.582  27.968  1.00  0.00     0.000 C 
BRANCH   7   8
HETATM    8  C2  UNL     1      12.776  25.541  28.013  1.00  0.00    -0.005 C 
HETATM    9  C1  UNL     1      13.211  25.429  29.478  1.00  0.00     0.005 C 
ENDBRANCH   7   8
ENDBRANCH   6   7
ENDBRANCH   5   6
ENDBRANCH   3   5
ENDBRANCH   2   3
ENDBRANCH   1   2
BRANCH   1  10
HETATM   10  C8  UNL     1       6.442  25.246  31.167  1.00  0.00     0.166 C 
BRANCH  10  11
HETATM   11  O3  UNL     1       6.908  23.929  31.283  1.00  0.00    -0.391 OA
ATOM     12  H3  UNL     1       6.326  23.334  31.741  1.00  0.00     0.210 HD
ENDBRANCH  10  11
BRANCH  10  13
HETATM   13  C9  UNL     1       5.212  25.492  31.942  1.00  0.00     0.216 C 
BRANCH  13  14
HETATM   14  O4  UNL     1       4.894  24.391  32.722  1.00  0.00    -0.280 OA
BRANCH  14  15
HETATM   15  P1  UNL     1       3.540  24.328  33.412  1.00  0.00     0.422 P 
HETATM   16  O5  UNL     1       3.727  25.818  34.079  1.00  0.00    -0.617 OA
HETATM   17  O6  UNL     1       2.785  24.139  31.945  1.00  0.00    -0.617 OA
HETATM   18  O7  UNL     1       3.979  23.008  34.284  1.00  0.00    -0.617 OA
ENDBRANCH  14  15
ENDBRANCH  13  14
ENDBRANCH  10  13
ENDBRANCH   1  10
TORSDOF 11
ENDMDL
