MODEL 3
REMARK VINA RESULT: -9.712319891      0.941      1.247
REMARK  7 active torsions:
REMARK  status: ('A' for Active; 'I' for Inactive)
REMARK    1  A    between atoms: C4_4  and  N1_5 
REMARK    2  A    between atoms: N1_5  and  C5_7 
REMARK    3  A    between atoms: C7_9  and  N2_10 
REMARK    4  A    between atoms: C13_19  and  S1_20 
REMARK    5  A    between atoms: S1_20  and  C14_21 
REMARK    6  A    between atoms: C17_24  and  N5_25 
REMARK       I    between atoms: N5_25  and  C18_27 
REMARK    7  A    between atoms: C18_27  and  C19_29 
ROOT
HETATM    1  C5  UNL     1      24.432  28.875  18.055  1.00  0.00     0.112 A 
HETATM    2  C6  UNL     1      23.693  29.748  18.784  1.00  0.00     0.097 A 
HETATM    3  C7  UNL     1      23.855  29.902  20.178  1.00  0.00     0.108 A 
HETATM    4  N4  UNL     1      24.772  29.150  20.763  1.00  0.00    -0.323 N 
ATOM      5  H4  UNL     1      24.906  29.243  21.770  1.00  0.00     0.169 HD
HETATM    6  C13 UNL     1      25.535  28.269  20.097  1.00  0.00     0.152 A 
HETATM    7  N6  UNL     1      25.356  28.152  18.792  1.00  0.00    -0.323 N 
ATOM      8  H6  UNL     1      25.939  27.481  18.293  1.00  0.00     0.169 HD
ENDROOT
BRANCH   6   9
HETATM    9  S1  UNL     1      26.766  27.264  20.904  1.00  0.00    -0.054 SA
BRANCH   9  10
HETATM   10  C14 UNL     1      27.473  26.189  19.658  1.00  0.00     0.008 A 
HETATM   11  C15 UNL     1      26.870  25.016  19.279  1.00  0.00     0.021 A 
HETATM   12  C16 UNL     1      27.454  24.231  18.321  1.00  0.00     0.031 A 
HETATM   13  C17 UNL     1      28.652  24.566  17.696  1.00  0.00     0.034 A 
HETATM   14  C22 UNL     1      29.218  25.745  18.104  1.00  0.00     0.031 A 
HETATM   15  C23 UNL     1      28.654  26.576  19.080  1.00  0.00     0.021 A 
BRANCH  13  16
HETATM   16  N5  UNL     1      29.200  23.722  16.704  1.00  0.00    -0.327 N 
HETATM   17  C18 UNL     1      30.492  23.180  16.695  1.00  0.00     0.226 C 
HETATM   18  O1  UNL     1      31.288  23.424  17.626  1.00  0.00    -0.273 OA
ATOM     19  H5  UNL     1      28.594  23.483  15.918  1.00  0.00     0.169 HD
BRANCH  17  20
HETATM   20  C19 UNL     1      30.933  22.291  15.551  1.00  0.00     0.078 A 
HETATM   21  C20 UNL     1      32.394  22.225  15.237  1.00  0.00     0.015 A 
HETATM   22  C21 UNL     1      31.520  23.070  14.387  1.00  0.00     0.015 A 
ENDBRANCH  17  20
ENDBRANCH  13  16
ENDBRANCH   9  10
ENDBRANCH   6   9
BRANCH   3  23
HETATM   23  N2  UNL     1      23.025  30.846  20.844  1.00  0.00    -0.364 N 
HETATM   24  C8  UNL     1      22.760  30.748  22.249  1.00  0.00     0.154 C 
HETATM   25  C9  UNL     1      21.708  31.675  22.753  1.00  0.00     0.291 C 
HETATM   26  N3  UNL     1      20.838  32.093  21.697  1.00  0.00     0.087 N 
HETATM   27  C10 UNL     1      19.762  32.932  22.126  1.00  0.00     0.310 C 
HETATM   28  C11 UNL     1      21.669  32.882  20.774  1.00  0.00     0.291 C 
HETATM   29  C12 UNL     1      22.475  31.906  19.984  1.00  0.00     0.154 C 
ENDBRANCH   3  23
BRANCH   1  30
HETATM   30  N1  UNL     1      24.410  28.592  16.685  1.00  0.00    -0.327 N 
ATOM     31  H1  UNL     1      23.487  28.636  16.255  1.00  0.00     0.169 HD
BRANCH  30  32
HETATM   32  C4  UNL     1      25.454  28.255  15.807  1.00  0.00     0.123 A 
HETATM   33  C3  UNL     1      26.724  27.839  16.238  1.00  0.00     0.075 A 
HETATM   34  C2  UNL     1      27.523  27.583  15.156  1.00  0.00     0.025 A 
HETATM   35  C1  UNL     1      28.938  27.121  15.181  1.00  0.00     0.070 C 
HETATM   36  N8  UNL     1      26.771  27.833  14.092  1.00  0.00    -0.304 N 
HETATM   37  N7  UNL     1      25.546  28.232  14.485  1.00  0.00    -0.285 N 
ATOM     38  H8  UNL     1      27.075  27.738  13.123  1.00  0.00     0.186 HD
ATOM     39  H7  UNL     1      24.788  28.482  13.848  1.00  0.00     0.188 HD
ENDBRANCH  30  32
ENDBRANCH   1  30
TORSDOF 7
ENDMDL
