MODEL 9
REMARK VINA RESULT: -8.573211251      1.685      2.112
REMARK  7 active torsions:
REMARK  status: ('A' for Active; 'I' for Inactive)
REMARK    1  A    between atoms: C4_4  and  N1_5 
REMARK    2  A    between atoms: N1_5  and  C5_7 
REMARK    3  A    between atoms: C7_9  and  N2_10 
REMARK    4  A    between atoms: C13_19  and  S1_20 
REMARK    5  A    between atoms: S1_20  and  C14_21 
REMARK    6  A    between atoms: C17_24  and  N5_25 
REMARK       I    between atoms: N5_25  and  C18_27 
REMARK    7  A    between atoms: C18_27  and  C19_29 
ROOT
HETATM    1  C5  UNL     1      23.745  29.272  19.067  1.00  0.00     0.112 A 
HETATM    2  C6  UNL     1      22.732  29.815  19.787  1.00  0.00     0.097 A 
HETATM    3  C7  UNL     1      22.608  29.630  21.181  1.00  0.00     0.108 A 
HETATM    4  N4  UNL     1      23.532  28.892  21.775  1.00  0.00    -0.323 N 
ATOM      5  H4  UNL     1      23.462  28.744  22.781  1.00  0.00     0.169 HD
HETATM    6  C13 UNL     1      24.557  28.329  21.117  1.00  0.00     0.152 A 
HETATM    7  N6  UNL     1      24.642  28.524  19.811  1.00  0.00    -0.323 N 
ATOM      8  H6  UNL     1      25.424  28.094  19.318  1.00  0.00     0.169 HD
ENDROOT
BRANCH   6   9
HETATM    9  S1  UNL     1      25.793  27.339  21.933  1.00  0.00    -0.054 SA
BRANCH   9  10
HETATM   10  C14 UNL     1      26.935  26.771  20.676  1.00  0.00     0.008 A 
HETATM   11  C15 UNL     1      26.787  25.559  20.048  1.00  0.00     0.021 A 
HETATM   12  C16 UNL     1      27.690  25.175  19.094  1.00  0.00     0.031 A 
HETATM   13  C17 UNL     1      28.773  25.963  18.716  1.00  0.00     0.034 A 
HETATM   14  C22 UNL     1      28.881  27.163  19.367  1.00  0.00     0.031 A 
HETATM   15  C23 UNL     1      27.981  27.594  20.348  1.00  0.00     0.021 A 
BRANCH  13  16
HETATM   16  N5  UNL     1      29.664  25.517  17.714  1.00  0.00    -0.327 N 
HETATM   17  C18 UNL     1      29.347  25.270  16.370  1.00  0.00     0.226 C 
HETATM   18  O1  UNL     1      28.184  25.445  15.951  1.00  0.00    -0.273 OA
ATOM     19  H5  UNL     1      30.631  25.360  17.995  1.00  0.00     0.169 HD
BRANCH  17  20
HETATM   20  C19 UNL     1      30.420  24.789  15.416  1.00  0.00     0.078 A 
HETATM   21  C20 UNL     1      29.984  24.173  14.124  1.00  0.00     0.015 A 
HETATM   22  C21 UNL     1      30.416  23.283  15.229  1.00  0.00     0.015 A 
ENDBRANCH  17  20
ENDBRANCH  13  16
ENDBRANCH   9  10
ENDBRANCH   6   9
BRANCH   3  23
HETATM   23  N2  UNL     1      21.506  30.244  21.839  1.00  0.00    -0.364 N 
HETATM   24  C8  UNL     1      21.660  30.890  23.109  1.00  0.00     0.154 C 
HETATM   25  C9  UNL     1      20.384  31.292  23.765  1.00  0.00     0.291 C 
HETATM   26  N3  UNL     1      19.283  30.521  23.270  1.00  0.00     0.087 N 
HETATM   27  C10 UNL     1      18.036  30.810  23.908  1.00  0.00     0.310 C 
HETATM   28  C11 UNL     1      19.143  30.879  21.850  1.00  0.00     0.291 C 
HETATM   29  C12 UNL     1      20.226  30.160  21.118  1.00  0.00     0.154 C 
ENDBRANCH   3  23
BRANCH   1  30
HETATM   30  N1  UNL     1      24.025  29.348  17.698  1.00  0.00    -0.327 N 
ATOM     31  H1  UNL     1      23.322  29.837  17.145  1.00  0.00     0.169 HD
BRANCH  30  32
HETATM   32  C4  UNL     1      25.117  28.858  16.962  1.00  0.00     0.123 A 
HETATM   33  C3  UNL     1      25.066  28.594  15.584  1.00  0.00     0.075 A 
HETATM   34  C2  UNL     1      26.280  28.129  15.154  1.00  0.00     0.025 A 
HETATM   35  C1  UNL     1      26.642  27.734  13.764  1.00  0.00     0.070 C 
HETATM   36  N8  UNL     1      27.055  28.107  16.230  1.00  0.00    -0.304 N 
HETATM   37  N7  UNL     1      26.359  28.540  17.300  1.00  0.00    -0.285 N 
ATOM     38  H8  UNL     1      28.029  27.808  16.246  1.00  0.00     0.186 HD
ATOM     39  H7  UNL     1      26.739  28.614  18.244  1.00  0.00     0.188 HD
ENDBRANCH  30  32
ENDBRANCH   1  30
TORSDOF 7
ENDMDL
