MODEL 4
REMARK VINA RESULT: -9.706306057      1.075      1.533
REMARK  7 active torsions:
REMARK  status: ('A' for Active; 'I' for Inactive)
REMARK    1  A    between atoms: C4_4  and  N1_5 
REMARK    2  A    between atoms: N1_5  and  C5_7 
REMARK    3  A    between atoms: C7_9  and  N2_10 
REMARK    4  A    between atoms: C13_19  and  S1_20 
REMARK    5  A    between atoms: S1_20  and  C14_21 
REMARK    6  A    between atoms: C17_24  and  N5_25 
REMARK       I    between atoms: N5_25  and  C18_27 
REMARK    7  A    between atoms: C18_27  and  C19_29 
ROOT
HETATM    1  C5  UNL     1      24.432  28.847  18.081  1.00  0.00     0.112 A 
HETATM    2  C6  UNL     1      23.693  29.705  18.828  1.00  0.00     0.097 A 
HETATM    3  C7  UNL     1      23.869  29.843  20.221  1.00  0.00     0.108 A 
HETATM    4  N4  UNL     1      24.798  29.092  20.788  1.00  0.00    -0.323 N 
ATOM      5  H4  UNL     1      24.942  29.175  21.794  1.00  0.00     0.169 HD
HETATM    6  C13 UNL     1      25.561  28.226  20.103  1.00  0.00     0.152 A 
HETATM    7  N6  UNL     1      25.369  28.122  18.799  1.00  0.00    -0.323 N 
ATOM      8  H6  UNL     1      25.952  27.462  18.285  1.00  0.00     0.169 HD
ENDROOT
BRANCH   6   9
HETATM    9  S1  UNL     1      26.809  27.222  20.884  1.00  0.00    -0.054 SA
BRANCH   9  10
HETATM   10  C14 UNL     1      27.517  26.173  19.616  1.00  0.00     0.008 A 
HETATM   11  C15 UNL     1      26.921  25.001  19.221  1.00  0.00     0.021 A 
HETATM   12  C16 UNL     1      27.505  24.237  18.247  1.00  0.00     0.031 A 
HETATM   13  C17 UNL     1      28.697  24.592  17.621  1.00  0.00     0.034 A 
HETATM   14  C22 UNL     1      29.256  25.769  18.046  1.00  0.00     0.031 A 
HETATM   15  C23 UNL     1      28.691  26.579  19.038  1.00  0.00     0.021 A 
BRANCH  13  16
HETATM   16  N5  UNL     1      29.245  23.769  16.612  1.00  0.00    -0.327 N 
HETATM   17  C18 UNL     1      30.486  23.119  16.652  1.00  0.00     0.226 C 
HETATM   18  O1  UNL     1      31.229  23.232  17.650  1.00  0.00    -0.273 OA
ATOM     19  H5  UNL     1      28.682  23.634  15.772  1.00  0.00     0.169 HD
BRANCH  17  20
HETATM   20  C19 UNL     1      30.935  22.270  15.482  1.00  0.00     0.078 A 
HETATM   21  C20 UNL     1      32.402  22.189  15.196  1.00  0.00     0.015 A 
HETATM   22  C21 UNL     1      31.562  23.085  14.364  1.00  0.00     0.015 A 
ENDBRANCH  17  20
ENDBRANCH  13  16
ENDBRANCH   9  10
ENDBRANCH   6   9
BRANCH   3  23
HETATM   23  N2  UNL     1      23.039  30.773  20.907  1.00  0.00    -0.364 N 
HETATM   24  C8  UNL     1      22.467  31.902  20.234  1.00  0.00     0.154 C 
HETATM   25  C9  UNL     1      21.806  32.894  21.128  1.00  0.00     0.291 C 
HETATM   26  N3  UNL     1      22.305  32.798  22.466  1.00  0.00     0.087 N 
HETATM   27  C10 UNL     1      21.760  33.770  23.363  1.00  0.00     0.310 C 
HETATM   28  C11 UNL     1      21.898  31.471  22.957  1.00  0.00     0.291 C 
HETATM   29  C12 UNL     1      22.825  30.482  22.333  1.00  0.00     0.154 C 
ENDBRANCH   3  23
BRANCH   1  30
HETATM   30  N1  UNL     1      24.398  28.580  16.708  1.00  0.00    -0.327 N 
ATOM     31  H1  UNL     1      23.472  28.638  16.284  1.00  0.00     0.169 HD
BRANCH  30  32
HETATM   32  C4  UNL     1      25.432  28.244  15.818  1.00  0.00     0.123 A 
HETATM   33  C3  UNL     1      26.717  27.860  16.235  1.00  0.00     0.075 A 
HETATM   34  C2  UNL     1      27.501  27.597  15.143  1.00  0.00     0.025 A 
HETATM   35  C1  UNL     1      28.925  27.161  15.153  1.00  0.00     0.070 C 
HETATM   36  N8  UNL     1      26.727  27.811  14.089  1.00  0.00    -0.304 N 
HETATM   37  N7  UNL     1      25.501  28.196  14.495  1.00  0.00    -0.285 N 
ATOM     38  H8  UNL     1      27.015  27.702  13.117  1.00  0.00     0.186 HD
ATOM     39  H7  UNL     1      24.728  28.419  13.867  1.00  0.00     0.188 HD
ENDBRANCH  30  32
ENDBRANCH   1  30
TORSDOF 7
ENDMDL
