MODEL 6
REMARK VINA RESULT: -8.752809115      4.268      7.410
REMARK  7 active torsions:
REMARK  status: ('A' for Active; 'I' for Inactive)
REMARK    1  A    between atoms: C4_4  and  N1_5 
REMARK    2  A    between atoms: N1_5  and  C5_7 
REMARK    3  A    between atoms: C7_9  and  N2_10 
REMARK    4  A    between atoms: C13_19  and  S1_20 
REMARK    5  A    between atoms: S1_20  and  C14_21 
REMARK    6  A    between atoms: C17_24  and  N5_25 
REMARK       I    between atoms: N5_25  and  C18_27 
REMARK    7  A    between atoms: C18_27  and  C19_29 
ROOT
HETATM    1  C5  UNL     1      23.172  26.236  22.915  1.00  0.00     0.112 A 
HETATM    2  C6  UNL     1      23.807  25.476  23.842  1.00  0.00     0.097 A 
HETATM    3  C7  UNL     1      25.214  25.415  23.941  1.00  0.00     0.108 A 
HETATM    4  N4  UNL     1      25.909  26.139  23.079  1.00  0.00    -0.323 N 
ATOM      5  H4  UNL     1      26.927  26.110  23.131  1.00  0.00     0.169 HD
HETATM    6  C13 UNL     1      25.339  26.911  22.140  1.00  0.00     0.152 A 
HETATM    7  N6  UNL     1      24.019  26.943  22.077  1.00  0.00    -0.323 N 
ATOM      8  H6  UNL     1      23.593  27.532  21.361  1.00  0.00     0.169 HD
ENDROOT
BRANCH   6   9
HETATM    9  S1  UNL     1      26.293  27.880  20.988  1.00  0.00    -0.054 SA
BRANCH   9  10
HETATM   10  C14 UNL     1      27.151  26.733  19.913  1.00  0.00     0.008 A 
HETATM   11  C15 UNL     1      26.666  25.476  19.650  1.00  0.00     0.021 A 
HETATM   12  C16 UNL     1      27.363  24.640  18.820  1.00  0.00     0.031 A 
HETATM   13  C17 UNL     1      28.562  25.003  18.214  1.00  0.00     0.034 A 
HETATM   14  C22 UNL     1      29.008  26.265  18.503  1.00  0.00     0.031 A 
HETATM   15  C23 UNL     1      28.327  27.151  19.346  1.00  0.00     0.021 A 
BRANCH  13  16
HETATM   16  N5  UNL     1      29.229  24.100  17.355  1.00  0.00    -0.327 N 
HETATM   17  C18 UNL     1      29.157  24.077  15.955  1.00  0.00     0.226 C 
HETATM   18  O1  UNL     1      28.457  24.911  15.343  1.00  0.00    -0.273 OA
ATOM     19  H5  UNL     1      29.821  23.397  17.797  1.00  0.00     0.169 HD
BRANCH  17  20
HETATM   20  C19 UNL     1      29.933  23.038  15.174  1.00  0.00     0.078 A 
HETATM   21  C20 UNL     1      31.246  22.581  15.727  1.00  0.00     0.015 A 
HETATM   22  C21 UNL     1      31.244  23.568  14.621  1.00  0.00     0.015 A 
ENDBRANCH  17  20
ENDBRANCH  13  16
ENDBRANCH   9  10
ENDBRANCH   6   9
BRANCH   3  23
HETATM   23  N2  UNL     1      25.775  24.585  24.951  1.00  0.00    -0.364 N 
HETATM   24  C8  UNL     1      26.703  25.103  25.913  1.00  0.00     0.154 C 
HETATM   25  C9  UNL     1      27.363  24.072  26.763  1.00  0.00     0.291 C 
HETATM   26  N3  UNL     1      27.338  22.788  26.131  1.00  0.00     0.087 N 
HETATM   27  C10 UNL     1      28.017  21.764  26.864  1.00  0.00     0.310 C 
HETATM   28  C11 UNL     1      25.920  22.402  26.048  1.00  0.00     0.291 C 
HETATM   29  C12 UNL     1      25.330  23.183  24.922  1.00  0.00     0.154 C 
ENDBRANCH   3  23
BRANCH   1  30
HETATM   30  N1  UNL     1      21.806  26.416  22.672  1.00  0.00    -0.327 N 
ATOM     31  H1  UNL     1      21.277  25.554  22.546  1.00  0.00     0.169 HD
BRANCH  30  32
HETATM   32  C4  UNL     1      21.046  27.594  22.573  1.00  0.00     0.123 A 
HETATM   33  C3  UNL     1      19.666  27.604  22.316  1.00  0.00     0.075 A 
HETATM   34  C2  UNL     1      19.209  28.895  22.278  1.00  0.00     0.025 A 
HETATM   35  C1  UNL     1      17.808  29.338  22.033  1.00  0.00     0.070 C 
HETATM   36  N8  UNL     1      20.271  29.655  22.505  1.00  0.00    -0.304 N 
HETATM   37  N7  UNL     1      21.358  28.878  22.679  1.00  0.00    -0.285 N 
ATOM     38  H8  UNL     1      20.266  30.674  22.543  1.00  0.00     0.186 HD
ATOM     39  H7  UNL     1      22.297  29.232  22.868  1.00  0.00     0.188 HD
ENDBRANCH  30  32
ENDBRANCH   1  30
TORSDOF 7
ENDMDL
