MODEL 2
REMARK VINA RESULT: -9.750135844      1.709      1.930
REMARK  7 active torsions:
REMARK  status: ('A' for Active; 'I' for Inactive)
REMARK    1  A    between atoms: C4_4  and  N1_5 
REMARK    2  A    between atoms: N1_5  and  C5_7 
REMARK    3  A    between atoms: C7_9  and  N2_10 
REMARK    4  A    between atoms: C13_19  and  S1_20 
REMARK    5  A    between atoms: S1_20  and  C14_21 
REMARK    6  A    between atoms: C17_24  and  N5_25 
REMARK       I    between atoms: N5_25  and  C18_27 
REMARK    7  A    between atoms: C18_27  and  C19_29 
ROOT
HETATM    1  C5  UNL     1      24.774  29.080  18.116  1.00  0.00     0.112 A 
HETATM    2  C6  UNL     1      23.673  29.370  18.854  1.00  0.00     0.097 A 
HETATM    3  C7  UNL     1      23.528  28.954  20.195  1.00  0.00     0.108 A 
HETATM    4  N4  UNL     1      24.522  28.256  20.720  1.00  0.00    -0.323 N 
ATOM      5  H4  UNL     1      24.438  27.944  21.687  1.00  0.00     0.169 HD
HETATM    6  C13 UNL     1      25.635  27.939  20.041  1.00  0.00     0.152 A 
HETATM    7  N6  UNL     1      25.737  28.345  18.787  1.00  0.00    -0.323 N 
ATOM      8  H6  UNL     1      26.586  28.101  18.277  1.00  0.00     0.169 HD
ENDROOT
BRANCH   6   9
HETATM    9  S1  UNL     1      26.964  26.998  20.765  1.00  0.00    -0.054 SA
BRANCH   9  10
HETATM   10  C14 UNL     1      27.687  26.009  19.459  1.00  0.00     0.008 A 
HETATM   11  C15 UNL     1      27.114  24.839  19.027  1.00  0.00     0.021 A 
HETATM   12  C16 UNL     1      27.709  24.121  18.024  1.00  0.00     0.031 A 
HETATM   13  C17 UNL     1      28.889  24.522  17.405  1.00  0.00     0.034 A 
HETATM   14  C22 UNL     1      29.426  25.695  17.867  1.00  0.00     0.031 A 
HETATM   15  C23 UNL     1      28.849  26.459  18.889  1.00  0.00     0.021 A 
BRANCH  13  16
HETATM   16  N5  UNL     1      29.449  23.745  16.366  1.00  0.00    -0.327 N 
HETATM   17  C18 UNL     1      30.643  23.014  16.425  1.00  0.00     0.226 C 
HETATM   18  O1  UNL     1      31.326  23.000  17.471  1.00  0.00    -0.273 OA
ATOM     19  H5  UNL     1      28.933  23.714  15.486  1.00  0.00     0.169 HD
BRANCH  17  20
HETATM   20  C19 UNL     1      31.113  22.231  15.217  1.00  0.00     0.078 A 
HETATM   21  C20 UNL     1      32.587  22.102  14.995  1.00  0.00     0.015 A 
HETATM   22  C21 UNL     1      31.829  23.093  14.194  1.00  0.00     0.015 A 
ENDBRANCH  17  20
ENDBRANCH  13  16
ENDBRANCH   9  10
ENDBRANCH   6   9
BRANCH   3  23
HETATM   23  N2  UNL     1      22.332  29.312  20.877  1.00  0.00    -0.364 N 
HETATM   24  C8  UNL     1      22.000  28.746  22.152  1.00  0.00     0.154 C 
HETATM   25  C9  UNL     1      20.624  29.052  22.633  1.00  0.00     0.291 C 
HETATM   26  N3  UNL     1      19.760  29.395  21.544  1.00  0.00     0.087 N 
HETATM   27  C10 UNL     1      18.403  29.634  21.929  1.00  0.00     0.310 C 
HETATM   28  C11 UNL     1      20.286  30.651  20.987  1.00  0.00     0.291 C 
HETATM   29  C12 UNL     1      21.485  30.290  20.176  1.00  0.00     0.154 C 
ENDBRANCH   3  23
BRANCH   1  30
HETATM   30  N1  UNL     1      25.087  29.404  16.791  1.00  0.00    -0.327 N 
ATOM     31  H1  UNL     1      24.763  30.322  16.488  1.00  0.00     0.169 HD
BRANCH  30  32
HETATM   32  C4  UNL     1      25.776  28.670  15.811  1.00  0.00     0.123 A 
HETATM   33  C3  UNL     1      27.092  28.206  15.974  1.00  0.00     0.075 A 
HETATM   34  C2  UNL     1      27.488  27.527  14.853  1.00  0.00     0.025 A 
HETATM   35  C1  UNL     1      28.809  26.879  14.624  1.00  0.00     0.070 C 
HETATM   36  N8  UNL     1      26.452  27.569  14.027  1.00  0.00    -0.304 N 
HETATM   37  N7  UNL     1      25.440  28.249  14.600  1.00  0.00    -0.285 N 
ATOM     38  H8  UNL     1      26.425  27.150  13.097  1.00  0.00     0.186 HD
ATOM     39  H7  UNL     1      24.535  28.417  14.160  1.00  0.00     0.188 HD
ENDBRANCH  30  32
ENDBRANCH   1  30
TORSDOF 7
ENDMDL
