MODEL 7
REMARK VINA RESULT: -8.650427279      4.284      7.324
REMARK  7 active torsions:
REMARK  status: ('A' for Active; 'I' for Inactive)
REMARK    1  A    between atoms: C4_4  and  N1_5 
REMARK    2  A    between atoms: N1_5  and  C5_7 
REMARK    3  A    between atoms: C7_9  and  N2_10 
REMARK    4  A    between atoms: C13_19  and  S1_20 
REMARK    5  A    between atoms: S1_20  and  C14_21 
REMARK    6  A    between atoms: C17_24  and  N5_25 
REMARK       I    between atoms: N5_25  and  C18_27 
REMARK    7  A    between atoms: C18_27  and  C19_29 
ROOT
HETATM    1  C5  UNL     1      22.910  26.266  22.692  1.00  0.00     0.112 A 
HETATM    2  C6  UNL     1      23.556  25.519  23.622  1.00  0.00     0.097 A 
HETATM    3  C7  UNL     1      24.964  25.473  23.714  1.00  0.00     0.108 A 
HETATM    4  N4  UNL     1      25.648  26.197  22.844  1.00  0.00    -0.323 N 
ATOM      5  H4  UNL     1      26.667  26.178  22.891  1.00  0.00     0.169 HD
HETATM    6  C13 UNL     1      25.067  26.955  21.902  1.00  0.00     0.152 A 
HETATM    7  N6  UNL     1      23.746  26.975  21.845  1.00  0.00    -0.323 N 
ATOM      8  H6  UNL     1      23.311  27.554  21.127  1.00  0.00     0.169 HD
ENDROOT
BRANCH   6   9
HETATM    9  S1  UNL     1      26.005  27.925  20.738  1.00  0.00    -0.054 SA
BRANCH   9  10
HETATM   10  C14 UNL     1      26.988  26.784  19.768  1.00  0.00     0.008 A 
HETATM   11  C15 UNL     1      28.194  27.144  19.219  1.00  0.00     0.021 A 
HETATM   12  C16 UNL     1      28.905  26.232  18.486  1.00  0.00     0.031 A 
HETATM   13  C17 UNL     1      28.463  24.932  18.262  1.00  0.00     0.034 A 
HETATM   14  C22 UNL     1      27.256  24.616  18.828  1.00  0.00     0.031 A 
HETATM   15  C23 UNL     1      26.498  25.518  19.585  1.00  0.00     0.021 A 
BRANCH  13  16
HETATM   16  N5  UNL     1      29.248  24.032  17.507  1.00  0.00    -0.327 N 
HETATM   17  C18 UNL     1      29.200  23.849  16.118  1.00  0.00     0.226 C 
HETATM   18  O1  UNL     1      28.412  24.519  15.418  1.00  0.00    -0.273 OA
ATOM     19  H5  UNL     1      29.915  23.458  18.025  1.00  0.00     0.169 HD
BRANCH  17  20
HETATM   20  C19 UNL     1      30.109  22.836  15.456  1.00  0.00     0.078 A 
HETATM   21  C20 UNL     1      31.495  22.677  15.998  1.00  0.00     0.015 A 
HETATM   22  C21 UNL     1      31.299  23.471  14.761  1.00  0.00     0.015 A 
ENDBRANCH  17  20
ENDBRANCH  13  16
ENDBRANCH   9  10
ENDBRANCH   6   9
BRANCH   3  23
HETATM   23  N2  UNL     1      25.538  24.656  24.728  1.00  0.00    -0.364 N 
HETATM   24  C8  UNL     1      25.204  23.267  24.846  1.00  0.00     0.154 C 
HETATM   25  C9  UNL     1      25.714  22.603  26.078  1.00  0.00     0.291 C 
HETATM   26  N3  UNL     1      25.975  23.560  27.111  1.00  0.00     0.087 N 
HETATM   27  C10 UNL     1      26.403  22.982  28.347  1.00  0.00     0.310 C 
HETATM   28  C11 UNL     1      27.076  24.402  26.615  1.00  0.00     0.291 C 
HETATM   29  C12 UNL     1      26.479  25.345  25.624  1.00  0.00     0.154 C 
ENDBRANCH   3  23
BRANCH   1  30
HETATM   30  N1  UNL     1      21.541  26.432  22.455  1.00  0.00    -0.327 N 
ATOM     31  H1  UNL     1      21.083  25.631  22.021  1.00  0.00     0.169 HD
BRANCH  30  32
HETATM   32  C4  UNL     1      20.696  27.523  22.717  1.00  0.00     0.123 A 
HETATM   33  C3  UNL     1      20.859  28.381  23.817  1.00  0.00     0.075 A 
HETATM   34  C2  UNL     1      19.887  29.345  23.803  1.00  0.00     0.025 A 
HETATM   35  C1  UNL     1      19.707  30.444  24.792  1.00  0.00     0.070 C 
HETATM   36  N8  UNL     1      19.148  29.090  22.732  1.00  0.00    -0.304 N 
HETATM   37  N7  UNL     1      19.633  28.009  22.092  1.00  0.00    -0.285 N 
ATOM     38  H8  UNL     1      18.336  29.632  22.437  1.00  0.00     0.186 HD
ATOM     39  H7  UNL     1      19.234  27.615  21.239  1.00  0.00     0.188 HD
ENDBRANCH  30  32
ENDBRANCH   1  30
TORSDOF 7
ENDMDL
