MODEL 1
REMARK VINA RESULT: -9.876821981      0.000      0.000
REMARK  7 active torsions:
REMARK  status: ('A' for Active; 'I' for Inactive)
REMARK    1  A    between atoms: C4_4  and  N1_5 
REMARK    2  A    between atoms: N1_5  and  C5_7 
REMARK    3  A    between atoms: C7_9  and  N2_10 
REMARK    4  A    between atoms: C13_19  and  S1_20 
REMARK    5  A    between atoms: S1_20  and  C14_21 
REMARK    6  A    between atoms: C17_24  and  N5_25 
REMARK       I    between atoms: N5_25  and  C18_27 
REMARK    7  A    between atoms: C18_27  and  C19_29 
ROOT
HETATM    1  C5  UNL     1      24.336  28.901  17.942  1.00  0.00     0.112 A 
HETATM    2  C6  UNL     1      23.613  29.883  18.537  1.00  0.00     0.097 A 
HETATM    3  C7  UNL     1      23.718  30.175  19.914  1.00  0.00     0.108 A 
HETATM    4  N4  UNL     1      24.562  29.443  20.622  1.00  0.00    -0.323 N 
ATOM      5  H4  UNL     1      24.653  29.636  21.619  1.00  0.00     0.169 HD
HETATM    6  C13 UNL     1      25.305  28.459  20.091  1.00  0.00     0.152 A 
HETATM    7  N6  UNL     1      25.181  28.214  18.798  1.00  0.00    -0.323 N 
ATOM      8  H6  UNL     1      25.749  27.465  18.401  1.00  0.00     0.169 HD
ENDROOT
BRANCH   6   9
HETATM    9  S1  UNL     1      26.437  27.484  21.061  1.00  0.00    -0.054 SA
BRANCH   9  10
HETATM   10  C14 UNL     1      27.407  26.504  19.917  1.00  0.00     0.008 A 
HETATM   11  C15 UNL     1      28.579  26.966  19.372  1.00  0.00     0.021 A 
HETATM   12  C16 UNL     1      29.282  26.174  18.503  1.00  0.00     0.031 A 
HETATM   13  C17 UNL     1      28.863  24.899  18.134  1.00  0.00     0.034 A 
HETATM   14  C22 UNL     1      27.690  24.479  18.703  1.00  0.00     0.031 A 
HETATM   15  C23 UNL     1      26.941  25.256  19.596  1.00  0.00     0.021 A 
BRANCH  13  16
HETATM   16  N5  UNL     1      29.638  24.124  17.243  1.00  0.00    -0.327 N 
HETATM   17  C18 UNL     1      29.285  23.758  15.937  1.00  0.00     0.226 C 
HETATM   18  O1  UNL     1      28.194  24.122  15.450  1.00  0.00    -0.273 OA
ATOM     19  H5  UNL     1      30.544  23.800  17.583  1.00  0.00     0.169 HD
BRANCH  17  20
HETATM   20  C19 UNL     1      30.229  22.915  15.105  1.00  0.00     0.078 A 
HETATM   21  C20 UNL     1      31.698  23.057  15.352  1.00  0.00     0.015 A 
HETATM   22  C21 UNL     1      31.102  23.742  14.179  1.00  0.00     0.015 A 
ENDBRANCH  17  20
ENDBRANCH  13  16
ENDBRANCH   9  10
ENDBRANCH   6   9
BRANCH   3  23
HETATM   23  N2  UNL     1      22.912  31.226  20.434  1.00  0.00    -0.364 N 
HETATM   24  C8  UNL     1      23.262  31.905  21.647  1.00  0.00     0.154 C 
HETATM   25  C9  UNL     1      22.214  32.824  22.173  1.00  0.00     0.291 C 
HETATM   26  N3  UNL     1      20.919  32.471  21.677  1.00  0.00     0.087 N 
HETATM   27  C10 UNL     1      19.856  33.274  22.198  1.00  0.00     0.310 C 
HETATM   28  C11 UNL     1      20.966  32.695  20.223  1.00  0.00     0.291 C 
HETATM   29  C12 UNL     1      21.717  31.546  19.638  1.00  0.00     0.154 C 
ENDBRANCH   3  23
BRANCH   1  30
HETATM   30  N1  UNL     1      24.363  28.476  16.609  1.00  0.00    -0.327 N 
ATOM     31  H1  UNL     1      23.446  28.355  16.181  1.00  0.00     0.169 HD
BRANCH  30  32
HETATM   32  C4  UNL     1      25.450  28.190  15.766  1.00  0.00     0.123 A 
HETATM   33  C3  UNL     1      26.735  27.878  16.238  1.00  0.00     0.075 A 
HETATM   34  C2  UNL     1      27.576  27.649  15.182  1.00  0.00     0.025 A 
HETATM   35  C1  UNL     1      29.020  27.290  15.254  1.00  0.00     0.070 C 
HETATM   36  N8  UNL     1      26.835  27.814  14.095  1.00  0.00    -0.304 N 
HETATM   37  N7  UNL     1      25.575  28.135  14.447  1.00  0.00    -0.285 N 
ATOM     38  H8  UNL     1      27.169  27.712  13.136  1.00  0.00     0.186 HD
ATOM     39  H7  UNL     1      24.818  28.312  13.786  1.00  0.00     0.188 HD
ENDBRANCH  30  32
ENDBRANCH   1  30
TORSDOF 7
ENDMDL
