MODEL 5
REMARK VINA RESULT: -8.937395771      3.923      5.863
REMARK  7 active torsions:
REMARK  status: ('A' for Active; 'I' for Inactive)
REMARK    1  A    between atoms: C4_4  and  N1_5 
REMARK    2  A    between atoms: N1_5  and  C5_7 
REMARK    3  A    between atoms: C7_9  and  N2_10 
REMARK    4  A    between atoms: C13_19  and  S1_20 
REMARK    5  A    between atoms: S1_20  and  C14_21 
REMARK    6  A    between atoms: C17_24  and  N5_25 
REMARK       I    between atoms: N5_25  and  C18_27 
REMARK    7  A    between atoms: C18_27  and  C19_29 
ROOT
HETATM    1  C5  UNL     1      23.412  25.648  23.150  1.00  0.00     0.112 A 
HETATM    2  C6  UNL     1      22.456  26.531  22.770  1.00  0.00     0.097 A 
HETATM    3  C7  UNL     1      22.758  27.738  22.103  1.00  0.00     0.108 A 
HETATM    4  N4  UNL     1      24.033  27.985  21.855  1.00  0.00    -0.323 N 
ATOM      5  H4  UNL     1      24.275  28.852  21.375  1.00  0.00     0.169 HD
HETATM    6  C13 UNL     1      25.025  27.151  22.205  1.00  0.00     0.152 A 
HETATM    7  N6  UNL     1      24.704  26.030  22.829  1.00  0.00    -0.323 N 
ATOM      8  H6  UNL     1      25.463  25.401  23.091  1.00  0.00     0.169 HD
ENDROOT
BRANCH   6   9
HETATM    9  S1  UNL     1      26.738  27.502  21.863  1.00  0.00    -0.054 SA
BRANCH   9  10
HETATM   10  C14 UNL     1      27.173  26.615  20.368  1.00  0.00     0.008 A 
HETATM   11  C15 UNL     1      26.663  25.373  20.082  1.00  0.00     0.021 A 
HETATM   12  C16 UNL     1      27.029  24.739  18.925  1.00  0.00     0.031 A 
HETATM   13  C17 UNL     1      27.908  25.298  18.003  1.00  0.00     0.034 A 
HETATM   14  C22 UNL     1      28.391  26.538  18.328  1.00  0.00     0.031 A 
HETATM   15  C23 UNL     1      28.043  27.220  19.500  1.00  0.00     0.021 A 
BRANCH  13  16
HETATM   16  N5  UNL     1      28.238  24.601  16.819  1.00  0.00    -0.327 N 
HETATM   17  C18 UNL     1      29.456  23.966  16.540  1.00  0.00     0.226 C 
HETATM   18  O1  UNL     1      30.382  23.976  17.377  1.00  0.00    -0.273 OA
ATOM     19  H5  UNL     1      27.519  24.556  16.097  1.00  0.00     0.169 HD
BRANCH  17  20
HETATM   20  C19 UNL     1      29.657  23.261  15.215  1.00  0.00     0.078 A 
HETATM   21  C20 UNL     1      31.027  23.276  14.613  1.00  0.00     0.015 A 
HETATM   22  C21 UNL     1      30.005  24.212  14.084  1.00  0.00     0.015 A 
ENDBRANCH  17  20
ENDBRANCH  13  16
ENDBRANCH   9  10
ENDBRANCH   6   9
BRANCH   3  23
HETATM   23  N2  UNL     1      21.676  28.592  21.750  1.00  0.00    -0.364 N 
HETATM   24  C8  UNL     1      21.867  29.724  20.892  1.00  0.00     0.154 C 
HETATM   25  C9  UNL     1      20.695  30.638  20.793  1.00  0.00     0.291 C 
HETATM   26  N3  UNL     1      19.833  30.500  21.927  1.00  0.00     0.087 N 
HETATM   27  C10 UNL     1      18.721  31.400  21.928  1.00  0.00     0.310 C 
HETATM   28  C11 UNL     1      19.291  29.133  21.862  1.00  0.00     0.291 C 
HETATM   29  C12 UNL     1      20.376  28.221  22.331  1.00  0.00     0.154 C 
ENDBRANCH   3  23
BRANCH   1  30
HETATM   30  N1  UNL     1      23.301  24.420  23.811  1.00  0.00    -0.327 N 
ATOM     31  H1  UNL     1      22.543  23.824  23.480  1.00  0.00     0.169 HD
BRANCH  30  32
HETATM   32  C4  UNL     1      24.065  23.875  24.857  1.00  0.00     0.123 A 
HETATM   33  C3  UNL     1      25.137  22.991  24.652  1.00  0.00     0.075 A 
HETATM   34  C2  UNL     1      25.683  22.635  25.857  1.00  0.00     0.025 A 
HETATM   35  C1  UNL     1      26.835  21.716  26.077  1.00  0.00     0.070 C 
HETATM   36  N8  UNL     1      24.972  23.277  26.773  1.00  0.00    -0.304 N 
HETATM   37  N7  UNL     1      24.014  24.010  26.174  1.00  0.00    -0.285 N 
ATOM     38  H8  UNL     1      25.127  23.223  27.780  1.00  0.00     0.186 HD
ATOM     39  H7  UNL     1      23.338  24.593  26.669  1.00  0.00     0.188 HD
ENDBRANCH  30  32
ENDBRANCH   1  30
TORSDOF 7
ENDMDL
