MODEL 4
REMARK VINA RESULT: -6.502130520      2.279      4.892
REMARK  3 active torsions:
REMARK  status: ('A' for Active; 'I' for Inactive)
REMARK    1  A    between atoms: C1_2  and  C2_4 
REMARK    2  A    between atoms: C2_4  and  C3_5 
REMARK    3  A    between atoms: C6_8  and  O3_9 
ROOT
HETATM    1  C3  UNL     1      10.838 -22.609  17.036  1.00  0.00    -0.046 A 
HETATM    2  C4  UNL     1       9.976 -23.640  17.346  1.00  0.00     0.010 A 
HETATM    3  C5  UNL     1       9.807 -24.010  18.664  1.00  0.00     0.039 A 
HETATM    4  C6  UNL     1      10.471 -23.384  19.700  1.00  0.00     0.087 A 
HETATM    5  C7  UNL     1      11.335 -22.352  19.398  1.00  0.00     0.067 A 
HETATM    6 CL1  UNL     1      12.198 -21.530  20.658  1.00  0.00    -0.081 Cl
HETATM    7  C8  UNL     1      11.508 -21.975  18.063  1.00  0.00     0.034 A 
ENDROOT
BRANCH   1   8
HETATM    8  C2  UNL     1      11.039 -22.191  15.627  1.00  0.00     0.151 C 
BRANCH   8   9
HETATM    9  C1  UNL     1      10.236 -23.080  14.711  1.00  0.00     0.176 C 
HETATM   10  O1  UNL     1       9.105 -22.741  14.283  1.00  0.00    -0.648 OA
HETATM   11  O2  UNL     1      10.739 -24.306  14.317  1.00  0.00    -0.648 OA
ENDBRANCH   8   9
ENDBRANCH   1   8
BRANCH   4  12
HETATM   12  O3  UNL     1      10.310 -23.748  21.032  1.00  0.00    -0.359 OA
ATOM     13  H3  UNL     1       9.773 -23.256  21.641  1.00  0.00     0.217 HD
ENDBRANCH   4  12
TORSDOF 3
ENDMDL
