MODEL 8
REMARK VINA RESULT: -5.513843762      2.367      4.717
REMARK  3 active torsions:
REMARK  status: ('A' for Active; 'I' for Inactive)
REMARK    1  A    between atoms: C1_2  and  C2_4 
REMARK    2  A    between atoms: C2_4  and  C3_5 
REMARK    3  A    between atoms: C6_8  and  O3_9 
ROOT
HETATM    1  C3  UNL     1      10.130 -23.658  17.198  1.00  0.00    -0.046 A 
HETATM    2  C4  UNL     1       9.976 -24.120  18.489  1.00  0.00     0.010 A 
HETATM    3  C5  UNL     1      10.636 -23.483  19.520  1.00  0.00     0.039 A 
HETATM    4  C6  UNL     1      11.452 -22.390  19.314  1.00  0.00     0.087 A 
HETATM    5  C7  UNL     1      11.611 -21.922  18.026  1.00  0.00     0.067 A 
HETATM    6 CL1  UNL     1      12.624 -20.551  17.706  1.00  0.00    -0.081 Cl
HETATM    7  C8  UNL     1      10.944 -22.565  16.979  1.00  0.00     0.034 A 
ENDROOT
BRANCH   1   8
HETATM    8  C2  UNL     1       9.433 -24.324  16.071  1.00  0.00     0.151 C 
BRANCH   8   9
HETATM    9  C1  UNL     1      10.015 -23.856  14.761  1.00  0.00     0.176 C 
HETATM   10  O1  UNL     1      10.982 -24.445  14.218  1.00  0.00    -0.648 OA
HETATM   11  O2  UNL     1       9.486 -22.751  14.122  1.00  0.00    -0.648 OA
ENDBRANCH   8   9
ENDBRANCH   1   8
BRANCH   4  12
HETATM   12  O3  UNL     1      12.122 -21.740  20.344  1.00  0.00    -0.359 OA
ATOM     13  H3  UNL     1      12.984 -21.999  20.644  1.00  0.00     0.217 HD
ENDBRANCH   4  12
TORSDOF 3
ENDMDL
