MODEL 1
REMARK VINA RESULT: -7.100337330      0.000      0.000
REMARK  3 active torsions:
REMARK  status: ('A' for Active; 'I' for Inactive)
REMARK    1  A    between atoms: C1_2  and  C2_4 
REMARK    2  A    between atoms: C2_4  and  C3_5 
REMARK    3  A    between atoms: C6_8  and  O3_9 
ROOT
HETATM    1  C3  UNL     1      10.224 -22.315  18.039  1.00  0.00    -0.046 A 
HETATM    2  C4  UNL     1       9.290 -21.462  17.489  1.00  0.00     0.010 A 
HETATM    3  C5  UNL     1       8.930 -21.613  16.166  1.00  0.00     0.039 A 
HETATM    4  C6  UNL     1       9.470 -22.593  15.359  1.00  0.00     0.087 A 
HETATM    5  C7  UNL     1      10.405 -23.450  15.901  1.00  0.00     0.067 A 
HETATM    6 CL1  UNL     1      11.118 -24.702  14.935  1.00  0.00    -0.081 Cl
HETATM    7  C8  UNL     1      10.772 -23.300  17.243  1.00  0.00     0.034 A 
ENDROOT
BRANCH   1   8
HETATM    8  C2  UNL     1      10.630 -22.174  19.459  1.00  0.00     0.151 C 
BRANCH   8   9
HETATM    9  C1  UNL     1      10.094 -23.333  20.261  1.00  0.00     0.176 C 
HETATM   10  O1  UNL     1      10.834 -24.026  21.001  1.00  0.00    -0.648 OA
HETATM   11  O2  UNL     1       8.752 -23.661  20.196  1.00  0.00    -0.648 OA
ENDBRANCH   8   9
ENDBRANCH   1   8
BRANCH   4  12
HETATM   12  O3  UNL     1       9.116 -22.755  14.024  1.00  0.00    -0.359 OA
ATOM     13  H3  UNL     1       9.700 -23.131  13.376  1.00  0.00     0.217 HD
ENDBRANCH   4  12
TORSDOF 3
ENDMDL
