MODEL 6
REMARK VINA RESULT: -6.047489349      0.864      1.171
REMARK  3 active torsions:
REMARK  status: ('A' for Active; 'I' for Inactive)
REMARK    1  A    between atoms: C1_2  and  C2_4 
REMARK    2  A    between atoms: C2_4  and  C3_5 
REMARK    3  A    between atoms: C6_8  and  O3_9 
ROOT
HETATM    1  C3  UNL     1       9.550 -22.296  18.142  1.00  0.00    -0.046 A 
HETATM    2  C4  UNL     1       8.801 -21.442  17.360  1.00  0.00     0.010 A 
HETATM    3  C5  UNL     1       8.767 -21.629  15.993  1.00  0.00     0.039 A 
HETATM    4  C6  UNL     1       9.458 -22.647  15.367  1.00  0.00     0.087 A 
HETATM    5  C7  UNL     1      10.209 -23.505  16.142  1.00  0.00     0.067 A 
HETATM    6 CL1  UNL     1      11.099 -24.802  15.411  1.00  0.00    -0.081 Cl
HETATM    7  C8  UNL     1      10.246 -23.319  17.528  1.00  0.00     0.034 A 
ENDROOT
BRANCH   1   8
HETATM    8  C2  UNL     1       9.605 -22.118  19.613  1.00  0.00     0.151 C 
BRANCH   8   9
HETATM    9  C1  UNL     1      10.806 -22.838  20.172  1.00  0.00     0.176 C 
HETATM   10  O1  UNL     1      10.713 -23.976  20.695  1.00  0.00    -0.648 OA
HETATM   11  O2  UNL     1      12.056 -22.249  20.117  1.00  0.00    -0.648 OA
ENDBRANCH   8   9
ENDBRANCH   1   8
BRANCH   4  12
HETATM   12  O3  UNL     1       9.432 -22.845  13.991  1.00  0.00    -0.359 OA
ATOM     13  H3  UNL     1       8.756 -23.348  13.554  1.00  0.00     0.217 HD
ENDBRANCH   4  12
TORSDOF 3
ENDMDL
