MODEL 5
REMARK VINA RESULT: -6.268083836      2.439      4.757
REMARK  3 active torsions:
REMARK  status: ('A' for Active; 'I' for Inactive)
REMARK    1  A    between atoms: C1_2  and  C2_4 
REMARK    2  A    between atoms: C2_4  and  C3_5 
REMARK    3  A    between atoms: C6_8  and  O3_9 
ROOT
HETATM    1  C3  UNL     1       9.837 -21.940  17.276  1.00  0.00    -0.046 A 
HETATM    2  C4  UNL     1      11.129 -21.472  17.156  1.00  0.00     0.010 A 
HETATM    3  C5  UNL     1      11.988 -21.571  18.232  1.00  0.00     0.039 A 
HETATM    4  C6  UNL     1      11.606 -22.124  19.436  1.00  0.00     0.087 A 
HETATM    5  C7  UNL     1      10.315 -22.594  19.564  1.00  0.00     0.067 A 
HETATM    6 CL1  UNL     1       9.778 -23.300  21.055  1.00  0.00    -0.081 Cl
HETATM    7  C8  UNL     1       9.442 -22.497  18.476  1.00  0.00     0.034 A 
ENDROOT
BRANCH   1   8
HETATM    8  C2  UNL     1       8.893 -21.846  16.136  1.00  0.00     0.151 C 
BRANCH   8   9
HETATM    9  C1  UNL     1       9.218 -22.907  15.114  1.00  0.00     0.176 C 
HETATM   10  O1  UNL     1       9.315 -22.640  13.890  1.00  0.00    -0.648 OA
HETATM   11  O2  UNL     1       9.420 -24.215  15.511  1.00  0.00    -0.648 OA
ENDBRANCH   8   9
ENDBRANCH   1   8
BRANCH   4  12
HETATM   12  O3  UNL     1      12.461 -22.228  20.527  1.00  0.00    -0.359 OA
ATOM     13  H3  UNL     1      12.402 -21.661  21.287  1.00  0.00     0.217 HD
ENDBRANCH   4  12
TORSDOF 3
ENDMDL
