MODEL 3
REMARK VINA RESULT: -6.789768832      0.925      1.000
REMARK  3 active torsions:
REMARK  status: ('A' for Active; 'I' for Inactive)
REMARK    1  A    between atoms: C1_2  and  C2_4 
REMARK    2  A    between atoms: C2_4  and  C3_5 
REMARK    3  A    between atoms: C6_8  and  O3_9 
ROOT
HETATM    1  C3  UNL     1      10.621 -23.393  17.803  1.00  0.00    -0.046 A 
HETATM    2  C4  UNL     1       9.755 -22.343  17.581  1.00  0.00     0.010 A 
HETATM    3  C5  UNL     1       9.281 -22.113  16.305  1.00  0.00     0.039 A 
HETATM    4  C6  UNL     1       9.641 -22.899  15.229  1.00  0.00     0.087 A 
HETATM    5  C7  UNL     1      10.507 -23.950  15.444  1.00  0.00     0.067 A 
HETATM    6 CL1  UNL     1      10.995 -24.971  14.129  1.00  0.00    -0.081 Cl
HETATM    7  C8  UNL     1      10.989 -24.186  16.735  1.00  0.00     0.034 A 
ENDROOT
BRANCH   1   8
HETATM    8  C2  UNL     1      11.145 -23.662  19.165  1.00  0.00     0.151 C 
BRANCH   8   9
HETATM    9  C1  UNL     1      10.208 -23.087  20.197  1.00  0.00     0.176 C 
HETATM   10  O1  UNL     1      10.497 -22.055  20.852  1.00  0.00    -0.648 OA
HETATM   11  O2  UNL     1       8.992 -23.695  20.446  1.00  0.00    -0.648 OA
ENDBRANCH   8   9
ENDBRANCH   1   8
BRANCH   4  12
HETATM   12  O3  UNL     1       9.172 -22.677  13.940  1.00  0.00    -0.359 OA
ATOM     13  H3  UNL     1       8.335 -23.004  13.631  1.00  0.00     0.217 HD
ENDBRANCH   4  12
TORSDOF 3
ENDMDL
