MODEL 15
REMARK VINA RESULT: -4.560681371      1.526      1.620
REMARK  3 active torsions:
REMARK  status: ('A' for Active; 'I' for Inactive)
REMARK    1  A    between atoms: C1_2  and  C2_4 
REMARK    2  A    between atoms: C2_4  and  C3_5 
REMARK    3  A    between atoms: C6_8  and  O3_9 
ROOT
HETATM    1  C3  UNL     1      10.513 -22.168  18.282  1.00  0.00    -0.046 A 
HETATM    2  C4  UNL     1       9.504 -22.923  17.723  1.00  0.00     0.010 A 
HETATM    3  C5  UNL     1       9.430 -23.046  16.350  1.00  0.00     0.039 A 
HETATM    4  C6  UNL     1      10.334 -22.440  15.502  1.00  0.00     0.087 A 
HETATM    5  C7  UNL     1      11.347 -21.684  16.054  1.00  0.00     0.067 A 
HETATM    6 CL1  UNL     1      12.513 -20.898  15.037  1.00  0.00    -0.081 Cl
HETATM    7  C8  UNL     1      11.425 -21.557  17.444  1.00  0.00     0.034 A 
ENDROOT
BRANCH   1   8
HETATM    8  C2  UNL     1      10.616 -22.018  19.754  1.00  0.00     0.151 C 
BRANCH   8   9
HETATM    9  C1  UNL     1      10.130 -23.274  20.431  1.00  0.00     0.176 C 
HETATM   10  O1  UNL     1      10.911 -24.211  20.728  1.00  0.00    -0.648 OA
HETATM   11  O2  UNL     1       8.791 -23.420  20.744  1.00  0.00    -0.648 OA
ENDBRANCH   8   9
ENDBRANCH   1   8
BRANCH   4  12
HETATM   12  O3  UNL     1      10.270 -22.557  14.119  1.00  0.00    -0.359 OA
ATOM     13  H3  UNL     1      10.827 -23.145  13.623  1.00  0.00     0.217 HD
ENDBRANCH   4  12
TORSDOF 3
ENDMDL
