MODEL 2
REMARK VINA RESULT: -7.042150003      1.357      1.509
REMARK  3 active torsions:
REMARK  status: ('A' for Active; 'I' for Inactive)
REMARK    1  A    between atoms: C1_2  and  C2_4 
REMARK    2  A    between atoms: C2_4  and  C3_5 
REMARK    3  A    between atoms: C6_8  and  O3_9 
ROOT
HETATM    1  C3  UNL     1       9.895 -22.895  18.087  1.00  0.00    -0.046 A 
HETATM    2  C4  UNL     1       9.176 -21.838  17.567  1.00  0.00     0.010 A 
HETATM    3  C5  UNL     1       8.963 -21.768  16.206  1.00  0.00     0.039 A 
HETATM    4  C6  UNL     1       9.443 -22.721  15.331  1.00  0.00     0.087 A 
HETATM    5  C7  UNL     1      10.162 -23.781  15.843  1.00  0.00     0.067 A 
HETATM    6 CL1  UNL     1      10.791 -25.009  14.792  1.00  0.00    -0.081 Cl
HETATM    7  C8  UNL     1      10.379 -23.856  17.223  1.00  0.00     0.034 A 
ENDROOT
BRANCH   1   8
HETATM    8  C2  UNL     1      10.138 -22.995  19.547  1.00  0.00     0.151 C 
BRANCH   8   9
HETATM    9  C1  UNL     1      11.367 -22.202  19.916  1.00  0.00     0.176 C 
HETATM   10  O1  UNL     1      12.365 -22.136  19.158  1.00  0.00    -0.648 OA
HETATM   11  O2  UNL     1      11.418 -21.520  21.118  1.00  0.00    -0.648 OA
ENDBRANCH   8   9
ENDBRANCH   1   8
BRANCH   4  12
HETATM   12  O3  UNL     1       9.236 -22.661  13.958  1.00  0.00    -0.359 OA
ATOM     13  H3  UNL     1       9.719 -23.196  13.338  1.00  0.00     0.217 HD
ENDBRANCH   4  12
TORSDOF 3
ENDMDL
