MODEL 2
REMARK VINA RESULT: -6.627064247      2.851      5.400
REMARK  14 active torsions:
REMARK  status: ('A' for Active; 'I' for Inactive)
REMARK    1  A    between atoms: O1_2  and  C2_3 
REMARK    2  A    between atoms: C2_3  and  C3_4 
REMARK    3  A    between atoms: C4_6  and  O3_7 
REMARK    4  A    between atoms: O3_7  and  C5_8 
REMARK    5  A    between atoms: C7_10  and  C8_11 
REMARK    6  A    between atoms: C20_23  and  O4_24 
REMARK    7  A    between atoms: C20_23  and  C21_26 
REMARK    8  A    between atoms: C21_26  and  O5_27 
REMARK    9  A    between atoms: C25_31  and  O6_32 
REMARK   10  A    between atoms: C26_34  and  O7_35 
REMARK   11  A    between atoms: C30_43  and  C32_45 
REMARK   12  A    between atoms: C32_45  and  C33_46 
REMARK   13  A    between atoms: C33_46  and  O11_47 
REMARK   14  A    between atoms: O11_47  and  C34_48 
ROOT
HETATM    1  C5  UNL     1     -13.577 -13.495 -21.517  1.00  0.00     0.184 C 
HETATM    2  C6  UNL     1     -14.675 -13.845 -20.585  1.00  0.00    -0.034 C 
HETATM    3  C7  UNL     1     -14.768 -13.162 -19.469  1.00  0.00    -0.070 C 
HETATM    4  C11 UNL     1     -15.944 -13.636 -18.629  1.00  0.00     0.036 C 
HETATM    5  C12 UNL     1     -16.180 -15.003 -19.160  1.00  0.00     0.022 C 
HETATM    6  C13 UNL     1     -15.785 -14.876 -20.620  1.00  0.00     0.001 C 
HETATM    7  C14 UNL     1     -16.982 -14.387 -21.375  1.00  0.00     0.025 C 
HETATM    8  C15 UNL     1     -15.310 -16.214 -21.056  1.00  0.00    -0.007 C 
HETATM    9  C16 UNL     1     -14.236 -16.937 -21.214  1.00  0.00    -0.042 C 
HETATM   10  C17 UNL     1     -12.790 -16.678 -20.986  1.00  0.00     0.024 C 
HETATM   11  C18 UNL     1     -12.320 -16.917 -22.398  1.00  0.00     0.013 C 
HETATM   12  C19 UNL     1     -13.078 -18.198 -22.749  1.00  0.00     0.045 C 
HETATM   13  C20 UNL     1     -14.230 -18.297 -21.713  1.00  0.00     0.103 C 
HETATM   14  C23 UNL     1     -12.496 -15.411 -20.346  1.00  0.00     0.021 C 
HETATM   15  C24 UNL     1     -11.310 -15.635 -19.387  1.00  0.00     0.013 C 
HETATM   16  C25 UNL     1     -12.260 -14.200 -21.164  1.00  0.00     0.156 C 
ENDROOT
BRANCH   1  17
HETATM   17  O3  UNL     1     -13.382 -12.173 -21.763  1.00  0.00    -0.346 OA
BRANCH  17  18
HETATM   18  C4  UNL     1     -13.378 -11.827 -23.133  1.00  0.00     0.292 C 
HETATM   19  O2  UNL     1     -13.434 -13.014 -23.818  1.00  0.00    -0.346 OA
HETATM   20  C3  UNL     1     -13.580 -12.966 -25.162  1.00  0.00     0.213 C 
HETATM   21  C29 UNL     1     -14.143 -11.698 -25.702  1.00  0.00     0.225 C 
HETATM   22  C27 UNL     1     -15.055 -10.944 -24.790  1.00  0.00     0.223 C 
HETATM   23  O9  UNL     1     -13.166 -10.700 -25.944  1.00  0.00    -0.317 OA
HETATM   24  O10 UNL     1     -14.737 -11.797 -26.936  1.00  0.00    -0.335 OA
HETATM   25  C26 UNL     1     -14.669 -11.048 -23.344  1.00  0.00     0.208 C 
HETATM   26  O8  UNL     1     -14.945  -9.637 -25.285  1.00  0.00    -0.344 OA
HETATM   27  C28 UNL     1     -14.092  -9.715 -26.379  1.00  0.00     0.298 C 
HETATM   28  C30 UNL     1     -14.794 -10.500 -27.449  1.00  0.00     0.113 C 
HETATM   29  C31 UNL     1     -14.079 -10.436 -28.788  1.00  0.00     0.051 C 
BRANCH  20  30
HETATM   30  C2  UNL     1     -14.451 -14.086 -25.652  1.00  0.00     0.204 C 
BRANCH  30  31
HETATM   31  O1  UNL     1     -14.272 -15.320 -25.155  1.00  0.00    -0.393 OA
HETATM   32  C1  UNL     1     -15.397 -15.929 -24.684  1.00  0.00     0.201 C 
ENDBRANCH  30  31
ENDBRANCH  20  30
BRANCH  25  33
HETATM   33  O7  UNL     1     -15.707 -11.642 -22.628  1.00  0.00    -0.388 OA
ATOM     34  H7  UNL     1     -15.356 -12.269 -22.006  1.00  0.00     0.210 HD
ENDBRANCH  25  33
BRANCH  28  35
HETATM   35  C32 UNL     1     -16.188 -10.009 -27.658  1.00  0.00     0.069 C 
BRANCH  35  36
HETATM   36  C33 UNL     1     -16.613 -10.115 -29.107  1.00  0.00     0.181 C 
BRANCH  36  37
HETATM   37  O11 UNL     1     -17.281  -8.932 -29.497  1.00  0.00    -0.328 OA
BRANCH  37  38
HETATM   38  C34 UNL     1     -16.595  -7.721 -29.488  1.00  0.00     0.398 C 
HETATM   39  O12 UNL     1     -17.069  -6.795 -28.781  1.00  0.00    -0.276 OA
ENDBRANCH  37  38
ENDBRANCH  36  37
ENDBRANCH  35  36
ENDBRANCH  28  35
ENDBRANCH  17  18
ENDBRANCH   1  17
BRANCH  16  40
HETATM   40  O6  UNL     1     -11.478 -14.412 -22.310  1.00  0.00    -0.392 OA
ATOM     41  H6  UNL     1     -10.698 -13.871 -22.295  1.00  0.00     0.210 HD
ENDBRANCH  16  40
BRANCH   3  42
HETATM   42  C8  UNL     1     -13.896 -12.066 -19.018  1.00  0.00     0.007 C 
HETATM   43  C9  UNL     1     -12.982 -12.583 -17.886  1.00  0.00     0.014 C 
HETATM   44  C10 UNL     1     -14.776 -11.022 -18.326  1.00  0.00     0.014 C 
ENDBRANCH   3  42
BRANCH  13  45
HETATM   45  O4  UNL     1     -13.676 -19.107 -20.705  1.00  0.00    -0.383 OA
ATOM     46  H4  UNL     1     -14.272 -19.834 -20.570  1.00  0.00     0.211 HD
ENDBRANCH  13  45
BRANCH  13  47
HETATM   47  C21 UNL     1     -15.416 -18.913 -22.273  1.00  0.00     0.209 C 
BRANCH  47  48
HETATM   48  O5  UNL     1     -16.124 -19.707 -21.432  1.00  0.00    -0.393 OA
HETATM   49  C22 UNL     1     -17.406 -19.351 -21.132  1.00  0.00     0.201 C 
ENDBRANCH  47  48
ENDBRANCH  13  47
TORSDOF 14
ENDMDL
