MODEL 1
REMARK VINA RESULT: -6.822431323      0.000      0.000
REMARK  14 active torsions:
REMARK  status: ('A' for Active; 'I' for Inactive)
REMARK    1  A    between atoms: O1_2  and  C2_3 
REMARK    2  A    between atoms: C2_3  and  C3_4 
REMARK    3  A    between atoms: C4_6  and  O3_7 
REMARK    4  A    between atoms: O3_7  and  C5_8 
REMARK    5  A    between atoms: C7_10  and  C8_11 
REMARK    6  A    between atoms: C20_23  and  O4_24 
REMARK    7  A    between atoms: C20_23  and  C21_26 
REMARK    8  A    between atoms: C21_26  and  O5_27 
REMARK    9  A    between atoms: C25_31  and  O6_32 
REMARK   10  A    between atoms: C26_34  and  O7_35 
REMARK   11  A    between atoms: C30_43  and  C32_45 
REMARK   12  A    between atoms: C32_45  and  C33_46 
REMARK   13  A    between atoms: C33_46  and  O11_47 
REMARK   14  A    between atoms: O11_47  and  C34_48 
ROOT
HETATM    1  C5  UNL     1     -14.464 -15.416 -19.380  1.00  0.00     0.184 C 
HETATM    2  C6  UNL     1     -13.456 -16.342 -18.813  1.00  0.00    -0.034 C 
HETATM    3  C7  UNL     1     -13.575 -17.618 -19.095  1.00  0.00    -0.070 C 
HETATM    4  C11 UNL     1     -12.465 -18.431 -18.446  1.00  0.00     0.036 C 
HETATM    5  C12 UNL     1     -12.019 -17.536 -17.347  1.00  0.00     0.022 C 
HETATM    6  C13 UNL     1     -12.245 -16.150 -17.922  1.00  0.00     0.001 C 
HETATM    7  C14 UNL     1     -11.024 -15.778 -18.708  1.00  0.00     0.025 C 
HETATM    8  C15 UNL     1     -12.515 -15.246 -16.776  1.00  0.00    -0.007 C 
HETATM    9  C16 UNL     1     -13.476 -14.707 -16.079  1.00  0.00    -0.042 C 
HETATM   10  C17 UNL     1     -14.959 -14.785 -16.157  1.00  0.00     0.024 C 
HETATM   11  C18 UNL     1     -15.225 -13.317 -16.367  1.00  0.00     0.013 C 
HETATM   12  C19 UNL     1     -14.295 -12.695 -15.324  1.00  0.00     0.045 C 
HETATM   13  C20 UNL     1     -13.274 -13.808 -14.962  1.00  0.00     0.103 C 
HETATM   14  C23 UNL     1     -15.464 -15.742 -17.122  1.00  0.00     0.021 C 
HETATM   15  C24 UNL     1     -16.727 -16.390 -16.520  1.00  0.00     0.013 C 
HETATM   16  C25 UNL     1     -15.730 -15.324 -18.517  1.00  0.00     0.156 C 
ENDROOT
BRANCH   1  17
HETATM   17  O3  UNL     1     -14.770 -15.576 -20.694  1.00  0.00    -0.346 OA
BRANCH  17  18
HETATM   18  C4  UNL     1     -14.139 -14.652 -21.558  1.00  0.00     0.292 C 
HETATM   19  O2  UNL     1     -13.958 -15.315 -22.745  1.00  0.00    -0.346 OA
HETATM   20  C3  UNL     1     -13.491 -14.610 -23.801  1.00  0.00     0.213 C 
HETATM   21  C29 UNL     1     -13.679 -13.135 -23.724  1.00  0.00     0.225 C 
HETATM   22  C27 UNL     1     -14.853 -12.664 -22.928  1.00  0.00     0.223 C 
HETATM   23  O9  UNL     1     -12.638 -12.465 -23.034  1.00  0.00    -0.317 OA
HETATM   24  O10 UNL     1     -13.670 -12.477 -24.929  1.00  0.00    -0.335 OA
HETATM   25  C26 UNL     1     -15.154 -13.532 -21.742  1.00  0.00     0.208 C 
HETATM   26  O8  UNL     1     -14.456 -11.370 -22.564  1.00  0.00    -0.344 OA
HETATM   27  C28 UNL     1     -13.214 -11.173 -23.154  1.00  0.00     0.298 C 
HETATM   28  C30 UNL     1     -13.415 -11.135 -24.641  1.00  0.00     0.113 C 
HETATM   29  C31 UNL     1     -12.180 -10.666 -25.389  1.00  0.00     0.051 C 
BRANCH  20  30
HETATM   30  C2  UNL     1     -14.122 -15.074 -25.082  1.00  0.00     0.204 C 
BRANCH  30  31
HETATM   31  O1  UNL     1     -15.382 -15.536 -25.062  1.00  0.00    -0.393 OA
HETATM   32  C1  UNL     1     -15.774 -16.209 -26.181  1.00  0.00     0.201 C 
ENDBRANCH  30  31
ENDBRANCH  20  30
BRANCH  25  33
HETATM   33  O7  UNL     1     -16.435 -14.065 -21.870  1.00  0.00    -0.388 OA
ATOM     34  H7  UNL     1     -16.425 -14.793 -22.479  1.00  0.00     0.210 HD
ENDBRANCH  25  33
BRANCH  28  35
HETATM   35  C32 UNL     1     -14.541 -10.227 -25.014  1.00  0.00     0.069 C 
BRANCH  35  36
HETATM   36  C33 UNL     1     -15.036 -10.490 -26.420  1.00  0.00     0.181 C 
BRANCH  36  37
HETATM   37  O11 UNL     1     -15.347  -9.266 -27.054  1.00  0.00    -0.328 OA
BRANCH  37  38
HETATM   38  C34 UNL     1     -16.646  -9.035 -27.501  1.00  0.00     0.398 C 
HETATM   39  O12 UNL     1     -16.985  -7.839 -27.689  1.00  0.00    -0.276 OA
ENDBRANCH  37  38
ENDBRANCH  36  37
ENDBRANCH  35  36
ENDBRANCH  28  35
ENDBRANCH  17  18
ENDBRANCH   1  17
BRANCH  16  40
HETATM   40  O6  UNL     1     -16.339 -14.067 -18.645  1.00  0.00    -0.392 OA
ATOM     41  H6  UNL     1     -16.270 -13.570 -17.840  1.00  0.00     0.210 HD
ENDBRANCH  16  40
BRANCH   3  42
HETATM   42  C8  UNL     1     -14.609 -18.257 -19.924  1.00  0.00     0.007 C 
HETATM   43  C9  UNL     1     -15.536 -19.094 -19.016  1.00  0.00     0.014 C 
HETATM   44  C10 UNL     1     -13.922 -19.303 -20.805  1.00  0.00     0.014 C 
ENDBRANCH   3  42
BRANCH  13  45
HETATM   45  O4  UNL     1     -13.855 -14.411 -13.832  1.00  0.00    -0.383 OA
ATOM     46  H4  UNL     1     -13.421 -14.051 -13.068  1.00  0.00     0.211 HD
ENDBRANCH  13  45
BRANCH  13  47
HETATM   47  C21 UNL     1     -11.968 -13.266 -14.641  1.00  0.00     0.209 C 
BRANCH  47  48
HETATM   48  O5  UNL     1     -11.133 -14.096 -13.969  1.00  0.00    -0.393 OA
HETATM   49  C22 UNL     1      -9.818 -14.121 -14.329  1.00  0.00     0.201 C 
ENDBRANCH  47  48
ENDBRANCH  13  47
TORSDOF 14
ENDMDL
