MODEL 3
REMARK VINA RESULT: -6.590962516      3.119      6.552
REMARK  14 active torsions:
REMARK  status: ('A' for Active; 'I' for Inactive)
REMARK    1  A    between atoms: O1_2  and  C2_3 
REMARK    2  A    between atoms: C2_3  and  C3_4 
REMARK    3  A    between atoms: C4_6  and  O3_7 
REMARK    4  A    between atoms: O3_7  and  C5_8 
REMARK    5  A    between atoms: C7_10  and  C8_11 
REMARK    6  A    between atoms: C20_23  and  O4_24 
REMARK    7  A    between atoms: C20_23  and  C21_26 
REMARK    8  A    between atoms: C21_26  and  O5_27 
REMARK    9  A    between atoms: C25_31  and  O6_32 
REMARK   10  A    between atoms: C26_34  and  O7_35 
REMARK   11  A    between atoms: C30_43  and  C32_45 
REMARK   12  A    between atoms: C32_45  and  C33_46 
REMARK   13  A    between atoms: C33_46  and  O11_47 
REMARK   14  A    between atoms: O11_47  and  C34_48 
ROOT
HETATM    1  C5  UNL     1     -13.146 -13.808 -20.033  1.00  0.00     0.184 C 
HETATM    2  C6  UNL     1     -13.828 -12.672 -19.369  1.00  0.00    -0.034 C 
HETATM    3  C7  UNL     1     -14.017 -11.580 -20.072  1.00  0.00    -0.070 C 
HETATM    4  C11 UNL     1     -14.732 -10.515 -19.254  1.00  0.00     0.036 C 
HETATM    5  C12 UNL     1     -14.453 -10.948 -17.860  1.00  0.00     0.022 C 
HETATM    6  C13 UNL     1     -14.391 -12.460 -17.978  1.00  0.00     0.001 C 
HETATM    7  C14 UNL     1     -15.789 -12.985 -17.852  1.00  0.00     0.025 C 
HETATM    8  C15 UNL     1     -13.475 -12.938 -16.912  1.00  0.00    -0.007 C 
HETATM    9  C16 UNL     1     -12.238 -13.279 -16.677  1.00  0.00    -0.042 C 
HETATM   10  C17 UNL     1     -11.020 -13.342 -17.526  1.00  0.00     0.024 C 
HETATM   11  C18 UNL     1     -10.728 -14.810 -17.348  1.00  0.00     0.013 C 
HETATM   12  C19 UNL     1     -10.923 -14.969 -15.839  1.00  0.00     0.045 C 
HETATM   13  C20 UNL     1     -11.742 -13.728 -15.392  1.00  0.00     0.103 C 
HETATM   14  C23 UNL     1     -11.186 -12.809 -18.864  1.00  0.00     0.021 C 
HETATM   15  C24 UNL     1      -9.878 -12.091 -19.247  1.00  0.00     0.013 C 
HETATM   16  C25 UNL     1     -11.617 -13.694 -19.969  1.00  0.00     0.156 C 
ENDROOT
BRANCH   1  17
HETATM   17  O3  UNL     1     -13.568 -14.127 -21.285  1.00  0.00    -0.346 OA
BRANCH  17  18
HETATM   18  C4  UNL     1     -14.284 -15.343 -21.369  1.00  0.00     0.292 C 
HETATM   19  O2  UNL     1     -14.762 -15.582 -20.106  1.00  0.00    -0.346 OA
HETATM   20  C3  UNL     1     -15.605 -16.627 -19.934  1.00  0.00     0.213 C 
HETATM   21  C29 UNL     1     -16.302 -17.099 -21.162  1.00  0.00     0.225 C 
HETATM   22  C27 UNL     1     -16.538 -16.071 -22.219  1.00  0.00     0.223 C 
HETATM   23  O9  UNL     1     -15.557 -18.045 -21.909  1.00  0.00    -0.317 OA
HETATM   24  O10 UNL     1     -17.470 -17.788 -20.947  1.00  0.00    -0.335 OA
HETATM   25  C26 UNL     1     -15.442 -15.052 -22.313  1.00  0.00     0.208 C 
HETATM   26  O8  UNL     1     -16.643 -16.860 -23.373  1.00  0.00    -0.344 OA
HETATM   27  C28 UNL     1     -16.518 -18.176 -22.947  1.00  0.00     0.298 C 
HETATM   28  C30 UNL     1     -17.725 -18.504 -22.117  1.00  0.00     0.113 C 
HETATM   29  C31 UNL     1     -17.840 -19.986 -21.808  1.00  0.00     0.051 C 
BRANCH  20  30
HETATM   30  C2  UNL     1     -16.661 -16.306 -18.916  1.00  0.00     0.204 C 
BRANCH  30  31
HETATM   31  O1  UNL     1     -16.718 -17.025 -17.783  1.00  0.00    -0.393 OA
HETATM   32  C1  UNL     1     -17.095 -16.332 -16.672  1.00  0.00     0.201 C 
ENDBRANCH  30  31
ENDBRANCH  20  30
BRANCH  25  33
HETATM   33  O7  UNL     1     -15.962 -13.785 -22.054  1.00  0.00    -0.388 OA
ATOM     34  H7  UNL     1     -16.700 -13.613 -22.627  1.00  0.00     0.210 HD
ENDBRANCH  25  33
BRANCH  28  35
HETATM   35  C32 UNL     1     -18.985 -18.087 -22.802  1.00  0.00     0.069 C 
BRANCH  35  36
HETATM   36  C33 UNL     1     -19.949 -17.413 -21.850  1.00  0.00     0.181 C 
BRANCH  36  37
HETATM   37  O11 UNL     1     -21.073 -16.939 -22.564  1.00  0.00    -0.328 OA
BRANCH  37  38
HETATM   38  C34 UNL     1     -22.250 -17.683 -22.561  1.00  0.00     0.398 C 
HETATM   39  O12 UNL     1     -22.425 -18.487 -23.512  1.00  0.00    -0.276 OA
ENDBRANCH  37  38
ENDBRANCH  36  37
ENDBRANCH  35  36
ENDBRANCH  28  35
ENDBRANCH  17  18
ENDBRANCH   1  17
BRANCH  16  40
HETATM   40  O6  UNL     1     -11.016 -14.962 -19.972  1.00  0.00    -0.392 OA
ATOM     41  H6  UNL     1     -10.198 -14.953 -19.491  1.00  0.00     0.210 HD
ENDBRANCH  16  40
BRANCH   3  42
HETATM   42  C8  UNL     1     -13.627 -11.339 -21.470  1.00  0.00     0.007 C 
HETATM   43  C9  UNL     1     -12.464 -10.324 -21.500  1.00  0.00     0.014 C 
HETATM   44  C10 UNL     1     -14.776 -10.596 -22.155  1.00  0.00     0.014 C 
ENDBRANCH   3  42
BRANCH  13  45
HETATM   45  O4  UNL     1     -10.743 -12.822 -14.992  1.00  0.00    -0.383 OA
ATOM     46  H4  UNL     1     -10.401 -13.129 -14.161  1.00  0.00     0.211 HD
ENDBRANCH  13  45
BRANCH  13  47
HETATM   47  C21 UNL     1     -12.633 -14.030 -14.289  1.00  0.00     0.209 C 
BRANCH  47  48
HETATM   48  O5  UNL     1     -12.468 -13.278 -13.173  1.00  0.00    -0.393 OA
HETATM   49  C22 UNL     1     -13.272 -13.529 -12.100  1.00  0.00     0.201 C 
ENDBRANCH  47  48
ENDBRANCH  13  47
TORSDOF 14
ENDMDL
