MODEL 3
REMARK VINA RESULT: -10.028192613      4.222      8.091
REMARK  4 active torsions:
REMARK  status: ('A' for Active; 'I' for Inactive)
REMARK       I    between atoms: C1_2  and  N1_3 
REMARK    1  A    between atoms: C1_2  and  C17_30 
REMARK    2  A    between atoms: N1_3  and  C2_5 
REMARK    3  A    between atoms: C6_9  and  C7_10 
REMARK    4  A    between atoms: C11_18  and  C12_19 
ROOT
HETATM    1  C7  UNL     1     -25.203 -33.058  26.804  1.00  0.00     0.071 A 
HETATM    2  N2  UNL     1     -25.398 -33.534  28.061  1.00  0.00    -0.299 N 
ATOM      3  H2  UNL     1     -24.649 -33.741  28.720  1.00  0.00     0.187 HD
HETATM    4  N3  UNL     1     -26.674 -33.694  28.316  1.00  0.00    -0.299 N 
ATOM      5  H3  UNL     1     -27.066 -34.039  29.192  1.00  0.00     0.187 HD
HETATM    6  C8  UNL     1     -27.382 -33.330  27.237  1.00  0.00     0.060 A 
HETATM    7  C9  UNL     1     -28.731 -33.299  26.968  1.00  0.00     0.033 A 
HETATM    8  C10 UNL     1     -29.185 -32.859  25.721  1.00  0.00     0.017 A 
HETATM    9  C11 UNL     1     -28.289 -32.453  24.749  1.00  0.00     0.010 A 
HETATM   10  C14 UNL     1     -26.951 -32.499  25.058  1.00  0.00     0.031 A 
HETATM   11  C15 UNL     1     -26.471 -32.927  26.279  1.00  0.00     0.022 A 
ENDROOT
BRANCH   1  12
HETATM   12  C6  UNL     1     -23.930 -32.757  26.167  1.00  0.00    -0.005 A 
HETATM   13  C5  UNL     1     -23.726 -31.643  25.389  1.00  0.00     0.014 A 
HETATM   14  C4  UNL     1     -22.487 -31.465  24.844  1.00  0.00     0.003 A 
HETATM   15  C3  UNL     1     -21.435 -32.366  25.048  1.00  0.00     0.029 A 
HETATM   16  C2  UNL     1     -21.622 -33.469  25.814  1.00  0.00     0.035 A 
HETATM   17  C16 UNL     1     -22.889 -33.640  26.365  1.00  0.00     0.043 A 
BRANCH  16  18
HETATM   18  N1  UNL     1     -20.650 -34.442  26.093  1.00  0.00    -0.321 N 
HETATM   19  C1  UNL     1     -20.149 -34.793  27.360  1.00  0.00     0.279 C 
HETATM   20  O1  UNL     1     -20.569 -34.219  28.393  1.00  0.00    -0.265 OA
ATOM     21  H1  UNL     1     -20.266 -34.947  25.294  1.00  0.00     0.169 HD
BRANCH  19  22
HETATM   22  C17 UNL     1     -19.112 -35.852  27.475  1.00  0.00     0.142 A 
HETATM   23  C18 UNL     1     -19.134 -37.081  26.857  1.00  0.00     0.045 A 
HETATM   24  C19 UNL     1     -17.982 -37.769  27.227  1.00  0.00     0.027 A 
HETATM   25  C20 UNL     1     -17.315 -36.895  28.068  1.00  0.00     0.143 A 
HETATM   26  O2  UNL     1     -18.013 -35.796  28.180  1.00  0.00    -0.317 OA
ENDBRANCH  19  22
ENDBRANCH  16  18
ENDBRANCH   1  12
BRANCH   9  27
HETATM   27  C12 UNL     1     -28.720 -31.989  23.439  1.00  0.00     0.131 A 
HETATM   28  N4  UNL     1     -28.275 -32.352  22.228  1.00  0.00    -0.336 N 
HETATM   29  C13 UNL     1     -28.947 -31.680  21.280  1.00  0.00     0.199 A 
ATOM     30  H4  UNL     1     -27.538 -33.036  22.053  1.00  0.00     0.168 HD
HETATM   31  N5  UNL     1     -29.826 -30.885  21.907  1.00  0.00    -0.295 N 
HETATM   32  N6  UNL     1     -29.678 -31.082  23.204  1.00  0.00    -0.284 N 
ATOM     33  H5  UNL     1     -30.487 -30.246  21.464  1.00  0.00     0.187 HD
ATOM     34  H6  UNL     1     -30.219 -30.608  23.928  1.00  0.00     0.188 HD
ENDBRANCH   9  27
TORSDOF 4
ENDMDL
