MODEL 2
REMARK VINA RESULT: -10.043597603      0.970      1.357
REMARK  4 active torsions:
REMARK  status: ('A' for Active; 'I' for Inactive)
REMARK       I    between atoms: C1_2  and  N1_3 
REMARK    1  A    between atoms: C1_2  and  C17_30 
REMARK    2  A    between atoms: N1_3  and  C2_5 
REMARK    3  A    between atoms: C6_9  and  C7_10 
REMARK    4  A    between atoms: C11_18  and  C12_19 
ROOT
HETATM    1  C7  UNL     1     -28.173 -31.747  23.483  1.00  0.00     0.071 A 
HETATM    2  N2  UNL     1     -27.817 -30.767  22.614  1.00  0.00    -0.299 N 
ATOM      3  H2  UNL     1     -28.394 -30.450  21.836  1.00  0.00     0.187 HD
HETATM    4  N3  UNL     1     -26.634 -30.281  22.904  1.00  0.00    -0.299 N 
ATOM      5  H3  UNL     1     -26.157 -29.537  22.395  1.00  0.00     0.187 HD
HETATM    6  C8  UNL     1     -26.154 -30.920  23.981  1.00  0.00     0.060 A 
HETATM    7  C9  UNL     1     -24.981 -30.807  24.692  1.00  0.00     0.033 A 
HETATM    8  C10 UNL     1     -24.755 -31.629  25.800  1.00  0.00     0.017 A 
HETATM    9  C11 UNL     1     -25.700 -32.561  26.190  1.00  0.00     0.010 A 
HETATM   10  C14 UNL     1     -26.856 -32.641  25.453  1.00  0.00     0.031 A 
HETATM   11  C15 UNL     1     -27.111 -31.844  24.356  1.00  0.00     0.022 A 
ENDROOT
BRANCH   1  12
HETATM   12  C6  UNL     1     -29.408 -32.516  23.480  1.00  0.00    -0.005 A 
HETATM   13  C5  UNL     1     -30.506 -32.170  22.731  1.00  0.00     0.014 A 
HETATM   14  C4  UNL     1     -31.609 -32.970  22.809  1.00  0.00     0.003 A 
HETATM   15  C3  UNL     1     -31.657 -34.114  23.614  1.00  0.00     0.029 A 
HETATM   16  C2  UNL     1     -30.581 -34.469  24.358  1.00  0.00     0.035 A 
HETATM   17  C16 UNL     1     -29.463 -33.645  24.271  1.00  0.00     0.043 A 
BRANCH  16  18
HETATM   18  N1  UNL     1     -30.507 -35.589  25.200  1.00  0.00    -0.321 N 
HETATM   19  C1  UNL     1     -29.871 -35.660  26.453  1.00  0.00     0.279 C 
HETATM   20  O1  UNL     1     -29.290 -34.656  26.931  1.00  0.00    -0.265 OA
ATOM     21  H1  UNL     1     -30.962 -36.440  24.870  1.00  0.00     0.169 HD
BRANCH  19  22
HETATM   22  C17 UNL     1     -29.888 -36.934  27.218  1.00  0.00     0.142 A 
HETATM   23  C18 UNL     1     -31.006 -37.591  27.679  1.00  0.00     0.045 A 
HETATM   24  C19 UNL     1     -30.587 -38.740  28.342  1.00  0.00     0.027 A 
HETATM   25  C20 UNL     1     -29.207 -38.710  28.242  1.00  0.00     0.143 A 
HETATM   26  O2  UNL     1     -28.851 -37.641  27.581  1.00  0.00    -0.317 OA
ENDBRANCH  19  22
ENDBRANCH  16  18
ENDBRANCH   1  12
BRANCH   9  27
HETATM   27  C12 UNL     1     -25.501 -33.436  27.336  1.00  0.00     0.131 A 
HETATM   28  N4  UNL     1     -24.401 -34.110  27.700  1.00  0.00    -0.336 N 
HETATM   29  C13 UNL     1     -24.647 -34.800  28.826  1.00  0.00     0.199 A 
ATOM     30  H4  UNL     1     -23.513 -34.100  27.200  1.00  0.00     0.168 HD
HETATM   31  N5  UNL     1     -25.919 -34.553  29.170  1.00  0.00    -0.295 N 
HETATM   32  N6  UNL     1     -26.420 -33.732  28.266  1.00  0.00    -0.284 N 
ATOM     33  H5  UNL     1     -26.410 -34.931  29.981  1.00  0.00     0.187 HD
ATOM     34  H6  UNL     1     -27.374 -33.372  28.274  1.00  0.00     0.188 HD
ENDBRANCH   9  27
TORSDOF 4
ENDMDL
