MODEL 15
REMARK VINA RESULT: -9.660933316      3.114      5.390
REMARK  4 active torsions:
REMARK  status: ('A' for Active; 'I' for Inactive)
REMARK       I    between atoms: C1_2  and  N1_3 
REMARK    1  A    between atoms: C1_2  and  C17_30 
REMARK    2  A    between atoms: N1_3  and  C2_5 
REMARK    3  A    between atoms: C6_9  and  C7_10 
REMARK    4  A    between atoms: C11_18  and  C12_19 
ROOT
HETATM    1  C7  UNL     1     -29.641 -32.229  22.964  1.00  0.00     0.071 A 
HETATM    2  N2  UNL     1     -29.782 -31.386  21.909  1.00  0.00    -0.299 N 
ATOM      3  H2  UNL     1     -30.594 -31.367  21.292  1.00  0.00     0.187 HD
HETATM    4  N3  UNL     1     -28.741 -30.600  21.785  1.00  0.00    -0.299 N 
ATOM      5  H3  UNL     1     -28.618 -29.885  21.069  1.00  0.00     0.187 HD
HETATM    6  C8  UNL     1     -27.861 -30.889  22.755  1.00  0.00     0.060 A 
HETATM    7  C9  UNL     1     -26.626 -30.378  23.083  1.00  0.00     0.033 A 
HETATM    8  C10 UNL     1     -25.925 -30.892  24.178  1.00  0.00     0.017 A 
HETATM    9  C11 UNL     1     -26.462 -31.915  24.939  1.00  0.00     0.010 A 
HETATM   10  C14 UNL     1     -27.696 -32.397  24.578  1.00  0.00     0.031 A 
HETATM   11  C15 UNL     1     -28.413 -31.911  23.504  1.00  0.00     0.022 A 
ENDROOT
BRANCH   1  12
HETATM   12  C6  UNL     1     -30.586 -33.240  23.412  1.00  0.00    -0.005 A 
HETATM   13  C5  UNL     1     -30.215 -34.341  24.146  1.00  0.00     0.014 A 
HETATM   14  C4  UNL     1     -31.191 -35.222  24.511  1.00  0.00     0.003 A 
HETATM   15  C3  UNL     1     -32.537 -35.044  24.168  1.00  0.00     0.029 A 
HETATM   16  C2  UNL     1     -32.918 -33.962  23.445  1.00  0.00     0.035 A 
HETATM   17  C16 UNL     1     -31.913 -33.071  23.079  1.00  0.00     0.043 A 
BRANCH  16  18
HETATM   18  N1  UNL     1     -34.230 -33.673  23.042  1.00  0.00    -0.321 N 
HETATM   19  C1  UNL     1     -35.101 -32.732  23.621  1.00  0.00     0.279 C 
HETATM   20  O1  UNL     1     -34.734 -32.042  24.601  1.00  0.00    -0.265 OA
ATOM     21  H1  UNL     1     -34.591 -34.200  22.247  1.00  0.00     0.169 HD
BRANCH  19  22
HETATM   22  C17 UNL     1     -36.468 -32.552  23.065  1.00  0.00     0.142 A 
HETATM   23  C18 UNL     1     -37.308 -31.488  23.299  1.00  0.00     0.045 A 
HETATM   24  C19 UNL     1     -38.487 -31.707  22.594  1.00  0.00     0.027 A 
HETATM   25  C20 UNL     1     -38.288 -32.921  21.960  1.00  0.00     0.143 A 
HETATM   26  O2  UNL     1     -37.100 -33.371  22.266  1.00  0.00    -0.317 OA
ENDBRANCH  19  22
ENDBRANCH  16  18
ENDBRANCH   1  12
BRANCH   9  27
HETATM   27  C12 UNL     1     -25.764 -32.478  26.085  1.00  0.00     0.131 A 
HETATM   28  N4  UNL     1     -26.192 -33.395  26.965  1.00  0.00    -0.336 N 
HETATM   29  C13 UNL     1     -25.230 -33.635  27.871  1.00  0.00     0.199 A 
ATOM     30  H4  UNL     1     -27.108 -33.843  26.947  1.00  0.00     0.168 HD
HETATM   31  N5  UNL     1     -24.186 -32.857  27.553  1.00  0.00    -0.295 N 
HETATM   32  N6  UNL     1     -24.521 -32.168  26.478  1.00  0.00    -0.284 N 
ATOM     33  H5  UNL     1     -23.296 -32.807  28.050  1.00  0.00     0.187 HD
ATOM     34  H6  UNL     1     -23.916 -31.492  26.011  1.00  0.00     0.188 HD
ENDBRANCH   9  27
TORSDOF 4
ENDMDL
