MODEL 1
REMARK VINA RESULT: -10.121504062      0.000      0.000
REMARK  4 active torsions:
REMARK  status: ('A' for Active; 'I' for Inactive)
REMARK       I    between atoms: C1_2  and  N1_3 
REMARK    1  A    between atoms: C1_2  and  C17_30 
REMARK    2  A    between atoms: N1_3  and  C2_5 
REMARK    3  A    between atoms: C6_9  and  C7_10 
REMARK    4  A    between atoms: C11_18  and  C12_19 
ROOT
HETATM    1  C7  UNL     1     -29.473 -32.022  22.882  1.00  0.00     0.071 A 
HETATM    2  N2  UNL     1     -29.486 -31.150  21.840  1.00  0.00    -0.299 N 
ATOM      3  H2  UNL     1     -30.254 -31.061  21.174  1.00  0.00     0.187 HD
HETATM    4  N3  UNL     1     -28.386 -30.439  21.801  1.00  0.00    -0.299 N 
ATOM      5  H3  UNL     1     -28.168 -29.721  21.110  1.00  0.00     0.187 HD
HETATM    6  C8  UNL     1     -27.593 -30.809  22.816  1.00  0.00     0.060 A 
HETATM    7  C9  UNL     1     -26.348 -30.394  23.233  1.00  0.00     0.033 A 
HETATM    8  C10 UNL     1     -25.758 -30.978  24.357  1.00  0.00     0.017 A 
HETATM    9  C11 UNL     1     -26.412 -31.974  25.059  1.00  0.00     0.010 A 
HETATM   10  C14 UNL     1     -27.652 -32.360  24.610  1.00  0.00     0.031 A 
HETATM   11  C15 UNL     1     -28.263 -31.802  23.505  1.00  0.00     0.022 A 
ENDROOT
BRANCH   1  12
HETATM   12  C6  UNL     1     -30.513 -32.971  23.246  1.00  0.00    -0.005 A 
HETATM   13  C5  UNL     1     -31.799 -32.893  22.769  1.00  0.00     0.014 A 
HETATM   14  C4  UNL     1     -32.690 -33.841  23.181  1.00  0.00     0.003 A 
HETATM   15  C3  UNL     1     -32.342 -34.875  24.059  1.00  0.00     0.029 A 
HETATM   16  C2  UNL     1     -31.076 -34.965  24.537  1.00  0.00     0.035 A 
HETATM   17  C16 UNL     1     -30.177 -33.992  24.110  1.00  0.00     0.043 A 
BRANCH  16  18
HETATM   18  N1  UNL     1     -30.606 -35.951  25.418  1.00  0.00    -0.321 N 
HETATM   19  C1  UNL     1     -29.790 -35.752  26.547  1.00  0.00     0.279 C 
HETATM   20  O1  UNL     1     -29.405 -34.600  26.860  1.00  0.00    -0.265 OA
ATOM     21  H1  UNL     1     -30.885 -36.912  25.220  1.00  0.00     0.169 HD
BRANCH  19  22
HETATM   22  C17 UNL     1     -29.382 -36.916  27.376  1.00  0.00     0.142 A 
HETATM   23  C18 UNL     1     -30.226 -37.810  27.994  1.00  0.00     0.045 A 
HETATM   24  C19 UNL     1     -29.444 -38.744  28.667  1.00  0.00     0.027 A 
HETATM   25  C20 UNL     1     -28.142 -38.351  28.411  1.00  0.00     0.143 A 
HETATM   26  O2  UNL     1     -28.160 -37.284  27.657  1.00  0.00    -0.317 OA
ENDBRANCH  19  22
ENDBRANCH  16  18
ENDBRANCH   1  12
BRANCH   9  27
HETATM   27  C12 UNL     1     -25.832 -32.608  26.233  1.00  0.00     0.131 A 
HETATM   28  N4  UNL     1     -24.563 -32.580  26.665  1.00  0.00    -0.336 N 
HETATM   29  C13 UNL     1     -24.454 -33.300  27.793  1.00  0.00     0.199 A 
ATOM     30  H4  UNL     1     -23.797 -32.086  26.207  1.00  0.00     0.168 HD
HETATM   31  N5  UNL     1     -25.672 -33.785  28.071  1.00  0.00    -0.295 N 
HETATM   32  N6  UNL     1     -26.490 -33.361  27.125  1.00  0.00    -0.284 N 
ATOM     33  H5  UNL     1     -25.921 -34.373  28.867  1.00  0.00     0.187 HD
ATOM     34  H6  UNL     1     -27.486 -33.577  27.080  1.00  0.00     0.188 HD
ENDBRANCH   9  27
TORSDOF 4
ENDMDL
