MODEL 8
REMARK VINA RESULT: -8.842887522      1.272      1.648
REMARK  10 active torsions:
REMARK  status: ('A' for Active; 'I' for Inactive)
REMARK    1  A    between atoms: N5_13  and  C6_14 
REMARK    2  A    between atoms: C7_16  and  C8_17 
REMARK    3  A    between atoms: C8_17  and  O2_18 
REMARK    4  A    between atoms: O2_18  and  P1_19 
REMARK    5  A    between atoms: P1_19  and  O5_22 
REMARK    6  A    between atoms: O5_22  and  P2_23 
REMARK    7  A    between atoms: P2_23  and  O8_26 
REMARK    8  A    between atoms: O8_26  and  P3_27 
REMARK    9  A    between atoms: C9_31  and  O12_32 
REMARK   10  A    between atoms: C10_34  and  O13_35 
ROOT
HETATM    1  C6  UNL     1      34.334  38.307  43.747  1.00  0.00     0.159 C 
HETATM    2  O1  UNL     1      33.077  37.693  43.615  1.00  0.00    -0.326 OA
HETATM    3  C7  UNL     1      32.325  38.672  43.112  1.00  0.00     0.186 C 
HETATM    4  C9  UNL     1      33.142  39.916  42.738  1.00  0.00     0.186 C 
HETATM    5  C10 UNL     1      34.469  39.134  42.519  1.00  0.00     0.224 C 
ENDROOT
BRANCH   3   6
HETATM    6  C8  UNL     1      31.315  38.537  42.045  1.00  0.00     0.216 C 
BRANCH   6   7
HETATM    7  O2  UNL     1      31.975  38.357  40.804  1.00  0.00    -0.287 OA
BRANCH   7   8
HETATM    8  P1  UNL     1      31.370  36.791  40.328  1.00  0.00     0.417 P 
HETATM    9  O3  UNL     1      31.491  36.641  38.898  1.00  0.00    -0.624 OA
HETATM   10  O4  UNL     1      32.532  35.741  41.169  1.00  0.00    -0.624 OA
BRANCH   8  11
HETATM   11  O5  UNL     1      29.894  36.445  41.031  1.00  0.00    -0.180 OA
BRANCH  11  12
HETATM   12  P2  UNL     1      29.121  35.216  40.076  1.00  0.00     0.428 P 
HETATM   13  O6  UNL     1      27.984  34.703  40.908  1.00  0.00    -0.624 OA
HETATM   14  O7  UNL     1      30.165  34.010  39.608  1.00  0.00    -0.624 OA
BRANCH  12  15
HETATM   15  O8  UNL     1      28.467  36.019  38.712  1.00  0.00    -0.173 OA
BRANCH  15  16
HETATM   16  P3  UNL     1      28.062  34.891  37.540  1.00  0.00     0.431 P 
HETATM   17  O9  UNL     1      27.482  33.642  38.106  1.00  0.00    -0.616 OA
HETATM   18  O10 UNL     1      26.913  35.615  36.516  1.00  0.00    -0.616 OA
HETATM   19  O11 UNL     1      29.478  34.536  36.674  1.00  0.00    -0.616 OA
ENDBRANCH  15  16
ENDBRANCH  12  15
ENDBRANCH  11  12
ENDBRANCH   8  11
ENDBRANCH   7   8
ENDBRANCH   6   7
ENDBRANCH   3   6
BRANCH   4  20
HETATM   20  O12 UNL     1      33.228  40.721  43.828  1.00  0.00    -0.390 OA
ATOM     21  H12 UNL     1      33.776  41.466  43.612  1.00  0.00     0.210 HD
ENDBRANCH   4  20
BRANCH   1  22
HETATM   22  N5  UNL     1      35.387  37.560  44.233  1.00  0.00    -0.273 N 
HETATM   23  C3  UNL     1      36.360  37.986  45.054  1.00  0.00     0.146 A 
HETATM   24  N3  UNL     1      36.667  39.211  45.450  1.00  0.00    -0.336 N 
HETATM   25  C4  UNL     1      37.103  36.943  45.501  1.00  0.00     0.120 A 
HETATM   26  C2  UNL     1      37.702  39.399  46.286  1.00  0.00     0.183 A 
ATOM     27  H3  UNL     1      36.121  40.008  45.123  1.00  0.00     0.168 HD
HETATM   28  N2  UNL     1      38.444  38.377  46.750  1.00  0.00    -0.339 N 
HETATM   29  C1  UNL     1      38.153  37.137  46.362  1.00  0.00     0.148 A 
ATOM     30  H2  UNL     1      39.219  38.550  47.390  1.00  0.00     0.167 HD
HETATM   31  N1  UNL     1      38.842  36.060  46.962  1.00  0.00    -0.080 NA
HETATM   32  N4  UNL     1      36.581  35.844  44.923  1.00  0.00    -0.346 N 
HETATM   33  C5  UNL     1      35.545  36.224  44.153  1.00  0.00     0.192 A 
ATOM     34  H4  UNL     1      36.914  34.888  45.048  1.00  0.00     0.167 HD
ENDBRANCH   1  22
BRANCH   5  35
HETATM   35  O13 UNL     1      35.410  40.155  42.561  1.00  0.00    -0.385 OA
ATOM     36  H13 UNL     1      35.911  40.302  41.767  1.00  0.00     0.210 HD
ENDBRANCH   5  35
TORSDOF 10
ENDMDL
