MODEL 11
REMARK VINA RESULT: -8.791209188      1.522      2.886
REMARK  10 active torsions:
REMARK  status: ('A' for Active; 'I' for Inactive)
REMARK    1  A    between atoms: N5_13  and  C6_14 
REMARK    2  A    between atoms: C7_16  and  C8_17 
REMARK    3  A    between atoms: C8_17  and  O2_18 
REMARK    4  A    between atoms: O2_18  and  P1_19 
REMARK    5  A    between atoms: P1_19  and  O5_22 
REMARK    6  A    between atoms: O5_22  and  P2_23 
REMARK    7  A    between atoms: P2_23  and  O8_26 
REMARK    8  A    between atoms: O8_26  and  P3_27 
REMARK    9  A    between atoms: C9_31  and  O12_32 
REMARK   10  A    between atoms: C10_34  and  O13_35 
ROOT
HETATM    1  C6  UNL     1      34.193  37.973  43.611  1.00  0.00     0.159 C 
HETATM    2  O1  UNL     1      33.050  37.192  43.371  1.00  0.00    -0.326 OA
HETATM    3  C7  UNL     1      32.210  38.066  42.816  1.00  0.00     0.186 C 
HETATM    4  C9  UNL     1      32.870  39.420  42.523  1.00  0.00     0.186 C 
HETATM    5  C10 UNL     1      34.308  38.836  42.406  1.00  0.00     0.224 C 
ENDROOT
BRANCH   3   6
HETATM    6  C8  UNL     1      31.318  37.813  41.669  1.00  0.00     0.216 C 
BRANCH   6   7
HETATM    7  O2  UNL     1      30.151  37.151  42.128  1.00  0.00    -0.287 OA
BRANCH   7   8
HETATM    8  P1  UNL     1      30.237  35.660  41.225  1.00  0.00     0.417 P 
HETATM    9  O3  UNL     1      31.612  35.231  41.132  1.00  0.00    -0.624 OA
HETATM   10  O4  UNL     1      29.319  34.590  42.307  1.00  0.00    -0.624 OA
BRANCH   8  11
HETATM   11  O5  UNL     1      29.337  35.721  39.819  1.00  0.00    -0.180 OA
BRANCH  11  12
HETATM   12  P2  UNL     1      30.436  35.625  38.475  1.00  0.00     0.428 P 
HETATM   13  O6  UNL     1      30.824  34.181  38.363  1.00  0.00    -0.624 OA
HETATM   14  O7  UNL     1      31.751  36.629  38.643  1.00  0.00    -0.624 OA
BRANCH  12  15
HETATM   15  O8  UNL     1      29.523  36.045  37.088  1.00  0.00    -0.173 OA
BRANCH  15  16
HETATM   16  P3  UNL     1      28.990  37.628  37.228  1.00  0.00     0.431 P 
HETATM   17  O9  UNL     1      29.542  38.329  38.420  1.00  0.00    -0.616 OA
HETATM   18  O10 UNL     1      29.485  38.454  35.826  1.00  0.00    -0.616 OA
HETATM   19  O11 UNL     1      27.295  37.581  37.313  1.00  0.00    -0.616 OA
ENDBRANCH  15  16
ENDBRANCH  12  15
ENDBRANCH  11  12
ENDBRANCH   8  11
ENDBRANCH   7   8
ENDBRANCH   6   7
ENDBRANCH   3   6
BRANCH   4  20
HETATM   20  O12 UNL     1      32.755  40.206  43.624  1.00  0.00    -0.390 OA
ATOM     21  H12 UNL     1      32.470  41.070  43.351  1.00  0.00     0.210 HD
ENDBRANCH   4  20
BRANCH   1  22
HETATM   22  N5  UNL     1      35.298  37.370  44.175  1.00  0.00    -0.273 N 
HETATM   23  C3  UNL     1      36.182  37.938  45.010  1.00  0.00     0.146 A 
HETATM   24  N3  UNL     1      36.336  39.208  45.355  1.00  0.00    -0.336 N 
HETATM   25  C4  UNL     1      37.014  37.007  45.538  1.00  0.00     0.120 A 
HETATM   26  C2  UNL     1      37.307  39.548  46.220  1.00  0.00     0.183 A 
ATOM     27  H3  UNL     1      35.721  39.923  44.967  1.00  0.00     0.168 HD
HETATM   28  N2  UNL     1      38.134  38.636  46.763  1.00  0.00    -0.339 N 
HETATM   29  C1  UNL     1      37.997  37.355  46.428  1.00  0.00     0.148 A 
ATOM     30  H2  UNL     1      38.857  38.923  47.423  1.00  0.00     0.167 HD
HETATM   31  N1  UNL     1      38.773  36.389  47.108  1.00  0.00    -0.080 NA
HETATM   32  N4  UNL     1      36.641  35.830  44.997  1.00  0.00    -0.346 N 
HETATM   33  C5  UNL     1      35.604  36.058  44.169  1.00  0.00     0.192 A 
ATOM     34  H4  UNL     1      37.070  34.924  45.182  1.00  0.00     0.167 HD
ENDBRANCH   1  22
BRANCH   5  35
HETATM   35  O13 UNL     1      35.088  39.977  42.535  1.00  0.00    -0.385 OA
ATOM     36  H13 UNL     1      35.733  39.972  43.233  1.00  0.00     0.210 HD
ENDBRANCH   5  35
TORSDOF 10
ENDMDL
