MODEL 1
REMARK VINA RESULT: -12.443133058      0.000      0.000
REMARK  4 active torsions:
REMARK  status: ('A' for Active; 'I' for Inactive)
REMARK    1  A    between atoms: C3_7  and  C4_8 
REMARK    2  A    between atoms: C7_11  and  C8_12 
REMARK    3  A    between atoms: C10_14  and  C11_15 
REMARK       I    between atoms: C11_15  and  N3_17 
REMARK    4  A    between atoms: N3_17  and  C12_19 
ROOT
HETATM    1  C4  UNL     1      44.664  32.611  31.476  1.00  0.00     0.017 A 
HETATM    2  C5  UNL     1      43.691  33.246  32.214  1.00  0.00     0.017 A 
HETATM    3  C6  UNL     1      42.477  32.631  32.415  1.00  0.00     0.014 A 
HETATM    4  C7  UNL     1      42.172  31.374  31.901  1.00  0.00    -0.019 A 
HETATM    5  C19 UNL     1      43.167  30.770  31.169  1.00  0.00    -0.050 A 
HETATM    6  C20 UNL     1      42.987  29.416  30.570  1.00  0.00     0.049 C 
HETATM    7  C21 UNL     1      44.397  31.374  30.956  1.00  0.00     0.023 A 
ENDROOT
BRANCH   4   8
HETATM    8  C8  UNL     1      40.881  30.731  32.087  1.00  0.00    -0.018 A 
HETATM    9  C9  UNL     1      40.642  29.890  33.172  1.00  0.00     0.030 A 
HETATM   10  C10 UNL     1      39.427  29.247  33.352  1.00  0.00     0.032 A 
HETATM   11  C15 UNL     1      38.447  29.462  32.422  1.00  0.00     0.017 A 
HETATM   12  C16 UNL     1      38.643  30.290  31.328  1.00  0.00     0.009 A 
HETATM   13  C17 UNL     1      39.880  30.930  31.167  1.00  0.00    -0.051 A 
HETATM   14  C18 UNL     1      40.102  31.835  30.007  1.00  0.00     0.049 C 
BRANCH  10  15
HETATM   15  C11 UNL     1      39.236  28.386  34.502  1.00  0.00     0.252 C 
HETATM   16  O1  UNL     1      40.041  28.459  35.485  1.00  0.00    -0.268 OA
HETATM   17  N3  UNL     1      38.196  27.448  34.621  1.00  0.00    -0.352 N 
ATOM     18  H3  UNL     1      37.533  27.364  33.850  1.00  0.00     0.163 HD
BRANCH  17  19
HETATM   19  C12 UNL     1      38.012  26.593  35.777  1.00  0.00     0.084 A 
HETATM   20  C13 UNL     1      37.103  27.189  36.839  1.00  0.00     0.027 A 
HETATM   21  C14 UNL     1      36.715  25.925  36.029  1.00  0.00     0.027 A 
ENDBRANCH  17  19
ENDBRANCH  10  15
ENDBRANCH   4   8
BRANCH   1  22
HETATM   22  C3  UNL     1      45.948  33.260  31.263  1.00  0.00     0.174 A 
HETATM   23  N2  UNL     1      46.949  33.400  32.141  1.00  0.00    -0.277 N 
HETATM   24  N1  UNL     1      47.926  34.043  31.561  1.00  0.00    -0.281 N 
ATOM     25  H2  UNL     1      46.949  33.061  33.103  1.00  0.00     0.189 HD
HETATM   26  C2  UNL     1      47.540  34.312  30.305  1.00  0.00     0.136 A 
ATOM     27  H1  UNL     1      48.820  34.294  31.985  1.00  0.00     0.189 HD
HETATM   28  C1  UNL     1      48.319  35.032  29.251  1.00  0.00     0.099 C 
HETATM   29  O2  UNL     1      46.350  33.832  30.152  1.00  0.00    -0.278 OA
ENDBRANCH   1  22
TORSDOF 4
ENDMDL
