MODEL 5
REMARK VINA RESULT: -8.383558402      1.540      9.056
REMARK  4 active torsions:
REMARK  status: ('A' for Active; 'I' for Inactive)
REMARK    1  A    between atoms: C3_7  and  C4_8 
REMARK    2  A    between atoms: C7_11  and  C8_12 
REMARK    3  A    between atoms: C10_14  and  C11_15 
REMARK       I    between atoms: C11_15  and  N3_17 
REMARK    4  A    between atoms: N3_17  and  C12_19 
ROOT
HETATM    1  C4  UNL     1      39.774  28.655  34.351  1.00  0.00     0.017 A 
HETATM    2  C5  UNL     1      41.125  28.396  34.392  1.00  0.00     0.017 A 
HETATM    3  C6  UNL     1      41.967  29.023  33.502  1.00  0.00     0.014 A 
HETATM    4  C7  UNL     1      41.516  29.924  32.542  1.00  0.00    -0.019 A 
HETATM    5  C19 UNL     1      40.162  30.158  32.531  1.00  0.00    -0.050 A 
HETATM    6  C20 UNL     1      39.539  31.111  31.566  1.00  0.00     0.049 C 
HETATM    7  C21 UNL     1      39.297  29.537  33.419  1.00  0.00     0.023 A 
ENDROOT
BRANCH   4   8
HETATM    8  C8  UNL     1      42.397  30.570  31.581  1.00  0.00    -0.018 A 
HETATM    9  C9  UNL     1      43.099  31.729  31.908  1.00  0.00     0.030 A 
HETATM   10  C10 UNL     1      43.922  32.372  30.997  1.00  0.00     0.032 A 
HETATM   11  C15 UNL     1      44.035  31.832  29.745  1.00  0.00     0.017 A 
HETATM   12  C16 UNL     1      43.355  30.682  29.379  1.00  0.00     0.009 A 
HETATM   13  C17 UNL     1      42.528  30.048  30.317  1.00  0.00    -0.051 A 
HETATM   14  C18 UNL     1      41.802  28.803  29.944  1.00  0.00     0.049 C 
BRANCH  10  15
HETATM   15  C11 UNL     1      44.630  33.573  31.396  1.00  0.00     0.252 C 
HETATM   16  O1  UNL     1      44.019  34.476  32.052  1.00  0.00    -0.268 OA
HETATM   17  N3  UNL     1      45.982  33.824  31.106  1.00  0.00    -0.352 N 
ATOM     18  H3  UNL     1      46.501  33.120  30.581  1.00  0.00     0.163 HD
BRANCH  17  19
HETATM   19  C12 UNL     1      46.681  35.028  31.511  1.00  0.00     0.084 A 
HETATM   20  C13 UNL     1      47.649  34.813  32.663  1.00  0.00     0.027 A 
HETATM   21  C14 UNL     1      48.126  35.195  31.238  1.00  0.00     0.027 A 
ENDBRANCH  17  19
ENDBRANCH  10  15
ENDBRANCH   4   8
BRANCH   1  22
HETATM   22  C3  UNL     1      38.884  27.993  35.291  1.00  0.00     0.174 A 
HETATM   23  N2  UNL     1      38.834  28.150  36.620  1.00  0.00    -0.277 N 
HETATM   24  N1  UNL     1      37.898  27.375  37.097  1.00  0.00    -0.281 N 
ATOM     25  H2  UNL     1      39.428  28.771  37.168  1.00  0.00     0.189 HD
HETATM   26  C2  UNL     1      37.351  26.722  36.061  1.00  0.00     0.136 A 
ATOM     27  H1  UNL     1      37.632  27.283  38.078  1.00  0.00     0.189 HD
HETATM   28  C1  UNL     1      36.239  25.722  36.105  1.00  0.00     0.099 C 
HETATM   29  O2  UNL     1      37.960  27.110  34.990  1.00  0.00    -0.278 OA
ENDBRANCH   1  22
TORSDOF 4
ENDMDL
