MODEL 2
REMARK VINA RESULT: -11.515775440      0.544      1.375
REMARK  4 active torsions:
REMARK  status: ('A' for Active; 'I' for Inactive)
REMARK    1  A    between atoms: C3_7  and  C4_8 
REMARK    2  A    between atoms: C7_11  and  C8_12 
REMARK    3  A    between atoms: C10_14  and  C11_15 
REMARK       I    between atoms: C11_15  and  N3_17 
REMARK    4  A    between atoms: N3_17  and  C12_19 
ROOT
HETATM    1  C4  UNL     1      44.887  32.714  31.158  1.00  0.00     0.017 A 
HETATM    2  C5  UNL     1      44.580  31.591  30.424  1.00  0.00     0.017 A 
HETATM    3  C6  UNL     1      43.367  30.967  30.607  1.00  0.00     0.014 A 
HETATM    4  C7  UNL     1      42.413  31.421  31.513  1.00  0.00    -0.019 A 
HETATM    5  C19 UNL     1      42.754  32.544  32.228  1.00  0.00    -0.050 A 
HETATM    6  C20 UNL     1      41.824  33.151  33.224  1.00  0.00     0.049 C 
HETATM    7  C21 UNL     1      43.971  33.187  32.058  1.00  0.00     0.023 A 
ENDROOT
BRANCH   4   8
HETATM    8  C8  UNL     1      41.141  30.750  31.731  1.00  0.00    -0.018 A 
HETATM    9  C9  UNL     1      40.946  29.907  32.824  1.00  0.00     0.030 A 
HETATM   10  C10 UNL     1      39.749  29.239  33.034  1.00  0.00     0.032 A 
HETATM   11  C15 UNL     1      38.743  29.431  32.127  1.00  0.00     0.017 A 
HETATM   12  C16 UNL     1      38.895  30.261  31.028  1.00  0.00     0.009 A 
HETATM   13  C17 UNL     1      40.114  30.926  30.836  1.00  0.00    -0.051 A 
HETATM   14  C18 UNL     1      40.289  31.832  29.669  1.00  0.00     0.049 C 
BRANCH  10  15
HETATM   15  C11 UNL     1      39.604  28.377  34.190  1.00  0.00     0.252 C 
HETATM   16  O1  UNL     1      40.480  28.407  35.113  1.00  0.00    -0.268 OA
HETATM   17  N3  UNL     1      38.536  27.483  34.378  1.00  0.00    -0.352 N 
ATOM     18  H3  UNL     1      37.817  27.433  33.656  1.00  0.00     0.163 HD
BRANCH  17  19
HETATM   19  C12 UNL     1      38.399  26.626  35.539  1.00  0.00     0.084 A 
HETATM   20  C13 UNL     1      37.809  27.330  36.750  1.00  0.00     0.027 A 
HETATM   21  C14 UNL     1      37.064  26.190  36.008  1.00  0.00     0.027 A 
ENDBRANCH  17  19
ENDBRANCH  10  15
ENDBRANCH   4   8
BRANCH   1  22
HETATM   22  C3  UNL     1      46.168  33.375  30.964  1.00  0.00     0.174 A 
HETATM   23  N2  UNL     1      47.163  33.507  31.851  1.00  0.00    -0.277 N 
HETATM   24  N1  UNL     1      48.140  34.164  31.288  1.00  0.00    -0.281 N 
ATOM     25  H2  UNL     1      47.158  33.153  32.807  1.00  0.00     0.189 HD
HETATM   26  C2  UNL     1      47.760  34.450  30.034  1.00  0.00     0.136 A 
ATOM     27  H1  UNL     1      49.029  34.414  31.722  1.00  0.00     0.189 HD
HETATM   28  C1  UNL     1      48.542  35.192  28.996  1.00  0.00     0.099 C 
HETATM   29  O2  UNL     1      46.575  33.966  29.865  1.00  0.00    -0.278 OA
ENDBRANCH   1  22
TORSDOF 4
ENDMDL
