MODEL 3
REMARK VINA RESULT: -9.012562187      1.560      9.005
REMARK  4 active torsions:
REMARK  status: ('A' for Active; 'I' for Inactive)
REMARK    1  A    between atoms: C3_7  and  C4_8 
REMARK    2  A    between atoms: C7_11  and  C8_12 
REMARK    3  A    between atoms: C10_14  and  C11_15 
REMARK       I    between atoms: C11_15  and  N3_17 
REMARK    4  A    between atoms: N3_17  and  C12_19 
ROOT
HETATM    1  C4  UNL     1      40.086  28.998  34.270  1.00  0.00     0.017 A 
HETATM    2  C5  UNL     1      39.775  30.277  33.870  1.00  0.00     0.017 A 
HETATM    3  C6  UNL     1      40.582  30.921  32.960  1.00  0.00     0.014 A 
HETATM    4  C7  UNL     1      41.719  30.336  32.410  1.00  0.00    -0.019 A 
HETATM    5  C19 UNL     1      41.997  29.058  32.833  1.00  0.00    -0.050 A 
HETATM    6  C20 UNL     1      43.175  28.302  32.318  1.00  0.00     0.049 C 
HETATM    7  C21 UNL     1      41.197  28.392  33.749  1.00  0.00     0.023 A 
ENDROOT
BRANCH   4   8
HETATM    8  C8  UNL     1      42.591  31.022  31.469  1.00  0.00    -0.018 A 
HETATM    9  C9  UNL     1      43.620  31.852  31.909  1.00  0.00     0.030 A 
HETATM   10  C10 UNL     1      44.444  32.534  31.028  1.00  0.00     0.032 A 
HETATM   11  C15 UNL     1      44.221  32.369  29.688  1.00  0.00     0.017 A 
HETATM   12  C16 UNL     1      43.209  31.553  29.208  1.00  0.00     0.009 A 
HETATM   13  C17 UNL     1      42.388  30.874  30.118  1.00  0.00    -0.051 A 
HETATM   14  C18 UNL     1      41.307  29.982  29.619  1.00  0.00     0.049 C 
BRANCH  10  15
HETATM   15  C11 UNL     1      45.500  33.380  31.545  1.00  0.00     0.252 C 
HETATM   16  O1  UNL     1      45.589  33.584  32.799  1.00  0.00    -0.268 OA
HETATM   17  N3  UNL     1      46.466  34.015  30.744  1.00  0.00    -0.352 N 
ATOM     18  H3  UNL     1      46.423  33.873  29.735  1.00  0.00     0.163 HD
BRANCH  17  19
HETATM   19  C12 UNL     1      47.520  34.858  31.272  1.00  0.00     0.084 A 
HETATM   20  C13 UNL     1      48.824  34.119  31.525  1.00  0.00     0.027 A 
HETATM   21  C14 UNL     1      48.691  35.220  30.441  1.00  0.00     0.027 A 
ENDBRANCH  17  19
ENDBRANCH  10  15
ENDBRANCH   4   8
BRANCH   1  22
HETATM   22  C3  UNL     1      39.233  28.316  35.232  1.00  0.00     0.174 A 
HETATM   23  N2  UNL     1      39.245  28.435  36.565  1.00  0.00    -0.277 N 
HETATM   24  N1  UNL     1      38.325  27.654  37.063  1.00  0.00    -0.281 N 
ATOM     25  H2  UNL     1      39.869  29.037  37.103  1.00  0.00     0.189 HD
HETATM   26  C2  UNL     1      37.726  27.034  36.035  1.00  0.00     0.136 A 
ATOM     27  H1  UNL     1      38.103  27.536  38.052  1.00  0.00     0.189 HD
HETATM   28  C1  UNL     1      36.609  26.041  36.101  1.00  0.00     0.099 C 
HETATM   29  O2  UNL     1      38.289  27.449  34.949  1.00  0.00    -0.278 OA
ENDBRANCH   1  22
TORSDOF 4
ENDMDL
