MODEL 4
REMARK VINA RESULT: -8.426087585      1.628      9.122
REMARK  4 active torsions:
REMARK  status: ('A' for Active; 'I' for Inactive)
REMARK    1  A    between atoms: C3_7  and  C4_8 
REMARK    2  A    between atoms: C7_11  and  C8_12 
REMARK    3  A    between atoms: C10_14  and  C11_15 
REMARK       I    between atoms: C11_15  and  N3_17 
REMARK    4  A    between atoms: N3_17  and  C12_19 
ROOT
HETATM    1  C4  UNL     1      40.228  28.905  34.231  1.00  0.00     0.017 A 
HETATM    2  C5  UNL     1      41.011  28.141  33.395  1.00  0.00     0.017 A 
HETATM    3  C6  UNL     1      41.846  28.758  32.491  1.00  0.00     0.014 A 
HETATM    4  C7  UNL     1      41.944  30.141  32.374  1.00  0.00    -0.019 A 
HETATM    5  C19 UNL     1      41.148  30.870  33.224  1.00  0.00    -0.050 A 
HETATM    6  C20 UNL     1      41.159  32.362  33.221  1.00  0.00     0.049 C 
HETATM    7  C21 UNL     1      40.300  30.268  34.142  1.00  0.00     0.023 A 
ENDROOT
BRANCH   4   8
HETATM    8  C8  UNL     1      42.804  30.798  31.402  1.00  0.00    -0.018 A 
HETATM    9  C9  UNL     1      43.915  31.538  31.803  1.00  0.00     0.030 A 
HETATM   10  C10 UNL     1      44.731  32.192  30.894  1.00  0.00     0.032 A 
HETATM   11  C15 UNL     1      44.416  32.093  29.566  1.00  0.00     0.017 A 
HETATM   12  C16 UNL     1      43.321  31.368  29.124  1.00  0.00     0.009 A 
HETATM   13  C17 UNL     1      42.510  30.714  30.063  1.00  0.00    -0.051 A 
HETATM   14  C18 UNL     1      41.339  29.918  29.604  1.00  0.00     0.049 C 
BRANCH  10  15
HETATM   15  C11 UNL     1      45.874  32.944  31.371  1.00  0.00     0.252 C 
HETATM   16  O1  UNL     1      46.360  32.693  32.520  1.00  0.00    -0.268 OA
HETATM   17  N3  UNL     1      46.510  33.962  30.638  1.00  0.00    -0.352 N 
ATOM     18  H3  UNL     1      46.145  34.189  29.713  1.00  0.00     0.163 HD
BRANCH  17  19
HETATM   19  C12 UNL     1      47.655  34.707  31.123  1.00  0.00     0.084 A 
HETATM   20  C13 UNL     1      48.987  34.171  30.625  1.00  0.00     0.027 A 
HETATM   21  C14 UNL     1      48.445  35.564  30.211  1.00  0.00     0.027 A 
ENDBRANCH  17  19
ENDBRANCH  10  15
ENDBRANCH   4   8
BRANCH   1  22
HETATM   22  C3  UNL     1      39.346  28.254  35.187  1.00  0.00     0.174 A 
HETATM   23  N2  UNL     1      39.279  28.458  36.509  1.00  0.00    -0.277 N 
HETATM   24  N1  UNL     1      38.359  27.676  37.005  1.00  0.00    -0.281 N 
ATOM     25  H2  UNL     1      39.851  29.114  37.039  1.00  0.00     0.189 HD
HETATM   26  C2  UNL     1      37.839  26.972  35.989  1.00  0.00     0.136 A 
ATOM     27  H1  UNL     1      38.086  27.613  37.986  1.00  0.00     0.189 HD
HETATM   28  C1  UNL     1      36.754  25.945  36.059  1.00  0.00     0.099 C 
HETATM   29  O2  UNL     1      38.448  27.337  34.910  1.00  0.00    -0.278 OA
ENDBRANCH   1  22
TORSDOF 4
ENDMDL
