MODEL 12
REMARK VINA RESULT: -10.210462251      4.565     14.356
REMARK  5 active torsions:
REMARK  status: ('A' for Active; 'I' for Inactive)
REMARK    1  A    between atoms: C5_5  and  C6_6 
REMARK       I    between atoms: C6_6  and  N1_8 
REMARK    2  A    between atoms: N1_8  and  C7_10 
REMARK    3  A    between atoms: C11_14  and  N2_15 
REMARK    4  A    between atoms: C18_23  and  C19_24 
REMARK    5  A    between atoms: C23_28  and  C24_29 
ROOT
HETATM    1  C1  UNL     1      47.661  31.398  30.147  1.00  0.00     0.049 C 
HETATM    2  C2  UNL     1      47.765  32.816  29.696  1.00  0.00    -0.051 A 
HETATM    3  C3  UNL     1      48.962  33.253  29.123  1.00  0.00     0.009 A 
HETATM    4  C4  UNL     1      49.095  34.554  28.703  1.00  0.00     0.017 A 
HETATM    5  C5  UNL     1      48.088  35.491  28.815  1.00  0.00     0.033 A 
HETATM    6  C17 UNL     1      46.910  35.061  29.380  1.00  0.00     0.029 A 
HETATM    7  C18 UNL     1      46.757  33.738  29.813  1.00  0.00    -0.019 A 
ENDROOT
BRANCH   7   8
HETATM    8  C19 UNL     1      45.482  33.319  30.406  1.00  0.00    -0.023 A 
HETATM    9  C20 UNL     1      44.924  32.098  30.099  1.00  0.00     0.013 A 
HETATM   10  C21 UNL     1      43.731  31.654  30.633  1.00  0.00     0.017 A 
HETATM   11  C22 UNL     1      43.054  32.459  31.515  1.00  0.00     0.025 A 
HETATM   12  C23 UNL     1      41.871  32.319  32.208  1.00  0.00     0.050 A 
HETATM   13  C29 UNL     1      43.605  33.691  31.831  1.00  0.00     0.112 A 
HETATM   14  N4  UNL     1      41.745  33.467  32.917  1.00  0.00    -0.264 N 
HETATM   15  O3  UNL     1      42.753  34.240  32.686  1.00  0.00    -0.237 OA
ATOM     16  H4  UNL     1      40.969  33.688  33.541  1.00  0.00     0.194 HD
HETATM   17  C30 UNL     1      44.799  34.123  31.291  1.00  0.00     0.052 A 
BRANCH  12  18
HETATM   18  C24 UNL     1      40.946  31.158  32.189  1.00  0.00     0.042 C 
HETATM   19  C25 UNL     1      39.525  31.590  32.498  1.00  0.00     0.038 C 
HETATM   20  C26 UNL     1      38.958  30.834  33.677  1.00  0.00     0.233 C 
HETATM   21  N3  UNL     1      39.789  31.046  34.848  1.00  0.00    -0.075 N 
HETATM   22  C27 UNL     1      41.129  30.595  34.643  1.00  0.00     0.233 C 
ATOM     23  H32 UNL     1      39.769  32.022  35.143  1.00  0.00     0.277 HD
ATOM     24  H31 UNL     1      39.377  30.618  35.677  1.00  0.00     0.277 HD
HETATM   25  C28 UNL     1      41.434  30.156  33.231  1.00  0.00     0.038 C 
ENDBRANCH  12  18
ENDBRANCH   7   8
BRANCH   5  26
HETATM   26  C6  UNL     1      48.299  36.871  28.352  1.00  0.00     0.256 C 
HETATM   27  O1  UNL     1      47.614  37.239  27.377  1.00  0.00    -0.267 OA
HETATM   28  N1  UNL     1      49.208  37.763  28.945  1.00  0.00    -0.323 N 
ATOM     29  H1  UNL     1      49.737  37.409  29.742  1.00  0.00     0.169 HD
BRANCH  28  30
HETATM   30  C7  UNL     1      49.472  39.100  28.557  1.00  0.00     0.037 A 
HETATM   31  C8  UNL     1      49.814  40.135  29.377  1.00  0.00     0.029 A 
HETATM   32  C9  UNL     1      50.069  41.415  28.945  1.00  0.00     0.004 A 
HETATM   33  C10 UNL     1      49.975  41.684  27.597  1.00  0.00     0.029 A 
HETATM   34  C11 UNL     1      49.636  40.695  26.711  1.00  0.00     0.032 A 
HETATM   35  C16 UNL     1      49.387  39.404  27.204  1.00  0.00     0.058 A 
BRANCH  34  36
HETATM   36  N2  UNL     1      49.551  40.968  25.342  1.00  0.00    -0.377 N 
HETATM   37  C12 UNL     1      48.890  42.121  24.816  1.00  0.00     0.149 C 
HETATM   38  C13 UNL     1      47.652  41.589  24.070  1.00  0.00     0.187 C 
HETATM   39  O2  UNL     1      47.956  40.402  23.432  1.00  0.00    -0.388 OA
HETATM   40  C14 UNL     1      49.294  40.275  23.096  1.00  0.00     0.187 C 
HETATM   41  C15 UNL     1      50.141  40.056  24.356  1.00  0.00     0.149 C 
ENDBRANCH  34  36
ENDBRANCH  28  30
ENDBRANCH   5  26
TORSDOF 5
ENDMDL
