MODEL 1
REMARK VINA RESULT: -14.064236939      0.000      0.000
REMARK  5 active torsions:
REMARK  status: ('A' for Active; 'I' for Inactive)
REMARK    1  A    between atoms: C5_5  and  C6_6 
REMARK       I    between atoms: C6_6  and  N1_8 
REMARK    2  A    between atoms: N1_8  and  C7_10 
REMARK    3  A    between atoms: C11_14  and  N2_15 
REMARK    4  A    between atoms: C18_23  and  C19_24 
REMARK    5  A    between atoms: C23_28  and  C24_29 
ROOT
HETATM    1  C1  UNL     1      39.621  32.935  30.852  1.00  0.00     0.049 C 
HETATM    2  C2  UNL     1      39.762  32.055  32.048  1.00  0.00    -0.051 A 
HETATM    3  C3  UNL     1      38.610  31.502  32.614  1.00  0.00     0.009 A 
HETATM    4  C4  UNL     1      38.701  30.693  33.720  1.00  0.00     0.017 A 
HETATM    5  C5  UNL     1      39.898  30.378  34.330  1.00  0.00     0.033 A 
HETATM    6  C17 UNL     1      41.032  30.922  33.772  1.00  0.00     0.029 A 
HETATM    7  C18 UNL     1      40.957  31.750  32.644  1.00  0.00    -0.019 A 
ENDROOT
BRANCH   7   8
HETATM    8  C19 UNL     1      42.191  32.306  32.079  1.00  0.00    -0.023 A 
HETATM    9  C20 UNL     1      42.668  33.532  32.486  1.00  0.00     0.013 A 
HETATM   10  C21 UNL     1      43.826  34.098  31.990  1.00  0.00     0.017 A 
HETATM   11  C22 UNL     1      44.550  33.416  31.044  1.00  0.00     0.025 A 
HETATM   12  C23 UNL     1      45.717  33.693  30.365  1.00  0.00     0.050 A 
HETATM   13  C29 UNL     1      44.080  32.181  30.627  1.00  0.00     0.112 A 
HETATM   14  N4  UNL     1      45.914  32.621  29.560  1.00  0.00    -0.264 N 
HETATM   15  O3  UNL     1      44.962  31.764  29.728  1.00  0.00    -0.237 OA
ATOM     16  H4  UNL     1      46.697  32.507  28.918  1.00  0.00     0.194 HD
HETATM   17  C30 UNL     1      42.921  31.626  31.130  1.00  0.00     0.052 A 
BRANCH  12  18
HETATM   18  C24 UNL     1      46.574  34.898  30.497  1.00  0.00     0.042 C 
HETATM   19  C25 UNL     1      47.280  35.208  29.191  1.00  0.00     0.038 C 
HETATM   20  C26 UNL     1      48.780  35.267  29.370  1.00  0.00     0.233 C 
HETATM   21  N3  UNL     1      49.266  34.002  29.889  1.00  0.00    -0.075 N 
HETATM   22  C27 UNL     1      48.688  33.685  31.156  1.00  0.00     0.233 C 
ATOM     23  H32 UNL     1      49.123  33.248  29.218  1.00  0.00     0.277 HD
ATOM     24  H31 UNL     1      50.286  33.988  29.934  1.00  0.00     0.277 HD
HETATM   25  C28 UNL     1      47.594  34.626  31.599  1.00  0.00     0.038 C 
ENDBRANCH  12  18
ENDBRANCH   7   8
BRANCH   5  26
HETATM   26  C6  UNL     1      39.925  29.511  35.517  1.00  0.00     0.256 C 
HETATM   27  O1  UNL     1      40.833  29.731  36.344  1.00  0.00    -0.267 OA
HETATM   28  N1  UNL     1      39.001  28.478  35.751  1.00  0.00    -0.323 N 
ATOM     29  H1  UNL     1      38.279  28.347  35.043  1.00  0.00     0.169 HD
BRANCH  28  30
HETATM   30  C7  UNL     1      38.963  27.600  36.862  1.00  0.00     0.037 A 
HETATM   31  C8  UNL     1      38.507  26.314  36.869  1.00  0.00     0.029 A 
HETATM   32  C9  UNL     1      38.501  25.500  37.977  1.00  0.00     0.004 A 
HETATM   33  C10 UNL     1      38.983  26.004  39.165  1.00  0.00     0.029 A 
HETATM   34  C11 UNL     1      39.457  27.288  39.235  1.00  0.00     0.032 A 
HETATM   35  C16 UNL     1      39.442  28.077  38.075  1.00  0.00     0.058 A 
BRANCH  34  36
HETATM   36  N2  UNL     1      39.956  27.795  40.441  1.00  0.00    -0.377 N 
HETATM   37  C12 UNL     1      39.977  27.041  41.655  1.00  0.00     0.149 C 
HETATM   38  C13 UNL     1      38.971  27.734  42.593  1.00  0.00     0.187 C 
HETATM   39  O2  UNL     1      39.033  29.104  42.427  1.00  0.00    -0.388 OA
HETATM   40  C14 UNL     1      40.264  29.559  41.984  1.00  0.00     0.187 C 
HETATM   41  C15 UNL     1      40.484  29.161  40.519  1.00  0.00     0.149 C 
ENDBRANCH  34  36
ENDBRANCH  28  30
ENDBRANCH   5  26
TORSDOF 5
ENDMDL
