MODEL 2
REMARK VINA RESULT: -13.880157499      1.053      1.434
REMARK  5 active torsions:
REMARK  status: ('A' for Active; 'I' for Inactive)
REMARK    1  A    between atoms: C5_5  and  C6_6 
REMARK       I    between atoms: C6_6  and  N1_8 
REMARK    2  A    between atoms: N1_8  and  C7_10 
REMARK    3  A    between atoms: C11_14  and  N2_15 
REMARK    4  A    between atoms: C18_23  and  C19_24 
REMARK    5  A    between atoms: C23_28  and  C24_29 
ROOT
HETATM    1  C1  UNL     1      39.557  32.946  30.863  1.00  0.00     0.049 C 
HETATM    2  C2  UNL     1      39.719  32.063  32.054  1.00  0.00    -0.051 A 
HETATM    3  C3  UNL     1      38.580  31.486  32.623  1.00  0.00     0.009 A 
HETATM    4  C4  UNL     1      38.692  30.674  33.725  1.00  0.00     0.017 A 
HETATM    5  C5  UNL     1      39.897  30.380  34.329  1.00  0.00     0.033 A 
HETATM    6  C17 UNL     1      41.018  30.948  33.769  1.00  0.00     0.029 A 
HETATM    7  C18 UNL     1      40.923  31.779  32.645  1.00  0.00    -0.019 A 
ENDROOT
BRANCH   7   8
HETATM    8  C19 UNL     1      42.144  32.361  32.077  1.00  0.00    -0.023 A 
HETATM    9  C20 UNL     1      42.865  31.694  31.112  1.00  0.00     0.013 A 
HETATM   10  C21 UNL     1      44.016  32.199  30.542  1.00  0.00     0.017 A 
HETATM   11  C22 UNL     1      44.479  33.426  30.947  1.00  0.00     0.025 A 
HETATM   12  C23 UNL     1      45.566  34.193  30.588  1.00  0.00     0.050 A 
HETATM   13  C29 UNL     1      43.762  34.107  31.918  1.00  0.00     0.112 A 
HETATM   14  N4  UNL     1      45.473  35.309  31.352  1.00  0.00    -0.264 N 
HETATM   15  O3  UNL     1      44.428  35.238  32.108  1.00  0.00    -0.237 OA
ATOM     16  H4  UNL     1      46.130  36.088  31.333  1.00  0.00     0.194 HD
HETATM   17  C30 UNL     1      42.612  33.591  32.480  1.00  0.00     0.052 A 
BRANCH  12  18
HETATM   18  C24 UNL     1      46.604  33.870  29.576  1.00  0.00     0.042 C 
HETATM   19  C25 UNL     1      47.124  32.458  29.764  1.00  0.00     0.038 C 
HETATM   20  C26 UNL     1      48.625  32.438  29.946  1.00  0.00     0.233 C 
HETATM   21  N3  UNL     1      48.995  33.242  31.096  1.00  0.00    -0.075 N 
HETATM   22  C27 UNL     1      48.592  34.604  30.950  1.00  0.00     0.233 C 
ATOM     23  H32 UNL     1      48.633  32.840  31.960  1.00  0.00     0.277 HD
ATOM     24  H31 UNL     1      49.994  33.171  31.291  1.00  0.00     0.277 HD
HETATM   25  C28 UNL     1      47.739  34.879  29.735  1.00  0.00     0.038 C 
ENDBRANCH  12  18
ENDBRANCH   7   8
BRANCH   5  26
HETATM   26  C6  UNL     1      39.945  29.509  35.512  1.00  0.00     0.256 C 
HETATM   27  O1  UNL     1      40.878  29.715  36.315  1.00  0.00    -0.267 OA
HETATM   28  N1  UNL     1      39.015  28.487  35.768  1.00  0.00    -0.323 N 
ATOM     29  H1  UNL     1      38.272  28.367  35.080  1.00  0.00     0.169 HD
BRANCH  28  30
HETATM   30  C7  UNL     1      38.996  27.605  36.877  1.00  0.00     0.037 A 
HETATM   31  C8  UNL     1      38.571  26.309  36.880  1.00  0.00     0.029 A 
HETATM   32  C9  UNL     1      38.583  25.493  37.987  1.00  0.00     0.004 A 
HETATM   33  C10 UNL     1      39.051  26.006  39.177  1.00  0.00     0.029 A 
HETATM   34  C11 UNL     1      39.494  27.301  39.251  1.00  0.00     0.032 A 
HETATM   35  C16 UNL     1      39.462  28.092  38.092  1.00  0.00     0.058 A 
BRANCH  34  36
HETATM   36  N2  UNL     1      39.978  27.817  40.458  1.00  0.00    -0.377 N 
HETATM   37  C12 UNL     1      39.979  27.074  41.679  1.00  0.00     0.149 C 
HETATM   38  C13 UNL     1      38.963  27.780  42.598  1.00  0.00     0.187 C 
HETATM   39  O2  UNL     1      39.033  29.148  42.419  1.00  0.00    -0.388 OA
HETATM   40  C14 UNL     1      40.273  29.593  41.989  1.00  0.00     0.187 C 
HETATM   41  C15 UNL     1      40.511  29.181  40.531  1.00  0.00     0.149 C 
ENDBRANCH  34  36
ENDBRANCH  28  30
ENDBRANCH   5  26
TORSDOF 5
ENDMDL
