MODEL 13
REMARK VINA RESULT: -10.070856884      4.803     13.807
REMARK  5 active torsions:
REMARK  status: ('A' for Active; 'I' for Inactive)
REMARK    1  A    between atoms: C5_5  and  C6_6 
REMARK       I    between atoms: C6_6  and  N1_8 
REMARK    2  A    between atoms: N1_8  and  C7_10 
REMARK    3  A    between atoms: C11_14  and  N2_15 
REMARK    4  A    between atoms: C18_23  and  C19_24 
REMARK    5  A    between atoms: C23_28  and  C24_29 
ROOT
HETATM    1  C1  UNL     1      47.810  31.522  30.145  1.00  0.00     0.049 C 
HETATM    2  C2  UNL     1      47.924  32.946  29.717  1.00  0.00    -0.051 A 
HETATM    3  C3  UNL     1      49.131  33.386  29.166  1.00  0.00     0.009 A 
HETATM    4  C4  UNL     1      49.275  34.692  28.768  1.00  0.00     0.017 A 
HETATM    5  C5  UNL     1      48.270  35.632  28.879  1.00  0.00     0.033 A 
HETATM    6  C17 UNL     1      47.082  35.198  29.420  1.00  0.00     0.029 A 
HETATM    7  C18 UNL     1      46.919  33.869  29.832  1.00  0.00    -0.019 A 
ENDROOT
BRANCH   7   8
HETATM    8  C19 UNL     1      45.634  33.448  30.401  1.00  0.00    -0.023 A 
HETATM    9  C20 UNL     1      45.059  32.248  30.043  1.00  0.00     0.013 A 
HETATM   10  C21 UNL     1      43.856  31.802  30.551  1.00  0.00     0.017 A 
HETATM   11  C22 UNL     1      43.186  32.582  31.462  1.00  0.00     0.025 A 
HETATM   12  C23 UNL     1      41.997  32.433  32.142  1.00  0.00     0.050 A 
HETATM   13  C29 UNL     1      43.754  33.791  31.829  1.00  0.00     0.112 A 
HETATM   14  N4  UNL     1      41.884  33.553  32.896  1.00  0.00    -0.264 N 
HETATM   15  O3  UNL     1      42.906  34.319  32.701  1.00  0.00    -0.237 OA
ATOM     16  H4  UNL     1      41.108  33.761  33.524  1.00  0.00     0.194 HD
HETATM   17  C30 UNL     1      44.958  34.226  31.313  1.00  0.00     0.052 A 
BRANCH  12  18
HETATM   18  C24 UNL     1      41.054  31.288  32.071  1.00  0.00     0.042 C 
HETATM   19  C25 UNL     1      39.623  31.750  32.265  1.00  0.00     0.038 C 
HETATM   20  C26 UNL     1      38.954  31.024  33.410  1.00  0.00     0.233 C 
HETATM   21  N3  UNL     1      39.698  31.242  34.636  1.00  0.00    -0.075 N 
HETATM   22  C27 UNL     1      41.041  30.764  34.541  1.00  0.00     0.233 C 
ATOM     23  H32 UNL     1      39.675  32.223  34.914  1.00  0.00     0.277 HD
ATOM     24  H31 UNL     1      39.217  30.836  35.439  1.00  0.00     0.277 HD
HETATM   25  C28 UNL     1      41.443  30.295  33.164  1.00  0.00     0.038 C 
ENDBRANCH  12  18
ENDBRANCH   7   8
BRANCH   5  26
HETATM   26  C6  UNL     1      48.493  37.017  28.439  1.00  0.00     0.256 C 
HETATM   27  O1  UNL     1      47.820  37.403  27.462  1.00  0.00    -0.267 OA
HETATM   28  N1  UNL     1      49.401  37.896  29.054  1.00  0.00    -0.323 N 
ATOM     29  H1  UNL     1      49.919  37.527  29.851  1.00  0.00     0.169 HD
BRANCH  28  30
HETATM   30  C7  UNL     1      49.675  39.237  28.689  1.00  0.00     0.037 A 
HETATM   31  C8  UNL     1      49.411  39.826  27.487  1.00  0.00     0.029 A 
HETATM   32  C9  UNL     1      49.691  41.139  27.189  1.00  0.00     0.004 A 
HETATM   33  C10 UNL     1      50.278  41.921  28.158  1.00  0.00     0.029 A 
HETATM   34  C11 UNL     1      50.574  41.399  29.391  1.00  0.00     0.032 A 
HETATM   35  C16 UNL     1      50.267  40.054  29.644  1.00  0.00     0.058 A 
BRANCH  34  36
HETATM   36  N2  UNL     1      51.162  42.199  30.377  1.00  0.00    -0.377 N 
HETATM   37  C12 UNL     1      52.485  42.728  30.267  1.00  0.00     0.149 C 
HETATM   38  C13 UNL     1      53.312  42.011  31.351  1.00  0.00     0.187 C 
HETATM   39  O2  UNL     1      52.548  41.826  32.486  1.00  0.00    -0.388 OA
HETATM   40  C14 UNL     1      51.540  42.764  32.641  1.00  0.00     0.187 C 
HETATM   41  C15 UNL     1      50.433  42.532  31.606  1.00  0.00     0.149 C 
ENDBRANCH  34  36
ENDBRANCH  28  30
ENDBRANCH   5  26
TORSDOF 5
ENDMDL
