MODEL 11
REMARK VINA RESULT: -10.347650432      2.071     11.037
REMARK  5 active torsions:
REMARK  status: ('A' for Active; 'I' for Inactive)
REMARK    1  A    between atoms: C5_5  and  C6_6 
REMARK       I    between atoms: C6_6  and  N1_8 
REMARK    2  A    between atoms: N1_8  and  C7_10 
REMARK    3  A    between atoms: C11_14  and  N2_15 
REMARK    4  A    between atoms: C18_23  and  C19_24 
REMARK    5  A    between atoms: C23_28  and  C24_29 
ROOT
HETATM    1  C1  UNL     1      38.298  31.670  31.763  1.00  0.00     0.049 C 
HETATM    2  C2  UNL     1      39.723  32.108  31.710  1.00  0.00    -0.051 A 
HETATM    3  C3  UNL     1      40.114  33.000  30.708  1.00  0.00     0.009 A 
HETATM    4  C4  UNL     1      41.419  33.419  30.624  1.00  0.00     0.017 A 
HETATM    5  C5  UNL     1      42.404  33.003  31.496  1.00  0.00     0.033 A 
HETATM    6  C17 UNL     1      42.019  32.125  32.483  1.00  0.00     0.029 A 
HETATM    7  C18 UNL     1      40.692  31.687  32.582  1.00  0.00    -0.019 A 
ENDROOT
BRANCH   7   8
HETATM    8  C19 UNL     1      40.323  30.754  33.652  1.00  0.00    -0.023 A 
HETATM    9  C20 UNL     1      39.791  31.209  34.838  1.00  0.00     0.013 A 
HETATM   10  C21 UNL     1      39.422  30.373  35.874  1.00  0.00     0.017 A 
HETATM   11  C22 UNL     1      39.588  29.018  35.729  1.00  0.00     0.025 A 
HETATM   12  C23 UNL     1      39.329  27.941  36.548  1.00  0.00     0.050 A 
HETATM   13  C29 UNL     1      40.123  28.549  34.541  1.00  0.00     0.112 A 
HETATM   14  N4  UNL     1      39.715  26.858  35.831  1.00  0.00    -0.264 N 
HETATM   15  O3  UNL     1      40.167  27.230  34.680  1.00  0.00    -0.237 OA
ATOM     16  H4  UNL     1      39.658  25.892  36.153  1.00  0.00     0.194 HD
HETATM   17  C30 UNL     1      40.488  29.394  33.512  1.00  0.00     0.052 A 
BRANCH  12  18
HETATM   18  C24 UNL     1      38.743  27.964  37.912  1.00  0.00     0.042 C 
HETATM   19  C25 UNL     1      39.829  27.915  38.970  1.00  0.00     0.038 C 
HETATM   20  C26 UNL     1      39.631  26.753  39.917  1.00  0.00     0.233 C 
HETATM   21  N3  UNL     1      39.627  25.505  39.175  1.00  0.00    -0.075 N 
HETATM   22  C27 UNL     1      38.579  25.462  38.206  1.00  0.00     0.233 C 
ATOM     23  H32 UNL     1      40.535  25.327  38.747  1.00  0.00     0.277 HD
ATOM     24  H31 UNL     1      39.584  24.702  39.803  1.00  0.00     0.277 HD
HETATM   25  C28 UNL     1      37.820  26.756  38.044  1.00  0.00     0.038 C 
ENDBRANCH  12  18
ENDBRANCH   7   8
BRANCH   5  26
HETATM   26  C6  UNL     1      43.785  33.485  31.346  1.00  0.00     0.256 C 
HETATM   27  O1  UNL     1      44.227  34.196  32.271  1.00  0.00    -0.267 OA
HETATM   28  N1  UNL     1      44.601  33.187  30.242  1.00  0.00    -0.323 N 
ATOM     29  H1  UNL     1      44.188  32.597  29.519  1.00  0.00     0.169 HD
BRANCH  28  30
HETATM   30  C7  UNL     1      45.934  33.615  30.021  1.00  0.00     0.037 A 
HETATM   31  C8  UNL     1      46.330  34.805  29.487  1.00  0.00     0.029 A 
HETATM   32  C9  UNL     1      47.642  35.174  29.303  1.00  0.00     0.004 A 
HETATM   33  C10 UNL     1      48.631  34.291  29.678  1.00  0.00     0.029 A 
HETATM   34  C11 UNL     1      48.309  33.075  30.222  1.00  0.00     0.032 A 
HETATM   35  C16 UNL     1      46.955  32.748  30.389  1.00  0.00     0.058 A 
BRANCH  34  36
HETATM   36  N2  UNL     1      49.316  32.184  30.611  1.00  0.00    -0.377 N 
HETATM   37  C12 UNL     1      49.794  31.132  29.770  1.00  0.00     0.149 C 
HETATM   38  C13 UNL     1      49.349  29.822  30.447  1.00  0.00     0.187 C 
HETATM   39  O2  UNL     1      49.443  29.940  31.819  1.00  0.00    -0.388 OA
HETATM   40  C14 UNL     1      50.398  30.853  32.238  1.00  0.00     0.187 C 
HETATM   41  C15 UNL     1      49.935  32.284  31.937  1.00  0.00     0.149 C 
ENDBRANCH  34  36
ENDBRANCH  28  30
ENDBRANCH   5  26
TORSDOF 5
ENDMDL
