MODEL 3
REMARK VINA RESULT: -7.370055618      1.923      3.544
REMARK  14 active torsions:
REMARK  status: ('A' for Active; 'I' for Inactive)
REMARK    1  A    between atoms: C1_2  and  C2_3 
REMARK    2  A    between atoms: C1_2  and  C17_20 
REMARK    3  A    between atoms: C2_3  and  C3_4 
REMARK    4  A    between atoms: C3_4  and  C4_6 
REMARK    5  A    between atoms: C8_10  and  O3_11 
REMARK    6  A    between atoms: O3_11  and  C9_12 
REMARK    7  A    between atoms: C9_12  and  C10_13 
REMARK       I    between atoms: C17_20  and  N1_22 
REMARK       I    between atoms: N2_25  and  C20_26 
REMARK    8  A    between atoms: C20_26  and  C21_28 
REMARK    9  A    between atoms: C21_28  and  C22_30 
REMARK   10  A    between atoms: C22_30  and  C23_31 
REMARK   11  A    between atoms: C23_31  and  C24_33 
REMARK   12  A    between atoms: C28_37  and  O8_38 
REMARK   13  A    between atoms: O8_38  and  C29_39 
REMARK   14  A    between atoms: C29_39  and  C30_40 
ROOT
HETATM    1  C17 UNL     1      41.376  18.708  66.652  1.00  0.00     0.290 C 
HETATM    2  O4  UNL     1      42.233  18.880  67.562  1.00  0.00    -0.264 OA
HETATM    3  N1  UNL     1      40.053  19.202  66.786  1.00  0.00    -0.343 N 
HETATM    4  C18 UNL     1      39.096  18.997  65.747  1.00  0.00     0.146 C 
HETATM    5  C19 UNL     1      37.764  19.662  66.046  1.00  0.00     0.146 C 
HETATM    6  N2  UNL     1      37.381  19.437  67.434  1.00  0.00    -0.343 N 
HETATM    7  C20 UNL     1      36.030  19.226  67.710  1.00  0.00     0.290 C 
HETATM    8  O5  UNL     1      35.214  19.250  66.717  1.00  0.00    -0.264 OA
HETATM    9  C37 UNL     1      38.362  19.430  68.490  1.00  0.00     0.146 C 
HETATM   10  C38 UNL     1      39.683  19.931  67.966  1.00  0.00     0.146 C 
ENDROOT
BRANCH   1  11
HETATM   11  C1  UNL     1      41.759  18.000  65.456  1.00  0.00     0.223 C 
HETATM   12  O1  UNL     1      42.556  18.476  64.601  1.00  0.00    -0.287 OA
BRANCH  11  13
HETATM   13  C2  UNL     1      41.224  16.653  65.164  1.00  0.00     0.173 C 
BRANCH  13  14
HETATM   14  C3  UNL     1      42.309  15.667  65.139  1.00  0.00     0.167 C 
HETATM   15  O2  UNL     1      43.147  15.675  64.218  1.00  0.00    -0.292 OA
BRANCH  14  16
HETATM   16  C4  UNL     1      42.398  14.676  66.205  1.00  0.00     0.013 A 
HETATM   17  C5  UNL     1      41.737  13.480  66.092  1.00  0.00     0.015 A 
HETATM   18  C6  UNL     1      41.849  12.551  67.104  1.00  0.00     0.004 A 
HETATM   19  C7  UNL     1      42.605  12.817  68.199  1.00  0.00     0.037 A 
HETATM   20  C8  UNL     1      43.297  14.046  68.340  1.00  0.00     0.070 A 
HETATM   21  C16 UNL     1      43.153  14.945  67.299  1.00  0.00     0.052 A 
BRANCH  20  22
HETATM   22  O3  UNL     1      44.026  14.266  69.424  1.00  0.00    -0.347 OA
BRANCH  22  23
HETATM   23  C9  UNL     1      44.443  14.698  70.571  1.00  0.00     0.214 C 
BRANCH  23  24
HETATM   24  C10 UNL     1      43.717  15.836  71.239  1.00  0.00    -0.038 A 
HETATM   25  C11 UNL     1      43.429  15.790  72.516  1.00  0.00    -0.017 A 
HETATM   26  C12 UNL     1      42.739  16.810  73.295  1.00  0.00     0.031 A 
HETATM   27  C13 UNL     1      42.268  17.987  72.541  1.00  0.00     0.031 A 
HETATM   28  C14 UNL     1      42.628  17.964  71.117  1.00  0.00    -0.026 A 
HETATM   29  C15 UNL     1      43.284  17.001  70.508  1.00  0.00     0.005 A 
ENDBRANCH  23  24
ENDBRANCH  22  23
ENDBRANCH  20  22
ENDBRANCH  14  16
ENDBRANCH  13  14
ENDBRANCH  11  13
ENDBRANCH   1  11
BRANCH   7  30
HETATM   30  C21 UNL     1      35.540  18.988  69.045  1.00  0.00     0.223 C 
HETATM   31  O6  UNL     1      35.309  19.952  69.799  1.00  0.00    -0.287 OA
BRANCH  30  32
HETATM   32  C22 UNL     1      35.297  17.600  69.554  1.00  0.00     0.173 C 
BRANCH  32  33
HETATM   33  C23 UNL     1      35.245  17.571  71.019  1.00  0.00     0.167 C 
HETATM   34  O7  UNL     1      34.128  17.573  71.567  1.00  0.00    -0.292 OA
BRANCH  33  35
HETATM   35  C24 UNL     1      36.448  17.542  71.855  1.00  0.00     0.013 A 
HETATM   36  C25 UNL     1      36.617  18.380  72.926  1.00  0.00     0.015 A 
HETATM   37  C26 UNL     1      37.757  18.337  73.696  1.00  0.00     0.004 A 
HETATM   38  C27 UNL     1      38.748  17.449  73.402  1.00  0.00     0.037 A 
HETATM   39  C28 UNL     1      38.627  16.564  72.311  1.00  0.00     0.069 A 
HETATM   40  C36 UNL     1      37.478  16.639  71.574  1.00  0.00     0.052 A 
BRANCH  39  41
HETATM   41  O8  UNL     1      39.652  15.681  72.060  1.00  0.00    -0.350 OA
BRANCH  41  42
HETATM   42  C29 UNL     1      39.474  14.387  71.611  1.00  0.00     0.184 C 
BRANCH  42  43
HETATM   43  C30 UNL     1      40.062  14.246  70.195  1.00  0.00     0.036 A 
HETATM   44  C31 UNL     1      39.093  13.378  69.481  1.00  0.00    -0.020 A 
HETATM   45  C32 UNL     1      38.502  13.756  68.390  1.00  0.00    -0.004 A 
HETATM   46  C33 UNL     1      38.748  15.051  67.796  1.00  0.00    -0.004 A 
HETATM   47  C34 UNL     1      39.584  15.891  68.351  1.00  0.00    -0.026 A 
HETATM   48  C35 UNL     1      40.304  15.569  69.582  1.00  0.00     0.037 A 
ENDBRANCH  42  43
ENDBRANCH  41  42
ENDBRANCH  39  41
ENDBRANCH  33  35
ENDBRANCH  32  33
ENDBRANCH  30  32
ENDBRANCH   7  30
TORSDOF 14
ENDMDL
