MODEL 2
REMARK VINA RESULT: -7.395477174      1.893      5.386
REMARK  14 active torsions:
REMARK  status: ('A' for Active; 'I' for Inactive)
REMARK    1  A    between atoms: C1_2  and  C2_3 
REMARK    2  A    between atoms: C1_2  and  C17_20 
REMARK    3  A    between atoms: C2_3  and  C3_4 
REMARK    4  A    between atoms: C3_4  and  C4_6 
REMARK    5  A    between atoms: C8_10  and  O3_11 
REMARK    6  A    between atoms: O3_11  and  C9_12 
REMARK    7  A    between atoms: C9_12  and  C10_13 
REMARK       I    between atoms: C17_20  and  N1_22 
REMARK       I    between atoms: N2_25  and  C20_26 
REMARK    8  A    between atoms: C20_26  and  C21_28 
REMARK    9  A    between atoms: C21_28  and  C22_30 
REMARK   10  A    between atoms: C22_30  and  C23_31 
REMARK   11  A    between atoms: C23_31  and  C24_33 
REMARK   12  A    between atoms: C28_37  and  O8_38 
REMARK   13  A    between atoms: O8_38  and  C29_39 
REMARK   14  A    between atoms: C29_39  and  C30_40 
ROOT
HETATM    1  C17 UNL     1      34.867  18.003  69.855  1.00  0.00     0.290 C 
HETATM    2  O4  UNL     1      33.780  17.637  69.328  1.00  0.00    -0.264 OA
HETATM    3  N1  UNL     1      35.794  18.807  69.144  1.00  0.00    -0.343 N 
HETATM    4  C18 UNL     1      37.019  19.211  69.755  1.00  0.00     0.146 C 
HETATM    5  C19 UNL     1      37.839  20.125  68.863  1.00  0.00     0.146 C 
HETATM    6  N2  UNL     1      37.845  19.630  67.492  1.00  0.00    -0.343 N 
HETATM    7  C20 UNL     1      39.024  19.761  66.758  1.00  0.00     0.290 C 
HETATM    8  O5  UNL     1      40.024  20.317  67.343  1.00  0.00    -0.264 OA
HETATM    9  C37 UNL     1      36.675  19.023  66.909  1.00  0.00     0.146 C 
HETATM   10  C38 UNL     1      35.485  19.236  67.808  1.00  0.00     0.146 C 
ENDROOT
BRANCH   1  11
HETATM   11  C1  UNL     1      35.162  17.594  71.206  1.00  0.00     0.223 C 
HETATM   12  O1  UNL     1      35.022  18.359  72.201  1.00  0.00    -0.287 OA
BRANCH  11  13
HETATM   13  C2  UNL     1      35.653  16.231  71.499  1.00  0.00     0.173 C 
BRANCH  13  14
HETATM   14  C3  UNL     1      37.119  16.205  71.496  1.00  0.00     0.167 C 
HETATM   15  O2  UNL     1      37.762  16.761  72.408  1.00  0.00    -0.292 OA
BRANCH  14  16
HETATM   16  C4  UNL     1      37.819  15.521  70.415  1.00  0.00     0.013 A 
HETATM   17  C5  UNL     1      38.268  16.229  69.329  1.00  0.00     0.015 A 
HETATM   18  C6  UNL     1      38.942  15.564  68.327  1.00  0.00     0.004 A 
HETATM   19  C7  UNL     1      39.159  14.228  68.414  1.00  0.00     0.037 A 
HETATM   20  C8  UNL     1      38.704  13.476  69.527  1.00  0.00     0.070 A 
HETATM   21  C16 UNL     1      38.033  14.186  70.505  1.00  0.00     0.052 A 
BRANCH  20  22
HETATM   22  O3  UNL     1      38.939  12.172  69.575  1.00  0.00    -0.347 OA
BRANCH  22  23
HETATM   23  C9  UNL     1      39.522  11.020  69.669  1.00  0.00     0.214 C 
BRANCH  23  24
HETATM   24  C10 UNL     1      41.016  10.962  69.852  1.00  0.00    -0.038 A 
HETATM   25  C11 UNL     1      41.825  11.213  68.852  1.00  0.00    -0.017 A 
HETATM   26  C12 UNL     1      43.282  11.198  68.880  1.00  0.00     0.031 A 
HETATM   27  C13 UNL     1      43.898  10.800  70.160  1.00  0.00     0.031 A 
HETATM   28  C14 UNL     1      42.927  10.535  71.230  1.00  0.00    -0.026 A 
HETATM   29  C15 UNL     1      41.619  10.603  71.112  1.00  0.00     0.005 A 
ENDBRANCH  23  24
ENDBRANCH  22  23
ENDBRANCH  20  22
ENDBRANCH  14  16
ENDBRANCH  13  14
ENDBRANCH  11  13
ENDBRANCH   1  11
BRANCH   7  30
HETATM   30  C21 UNL     1      39.144  19.302  65.397  1.00  0.00     0.223 C 
HETATM   31  O6  UNL     1      38.879  20.076  64.457  1.00  0.00    -0.287 OA
BRANCH  30  32
HETATM   32  C22 UNL     1      39.587  17.906  65.077  1.00  0.00     0.173 C 
BRANCH  32  33
HETATM   33  C23 UNL     1      41.022  17.733  65.325  1.00  0.00     0.167 C 
HETATM   34  O7  UNL     1      41.781  18.685  65.071  1.00  0.00    -0.292 OA
BRANCH  33  35
HETATM   35  C24 UNL     1      41.591  16.491  65.855  1.00  0.00     0.013 A 
HETATM   36  C25 UNL     1      41.216  15.257  65.394  1.00  0.00     0.015 A 
HETATM   37  C26 UNL     1      41.762  14.103  65.908  1.00  0.00     0.004 A 
HETATM   38  C27 UNL     1      42.697  14.171  66.897  1.00  0.00     0.037 A 
HETATM   39  C28 UNL     1      43.120  15.414  67.410  1.00  0.00     0.069 A 
HETATM   40  C36 UNL     1      42.552  16.535  66.869  1.00  0.00     0.052 A 
BRANCH  39  41
HETATM   41  O8  UNL     1      44.071  15.430  68.404  1.00  0.00    -0.350 OA
BRANCH  41  42
HETATM   42  C29 UNL     1      43.801  15.664  69.738  1.00  0.00     0.184 C 
BRANCH  42  43
HETATM   43  C30 UNL     1      42.284  15.556  69.984  1.00  0.00     0.036 A 
HETATM   44  C31 UNL     1      42.126  14.300  70.759  1.00  0.00    -0.020 A 
HETATM   45  C32 UNL     1      41.562  14.276  71.926  1.00  0.00    -0.004 A 
HETATM   46  C33 UNL     1      41.050  15.473  72.553  1.00  0.00    -0.004 A 
HETATM   47  C34 UNL     1      41.142  16.632  71.951  1.00  0.00    -0.026 A 
HETATM   48  C35 UNL     1      41.759  16.775  70.634  1.00  0.00     0.037 A 
ENDBRANCH  42  43
ENDBRANCH  41  42
ENDBRANCH  39  41
ENDBRANCH  33  35
ENDBRANCH  32  33
ENDBRANCH  30  32
ENDBRANCH   7  30
TORSDOF 14
ENDMDL
