MODEL 1
REMARK VINA RESULT: -7.418237062      0.000      0.000
REMARK  14 active torsions:
REMARK  status: ('A' for Active; 'I' for Inactive)
REMARK    1  A    between atoms: C1_2  and  C2_3 
REMARK    2  A    between atoms: C1_2  and  C17_20 
REMARK    3  A    between atoms: C2_3  and  C3_4 
REMARK    4  A    between atoms: C3_4  and  C4_6 
REMARK    5  A    between atoms: C8_10  and  O3_11 
REMARK    6  A    between atoms: O3_11  and  C9_12 
REMARK    7  A    between atoms: C9_12  and  C10_13 
REMARK       I    between atoms: C17_20  and  N1_22 
REMARK       I    between atoms: N2_25  and  C20_26 
REMARK    8  A    between atoms: C20_26  and  C21_28 
REMARK    9  A    between atoms: C21_28  and  C22_30 
REMARK   10  A    between atoms: C22_30  and  C23_31 
REMARK   11  A    between atoms: C23_31  and  C24_33 
REMARK   12  A    between atoms: C28_37  and  O8_38 
REMARK   13  A    between atoms: O8_38  and  C29_39 
REMARK   14  A    between atoms: C29_39  and  C30_40 
ROOT
HETATM    1  C17 UNL     1      42.331  18.462  66.396  1.00  0.00     0.290 C 
HETATM    2  O4  UNL     1      43.336  18.217  67.118  1.00  0.00    -0.264 OA
HETATM    3  N1  UNL     1      41.182  19.103  66.928  1.00  0.00    -0.343 N 
HETATM    4  C18 UNL     1      40.054  19.371  66.096  1.00  0.00     0.146 C 
HETATM    5  C19 UNL     1      38.959  20.126  66.829  1.00  0.00     0.146 C 
HETATM    6  N2  UNL     1      38.758  19.570  68.161  1.00  0.00    -0.343 N 
HETATM    7  C20 UNL     1      37.454  19.510  68.651  1.00  0.00     0.290 C 
HETATM    8  O5  UNL     1      36.518  19.957  67.893  1.00  0.00    -0.264 OA
HETATM    9  C37 UNL     1      39.867  19.094  68.949  1.00  0.00     0.146 C 
HETATM   10  C38 UNL     1      41.167  19.504  68.306  1.00  0.00     0.146 C 
ENDROOT
BRANCH   1  11
HETATM   11  C1  UNL     1      42.360  18.083  65.005  1.00  0.00     0.223 C 
HETATM   12  O1  UNL     1      43.298  18.406  64.225  1.00  0.00    -0.287 OA
BRANCH  11  13
HETATM   13  C2  UNL     1      41.270  17.281  64.411  1.00  0.00     0.173 C 
BRANCH  13  14
HETATM   14  C3  UNL     1      41.598  15.853  64.464  1.00  0.00     0.167 C 
HETATM   15  O2  UNL     1      42.201  15.309  63.519  1.00  0.00    -0.292 OA
BRANCH  14  16
HETATM   16  C4  UNL     1      41.213  15.075  65.635  1.00  0.00     0.013 A 
HETATM   17  C5  UNL     1      40.166  15.484  66.421  1.00  0.00     0.015 A 
HETATM   18  C6  UNL     1      39.809  14.723  67.513  1.00  0.00     0.004 A 
HETATM   19  C7  UNL     1      40.484  13.584  67.807  1.00  0.00     0.037 A 
HETATM   20  C8  UNL     1      41.570  13.141  67.010  1.00  0.00     0.070 A 
HETATM   21  C16 UNL     1      41.891  13.937  65.927  1.00  0.00     0.052 A 
BRANCH  20  22
HETATM   22  O3  UNL     1      42.202  12.021  67.330  1.00  0.00    -0.347 OA
BRANCH  22  23
HETATM   23  C9  UNL     1      42.965  11.150  67.910  1.00  0.00     0.214 C 
BRANCH  23  24
HETATM   24  C10 UNL     1      42.969  11.057  69.413  1.00  0.00    -0.038 A 
HETATM   25  C11 UNL     1      44.075  10.798  70.065  1.00  0.00    -0.017 A 
HETATM   26  C12 UNL     1      44.233  10.682  71.510  1.00  0.00     0.031 A 
HETATM   27  C13 UNL     1      42.998  10.814  72.305  1.00  0.00     0.031 A 
HETATM   28  C14 UNL     1      41.802  11.102  71.502  1.00  0.00    -0.026 A 
HETATM   29  C15 UNL     1      41.767  11.217  70.193  1.00  0.00     0.005 A 
ENDBRANCH  23  24
ENDBRANCH  22  23
ENDBRANCH  20  22
ENDBRANCH  14  16
ENDBRANCH  13  14
ENDBRANCH  11  13
ENDBRANCH   1  11
BRANCH   7  30
HETATM   30  C21 UNL     1      37.139  18.974  69.952  1.00  0.00     0.223 C 
HETATM   31  O6  UNL     1      37.499  19.586  70.976  1.00  0.00    -0.287 OA
BRANCH  30  32
HETATM   32  C22 UNL     1      36.380  17.691  70.108  1.00  0.00     0.173 C 
BRANCH  32  33
HETATM   33  C23 UNL     1      37.086  16.575  69.471  1.00  0.00     0.167 C 
HETATM   34  O7  UNL     1      37.020  16.468  68.234  1.00  0.00    -0.292 OA
BRANCH  33  35
HETATM   35  C24 UNL     1      37.858  15.587  70.230  1.00  0.00     0.013 A 
HETATM   36  C25 UNL     1      37.476  14.274  70.327  1.00  0.00     0.015 A 
HETATM   37  C26 UNL     1      38.215  13.365  71.048  1.00  0.00     0.004 A 
HETATM   38  C27 UNL     1      39.353  13.760  71.686  1.00  0.00     0.037 A 
HETATM   39  C28 UNL     1      39.791  15.098  71.622  1.00  0.00     0.069 A 
HETATM   40  C36 UNL     1      39.028  15.969  70.893  1.00  0.00     0.052 A 
BRANCH  39  41
HETATM   41  O8  UNL     1      40.949  15.447  72.279  1.00  0.00    -0.350 OA
BRANCH  41  42
HETATM   42  C29 UNL     1      41.529  16.699  72.225  1.00  0.00     0.184 C 
BRANCH  42  43
HETATM   43  C30 UNL     1      42.897  16.604  71.522  1.00  0.00     0.036 A 
HETATM   44  C31 UNL     1      43.485  15.342  72.034  1.00  0.00    -0.020 A 
HETATM   45  C32 UNL     1      43.850  14.381  71.242  1.00  0.00    -0.004 A 
HETATM   46  C33 UNL     1      43.707  14.476  69.807  1.00  0.00    -0.004 A 
HETATM   47  C34 UNL     1      43.197  15.549  69.258  1.00  0.00    -0.026 A 
HETATM   48  C35 UNL     1      42.752  16.691  70.054  1.00  0.00     0.037 A 
ENDBRANCH  42  43
ENDBRANCH  41  42
ENDBRANCH  39  41
ENDBRANCH  33  35
ENDBRANCH  32  33
ENDBRANCH  30  32
ENDBRANCH   7  30
TORSDOF 14
ENDMDL
