MODEL 3
REMARK VINA RESULT: -7.253714957      1.645      4.664
REMARK  10 active torsions:
REMARK  status: ('A' for Active; 'I' for Inactive)
REMARK    1  A    between atoms: C1_2  and  C2_4 
REMARK    2  A    between atoms: C2_4  and  C3_6 
REMARK    3  A    between atoms: C3_6  and  C4_7 
REMARK    4  A    between atoms: C4_7  and  O4_8 
REMARK    5  A    between atoms: C4_7  and  C5_10 
REMARK    6  A    between atoms: C9_14  and  N1_15 
REMARK    7  A    between atoms: N1_15  and  C10_16 
REMARK    8  A    between atoms: N1_15  and  C17_23 
REMARK    9  A    between atoms: C10_16  and  C11_17 
REMARK   10  A    between atoms: C17_23  and  C18_24 
ROOT
HETATM    1  C5  UNL     1      48.915  16.547   2.762  1.00  0.00    -0.027 A 
HETATM    2  C6  UNL     1      48.486  16.460   4.074  1.00  0.00     0.010 A 
HETATM    3  C7  UNL     1      47.245  15.978   4.417  1.00  0.00     0.003 A 
HETATM    4  C8  UNL     1      46.369  15.556   3.453  1.00  0.00     0.029 A 
HETATM    5  C9  UNL     1      46.747  15.622   2.132  1.00  0.00     0.031 A 
HETATM    6  C24 UNL     1      48.001  16.112   1.823  1.00  0.00     0.039 A 
ENDROOT
BRANCH   5   7
HETATM    7  N1  UNL     1      45.850  15.189   1.087  1.00  0.00    -0.372 N 
BRANCH   7   8
HETATM    8  C10 UNL     1      46.093  14.052   0.250  1.00  0.00     0.162 C 
BRANCH   8   9
HETATM    9  C11 UNL     1      46.576  12.866   0.998  1.00  0.00    -0.040 A 
HETATM   10  C12 UNL     1      47.875  12.368   0.863  1.00  0.00     0.009 A 
HETATM   11  C13 UNL     1      48.296  11.264   1.563  1.00  0.00     0.001 A 
HETATM   12  C14 UNL     1      47.468  10.598   2.429  1.00  0.00     0.000 A 
HETATM   13  C15 UNL     1      46.180  11.075   2.577  1.00  0.00     0.001 A 
HETATM   14  C16 UNL     1      45.748  12.196   1.867  1.00  0.00     0.009 A 
ENDBRANCH   8   9
ENDBRANCH   7   8
BRANCH   7  15
HETATM   15  C17 UNL     1      44.655  15.968   0.907  1.00  0.00     0.162 C 
BRANCH  15  16
HETATM   16  C18 UNL     1      44.907  17.357   0.484  1.00  0.00    -0.040 A 
HETATM   17  C19 UNL     1      45.210  17.571  -0.855  1.00  0.00     0.009 A 
HETATM   18  C20 UNL     1      45.456  18.863  -1.331  1.00  0.00     0.001 A 
HETATM   19  C21 UNL     1      45.406  19.952  -0.489  1.00  0.00     0.000 A 
HETATM   20  C22 UNL     1      45.105  19.736   0.835  1.00  0.00     0.001 A 
HETATM   21  C23 UNL     1      44.865  18.460   1.290  1.00  0.00     0.009 A 
ENDBRANCH  15  16
ENDBRANCH   7  15
ENDBRANCH   5   7
BRANCH   1  22
HETATM   22  C4  UNL     1      50.258  17.074   2.377  1.00  0.00     0.158 C 
BRANCH  22  23
HETATM   23  C3  UNL     1      50.257  18.520   2.002  1.00  0.00     0.127 C 
BRANCH  23  24
HETATM   24  C2  UNL     1      50.823  19.282   3.126  1.00  0.00     0.227 C 
HETATM   25  O3  UNL     1      52.055  19.342   3.303  1.00  0.00    -0.286 OA
BRANCH  24  26
HETATM   26  C1  UNL     1      49.937  19.978   4.044  1.00  0.00     0.246 C 
HETATM   27  O1  UNL     1      49.726  19.538   5.217  1.00  0.00    -0.642 OA
HETATM   28  O2  UNL     1      49.286  21.145   3.683  1.00  0.00    -0.642 OA
ENDBRANCH  24  26
ENDBRANCH  23  24
ENDBRANCH  22  23
BRANCH  22  29
HETATM   29  O4  UNL     1      51.164  16.808   3.400  1.00  0.00    -0.390 OA
ATOM     30  H4  UNL     1      51.446  15.902   3.392  1.00  0.00     0.210 HD
ENDBRANCH  22  29
ENDBRANCH   1  22
TORSDOF 10
ENDMDL
