MODEL 2
REMARK VINA RESULT: -7.304582935      0.191      3.390
REMARK  10 active torsions:
REMARK  status: ('A' for Active; 'I' for Inactive)
REMARK    1  A    between atoms: C1_2  and  C2_4 
REMARK    2  A    between atoms: C2_4  and  C3_6 
REMARK    3  A    between atoms: C3_6  and  C4_7 
REMARK    4  A    between atoms: C4_7  and  O4_8 
REMARK    5  A    between atoms: C4_7  and  C5_10 
REMARK    6  A    between atoms: C9_14  and  N1_15 
REMARK    7  A    between atoms: N1_15  and  C10_16 
REMARK    8  A    between atoms: N1_15  and  C17_23 
REMARK    9  A    between atoms: C10_16  and  C11_17 
REMARK   10  A    between atoms: C17_23  and  C18_24 
ROOT
HETATM    1  C5  UNL     1      46.621  18.931   1.573  1.00  0.00    -0.027 A 
HETATM    2  C6  UNL     1      45.692  18.902   0.550  1.00  0.00     0.010 A 
HETATM    3  C7  UNL     1      44.944  17.786   0.259  1.00  0.00     0.003 A 
HETATM    4  C8  UNL     1      45.094  16.636   0.987  1.00  0.00     0.029 A 
HETATM    5  C9  UNL     1      46.006  16.611   2.016  1.00  0.00     0.031 A 
HETATM    6  C24 UNL     1      46.741  17.751   2.281  1.00  0.00     0.039 A 
ENDROOT
BRANCH   5   7
HETATM    7  N1  UNL     1      46.195  15.417   2.805  1.00  0.00    -0.372 N 
BRANCH   7   8
HETATM    8  C10 UNL     1      45.268  14.326   2.833  1.00  0.00     0.162 C 
BRANCH   8   9
HETATM    9  C11 UNL     1      45.690  13.177   1.998  1.00  0.00    -0.040 A 
HETATM   10  C12 UNL     1      45.774  13.248   0.604  1.00  0.00     0.009 A 
HETATM   11  C13 UNL     1      46.163  12.167  -0.147  1.00  0.00     0.001 A 
HETATM   12  C14 UNL     1      46.489  10.965   0.428  1.00  0.00     0.000 A 
HETATM   13  C15 UNL     1      46.411  10.875   1.804  1.00  0.00     0.001 A 
HETATM   14  C16 UNL     1      46.017  11.971   2.572  1.00  0.00     0.009 A 
ENDBRANCH   8   9
ENDBRANCH   7   8
BRANCH   7  15
HETATM   15  C17 UNL     1      47.397  15.357   3.593  1.00  0.00     0.162 C 
BRANCH  15  16
HETATM   16  C18 UNL     1      48.623  15.169   2.797  1.00  0.00    -0.040 A 
HETATM   17  C19 UNL     1      49.630  16.115   2.944  1.00  0.00     0.009 A 
HETATM   18  C20 UNL     1      50.824  16.000   2.225  1.00  0.00     0.001 A 
HETATM   19  C21 UNL     1      51.032  14.952   1.355  1.00  0.00     0.000 A 
HETATM   20  C22 UNL     1      50.033  14.018   1.213  1.00  0.00     0.001 A 
HETATM   21  C23 UNL     1      48.863  14.143   1.927  1.00  0.00     0.009 A 
ENDBRANCH  15  16
ENDBRANCH   7  15
ENDBRANCH   5   7
BRANCH   1  22
HETATM   22  C4  UNL     1      47.442  20.136   1.895  1.00  0.00     0.158 C 
BRANCH  22  23
HETATM   23  C3  UNL     1      48.915  19.888   1.874  1.00  0.00     0.127 C 
BRANCH  23  24
HETATM   24  C2  UNL     1      49.524  20.666   2.964  1.00  0.00     0.227 C 
HETATM   25  O3  UNL     1      49.337  21.895   3.056  1.00  0.00    -0.286 OA
BRANCH  24  26
HETATM   26  C1  UNL     1      50.353  19.997   3.952  1.00  0.00     0.246 C 
HETATM   27  O1  UNL     1      50.031  19.981   5.181  1.00  0.00    -0.642 OA
HETATM   28  O2  UNL     1      51.526  19.350   3.600  1.00  0.00    -0.642 OA
ENDBRANCH  24  26
ENDBRANCH  23  24
ENDBRANCH  22  23
BRANCH  22  29
HETATM   29  O4  UNL     1      47.083  21.175   1.042  1.00  0.00    -0.390 OA
ATOM     30  H4  UNL     1      46.153  21.167   0.850  1.00  0.00     0.210 HD
ENDBRANCH  22  29
ENDBRANCH   1  22
TORSDOF 10
ENDMDL
