MODEL 1
REMARK VINA RESULT: -7.430306134      0.000      0.000
REMARK  10 active torsions:
REMARK  status: ('A' for Active; 'I' for Inactive)
REMARK    1  A    between atoms: C1_2  and  C2_4 
REMARK    2  A    between atoms: C2_4  and  C3_6 
REMARK    3  A    between atoms: C3_6  and  C4_7 
REMARK    4  A    between atoms: C4_7  and  O4_8 
REMARK    5  A    between atoms: C4_7  and  C5_10 
REMARK    6  A    between atoms: C9_14  and  N1_15 
REMARK    7  A    between atoms: N1_15  and  C10_16 
REMARK    8  A    between atoms: N1_15  and  C17_23 
REMARK    9  A    between atoms: C10_16  and  C11_17 
REMARK   10  A    between atoms: C17_23  and  C18_24 
ROOT
HETATM    1  C5  UNL     1      46.599  18.928   1.606  1.00  0.00    -0.027 A 
HETATM    2  C6  UNL     1      45.600  18.929   0.650  1.00  0.00     0.010 A 
HETATM    3  C7  UNL     1      44.847  17.815   0.364  1.00  0.00     0.003 A 
HETATM    4  C8  UNL     1      45.062  16.637   1.028  1.00  0.00     0.029 A 
HETATM    5  C9  UNL     1      46.044  16.582   1.989  1.00  0.00     0.031 A 
HETATM    6  C24 UNL     1      46.782  17.720   2.251  1.00  0.00     0.039 A 
ENDROOT
BRANCH   5   7
HETATM    7  N1  UNL     1      46.302  15.358   2.710  1.00  0.00    -0.372 N 
BRANCH   7   8
HETATM    8  C10 UNL     1      47.488  15.121   3.477  1.00  0.00     0.162 C 
BRANCH   8   9
HETATM    9  C11 UNL     1      48.709  14.996   2.645  1.00  0.00    -0.040 A 
HETATM   10  C12 UNL     1      48.921  13.924   1.774  1.00  0.00     0.009 A 
HETATM   11  C13 UNL     1      50.064  13.829   1.018  1.00  0.00     0.001 A 
HETATM   12  C14 UNL     1      51.051  14.778   1.077  1.00  0.00     0.000 A 
HETATM   13  C15 UNL     1      50.860  15.846   1.932  1.00  0.00     0.001 A 
HETATM   14  C16 UNL     1      49.701  15.946   2.702  1.00  0.00     0.009 A 
ENDBRANCH   8   9
ENDBRANCH   7   8
BRANCH   7  15
HETATM   15  C17 UNL     1      45.285  14.344   2.630  1.00  0.00     0.162 C 
BRANCH  15  16
HETATM   16  C18 UNL     1      45.646  13.203   1.771  1.00  0.00    -0.040 A 
HETATM   17  C19 UNL     1      45.827  11.972   2.389  1.00  0.00     0.009 A 
HETATM   18  C20 UNL     1      46.166  10.842   1.638  1.00  0.00     0.001 A 
HETATM   19  C21 UNL     1      46.330  10.919   0.272  1.00  0.00     0.000 A 
HETATM   20  C22 UNL     1      46.150  12.139  -0.335  1.00  0.00     0.001 A 
HETATM   21  C23 UNL     1      45.816  13.243   0.416  1.00  0.00     0.009 A 
ENDBRANCH  15  16
ENDBRANCH   7  15
ENDBRANCH   5   7
BRANCH   1  22
HETATM   22  C4  UNL     1      47.427  20.129   1.923  1.00  0.00     0.158 C 
BRANCH  22  23
HETATM   23  C3  UNL     1      48.899  19.876   1.892  1.00  0.00     0.127 C 
BRANCH  23  24
HETATM   24  C2  UNL     1      49.518  20.659   2.973  1.00  0.00     0.227 C 
HETATM   25  O3  UNL     1      49.341  21.890   3.054  1.00  0.00    -0.286 OA
BRANCH  24  26
HETATM   26  C1  UNL     1      50.349  19.993   3.962  1.00  0.00     0.246 C 
HETATM   27  O1  UNL     1      50.034  19.991   5.193  1.00  0.00    -0.642 OA
HETATM   28  O2  UNL     1      51.514  19.334   3.609  1.00  0.00    -0.642 OA
ENDBRANCH  24  26
ENDBRANCH  23  24
ENDBRANCH  22  23
BRANCH  22  29
HETATM   29  O4  UNL     1      47.066  21.170   1.072  1.00  0.00    -0.390 OA
ATOM     30  H4  UNL     1      46.186  21.058   0.735  1.00  0.00     0.210 HD
ENDBRANCH  22  29
ENDBRANCH   1  22
TORSDOF 10
ENDMDL
