MODEL 2
REMARK VINA RESULT: -9.395089835      0.993      1.284
REMARK  10 active torsions:
REMARK  status: ('A' for Active; 'I' for Inactive)
REMARK    1  A    between atoms: C2_2  and  C4_4 
REMARK    2  A    between atoms: C4_4  and  C5_5 
REMARK    3  A    between atoms: C5_5  and  N1_6 
REMARK    4  A    between atoms: C5_5  and  C16_25 
REMARK       I    between atoms: N1_6  and  C6_8 
REMARK    5  A    between atoms: C6_8  and  C7_10 
REMARK    6  A    between atoms: C7_10  and  O2_11 
REMARK    7  A    between atoms: C7_10  and  C8_13 
REMARK    8  A    between atoms: C8_13  and  N2_14 
REMARK    9  A    between atoms: C8_13  and  C9_18 
REMARK   10  A    between atoms: C9_18  and  C10_19 
ROOT
HETATM    1  C7  UNL     1      13.502  12.115  11.302  1.00  0.00     0.240 C 
ENDROOT
BRANCH   1   2
HETATM    2  C6  UNL     1      14.384  11.009  10.882  1.00  0.00     0.249 C 
HETATM    3  N1  UNL     1      15.773  10.974  11.071  1.00  0.00    -0.344 N 
ATOM      4  H1  UNL     1      16.208  11.773  11.533  1.00  0.00     0.163 HD
HETATM    5  O1  UNL     1      13.854  10.023  10.313  1.00  0.00    -0.271 OA
BRANCH   3   6
HETATM    6  C5  UNL     1      16.643   9.874  10.654  1.00  0.00     0.185 C 
BRANCH   6   7
HETATM    7  C4  UNL     1      17.248  10.159   9.335  1.00  0.00     0.040 C 
BRANCH   7   8
HETATM    8  C2  UNL     1      16.922   9.286   8.190  1.00  0.00    -0.020 C 
HETATM    9  C1  UNL     1      16.233   7.989   8.566  1.00  0.00     0.009 C 
HETATM   10  C3  UNL     1      17.945   9.094   7.140  1.00  0.00     0.009 C 
ENDBRANCH   7   8
ENDBRANCH   6   7
BRANCH   6  11
HETATM   11  C16 UNL     1      17.513   9.533  11.761  1.00  0.00     0.196 C 
HETATM   12  O3  UNL     1      17.128   9.805  12.955  1.00  0.00    -0.646 OA
HETATM   13  O4  UNL     1      18.745   8.929  11.684  1.00  0.00    -0.646 OA
ENDBRANCH   6  11
ENDBRANCH   3   6
ENDBRANCH   1   2
BRANCH   1  14
HETATM   14  O2  UNL     1      12.743  12.572  10.241  1.00  0.00    -0.384 OA
ATOM     15  H2  UNL     1      12.403  13.442  10.415  1.00  0.00     0.210 HD
ENDBRANCH   1  14
BRANCH   1  16
HETATM   16  C8  UNL     1      12.733  11.838  12.542  1.00  0.00     0.225 C 
BRANCH  16  17
HETATM   17  N2  UNL     1      11.343  12.231  12.459  1.00  0.00    -0.072 N 
ATOM     18  H23 UNL     1      10.760  11.441  12.181  1.00  0.00     0.274 HD
ATOM     19  H22 UNL     1      10.960  12.405  13.388  1.00  0.00     0.274 HD
ATOM     20  H21 UNL     1      11.183  13.030  11.846  1.00  0.00     0.274 HD
ENDBRANCH  16  17
BRANCH  16  21
HETATM   21  C9  UNL     1      13.432  12.454  13.726  1.00  0.00     0.074 C 
BRANCH  21  22
HETATM   22  C10 UNL     1      13.066  11.888  15.028  1.00  0.00    -0.056 A 
HETATM   23  C11 UNL     1      12.215  12.514  15.911  1.00  0.00     0.007 A 
HETATM   24  C12 UNL     1      11.866  11.993  17.130  1.00  0.00     0.001 A 
HETATM   25  C13 UNL     1      12.367  10.788  17.527  1.00  0.00     0.000 A 
HETATM   26  C14 UNL     1      13.226  10.124  16.672  1.00  0.00     0.001 A 
HETATM   27  C15 UNL     1      13.569  10.663  15.447  1.00  0.00     0.007 A 
ENDBRANCH  21  22
ENDBRANCH  16  21
ENDBRANCH   1  16
TORSDOF 10
ENDMDL
