MODEL 3
REMARK VINA RESULT: -9.289634457      0.740      1.429
REMARK  10 active torsions:
REMARK  status: ('A' for Active; 'I' for Inactive)
REMARK    1  A    between atoms: C2_2  and  C4_4 
REMARK    2  A    between atoms: C4_4  and  C5_5 
REMARK    3  A    between atoms: C5_5  and  N1_6 
REMARK    4  A    between atoms: C5_5  and  C16_25 
REMARK       I    between atoms: N1_6  and  C6_8 
REMARK    5  A    between atoms: C6_8  and  C7_10 
REMARK    6  A    between atoms: C7_10  and  O2_11 
REMARK    7  A    between atoms: C7_10  and  C8_13 
REMARK    8  A    between atoms: C8_13  and  N2_14 
REMARK    9  A    between atoms: C8_13  and  C9_18 
REMARK   10  A    between atoms: C9_18  and  C10_19 
ROOT
HETATM    1  C7  UNL     1      13.630  12.018  11.411  1.00  0.00     0.240 C 
ENDROOT
BRANCH   1   2
HETATM    2  C6  UNL     1      14.561  10.882  11.271  1.00  0.00     0.249 C 
HETATM    3  N1  UNL     1      15.505  10.739  10.244  1.00  0.00    -0.344 N 
ATOM      4  H1  UNL     1      15.552  11.475   9.539  1.00  0.00     0.163 HD
HETATM    5  O1  UNL     1      14.507   9.972  12.136  1.00  0.00    -0.271 OA
BRANCH   3   6
HETATM    6  C5  UNL     1      16.426   9.609  10.111  1.00  0.00     0.185 C 
BRANCH   6   7
HETATM    7  C4  UNL     1      16.350   9.030   8.753  1.00  0.00     0.040 C 
BRANCH   7   8
HETATM    8  C2  UNL     1      17.556   8.419   8.162  1.00  0.00    -0.020 C 
HETATM    9  C1  UNL     1      17.871   8.885   6.754  1.00  0.00     0.009 C 
HETATM   10  C3  UNL     1      17.759   6.964   8.330  1.00  0.00     0.009 C 
ENDBRANCH   7   8
ENDBRANCH   6   7
BRANCH   6  11
HETATM   11  C16 UNL     1      17.720  10.012  10.625  1.00  0.00     0.196 C 
HETATM   12  O3  UNL     1      18.223  11.124  10.229  1.00  0.00    -0.646 OA
HETATM   13  O4  UNL     1      18.500   9.322  11.521  1.00  0.00    -0.646 OA
ENDBRANCH   6  11
ENDBRANCH   3   6
ENDBRANCH   1   2
BRANCH   1  14
HETATM   14  O2  UNL     1      13.009  12.299  10.209  1.00  0.00    -0.384 OA
ATOM     15  H2  UNL     1      12.730  11.501   9.775  1.00  0.00     0.210 HD
ENDBRANCH   1  14
BRANCH   1  16
HETATM   16  C8  UNL     1      12.713  11.908  12.574  1.00  0.00     0.225 C 
BRANCH  16  17
HETATM   17  N2  UNL     1      11.380  12.404  12.306  1.00  0.00    -0.072 N 
ATOM     18  H23 UNL     1      11.235  12.526  11.304  1.00  0.00     0.274 HD
ATOM     19  H22 UNL     1      10.681  11.684  12.492  1.00  0.00     0.274 HD
ATOM     20  H21 UNL     1      11.156  13.262  12.810  1.00  0.00     0.274 HD
ENDBRANCH  16  17
BRANCH  16  21
HETATM   21  C9  UNL     1      13.335  12.560  13.781  1.00  0.00     0.074 C 
BRANCH  21  22
HETATM   22  C10 UNL     1      13.009  11.932  15.065  1.00  0.00    -0.056 A 
HETATM   23  C11 UNL     1      13.530  10.723  15.466  1.00  0.00     0.007 A 
HETATM   24  C12 UNL     1      13.233  10.127  16.665  1.00  0.00     0.001 A 
HETATM   25  C13 UNL     1      12.380  10.737  17.539  1.00  0.00     0.000 A 
HETATM   26  C14 UNL     1      11.834  11.954  17.176  1.00  0.00     0.001 A 
HETATM   27  C15 UNL     1      12.143  12.540  15.964  1.00  0.00     0.007 A 
ENDBRANCH  21  22
ENDBRANCH  16  21
ENDBRANCH   1  16
TORSDOF 10
ENDMDL
