MODEL 5
REMARK VINA RESULT: -8.945249290      1.622      2.428
REMARK  10 active torsions:
REMARK  status: ('A' for Active; 'I' for Inactive)
REMARK    1  A    between atoms: C2_2  and  C4_4 
REMARK    2  A    between atoms: C4_4  and  C5_5 
REMARK    3  A    between atoms: C5_5  and  N1_6 
REMARK    4  A    between atoms: C5_5  and  C16_25 
REMARK       I    between atoms: N1_6  and  C6_8 
REMARK    5  A    between atoms: C6_8  and  C7_10 
REMARK    6  A    between atoms: C7_10  and  O2_11 
REMARK    7  A    between atoms: C7_10  and  C8_13 
REMARK    8  A    between atoms: C8_13  and  N2_14 
REMARK    9  A    between atoms: C8_13  and  C9_18 
REMARK   10  A    between atoms: C9_18  and  C10_19 
ROOT
HETATM    1  C7  UNL     1      13.612  11.951  11.400  1.00  0.00     0.240 C 
ENDROOT
BRANCH   1   2
HETATM    2  C6  UNL     1      14.400  10.717  11.217  1.00  0.00     0.249 C 
HETATM    3  N1  UNL     1      15.162  10.095  12.216  1.00  0.00    -0.344 N 
ATOM      4  H1  UNL     1      15.174  10.527  13.140  1.00  0.00     0.163 HD
HETATM    5  O1  UNL     1      14.390  10.181  10.081  1.00  0.00    -0.271 OA
BRANCH   3   6
HETATM    6  C5  UNL     1      15.942   8.871  12.028  1.00  0.00     0.185 C 
BRANCH   6   7
HETATM    7  C4  UNL     1      17.373   9.188  11.834  1.00  0.00     0.040 C 
BRANCH   7   8
HETATM    8  C2  UNL     1      17.913   9.269  10.462  1.00  0.00    -0.020 C 
HETATM    9  C1  UNL     1      18.080  10.682   9.936  1.00  0.00     0.009 C 
HETATM   10  C3  UNL     1      17.371   8.350   9.440  1.00  0.00     0.009 C 
ENDBRANCH   7   8
ENDBRANCH   6   7
BRANCH   6  11
HETATM   11  C16 UNL     1      15.572   7.929  13.064  1.00  0.00     0.196 C 
HETATM   12  O3  UNL     1      16.301   6.887  13.241  1.00  0.00    -0.646 OA
HETATM   13  O4  UNL     1      14.497   8.021  13.915  1.00  0.00    -0.646 OA
ENDBRANCH   6  11
ENDBRANCH   3   6
ENDBRANCH   1   2
BRANCH   1  14
HETATM   14  O2  UNL     1      13.035  12.351  10.210  1.00  0.00    -0.384 OA
ATOM     15  H2  UNL     1      12.450  13.087  10.347  1.00  0.00     0.210 HD
ENDBRANCH   1  14
BRANCH   1  16
HETATM   16  C8  UNL     1      12.682  11.907  12.559  1.00  0.00     0.225 C 
BRANCH  16  17
HETATM   17  N2  UNL     1      11.372  12.450  12.267  1.00  0.00    -0.072 N 
ATOM     18  H23 UNL     1      11.313  13.426  12.557  1.00  0.00     0.274 HD
ATOM     19  H22 UNL     1      11.244  12.564  11.261  1.00  0.00     0.274 HD
ATOM     20  H21 UNL     1      10.608  11.907  12.669  1.00  0.00     0.274 HD
ENDBRANCH  16  17
BRANCH  16  21
HETATM   21  C9  UNL     1      13.321  12.564  13.753  1.00  0.00     0.074 C 
BRANCH  21  22
HETATM   22  C10 UNL     1      12.977  11.969  15.049  1.00  0.00    -0.056 A 
HETATM   23  C11 UNL     1      12.069  12.529  15.919  1.00  0.00     0.007 A 
HETATM   24  C12 UNL     1      11.739  11.981  17.131  1.00  0.00     0.001 A 
HETATM   25  C13 UNL     1      12.320  10.814  17.534  1.00  0.00     0.000 A 
HETATM   26  C14 UNL     1      13.239  10.217  16.692  1.00  0.00     0.001 A 
HETATM   27  C15 UNL     1      13.561  10.783  15.473  1.00  0.00     0.007 A 
ENDBRANCH  21  22
ENDBRANCH  16  21
ENDBRANCH   1  16
TORSDOF 10
ENDMDL
