MODEL 14
REMARK VINA RESULT: -8.051841232      3.418      4.705
REMARK  10 active torsions:
REMARK  status: ('A' for Active; 'I' for Inactive)
REMARK    1  A    between atoms: C2_2  and  C4_4 
REMARK    2  A    between atoms: C4_4  and  C5_5 
REMARK    3  A    between atoms: C5_5  and  N1_6 
REMARK    4  A    between atoms: C5_5  and  C16_25 
REMARK       I    between atoms: N1_6  and  C6_8 
REMARK    5  A    between atoms: C6_8  and  C7_10 
REMARK    6  A    between atoms: C7_10  and  O2_11 
REMARK    7  A    between atoms: C7_10  and  C8_13 
REMARK    8  A    between atoms: C8_13  and  N2_14 
REMARK    9  A    between atoms: C8_13  and  C9_18 
REMARK   10  A    between atoms: C9_18  and  C10_19 
ROOT
HETATM    1  C7  UNL     1      17.484  10.213  10.600  1.00  0.00     0.240 C 
ENDROOT
BRANCH   1   2
HETATM    2  C6  UNL     1      17.706   9.087   9.671  1.00  0.00     0.249 C 
HETATM    3  N1  UNL     1      16.920   8.809   8.545  1.00  0.00    -0.344 N 
ATOM      4  H1  UNL     1      16.134   9.431   8.350  1.00  0.00     0.163 HD
HETATM    5  O1  UNL     1      18.672   8.318   9.905  1.00  0.00    -0.271 OA
BRANCH   3   6
HETATM    6  C5  UNL     1      17.145   7.691   7.627  1.00  0.00     0.185 C 
BRANCH   6   7
HETATM    7  C4  UNL     1      15.964   6.801   7.588  1.00  0.00     0.040 C 
BRANCH   7   8
HETATM    8  C2  UNL     1      16.140   5.361   7.856  1.00  0.00    -0.020 C 
HETATM    9  C1  UNL     1      16.814   5.046   9.178  1.00  0.00     0.009 C 
HETATM   10  C3  UNL     1      16.627   4.498   6.759  1.00  0.00     0.009 C 
ENDBRANCH   7   8
ENDBRANCH   6   7
BRANCH   6  11
HETATM   11  C16 UNL     1      17.660   8.220   6.380  1.00  0.00     0.196 C 
HETATM   12  O3  UNL     1      16.954   8.089   5.315  1.00  0.00    -0.646 OA
HETATM   13  O4  UNL     1      18.854   8.871   6.193  1.00  0.00    -0.646 OA
ENDBRANCH   6  11
ENDBRANCH   3   6
ENDBRANCH   1   2
BRANCH   1  14
HETATM   14  O2  UNL     1      17.783  11.419   9.995  1.00  0.00    -0.384 OA
ATOM     15  H2  UNL     1      17.010  11.969   9.935  1.00  0.00     0.210 HD
ENDBRANCH   1  14
BRANCH   1  16
HETATM   16  C8  UNL     1      16.171  10.173  11.294  1.00  0.00     0.225 C 
BRANCH  16  17
HETATM   17  N2  UNL     1      15.423  11.407  11.182  1.00  0.00    -0.072 N 
ATOM     18  H23 UNL     1      16.040  12.183  10.943  1.00  0.00     0.274 HD
ATOM     19  H22 UNL     1      14.832  11.397  10.350  1.00  0.00     0.274 HD
ATOM     20  H21 UNL     1      14.873  11.626  12.013  1.00  0.00     0.274 HD
ENDBRANCH  16  17
BRANCH  16  21
HETATM   21  C9  UNL     1      16.363   9.748  12.727  1.00  0.00     0.074 C 
BRANCH  21  22
HETATM   22  C10 UNL     1      15.868   8.406  13.048  1.00  0.00    -0.056 A 
HETATM   23  C11 UNL     1      16.127   7.300  12.270  1.00  0.00     0.007 A 
HETATM   24  C12 UNL     1      15.671   6.040  12.563  1.00  0.00     0.001 A 
HETATM   25  C13 UNL     1      14.916   5.829  13.679  1.00  0.00     0.000 A 
HETATM   26  C14 UNL     1      14.631   6.912  14.490  1.00  0.00     0.001 A 
HETATM   27  C15 UNL     1      15.098   8.175  14.180  1.00  0.00     0.007 A 
ENDBRANCH  21  22
ENDBRANCH  16  21
ENDBRANCH   1  16
TORSDOF 10
ENDMDL
