MODEL 18
REMARK VINA RESULT: -7.808795619      1.463      7.833
REMARK  10 active torsions:
REMARK  status: ('A' for Active; 'I' for Inactive)
REMARK    1  A    between atoms: C2_2  and  C4_4 
REMARK    2  A    between atoms: C4_4  and  C5_5 
REMARK    3  A    between atoms: C5_5  and  N1_6 
REMARK    4  A    between atoms: C5_5  and  C16_25 
REMARK       I    between atoms: N1_6  and  C6_8 
REMARK    5  A    between atoms: C6_8  and  C7_10 
REMARK    6  A    between atoms: C7_10  and  O2_11 
REMARK    7  A    between atoms: C7_10  and  C8_13 
REMARK    8  A    between atoms: C8_13  and  N2_14 
REMARK    9  A    between atoms: C8_13  and  C9_18 
REMARK   10  A    between atoms: C9_18  and  C10_19 
ROOT
HETATM    1  C7  UNL     1      16.893  10.185  11.843  1.00  0.00     0.240 C 
ENDROOT
BRANCH   1   2
HETATM    2  C6  UNL     1      15.531  10.294  12.398  1.00  0.00     0.249 C 
HETATM    3  N1  UNL     1      14.904  11.495  12.757  1.00  0.00    -0.344 N 
ATOM      4  H1  UNL     1      15.428  12.361  12.625  1.00  0.00     0.163 HD
HETATM    5  O1  UNL     1      14.880   9.232  12.564  1.00  0.00    -0.271 OA
BRANCH   3   6
HETATM    6  C5  UNL     1      13.551  11.597  13.307  1.00  0.00     0.185 C 
BRANCH   6   7
HETATM    7  C4  UNL     1      13.543  12.447  14.518  1.00  0.00     0.040 C 
BRANCH   7   8
HETATM    8  C2  UNL     1      13.178  11.846  15.816  1.00  0.00    -0.020 C 
HETATM    9  C1  UNL     1      13.417  10.351  15.905  1.00  0.00     0.009 C 
HETATM   10  C3  UNL     1      11.901  12.249  16.441  1.00  0.00     0.009 C 
ENDBRANCH   7   8
ENDBRANCH   6   7
BRANCH   6  11
HETATM   11  C16 UNL     1      12.640  11.915  12.227  1.00  0.00     0.196 C 
HETATM   12  O3  UNL     1      11.438  12.262  12.514  1.00  0.00    -0.646 OA
HETATM   13  O4  UNL     1      12.919  11.893  10.882  1.00  0.00    -0.646 OA
ENDBRANCH   6  11
ENDBRANCH   3   6
ENDBRANCH   1   2
BRANCH   1  14
HETATM   14  O2  UNL     1      17.649   9.277  12.559  1.00  0.00    -0.384 OA
ATOM     15  H2  UNL     1      17.917   8.549  12.010  1.00  0.00     0.210 HD
ENDBRANCH   1  14
BRANCH   1  16
HETATM   16  C8  UNL     1      16.932  10.001  10.369  1.00  0.00     0.225 C 
BRANCH  16  17
HETATM   17  N2  UNL     1      15.689  10.346   9.712  1.00  0.00    -0.072 N 
ATOM     18  H23 UNL     1      15.152   9.507   9.492  1.00  0.00     0.274 HD
ATOM     19  H22 UNL     1      15.046  10.791  10.367  1.00  0.00     0.274 HD
ATOM     20  H21 UNL     1      15.815  10.923   8.881  1.00  0.00     0.274 HD
ENDBRANCH  16  17
BRANCH  16  21
HETATM   21  C9  UNL     1      17.384   8.602  10.040  1.00  0.00     0.074 C 
BRANCH  21  22
HETATM   22  C10 UNL     1      17.326   8.248   8.618  1.00  0.00    -0.056 A 
HETATM   23  C11 UNL     1      18.058   8.895   7.649  1.00  0.00     0.007 A 
HETATM   24  C12 UNL     1      18.011   8.571   6.317  1.00  0.00     0.001 A 
HETATM   25  C13 UNL     1      17.208   7.554   5.889  1.00  0.00     0.000 A 
HETATM   26  C14 UNL     1      16.456   6.876   6.829  1.00  0.00     0.001 A 
HETATM   27  C15 UNL     1      16.513   7.216   8.167  1.00  0.00     0.007 A 
ENDBRANCH  21  22
ENDBRANCH  16  21
ENDBRANCH   1  16
TORSDOF 10
ENDMDL
