MODEL 1
REMARK VINA RESULT: -9.397079850      0.000      0.000
REMARK  10 active torsions:
REMARK  status: ('A' for Active; 'I' for Inactive)
REMARK    1  A    between atoms: C2_2  and  C4_4 
REMARK    2  A    between atoms: C4_4  and  C5_5 
REMARK    3  A    between atoms: C5_5  and  N1_6 
REMARK    4  A    between atoms: C5_5  and  C16_25 
REMARK       I    between atoms: N1_6  and  C6_8 
REMARK    5  A    between atoms: C6_8  and  C7_10 
REMARK    6  A    between atoms: C7_10  and  O2_11 
REMARK    7  A    between atoms: C7_10  and  C8_13 
REMARK    8  A    between atoms: C8_13  and  N2_14 
REMARK    9  A    between atoms: C8_13  and  C9_18 
REMARK   10  A    between atoms: C9_18  and  C10_19 
ROOT
HETATM    1  C7  UNL     1      13.628  12.021  11.425  1.00  0.00     0.240 C 
ENDROOT
BRANCH   1   2
HETATM    2  C6  UNL     1      14.558  10.883  11.288  1.00  0.00     0.249 C 
HETATM    3  N1  UNL     1      15.487  10.725  10.251  1.00  0.00    -0.344 N 
ATOM      4  H1  UNL     1      15.524  11.450   9.534  1.00  0.00     0.163 HD
HETATM    5  O1  UNL     1      14.517   9.987  12.168  1.00  0.00    -0.271 OA
BRANCH   3   6
HETATM    6  C5  UNL     1      16.407   9.594  10.121  1.00  0.00     0.185 C 
BRANCH   6   7
HETATM    7  C4  UNL     1      16.292   8.978   8.782  1.00  0.00     0.040 C 
BRANCH   7   8
HETATM    8  C2  UNL     1      16.009   7.533   8.676  1.00  0.00    -0.020 C 
HETATM    9  C1  UNL     1      16.478   6.713   9.863  1.00  0.00     0.009 C 
HETATM   10  C3  UNL     1      16.276   6.858   7.388  1.00  0.00     0.009 C 
ENDBRANCH   7   8
ENDBRANCH   6   7
BRANCH   6  11
HETATM   11  C16 UNL     1      17.714  10.012  10.585  1.00  0.00     0.196 C 
HETATM   12  O3  UNL     1      18.195  11.123  10.158  1.00  0.00    -0.646 OA
HETATM   13  O4  UNL     1      18.530   9.340  11.462  1.00  0.00    -0.646 OA
ENDBRANCH   6  11
ENDBRANCH   3   6
ENDBRANCH   1   2
BRANCH   1  14
HETATM   14  O2  UNL     1      13.012  12.304  10.220  1.00  0.00    -0.384 OA
ATOM     15  H2  UNL     1      12.351  12.978  10.327  1.00  0.00     0.210 HD
ENDBRANCH   1  14
BRANCH   1  16
HETATM   16  C8  UNL     1      12.706  11.912  12.584  1.00  0.00     0.225 C 
BRANCH  16  17
HETATM   17  N2  UNL     1      11.372  12.402  12.308  1.00  0.00    -0.072 N 
ATOM     18  H23 UNL     1      11.358  13.421  12.291  1.00  0.00     0.274 HD
ATOM     19  H22 UNL     1      11.112  12.213  11.340  1.00  0.00     0.274 HD
ATOM     20  H21 UNL     1      10.666  12.041  12.949  1.00  0.00     0.274 HD
ENDBRANCH  16  17
BRANCH  16  21
HETATM   21  C9  UNL     1      13.320  12.573  13.790  1.00  0.00     0.074 C 
BRANCH  21  22
HETATM   22  C10 UNL     1      12.988  11.953  15.076  1.00  0.00    -0.056 A 
HETATM   23  C11 UNL     1      12.109  12.509  15.978  1.00  0.00     0.007 A 
HETATM   24  C12 UNL     1      11.791  11.936  17.183  1.00  0.00     0.001 A 
HETATM   25  C13 UNL     1      12.355  10.747  17.544  1.00  0.00     0.000 A 
HETATM   26  C14 UNL     1      13.243  10.153  16.669  1.00  0.00     0.001 A 
HETATM   27  C15 UNL     1      13.554  10.744  15.459  1.00  0.00     0.007 A 
ENDBRANCH  21  22
ENDBRANCH  16  21
ENDBRANCH   1  16
TORSDOF 10
ENDMDL
