MODEL 4
REMARK VINA RESULT: -9.275726941      1.391      1.853
REMARK  10 active torsions:
REMARK  status: ('A' for Active; 'I' for Inactive)
REMARK    1  A    between atoms: C2_2  and  C4_4 
REMARK    2  A    between atoms: C4_4  and  C5_5 
REMARK    3  A    between atoms: C5_5  and  N1_6 
REMARK    4  A    between atoms: C5_5  and  C16_25 
REMARK       I    between atoms: N1_6  and  C6_8 
REMARK    5  A    between atoms: C6_8  and  C7_10 
REMARK    6  A    between atoms: C7_10  and  O2_11 
REMARK    7  A    between atoms: C7_10  and  C8_13 
REMARK    8  A    between atoms: C8_13  and  N2_14 
REMARK    9  A    between atoms: C8_13  and  C9_18 
REMARK   10  A    between atoms: C9_18  and  C10_19 
ROOT
HETATM    1  C7  UNL     1      13.486  12.170  11.377  1.00  0.00     0.240 C 
ENDROOT
BRANCH   1   2
HETATM    2  C6  UNL     1      14.426  11.065  11.102  1.00  0.00     0.249 C 
HETATM    3  N1  UNL     1      15.743  10.994  11.576  1.00  0.00    -0.344 N 
ATOM      4  H1  UNL     1      16.079  11.764  12.155  1.00  0.00     0.163 HD
HETATM    5  O1  UNL     1      14.017  10.114  10.389  1.00  0.00    -0.271 OA
BRANCH   3   6
HETATM    6  C5  UNL     1      16.670   9.896  11.300  1.00  0.00     0.185 C 
BRANCH   6   7
HETATM    7  C4  UNL     1      17.792  10.359  10.456  1.00  0.00     0.040 C 
BRANCH   7   8
HETATM    8  C2  UNL     1      18.072   9.664   9.184  1.00  0.00    -0.020 C 
HETATM    9  C1  UNL     1      17.388  10.272   7.974  1.00  0.00     0.009 C 
HETATM   10  C3  UNL     1      18.031   8.187   9.169  1.00  0.00     0.009 C 
ENDBRANCH   7   8
ENDBRANCH   6   7
BRANCH   6  11
HETATM   11  C16 UNL     1      16.967   9.223  12.548  1.00  0.00     0.196 C 
HETATM   12  O3  UNL     1      18.194   8.988  12.845  1.00  0.00    -0.646 OA
HETATM   13  O4  UNL     1      16.063   8.795  13.489  1.00  0.00    -0.646 OA
ENDBRANCH   6  11
ENDBRANCH   3   6
ENDBRANCH   1   2
BRANCH   1  14
HETATM   14  O2  UNL     1      12.793  12.525  10.236  1.00  0.00    -0.384 OA
ATOM     15  H2  UNL     1      13.364  12.524   9.477  1.00  0.00     0.210 HD
ENDBRANCH   1  14
BRANCH   1  16
HETATM   16  C8  UNL     1      12.639  11.957  12.579  1.00  0.00     0.225 C 
BRANCH  16  17
HETATM   17  N2  UNL     1      11.267  12.382  12.399  1.00  0.00    -0.072 N 
ATOM     18  H23 UNL     1      10.753  11.711  11.829  1.00  0.00     0.274 HD
ATOM     19  H22 UNL     1      10.745  12.299  13.272  1.00  0.00     0.274 HD
ATOM     20  H21 UNL     1      11.181  13.324  12.015  1.00  0.00     0.274 HD
ENDBRANCH  16  17
BRANCH  16  21
HETATM   21  C9  UNL     1      13.284  12.596  13.780  1.00  0.00     0.074 C 
BRANCH  21  22
HETATM   22  C10 UNL     1      12.977  11.959  15.064  1.00  0.00    -0.056 A 
HETATM   23  C11 UNL     1      12.119  12.506  15.992  1.00  0.00     0.007 A 
HETATM   24  C12 UNL     1      11.824  11.918  17.195  1.00  0.00     0.001 A 
HETATM   25  C13 UNL     1      12.390  10.722  17.528  1.00  0.00     0.000 A 
HETATM   26  C14 UNL     1      13.258  10.136  16.626  1.00  0.00     0.001 A 
HETATM   27  C15 UNL     1      13.545  10.743  15.418  1.00  0.00     0.007 A 
ENDBRANCH  21  22
ENDBRANCH  16  21
ENDBRANCH   1  16
TORSDOF 10
ENDMDL
