MODEL 2
REMARK VINA RESULT: -9.597538605      1.142      1.427
REMARK  9 active torsions:
REMARK  status: ('A' for Active; 'I' for Inactive)
REMARK    1  A    between atoms: C1_2  and  C2_3 
REMARK    2  A    between atoms: C1_2  and  P1_11 
REMARK    3  A    between atoms: C2_3  and  C3_4 
REMARK    4  A    between atoms: C3_4  and  C4_5 
REMARK    5  A    between atoms: P1_11  and  C10_14 
REMARK    6  A    between atoms: C10_14  and  C11_15 
REMARK    7  A    between atoms: C11_15  and  C12_16 
REMARK    8  A    between atoms: C11_15  and  C19_23 
REMARK    9  A    between atoms: C12_16  and  C13_17 
ROOT
HETATM    1  P1  UNL     1      13.955  11.716  11.322  1.00  0.00     0.154 P 
HETATM    2  O1  UNL     1      13.234  12.491   9.984  1.00  0.00    -0.663 OA
HETATM    3  O2  UNL     1      13.371  10.433  10.671  1.00  0.00    -0.663 OA
ENDROOT
BRANCH   1   4
HETATM    4  C1  UNL     1      13.080  11.536  12.824  1.00  0.00     0.109 C 
HETATM    5  N1  UNL     1      11.657  11.560  12.828  1.00  0.00    -0.096 NA
BRANCH   4   6
HETATM    6  C2  UNL     1      13.584  12.233  14.041  1.00  0.00     0.011 C 
BRANCH   6   7
HETATM    7  C3  UNL     1      12.737  12.749  15.086  1.00  0.00     0.067 C 
BRANCH   7   8
HETATM    8  C4  UNL     1      12.563  11.906  16.271  1.00  0.00    -0.055 A 
HETATM    9  C5  UNL     1      13.410  10.806  16.436  1.00  0.00     0.007 A 
HETATM   10  C6  UNL     1      13.339   9.999  17.535  1.00  0.00     0.001 A 
HETATM   11  C7  UNL     1      12.402  10.291  18.498  1.00  0.00     0.000 A 
HETATM   12  C8  UNL     1      11.558  11.373  18.351  1.00  0.00     0.001 A 
HETATM   13  C9  UNL     1      11.629  12.175  17.258  1.00  0.00     0.007 A 
ENDBRANCH   7   8
ENDBRANCH   6   7
ENDBRANCH   4   6
ENDBRANCH   1   4
BRANCH   1  14
HETATM   14  C10 UNL     1      15.631  11.282  11.179  1.00  0.00     0.125 C 
BRANCH  14  15
HETATM   15  C11 UNL     1      16.092   9.896  10.918  1.00  0.00     0.101 C 
BRANCH  15  16
HETATM   16  C12 UNL     1      17.205   9.976   9.868  1.00  0.00     0.054 C 
BRANCH  16  17
HETATM   17  C13 UNL     1      17.047   8.998   8.792  1.00  0.00    -0.057 A 
HETATM   18  C14 UNL     1      16.234   7.893   8.915  1.00  0.00     0.007 A 
HETATM   19  C15 UNL     1      16.082   6.972   7.901  1.00  0.00     0.001 A 
HETATM   20  C16 UNL     1      16.768   7.161   6.723  1.00  0.00     0.000 A 
HETATM   21  C17 UNL     1      17.599   8.267   6.564  1.00  0.00     0.001 A 
HETATM   22  C18 UNL     1      17.731   9.171   7.597  1.00  0.00     0.007 A 
ENDBRANCH  16  17
ENDBRANCH  15  16
BRANCH  15  23
HETATM   23  C19 UNL     1      16.544   9.204  12.141  1.00  0.00     0.177 C 
HETATM   24  O3  UNL     1      15.655   8.846  12.984  1.00  0.00    -0.648 OA
HETATM   25  O4  UNL     1      17.849   8.923  12.431  1.00  0.00    -0.648 OA
ENDBRANCH  15  23
ENDBRANCH  14  15
ENDBRANCH   1  14
TORSDOF 9
ENDMDL
