MODEL 15
REMARK VINA RESULT: -9.021667066      2.833      4.806
REMARK  9 active torsions:
REMARK  status: ('A' for Active; 'I' for Inactive)
REMARK    1  A    between atoms: C1_2  and  C2_3 
REMARK    2  A    between atoms: C1_2  and  P1_11 
REMARK    3  A    between atoms: C2_3  and  C3_4 
REMARK    4  A    between atoms: C3_4  and  C4_5 
REMARK    5  A    between atoms: P1_11  and  C10_14 
REMARK    6  A    between atoms: C10_14  and  C11_15 
REMARK    7  A    between atoms: C11_15  and  C12_16 
REMARK    8  A    between atoms: C11_15  and  C19_23 
REMARK    9  A    between atoms: C12_16  and  C13_17 
ROOT
HETATM    1  P1  UNL     1      15.383  10.558  11.732  1.00  0.00     0.154 P 
HETATM    2  O1  UNL     1      14.444  11.904  11.267  1.00  0.00    -0.663 OA
HETATM    3  O2  UNL     1      14.601   9.842  10.597  1.00  0.00    -0.663 OA
ENDROOT
BRANCH   1   4
HETATM    4  C1  UNL     1      14.832   9.483  12.996  1.00  0.00     0.109 C 
HETATM    5  N1  UNL     1      14.194  10.012  14.153  1.00  0.00    -0.096 NA
BRANCH   4   6
HETATM    6  C2  UNL     1      15.696   8.336  13.396  1.00  0.00     0.011 C 
BRANCH   6   7
HETATM    7  C3  UNL     1      15.195   7.039  13.770  1.00  0.00     0.067 C 
BRANCH   7   8
HETATM    8  C4  UNL     1      15.479   5.932  12.855  1.00  0.00    -0.055 A 
HETATM    9  C5  UNL     1      15.008   4.657  13.185  1.00  0.00     0.007 A 
HETATM   10  C6  UNL     1      15.194   3.583  12.363  1.00  0.00     0.001 A 
HETATM   11  C7  UNL     1      15.867   3.779  11.180  1.00  0.00     0.000 A 
HETATM   12  C8  UNL     1      16.340   5.029  10.839  1.00  0.00     0.001 A 
HETATM   13  C9  UNL     1      16.154   6.097  11.657  1.00  0.00     0.007 A 
ENDBRANCH   7   8
ENDBRANCH   6   7
ENDBRANCH   4   6
ENDBRANCH   1   4
BRANCH   1  14
HETATM   14  C10 UNL     1      16.963  10.411  11.028  1.00  0.00     0.125 C 
BRANCH  14  15
HETATM   15  C11 UNL     1      17.397   9.227  10.244  1.00  0.00     0.101 C 
BRANCH  15  16
HETATM   16  C12 UNL     1      17.772   9.720   8.843  1.00  0.00     0.054 C 
BRANCH  16  17
HETATM   17  C13 UNL     1      17.453   8.754   7.793  1.00  0.00    -0.057 A 
HETATM   18  C14 UNL     1      18.001   8.830   6.532  1.00  0.00     0.007 A 
HETATM   19  C15 UNL     1      17.704   7.918   5.541  1.00  0.00     0.001 A 
HETATM   20  C16 UNL     1      16.827   6.895   5.821  1.00  0.00     0.000 A 
HETATM   21  C17 UNL     1      16.254   6.788   7.085  1.00  0.00     0.001 A 
HETATM   22  C18 UNL     1      16.571   7.715   8.056  1.00  0.00     0.007 A 
ENDBRANCH  16  17
ENDBRANCH  15  16
BRANCH  15  23
HETATM   23  C19 UNL     1      18.511   8.497  10.882  1.00  0.00     0.177 C 
HETATM   24  O3  UNL     1      18.845   8.839  12.066  1.00  0.00    -0.648 OA
HETATM   25  O4  UNL     1      19.206   7.481  10.290  1.00  0.00    -0.648 OA
ENDBRANCH  15  23
ENDBRANCH  14  15
ENDBRANCH   1  14
TORSDOF 9
ENDMDL
