MODEL 19
REMARK VINA RESULT: -8.789209321      3.135      5.113
REMARK  9 active torsions:
REMARK  status: ('A' for Active; 'I' for Inactive)
REMARK    1  A    between atoms: C1_2  and  C2_3 
REMARK    2  A    between atoms: C1_2  and  P1_11 
REMARK    3  A    between atoms: C2_3  and  C3_4 
REMARK    4  A    between atoms: C3_4  and  C4_5 
REMARK    5  A    between atoms: P1_11  and  C10_14 
REMARK    6  A    between atoms: C10_14  and  C11_15 
REMARK    7  A    between atoms: C11_15  and  C12_16 
REMARK    8  A    between atoms: C11_15  and  C19_23 
REMARK    9  A    between atoms: C12_16  and  C13_17 
ROOT
HETATM    1  P1  UNL     1      15.948   9.864  11.806  1.00  0.00     0.154 P 
HETATM    2  O1  UNL     1      16.933  11.198  12.202  1.00  0.00    -0.663 OA
HETATM    3  O2  UNL     1      14.846  10.946  11.653  1.00  0.00    -0.663 OA
ENDROOT
BRANCH   1   4
HETATM    4  C1  UNL     1      15.113   8.971  13.055  1.00  0.00     0.109 C 
HETATM    5  N1  UNL     1      14.395   9.666  14.069  1.00  0.00    -0.096 NA
BRANCH   4   6
HETATM    6  C2  UNL     1      15.774   7.779  13.656  1.00  0.00     0.011 C 
BRANCH   6   7
HETATM    7  C3  UNL     1      15.116   6.518  13.883  1.00  0.00     0.067 C 
BRANCH   7   8
HETATM    8  C4  UNL     1      15.361   5.459  12.901  1.00  0.00    -0.055 A 
HETATM    9  C5  UNL     1      16.070   5.779  11.739  1.00  0.00     0.007 A 
HETATM   10  C6  UNL     1      16.375   4.838  10.798  1.00  0.00     0.001 A 
HETATM   11  C7  UNL     1      15.967   3.544  11.015  1.00  0.00     0.000 A 
HETATM   12  C8  UNL     1      15.266   3.211  12.156  1.00  0.00     0.001 A 
HETATM   13  C9  UNL     1      14.962   4.146  13.092  1.00  0.00     0.007 A 
ENDBRANCH   7   8
ENDBRANCH   6   7
ENDBRANCH   4   6
ENDBRANCH   1   4
BRANCH   1  14
HETATM   14  C10 UNL     1      15.957   9.334  10.152  1.00  0.00     0.125 C 
BRANCH  14  15
HETATM   15  C11 UNL     1      17.006   8.447   9.588  1.00  0.00     0.101 C 
BRANCH  15  16
HETATM   16  C12 UNL     1      17.064   8.710   8.081  1.00  0.00     0.054 C 
BRANCH  16  17
HETATM   17  C13 UNL     1      17.254   7.492   7.295  1.00  0.00    -0.057 A 
HETATM   18  C14 UNL     1      18.268   7.362   6.371  1.00  0.00     0.007 A 
HETATM   19  C15 UNL     1      18.451   6.213   5.631  1.00  0.00     0.001 A 
HETATM   20  C16 UNL     1      17.589   5.157   5.821  1.00  0.00     0.000 A 
HETATM   21  C17 UNL     1      16.554   5.253   6.747  1.00  0.00     0.001 A 
HETATM   22  C18 UNL     1      16.396   6.415   7.472  1.00  0.00     0.007 A 
ENDBRANCH  16  17
ENDBRANCH  15  16
BRANCH  15  23
HETATM   23  C19 UNL     1      18.323   8.643  10.228  1.00  0.00     0.177 C 
HETATM   24  O3  UNL     1      18.972   9.704   9.939  1.00  0.00    -0.648 OA
HETATM   25  O4  UNL     1      18.892   7.765  11.106  1.00  0.00    -0.648 OA
ENDBRANCH  15  23
ENDBRANCH  14  15
ENDBRANCH   1  14
TORSDOF 9
ENDMDL
