MODEL 13
REMARK VINA RESULT: -9.051856350      2.884      4.951
REMARK  9 active torsions:
REMARK  status: ('A' for Active; 'I' for Inactive)
REMARK    1  A    between atoms: C1_2  and  C2_3 
REMARK    2  A    between atoms: C1_2  and  P1_11 
REMARK    3  A    between atoms: C2_3  and  C3_4 
REMARK    4  A    between atoms: C3_4  and  C4_5 
REMARK    5  A    between atoms: P1_11  and  C10_14 
REMARK    6  A    between atoms: C10_14  and  C11_15 
REMARK    7  A    between atoms: C11_15  and  C12_16 
REMARK    8  A    between atoms: C11_15  and  C19_23 
REMARK    9  A    between atoms: C12_16  and  C13_17 
ROOT
HETATM    1  P1  UNL     1      15.778  10.364  11.201  1.00  0.00     0.154 P 
HETATM    2  O1  UNL     1      17.083  11.385  10.796  1.00  0.00    -0.663 OA
HETATM    3  O2  UNL     1      15.566  10.317   9.665  1.00  0.00    -0.663 OA
ENDROOT
BRANCH   1   4
HETATM    4  C1  UNL     1      14.202  11.030  11.552  1.00  0.00     0.109 C 
HETATM    5  N1  UNL     1      13.609  11.967  10.660  1.00  0.00    -0.096 NA
BRANCH   4   6
HETATM    6  C2  UNL     1      13.877  11.418  12.954  1.00  0.00     0.011 C 
BRANCH   6   7
HETATM    7  C3  UNL     1      14.005  10.538  14.087  1.00  0.00     0.067 C 
BRANCH   7   8
HETATM    8  C4  UNL     1      13.305  10.933  15.312  1.00  0.00    -0.055 A 
HETATM    9  C5  UNL     1      13.510  10.176  16.470  1.00  0.00     0.007 A 
HETATM   10  C6  UNL     1      12.929  10.505  17.660  1.00  0.00     0.001 A 
HETATM   11  C7  UNL     1      12.122  11.618  17.705  1.00  0.00     0.000 A 
HETATM   12  C8  UNL     1      11.909  12.376  16.572  1.00  0.00     0.001 A 
HETATM   13  C9  UNL     1      12.487  12.048  15.388  1.00  0.00     0.007 A 
ENDBRANCH   7   8
ENDBRANCH   6   7
ENDBRANCH   4   6
ENDBRANCH   1   4
BRANCH   1  14
HETATM   14  C10 UNL     1      16.130   8.677  11.420  1.00  0.00     0.125 C 
BRANCH  14  15
HETATM   15  C11 UNL     1      17.087   8.171  12.436  1.00  0.00     0.101 C 
BRANCH  15  16
HETATM   16  C12 UNL     1      16.647   6.753  12.811  1.00  0.00     0.054 C 
BRANCH  16  17
HETATM   17  C13 UNL     1      16.498   6.564  14.253  1.00  0.00    -0.057 A 
HETATM   18  C14 UNL     1      17.481   5.986  15.025  1.00  0.00     0.007 A 
HETATM   19  C15 UNL     1      17.344   5.809  16.386  1.00  0.00     0.001 A 
HETATM   20  C16 UNL     1      16.181   6.224  16.995  1.00  0.00     0.000 A 
HETATM   21  C17 UNL     1      15.167   6.812  16.245  1.00  0.00     0.001 A 
HETATM   22  C18 UNL     1      15.334   6.976  14.886  1.00  0.00     0.007 A 
ENDBRANCH  16  17
ENDBRANCH  15  16
BRANCH  15  23
HETATM   23  C19 UNL     1      18.487   8.202  11.967  1.00  0.00     0.177 C 
HETATM   24  O3  UNL     1      19.407   8.277  12.849  1.00  0.00    -0.648 OA
HETATM   25  O4  UNL     1      18.862   8.157  10.654  1.00  0.00    -0.648 OA
ENDBRANCH  15  23
ENDBRANCH  14  15
ENDBRANCH   1  14
TORSDOF 9
ENDMDL
