MODEL 10
REMARK VINA RESULT: -9.167143904      1.864      5.181
REMARK  2 active torsions:
REMARK  status: ('A' for Active; 'I' for Inactive)
REMARK    1  A    between atoms: C13_13  and  O1_14 
REMARK    2  A    between atoms: C18_22  and  C19_23 
ROOT
HETATM    1  C1  UNL     1      29.539  44.017  11.996  1.00  0.00     0.014 C 
HETATM    2  C2  UNL     1      30.466  44.718  12.590  1.00  0.00    -0.084 C 
HETATM    3  C3  UNL     1      31.807  44.264  13.024  1.00  0.00     0.044 C 
HETATM    4  C4  UNL     1      32.392  45.403  13.842  1.00  0.00    -0.016 C 
HETATM    5  C5  UNL     1      31.137  46.114  14.296  1.00  0.00     0.020 C 
HETATM    6  C6  UNL     1      30.369  46.146  12.965  1.00  0.00     0.014 C 
HETATM    7  C7  UNL     1      31.141  46.933  11.926  1.00  0.00     0.009 C 
HETATM    8  C8  UNL     1      32.454  47.448  12.445  1.00  0.00     0.009 C 
HETATM    9  C9  UNL     1      33.276  46.312  13.011  1.00  0.00     0.031 C 
HETATM   10  C10 UNL     1      34.233  46.836  14.017  1.00  0.00     0.081 C 
HETATM   11  C11 UNL     1      35.468  47.465  13.482  1.00  0.00     0.042 C 
HETATM   12  C12 UNL     1      36.249  47.959  14.711  1.00  0.00     0.036 C 
HETATM   13  C13 UNL     1      36.435  46.875  15.728  1.00  0.00     0.136 C 
HETATM   14  C14 UNL     1      35.085  46.244  16.092  1.00  0.00     0.077 C 
HETATM   15  C15 UNL     1      35.182  45.324  17.251  1.00  0.00     0.029 C 
HETATM   16  C16 UNL     1      34.075  47.323  16.258  1.00  0.00     0.271 C 
HETATM   17  O2  UNL     1      33.637  47.846  17.304  1.00  0.00    -0.264 OA
HETATM   18  O3  UNL     1      33.666  47.685  14.982  1.00  0.00    -0.308 OA
HETATM   19  C17 UNL     1      34.594  45.579  14.818  1.00  0.00     0.057 C 
HETATM   20  C18 UNL     1      33.247  44.927  14.977  1.00  0.00     0.104 C 
ENDROOT
BRANCH  20  21
HETATM   21  C19 UNL     1      33.432  43.434  14.898  1.00  0.00     0.178 C 
HETATM   22  O4  UNL     1      32.639  42.633  15.452  1.00  0.00    -0.648 OA
HETATM   23  O5  UNL     1      34.505  42.875  14.197  1.00  0.00    -0.648 OA
ENDBRANCH  20  21
BRANCH  13  24
HETATM   24  O1  UNL     1      37.255  45.868  15.244  1.00  0.00    -0.394 OA
ATOM     25  H1  UNL     1      37.906  46.213  14.646  1.00  0.00     0.210 HD
ENDBRANCH  13  24
TORSDOF 2
ENDMDL
