MODEL 11
REMARK VINA RESULT: -9.152502402      2.042      4.698
REMARK  2 active torsions:
REMARK  status: ('A' for Active; 'I' for Inactive)
REMARK    1  A    between atoms: C13_13  and  O1_14 
REMARK    2  A    between atoms: C18_22  and  C19_23 
ROOT
HETATM    1  C1  UNL     1      33.215  42.278   8.880  1.00  0.00     0.014 C 
HETATM    2  C2  UNL     1      33.008  42.938   9.988  1.00  0.00    -0.084 C 
HETATM    3  C3  UNL     1      34.014  43.377  10.982  1.00  0.00     0.044 C 
HETATM    4  C4  UNL     1      33.227  43.909  12.169  1.00  0.00    -0.016 C 
HETATM    5  C5  UNL     1      31.913  43.181  11.999  1.00  0.00     0.020 C 
HETATM    6  C6  UNL     1      31.696  43.396  10.494  1.00  0.00     0.014 C 
HETATM    7  C7  UNL     1      31.588  44.874  10.179  1.00  0.00     0.009 C 
HETATM    8  C8  UNL     1      31.749  45.740  11.397  1.00  0.00     0.009 C 
HETATM    9  C9  UNL     1      33.043  45.412  12.107  1.00  0.00     0.031 C 
HETATM   10  C10 UNL     1      32.938  45.781  13.540  1.00  0.00     0.081 C 
HETATM   11  C11 UNL     1      33.124  47.219  13.864  1.00  0.00     0.042 C 
HETATM   12  C12 UNL     1      32.919  47.334  15.382  1.00  0.00     0.036 C 
HETATM   13  C13 UNL     1      33.773  46.362  16.137  1.00  0.00     0.136 C 
HETATM   14  C14 UNL     1      33.555  44.937  15.611  1.00  0.00     0.077 C 
HETATM   15  C15 UNL     1      34.204  43.912  16.464  1.00  0.00     0.029 C 
HETATM   16  C16 UNL     1      32.101  44.717  15.398  1.00  0.00     0.271 C 
HETATM   17  O2  UNL     1      31.272  44.125  16.123  1.00  0.00    -0.264 OA
HETATM   18  O3  UNL     1      31.781  45.312  14.185  1.00  0.00    -0.308 OA
HETATM   19  C17 UNL     1      34.061  44.954  14.179  1.00  0.00     0.057 C 
HETATM   20  C18 UNL     1      33.894  43.632  13.482  1.00  0.00     0.104 C 
ENDROOT
BRANCH  20  21
HETATM   21  C19 UNL     1      35.260  43.040  13.256  1.00  0.00     0.178 C 
HETATM   22  O4  UNL     1      35.443  41.802  13.152  1.00  0.00    -0.648 OA
HETATM   23  O5  UNL     1      36.393  43.855  13.152  1.00  0.00    -0.648 OA
ENDBRANCH  20  21
BRANCH  13  24
HETATM   24  O1  UNL     1      35.118  46.662  15.998  1.00  0.00    -0.394 OA
ATOM     25  H1  UNL     1      35.660  46.032  16.457  1.00  0.00     0.210 HD
ENDBRANCH  13  24
TORSDOF 2
ENDMDL
