MODEL 3
REMARK VINA RESULT: -11.531266838      0.824      1.048
REMARK  2 active torsions:
REMARK  status: ('A' for Active; 'I' for Inactive)
REMARK    1  A    between atoms: C13_13  and  O1_14 
REMARK    2  A    between atoms: C18_22  and  C19_23 
ROOT
HETATM    1  C1  UNL     1      36.554  45.851  16.938  1.00  0.00     0.014 C 
HETATM    2  C2  UNL     1      35.530  45.982  16.138  1.00  0.00    -0.084 C 
HETATM    3  C3  UNL     1      34.593  44.927  15.687  1.00  0.00     0.044 C 
HETATM    4  C4  UNL     1      33.729  45.565  14.612  1.00  0.00    -0.016 C 
HETATM    5  C5  UNL     1      34.629  46.683  14.138  1.00  0.00     0.020 C 
HETATM    6  C6  UNL     1      35.083  47.237  15.497  1.00  0.00     0.014 C 
HETATM    7  C7  UNL     1      33.894  47.742  16.288  1.00  0.00     0.009 C 
HETATM    8  C8  UNL     1      32.591  47.547  15.565  1.00  0.00     0.009 C 
HETATM    9  C9  UNL     1      32.423  46.099  15.166  1.00  0.00     0.031 C 
HETATM   10  C10 UNL     1      31.515  46.001  13.997  1.00  0.00     0.081 C 
HETATM   11  C11 UNL     1      30.060  46.090  14.286  1.00  0.00     0.042 C 
HETATM   12  C12 UNL     1      29.359  46.012  12.921  1.00  0.00     0.036 C 
HETATM   13  C13 UNL     1      29.812  44.825  12.127  1.00  0.00     0.136 C 
HETATM   14  C14 UNL     1      31.342  44.809  12.014  1.00  0.00     0.077 C 
HETATM   15  C15 UNL     1      31.830  43.787  11.057  1.00  0.00     0.029 C 
HETATM   16  C16 UNL     1      31.821  46.187  11.726  1.00  0.00     0.271 C 
HETATM   17  O2  UNL     1      32.167  46.697  10.639  1.00  0.00    -0.264 OA
HETATM   18  O3  UNL     1      31.826  46.868  12.936  1.00  0.00    -0.308 OA
HETATM   19  C17 UNL     1      31.849  44.614  13.432  1.00  0.00     0.057 C 
HETATM   20  C18 UNL     1      33.350  44.607  13.524  1.00  0.00     0.104 C 
ENDROOT
BRANCH  20  21
HETATM   21  C19 UNL     1      33.796  43.213  13.881  1.00  0.00     0.178 C 
HETATM   22  O4  UNL     1      33.006  42.363  14.361  1.00  0.00    -0.648 OA
HETATM   23  O5  UNL     1      35.120  42.806  13.692  1.00  0.00    -0.648 OA
ENDBRANCH  20  21
BRANCH  13  24
HETATM   24  O1  UNL     1      29.420  43.640  12.727  1.00  0.00    -0.394 OA
ATOM     25  H1  UNL     1      30.041  43.371  13.393  1.00  0.00     0.210 HD
ENDBRANCH  13  24
TORSDOF 2
ENDMDL
