MODEL 2
REMARK VINA RESULT: -11.931283072      1.013      1.329
REMARK  2 active torsions:
REMARK  status: ('A' for Active; 'I' for Inactive)
REMARK    1  A    between atoms: C13_13  and  O1_14 
REMARK    2  A    between atoms: C18_22  and  C19_23 
ROOT
HETATM    1  C1  UNL     1      37.151  47.157  15.966  1.00  0.00     0.014 C 
HETATM    2  C2  UNL     1      36.041  46.878  15.338  1.00  0.00    -0.084 C 
HETATM    3  C3  UNL     1      35.555  45.548  14.905  1.00  0.00     0.044 C 
HETATM    4  C4  UNL     1      34.331  45.808  14.042  1.00  0.00    -0.016 C 
HETATM    5  C5  UNL     1      34.594  47.223  13.578  1.00  0.00     0.020 C 
HETATM    6  C6  UNL     1      35.013  47.854  14.915  1.00  0.00     0.014 C 
HETATM    7  C7  UNL     1      33.880  47.771  15.918  1.00  0.00     0.009 C 
HETATM    8  C8  UNL     1      32.667  47.076  15.368  1.00  0.00     0.009 C 
HETATM    9  C9  UNL     1      33.041  45.712  14.832  1.00  0.00     0.031 C 
HETATM   10  C10 UNL     1      32.063  45.292  13.798  1.00  0.00     0.081 C 
HETATM   11  C11 UNL     1      30.775  44.744  14.297  1.00  0.00     0.042 C 
HETATM   12  C12 UNL     1      29.940  44.438  13.044  1.00  0.00     0.036 C 
HETATM   13  C13 UNL     1      30.693  43.593  12.063  1.00  0.00     0.136 C 
HETATM   14  C14 UNL     1      32.048  44.232  11.735  1.00  0.00     0.077 C 
HETATM   15  C15 UNL     1      32.736  43.557  10.607  1.00  0.00     0.029 C 
HETATM   16  C16 UNL     1      31.862  45.694  11.544  1.00  0.00     0.271 C 
HETATM   17  O2  UNL     1      31.770  46.351  10.485  1.00  0.00    -0.264 OA
HETATM   18  O3  UNL     1      31.799  46.256  12.811  1.00  0.00    -0.308 OA
HETATM   19  C17 UNL     1      32.831  44.205  13.036  1.00  0.00     0.057 C 
HETATM   20  C18 UNL     1      34.194  44.830  12.914  1.00  0.00     0.104 C 
ENDROOT
BRANCH  20  21
HETATM   21  C19 UNL     1      35.227  43.742  13.043  1.00  0.00     0.178 C 
HETATM   22  O4  UNL     1      35.052  42.739  13.779  1.00  0.00    -0.648 OA
HETATM   23  O5  UNL     1      36.435  43.805  12.341  1.00  0.00    -0.648 OA
ENDBRANCH  20  21
BRANCH  13  24
HETATM   24  O1  UNL     1      30.934  42.327  12.572  1.00  0.00    -0.394 OA
ATOM     25  H1  UNL     1      30.123  41.850  12.704  1.00  0.00     0.210 HD
ENDBRANCH  13  24
TORSDOF 2
ENDMDL
