MODEL 5
REMARK VINA RESULT: -10.538316068      2.033      5.264
REMARK  2 active torsions:
REMARK  status: ('A' for Active; 'I' for Inactive)
REMARK    1  A    between atoms: C13_13  and  O1_14 
REMARK    2  A    between atoms: C18_22  and  C19_23 
ROOT
HETATM    1  C1  UNL     1      28.837  43.798  13.887  1.00  0.00     0.014 C 
HETATM    2  C2  UNL     1      29.898  44.524  14.119  1.00  0.00    -0.084 C 
HETATM    3  C3  UNL     1      31.286  44.056  14.335  1.00  0.00     0.044 C 
HETATM    4  C4  UNL     1      32.079  45.278  14.768  1.00  0.00    -0.016 C 
HETATM    5  C5  UNL     1      30.983  46.154  15.331  1.00  0.00     0.020 C 
HETATM    6  C6  UNL     1      29.936  45.999  14.218  1.00  0.00     0.014 C 
HETATM    7  C7  UNL     1      30.479  46.520  12.903  1.00  0.00     0.009 C 
HETATM    8  C8  UNL     1      31.892  47.019  13.016  1.00  0.00     0.009 C 
HETATM    9  C9  UNL     1      32.782  45.948  13.604  1.00  0.00     0.031 C 
HETATM   10  C10 UNL     1      33.958  46.573  14.257  1.00  0.00     0.081 C 
HETATM   11  C11 UNL     1      35.061  46.997  13.357  1.00  0.00     0.042 C 
HETATM   12  C12 UNL     1      36.115  47.647  14.267  1.00  0.00     0.036 C 
HETATM   13  C13 UNL     1      36.490  46.758  15.413  1.00  0.00     0.136 C 
HETATM   14  C14 UNL     1      35.236  46.311  16.175  1.00  0.00     0.077 C 
HETATM   15  C15 UNL     1      35.562  45.614  17.444  1.00  0.00     0.029 C 
HETATM   16  C16 UNL     1      34.327  47.475  16.339  1.00  0.00     0.271 C 
HETATM   17  O2  UNL     1      34.154  48.214  17.332  1.00  0.00    -0.264 OA
HETATM   18  O3  UNL     1      33.653  47.627  15.135  1.00  0.00    -0.308 OA
HETATM   19  C17 UNL     1      34.448  45.461  15.193  1.00  0.00     0.057 C 
HETATM   20  C18 UNL     1      33.151  44.955  15.763  1.00  0.00     0.104 C 
ENDROOT
BRANCH  20  21
HETATM   21  C19 UNL     1      33.263  43.464  15.941  1.00  0.00     0.178 C 
HETATM   22  O4  UNL     1      33.210  42.920  17.072  1.00  0.00    -0.648 OA
HETATM   23  O5  UNL     1      33.432  42.615  14.842  1.00  0.00    -0.648 OA
ENDBRANCH  20  21
BRANCH  13  24
HETATM   24  O1  UNL     1      37.145  45.620  14.971  1.00  0.00    -0.394 OA
ATOM     25  H1  UNL     1      37.467  45.104  15.701  1.00  0.00     0.210 HD
ENDBRANCH  13  24
TORSDOF 2
ENDMDL
