MODEL 1
REMARK VINA RESULT: -12.277316744      0.000      0.000
REMARK  2 active torsions:
REMARK  status: ('A' for Active; 'I' for Inactive)
REMARK    1  A    between atoms: C13_13  and  O1_14 
REMARK    2  A    between atoms: C18_22  and  C19_23 
ROOT
HETATM    1  C1  UNL     1      37.165  46.485  15.588  1.00  0.00     0.014 C 
HETATM    2  C2  UNL     1      35.967  46.412  15.073  1.00  0.00    -0.084 C 
HETATM    3  C3  UNL     1      35.057  45.244  15.059  1.00  0.00     0.044 C 
HETATM    4  C4  UNL     1      33.895  45.627  14.158  1.00  0.00    -0.016 C 
HETATM    5  C5  UNL     1      34.533  46.688  13.292  1.00  0.00     0.020 C 
HETATM    6  C6  UNL     1      35.252  47.504  14.377  1.00  0.00     0.014 C 
HETATM    7  C7  UNL     1      34.252  48.078  15.359  1.00  0.00     0.009 C 
HETATM    8  C8  UNL     1      32.836  47.684  15.043  1.00  0.00     0.009 C 
HETATM    9  C9  UNL     1      32.721  46.180  14.941  1.00  0.00     0.031 C 
HETATM   10  C10 UNL     1      31.565  45.822  14.081  1.00  0.00     0.081 C 
HETATM   11  C11 UNL     1      30.226  45.882  14.722  1.00  0.00     0.042 C 
HETATM   12  C12 UNL     1      29.220  45.519  13.619  1.00  0.00     0.036 C 
HETATM   13  C13 UNL     1      29.579  44.234  12.936  1.00  0.00     0.136 C 
HETATM   14  C14 UNL     1      31.027  44.282  12.432  1.00  0.00     0.077 C 
HETATM   15  C15 UNL     1      31.362  43.131  11.558  1.00  0.00     0.029 C 
HETATM   16  C16 UNL     1      31.280  45.608  11.810  1.00  0.00     0.271 C 
HETATM   17  O2  UNL     1      31.293  45.931  10.603  1.00  0.00    -0.264 OA
HETATM   18  O3  UNL     1      31.516  46.497  12.850  1.00  0.00    -0.308 OA
HETATM   19  C17 UNL     1      31.886  44.376  13.681  1.00  0.00     0.057 C 
HETATM   20  C18 UNL     1      33.356  44.468  13.376  1.00  0.00     0.104 C 
ENDROOT
BRANCH  20  21
HETATM   21  C19 UNL     1      34.013  43.189  13.825  1.00  0.00     0.178 C 
HETATM   22  O4  UNL     1      35.232  42.960  13.631  1.00  0.00    -0.648 OA
HETATM   23  O5  UNL     1      33.283  42.193  14.483  1.00  0.00    -0.648 OA
ENDBRANCH  20  21
BRANCH  13  24
HETATM   24  O1  UNL     1      29.468  43.158  13.801  1.00  0.00    -0.394 OA
ATOM     25  H1  UNL     1      29.976  42.417  13.495  1.00  0.00     0.210 HD
ENDBRANCH  13  24
TORSDOF 2
ENDMDL
