MODEL 6
REMARK VINA RESULT: -10.427015031      1.707      2.232
REMARK  2 active torsions:
REMARK  status: ('A' for Active; 'I' for Inactive)
REMARK    1  A    between atoms: C13_13  and  O1_14 
REMARK    2  A    between atoms: C18_22  and  C19_23 
ROOT
HETATM    1  C1  UNL     1      36.318  46.218  17.503  1.00  0.00     0.014 C 
HETATM    2  C2  UNL     1      35.666  46.059  16.383  1.00  0.00    -0.084 C 
HETATM    3  C3  UNL     1      34.260  45.628  16.206  1.00  0.00     0.044 C 
HETATM    4  C4  UNL     1      34.074  45.404  14.715  1.00  0.00    -0.016 C 
HETATM    5  C5  UNL     1      35.496  45.141  14.277  1.00  0.00     0.020 C 
HETATM    6  C6  UNL     1      36.207  46.281  15.024  1.00  0.00     0.014 C 
HETATM    7  C7  UNL     1      35.692  47.625  14.553  1.00  0.00     0.009 C 
HETATM    8  C8  UNL     1      34.613  47.502  13.514  1.00  0.00     0.009 C 
HETATM    9  C9  UNL     1      33.494  46.620  14.021  1.00  0.00     0.031 C 
HETATM   10  C10 UNL     1      32.768  46.020  12.875  1.00  0.00     0.081 C 
HETATM   11  C11 UNL     1      31.775  46.892  12.196  1.00  0.00     0.042 C 
HETATM   12  C12 UNL     1      31.213  46.058  11.035  1.00  0.00     0.036 C 
HETATM   13  C13 UNL     1      30.725  44.718  11.494  1.00  0.00     0.136 C 
HETATM   14  C14 UNL     1      31.823  43.988  12.277  1.00  0.00     0.077 C 
HETATM   15  C15 UNL     1      31.473  42.574  12.562  1.00  0.00     0.029 C 
HETATM   16  C16 UNL     1      33.119  44.160  11.570  1.00  0.00     0.271 C 
HETATM   17  O2  UNL     1      33.721  43.371  10.810  1.00  0.00    -0.264 OA
HETATM   18  O3  UNL     1      33.591  45.422  11.905  1.00  0.00    -0.308 OA
HETATM   19  C17 UNL     1      32.056  44.826  13.522  1.00  0.00     0.057 C 
HETATM   20  C18 UNL     1      33.139  44.273  14.407  1.00  0.00     0.104 C 
ENDROOT
BRANCH  20  21
HETATM   21  C19 UNL     1      32.503  43.767  15.674  1.00  0.00     0.178 C 
HETATM   22  O4  UNL     1      31.282  43.930  15.920  1.00  0.00    -0.648 OA
HETATM   23  O5  UNL     1      33.253  43.088  16.640  1.00  0.00    -0.648 OA
ENDBRANCH  20  21
BRANCH  13  24
HETATM   24  O1  UNL     1      29.624  44.843  12.326  1.00  0.00    -0.394 OA
ATOM     25  H1  UNL     1      28.955  44.204  12.109  1.00  0.00     0.210 HD
ENDBRANCH  13  24
TORSDOF 2
ENDMDL
