MODEL 4
REMARK VINA RESULT: -10.775118617      1.517      1.675
REMARK  2 active torsions:
REMARK  status: ('A' for Active; 'I' for Inactive)
REMARK    1  A    between atoms: C13_13  and  O1_14 
REMARK    2  A    between atoms: C18_22  and  C19_23 
ROOT
HETATM    1  C1  UNL     1      36.513  47.311  17.290  1.00  0.00     0.014 C 
HETATM    2  C2  UNL     1      35.643  47.051  16.352  1.00  0.00    -0.084 C 
HETATM    3  C3  UNL     1      34.463  46.160  16.433  1.00  0.00     0.044 C 
HETATM    4  C4  UNL     1      33.921  46.051  15.018  1.00  0.00    -0.016 C 
HETATM    5  C5  UNL     1      35.154  46.375  14.205  1.00  0.00     0.020 C 
HETATM    6  C6  UNL     1      35.653  47.604  14.981  1.00  0.00     0.014 C 
HETATM    7  C7  UNL     1      34.621  48.712  14.939  1.00  0.00     0.009 C 
HETATM    8  C8  UNL     1      33.380  48.321  14.187  1.00  0.00     0.009 C 
HETATM    9  C9  UNL     1      32.805  47.042  14.753  1.00  0.00     0.031 C 
HETATM   10  C10 UNL     1      32.001  46.350  13.716  1.00  0.00     0.081 C 
HETATM   11  C11 UNL     1      30.627  46.871  13.494  1.00  0.00     0.042 C 
HETATM   12  C12 UNL     1      30.040  46.024  12.354  1.00  0.00     0.036 C 
HETATM   13  C13 UNL     1      30.165  44.556  12.626  1.00  0.00     0.136 C 
HETATM   14  C14 UNL     1      31.619  44.193  12.952  1.00  0.00     0.077 C 
HETATM   15  C15 UNL     1      31.839  42.727  13.011  1.00  0.00     0.029 C 
HETATM   16  C16 UNL     1      32.519  44.904  12.006  1.00  0.00     0.271 C 
HETATM   17  O2  UNL     1      33.086  44.478  10.977  1.00  0.00    -0.264 OA
HETATM   18  O3  UNL     1      32.642  46.205  12.474  1.00  0.00    -0.308 OA
HETATM   19  C17 UNL     1      31.933  44.914  14.251  1.00  0.00     0.057 C 
HETATM   20  C18 UNL     1      33.349  44.700  14.714  1.00  0.00     0.104 C 
ENDROOT
BRANCH  20  21
HETATM   21  C19 UNL     1      33.315  43.858  15.963  1.00  0.00     0.178 C 
HETATM   22  O4  UNL     1      32.237  43.514  16.508  1.00  0.00    -0.648 OA
HETATM   23  O5  UNL     1      34.496  43.422  16.573  1.00  0.00    -0.648 OA
ENDBRANCH  20  21
BRANCH  13  24
HETATM   24  O1  UNL     1      29.383  44.178  13.706  1.00  0.00    -0.394 OA
ATOM     25  H1  UNL     1      28.458  44.247  13.502  1.00  0.00     0.210 HD
ENDBRANCH  13  24
TORSDOF 2
ENDMDL
