MODEL 5
REMARK VINA RESULT: -9.178700473      2.051      6.648
REMARK  3 active torsions:
REMARK  status: ('A' for Active; 'I' for Inactive)
REMARK    1  A    between atoms: C3_4  and  C4_5 
REMARK    2  A    between atoms: C12_14  and  O3_15 
REMARK    3  A    between atoms: C14_18  and  O4_19 
ROOT
HETATM    1  O1  UNL     1      36.298  34.533  31.921  1.00  0.00    -0.287 OA
HETATM    2  C1  UNL     1      37.069  34.959  31.033  1.00  0.00     0.190 A 
HETATM    3  C2  UNL     1      37.214  34.269  29.831  1.00  0.00     0.094 A 
HETATM    4  C3  UNL     1      38.052  34.701  28.828  1.00  0.00     0.090 A 
HETATM    5  O2  UNL     1      38.707  35.815  29.083  1.00  0.00    -0.309 OA
HETATM    6  C10 UNL     1      38.609  36.504  30.195  1.00  0.00     0.095 A 
HETATM    7  C11 UNL     1      39.350  37.678  30.367  1.00  0.00     0.075 A 
HETATM    8  C12 UNL     1      39.271  38.423  31.518  1.00  0.00     0.071 A 
HETATM    9  C13 UNL     1      38.451  38.036  32.549  1.00  0.00     0.074 A 
HETATM   10  C14 UNL     1      37.695  36.855  32.396  1.00  0.00     0.085 A 
HETATM   11  C15 UNL     1      37.783  36.118  31.238  1.00  0.00     0.081 A 
ENDROOT
BRANCH   4  12
HETATM   12  C4  UNL     1      38.216  33.995  27.567  1.00  0.00    -0.002 A 
HETATM   13  C5  UNL     1      37.917  32.653  27.502  1.00  0.00     0.014 A 
HETATM   14  C6  UNL     1      38.061  31.939  26.310  1.00  0.00     0.001 A 
HETATM   15  C7  UNL     1      38.502  32.587  25.204  1.00  0.00     0.000 A 
HETATM   16  C8  UNL     1      38.809  33.916  25.226  1.00  0.00     0.001 A 
HETATM   17  C9  UNL     1      38.657  34.599  26.423  1.00  0.00     0.014 A 
ENDBRANCH   4  12
BRANCH  10  18
HETATM   18  O4  UNL     1      36.908  36.540  33.459  1.00  0.00    -0.360 OA
ATOM     19  H4  UNL     1      36.016  36.302  33.237  1.00  0.00     0.217 HD
ENDBRANCH  10  18
BRANCH   8  20
HETATM   20  O3  UNL     1      40.020  39.603  31.684  1.00  0.00    -0.361 OA
ATOM     21  H3  UNL     1      39.620  40.406  31.994  1.00  0.00     0.217 HD
ENDBRANCH   8  20
TORSDOF 3
ENDMDL
