MODEL 2
REMARK VINA RESULT: -9.851871365      0.053      1.083
REMARK  3 active torsions:
REMARK  status: ('A' for Active; 'I' for Inactive)
REMARK    1  A    between atoms: C3_4  and  C4_5 
REMARK    2  A    between atoms: C12_14  and  O3_15 
REMARK    3  A    between atoms: C14_18  and  O4_19 
ROOT
HETATM    1  O1  UNL     1      39.613  36.638  26.436  1.00  0.00    -0.287 OA
HETATM    2  C1  UNL     1      39.101  35.970  27.361  1.00  0.00     0.190 A 
HETATM    3  C2  UNL     1      38.917  36.534  28.622  1.00  0.00     0.094 A 
HETATM    4  C3  UNL     1      38.358  35.835  29.669  1.00  0.00     0.090 A 
HETATM    5  O2  UNL     1      38.009  34.595  29.394  1.00  0.00    -0.309 OA
HETATM    6  C10 UNL     1      38.159  34.015  28.228  1.00  0.00     0.095 A 
HETATM    7  C11 UNL     1      37.755  32.689  28.040  1.00  0.00     0.075 A 
HETATM    8  C12 UNL     1      37.897  32.052  26.831  1.00  0.00     0.071 A 
HETATM    9  C13 UNL     1      38.449  32.703  25.755  1.00  0.00     0.074 A 
HETATM   10  C14 UNL     1      38.863  34.041  25.924  1.00  0.00     0.085 A 
HETATM   11  C15 UNL     1      38.715  34.668  27.139  1.00  0.00     0.081 A 
ENDROOT
BRANCH   4  12
HETATM   12  C4  UNL     1      38.157  36.406  30.991  1.00  0.00    -0.002 A 
HETATM   13  C5  UNL     1      38.834  37.552  31.340  1.00  0.00     0.014 A 
HETATM   14  C6  UNL     1      38.668  38.133  32.600  1.00  0.00     0.001 A 
HETATM   15  C7  UNL     1      37.824  37.550  33.487  1.00  0.00     0.000 A 
HETATM   16  C8  UNL     1      37.135  36.414  33.180  1.00  0.00     0.001 A 
HETATM   17  C9  UNL     1      37.319  35.860  31.922  1.00  0.00     0.014 A 
ENDBRANCH   4  12
BRANCH  10  18
HETATM   18  O4  UNL     1      39.398  34.616  24.814  1.00  0.00    -0.360 OA
ATOM     19  H4  UNL     1      40.043  35.291  24.987  1.00  0.00     0.217 HD
ENDBRANCH  10  18
BRANCH   8  20
HETATM   20  O3  UNL     1      37.488  30.718  26.650  1.00  0.00    -0.361 OA
ATOM     21  H3  UNL     1      37.766  30.211  25.896  1.00  0.00     0.217 HD
ENDBRANCH   8  20
TORSDOF 3
ENDMDL
