MODEL 14
REMARK VINA RESULT: -8.434436536      2.254      6.792
REMARK  3 active torsions:
REMARK  status: ('A' for Active; 'I' for Inactive)
REMARK    1  A    between atoms: C3_4  and  C4_5 
REMARK    2  A    between atoms: C12_14  and  O3_15 
REMARK    3  A    between atoms: C14_18  and  O4_19 
ROOT
HETATM    1  O1  UNL     1      35.995  34.228  32.312  1.00  0.00    -0.287 OA
HETATM    2  C1  UNL     1      36.780  34.861  31.571  1.00  0.00     0.190 A 
HETATM    3  C2  UNL     1      37.027  34.429  30.269  1.00  0.00     0.094 A 
HETATM    4  C3  UNL     1      37.883  35.094  29.421  1.00  0.00     0.090 A 
HETATM    5  O2  UNL     1      38.453  36.169  29.927  1.00  0.00    -0.309 OA
HETATM    6  C10 UNL     1      38.257  36.619  31.142  1.00  0.00     0.095 A 
HETATM    7  C11 UNL     1      38.912  37.774  31.583  1.00  0.00     0.075 A 
HETATM    8  C12 UNL     1      38.729  38.273  32.849  1.00  0.00     0.071 A 
HETATM    9  C13 UNL     1      37.887  37.648  33.735  1.00  0.00     0.074 A 
HETATM   10  C14 UNL     1      37.216  36.482  33.310  1.00  0.00     0.085 A 
HETATM   11  C15 UNL     1      37.407  35.992  32.039  1.00  0.00     0.081 A 
ENDROOT
BRANCH   4  12
HETATM   12  C4  UNL     1      38.154  34.659  28.060  1.00  0.00    -0.002 A 
HETATM   13  C5  UNL     1      37.641  33.460  27.621  1.00  0.00     0.014 A 
HETATM   14  C6  UNL     1      37.878  33.007  26.320  1.00  0.00     0.001 A 
HETATM   15  C7  UNL     1      38.625  33.769  25.484  1.00  0.00     0.000 A 
HETATM   16  C8  UNL     1      39.150  34.964  25.880  1.00  0.00     0.001 A 
HETATM   17  C9  UNL     1      38.900  35.387  27.176  1.00  0.00     0.014 A 
ENDBRANCH   4  12
BRANCH  10  18
HETATM   18  O4  UNL     1      36.400  35.922  34.243  1.00  0.00    -0.360 OA
ATOM     19  H4  UNL     1      35.586  35.573  33.901  1.00  0.00     0.217 HD
ENDBRANCH  10  18
BRANCH   8  20
HETATM   20  O3  UNL     1      39.393  39.435  33.286  1.00  0.00    -0.361 OA
ATOM     21  H3  UNL     1      39.129  39.891  34.076  1.00  0.00     0.217 HD
ENDBRANCH   8  20
TORSDOF 3
ENDMDL
