MODEL 3
REMARK VINA RESULT: -9.545434815      1.016      1.304
REMARK  3 active torsions:
REMARK  status: ('A' for Active; 'I' for Inactive)
REMARK    1  A    between atoms: C3_4  and  C4_5 
REMARK    2  A    between atoms: C12_14  and  O3_15 
REMARK    3  A    between atoms: C14_18  and  O4_19 
ROOT
HETATM    1  O1  UNL     1      40.070  37.637  27.817  1.00  0.00    -0.287 OA
HETATM    2  C1  UNL     1      39.343  36.818  28.420  1.00  0.00     0.190 A 
HETATM    3  C2  UNL     1      38.982  37.036  29.749  1.00  0.00     0.094 A 
HETATM    4  C3  UNL     1      38.185  36.160  30.450  1.00  0.00     0.090 A 
HETATM    5  O2  UNL     1      37.784  35.101  29.777  1.00  0.00    -0.309 OA
HETATM    6  C10 UNL     1      38.093  34.847  28.528  1.00  0.00     0.095 A 
HETATM    7  C11 UNL     1      37.615  33.690  27.902  1.00  0.00     0.075 A 
HETATM    8  C12 UNL     1      37.918  33.394  26.596  1.00  0.00     0.071 A 
HETATM    9  C13 UNL     1      38.710  34.233  25.852  1.00  0.00     0.074 A 
HETATM   10  C14 UNL     1      39.202  35.405  26.464  1.00  0.00     0.085 A 
HETATM   11  C15 UNL     1      38.891  35.691  27.772  1.00  0.00     0.081 A 
ENDROOT
BRANCH   4  12
HETATM   12  C4  UNL     1      37.798  36.370  31.836  1.00  0.00    -0.002 A 
HETATM   13  C5  UNL     1      36.864  35.536  32.408  1.00  0.00     0.014 A 
HETATM   14  C6  UNL     1      36.465  35.704  33.737  1.00  0.00     0.001 A 
HETATM   15  C7  UNL     1      37.013  36.707  34.467  1.00  0.00     0.000 A 
HETATM   16  C8  UNL     1      37.941  37.554  33.937  1.00  0.00     0.001 A 
HETATM   17  C9  UNL     1      38.317  37.364  32.616  1.00  0.00     0.014 A 
ENDBRANCH   4  12
BRANCH  10  18
HETATM   18  O4  UNL     1      39.977  36.183  25.662  1.00  0.00    -0.360 OA
ATOM     19  H4  UNL     1      40.837  36.382  26.012  1.00  0.00     0.217 HD
ENDBRANCH  10  18
BRANCH   8  20
HETATM   20  O3  UNL     1      37.433  32.228  25.974  1.00  0.00    -0.361 OA
ATOM     21  H3  UNL     1      37.973  31.722  25.379  1.00  0.00     0.217 HD
ENDBRANCH   8  20
TORSDOF 3
ENDMDL
