MODEL 12
REMARK VINA RESULT: -8.483109768      2.118      6.676
REMARK  3 active torsions:
REMARK  status: ('A' for Active; 'I' for Inactive)
REMARK    1  A    between atoms: C3_4  and  C4_5 
REMARK    2  A    between atoms: C12_14  and  O3_15 
REMARK    3  A    between atoms: C14_18  and  O4_19 
ROOT
HETATM    1  O1  UNL     1      37.146  35.646  31.878  1.00  0.00    -0.287 OA
HETATM    2  C1  UNL     1      37.794  35.852  30.829  1.00  0.00     0.190 A 
HETATM    3  C2  UNL     1      37.766  34.927  29.786  1.00  0.00     0.094 A 
HETATM    4  C3  UNL     1      38.465  35.113  28.616  1.00  0.00     0.090 A 
HETATM    5  O2  UNL     1      39.164  36.228  28.549  1.00  0.00    -0.309 OA
HETATM    6  C10 UNL     1      39.226  37.131  29.497  1.00  0.00     0.095 A 
HETATM    7  C11 UNL     1      39.999  38.284  29.326  1.00  0.00     0.075 A 
HETATM    8  C12 UNL     1      40.086  39.249  30.299  1.00  0.00     0.071 A 
HETATM    9  C13 UNL     1      39.409  39.113  31.486  1.00  0.00     0.074 A 
HETATM   10  C14 UNL     1      38.624  37.957  31.678  1.00  0.00     0.085 A 
HETATM   11  C15 UNL     1      38.544  36.998  30.696  1.00  0.00     0.081 A 
ENDROOT
BRANCH   4  12
HETATM   12  C4  UNL     1      38.448  34.160  27.517  1.00  0.00    -0.002 A 
HETATM   13  C5  UNL     1      38.919  34.547  26.283  1.00  0.00     0.014 A 
HETATM   14  C6  UNL     1      38.920  33.662  25.201  1.00  0.00     0.001 A 
HETATM   15  C7  UNL     1      38.448  32.404  25.381  1.00  0.00     0.000 A 
HETATM   16  C8  UNL     1      37.974  31.982  26.588  1.00  0.00     0.001 A 
HETATM   17  C9  UNL     1      37.984  32.881  27.642  1.00  0.00     0.014 A 
ENDBRANCH   4  12
BRANCH  10  18
HETATM   18  O4  UNL     1      37.985  37.896  32.877  1.00  0.00    -0.360 OA
ATOM     19  H4  UNL     1      37.864  37.018  33.219  1.00  0.00     0.217 HD
ENDBRANCH  10  18
BRANCH   8  20
HETATM   20  O3  UNL     1      40.867  40.408  30.120  1.00  0.00    -0.361 OA
ATOM     21  H3  UNL     1      40.697  41.017  29.412  1.00  0.00     0.217 HD
ENDBRANCH   8  20
TORSDOF 3
ENDMDL
