MODEL 4
REMARK VINA RESULT: -9.182037455      2.049      6.725
REMARK  3 active torsions:
REMARK  status: ('A' for Active; 'I' for Inactive)
REMARK    1  A    between atoms: C3_4  and  C4_5 
REMARK    2  A    between atoms: C12_14  and  O3_15 
REMARK    3  A    between atoms: C14_18  and  O4_19 
ROOT
HETATM    1  O1  UNL     1      36.300  34.532  31.927  1.00  0.00    -0.287 OA
HETATM    2  C1  UNL     1      37.067  34.952  31.034  1.00  0.00     0.190 A 
HETATM    3  C2  UNL     1      37.208  34.253  29.836  1.00  0.00     0.094 A 
HETATM    4  C3  UNL     1      38.042  34.679  28.826  1.00  0.00     0.090 A 
HETATM    5  O2  UNL     1      38.698  35.794  29.072  1.00  0.00    -0.309 OA
HETATM    6  C10 UNL     1      38.604  36.491  30.179  1.00  0.00     0.095 A 
HETATM    7  C11 UNL     1      39.346  37.666  30.341  1.00  0.00     0.075 A 
HETATM    8  C12 UNL     1      39.271  38.418  31.487  1.00  0.00     0.071 A 
HETATM    9  C13 UNL     1      38.455  38.039  32.524  1.00  0.00     0.074 A 
HETATM   10  C14 UNL     1      37.699  36.857  32.381  1.00  0.00     0.085 A 
HETATM   11  C15 UNL     1      37.782  36.112  31.228  1.00  0.00     0.081 A 
ENDROOT
BRANCH   4  12
HETATM   12  C4  UNL     1      38.201  33.964  27.570  1.00  0.00    -0.002 A 
HETATM   13  C5  UNL     1      38.667  34.640  26.465  1.00  0.00     0.014 A 
HETATM   14  C6  UNL     1      38.835  33.991  25.239  1.00  0.00     0.001 A 
HETATM   15  C7  UNL     1      38.532  32.672  25.147  1.00  0.00     0.000 A 
HETATM   16  C8  UNL     1      38.069  31.967  26.218  1.00  0.00     0.001 A 
HETATM   17  C9  UNL     1      37.911  32.637  27.421  1.00  0.00     0.014 A 
ENDBRANCH   4  12
BRANCH  10  18
HETATM   18  O4  UNL     1      36.916  36.549  33.449  1.00  0.00    -0.360 OA
ATOM     19  H4  UNL     1      36.540  37.298  33.896  1.00  0.00     0.217 HD
ENDBRANCH  10  18
BRANCH   8  20
HETATM   20  O3  UNL     1      40.021  39.600  31.642  1.00  0.00    -0.361 OA
ATOM     21  H3  UNL     1      39.679  40.445  31.377  1.00  0.00     0.217 HD
ENDBRANCH   8  20
TORSDOF 3
ENDMDL
