MODEL 10
REMARK VINA RESULT: -8.521778957      2.174      6.634
REMARK  3 active torsions:
REMARK  status: ('A' for Active; 'I' for Inactive)
REMARK    1  A    between atoms: C3_4  and  C4_5 
REMARK    2  A    between atoms: C12_14  and  O3_15 
REMARK    3  A    between atoms: C14_18  and  O4_19 
ROOT
HETATM    1  O1  UNL     1      37.045  35.589  32.056  1.00  0.00    -0.287 OA
HETATM    2  C1  UNL     1      37.701  35.846  31.023  1.00  0.00     0.190 A 
HETATM    3  C2  UNL     1      37.697  34.963  29.944  1.00  0.00     0.094 A 
HETATM    4  C3  UNL     1      38.405  35.205  28.789  1.00  0.00     0.090 A 
HETATM    5  O2  UNL     1      39.088  36.331  28.774  1.00  0.00    -0.309 OA
HETATM    6  C10 UNL     1      39.128  37.197  29.758  1.00  0.00     0.095 A 
HETATM    7  C11 UNL     1      39.886  38.366  29.641  1.00  0.00     0.075 A 
HETATM    8  C12 UNL     1      39.949  39.293  30.652  1.00  0.00     0.071 A 
HETATM    9  C13 UNL     1      39.262  39.100  31.826  1.00  0.00     0.074 A 
HETATM   10  C14 UNL     1      38.492  37.927  31.964  1.00  0.00     0.085 A 
HETATM   11  C15 UNL     1      38.436  37.007  30.943  1.00  0.00     0.081 A 
ENDROOT
BRANCH   4  12
HETATM   12  C4  UNL     1      38.412  34.297  27.653  1.00  0.00    -0.002 A 
HETATM   13  C5  UNL     1      37.913  33.024  27.805  1.00  0.00     0.014 A 
HETATM   14  C6  UNL     1      37.901  32.120  26.739  1.00  0.00     0.001 A 
HETATM   15  C7  UNL     1      38.392  32.515  25.538  1.00  0.00     0.000 A 
HETATM   16  C8  UNL     1      38.895  33.768  25.346  1.00  0.00     0.001 A 
HETATM   17  C9  UNL     1      38.894  34.642  26.422  1.00  0.00     0.014 A 
ENDBRANCH   4  12
BRANCH  10  18
HETATM   18  O4  UNL     1      37.841  37.809  33.152  1.00  0.00    -0.360 OA
ATOM     19  H4  UNL     1      38.286  37.273  33.797  1.00  0.00     0.217 HD
ENDBRANCH  10  18
BRANCH   8  20
HETATM   20  O3  UNL     1      40.715  40.468  30.528  1.00  0.00    -0.361 OA
ATOM     21  H3  UNL     1      41.008  40.783  29.681  1.00  0.00     0.217 HD
ENDBRANCH   8  20
TORSDOF 3
ENDMDL
