MODEL 1
REMARK VINA RESULT: -9.895347996      0.000      0.000
REMARK  3 active torsions:
REMARK  status: ('A' for Active; 'I' for Inactive)
REMARK    1  A    between atoms: C3_4  and  C4_5 
REMARK    2  A    between atoms: C12_14  and  O3_15 
REMARK    3  A    between atoms: C14_18  and  O4_19 
ROOT
HETATM    1  O1  UNL     1      39.630  36.649  26.424  1.00  0.00    -0.287 OA
HETATM    2  C1  UNL     1      39.116  35.985  27.351  1.00  0.00     0.190 A 
HETATM    3  C2  UNL     1      38.931  36.553  28.610  1.00  0.00     0.094 A 
HETATM    4  C3  UNL     1      38.371  35.859  29.659  1.00  0.00     0.090 A 
HETATM    5  O2  UNL     1      38.020  34.619  29.388  1.00  0.00    -0.309 OA
HETATM    6  C10 UNL     1      38.170  34.035  28.224  1.00  0.00     0.095 A 
HETATM    7  C11 UNL     1      37.763  32.709  28.039  1.00  0.00     0.075 A 
HETATM    8  C12 UNL     1      37.905  32.068  26.834  1.00  0.00     0.071 A 
HETATM    9  C13 UNL     1      38.458  32.714  25.756  1.00  0.00     0.074 A 
HETATM   10  C14 UNL     1      38.875  34.051  25.920  1.00  0.00     0.085 A 
HETATM   11  C15 UNL     1      38.727  34.683  27.133  1.00  0.00     0.081 A 
ENDROOT
BRANCH   4  12
HETATM   12  C4  UNL     1      38.170  36.435  30.979  1.00  0.00    -0.002 A 
HETATM   13  C5  UNL     1      37.316  35.814  31.861  1.00  0.00     0.014 A 
HETATM   14  C6  UNL     1      37.096  36.334  33.140  1.00  0.00     0.001 A 
HETATM   15  C7  UNL     1      37.739  37.469  33.507  1.00  0.00     0.000 A 
HETATM   16  C8  UNL     1      38.594  38.115  32.663  1.00  0.00     0.001 A 
HETATM   17  C9  UNL     1      38.792  37.576  31.401  1.00  0.00     0.014 A 
ENDBRANCH   4  12
BRANCH  10  18
HETATM   18  O4  UNL     1      39.412  34.622  24.809  1.00  0.00    -0.360 OA
ATOM     19  H4  UNL     1      39.170  35.530  24.672  1.00  0.00     0.217 HD
ENDBRANCH  10  18
BRANCH   8  20
HETATM   20  O3  UNL     1      37.493  30.733  26.656  1.00  0.00    -0.361 OA
ATOM     21  H3  UNL     1      38.099  30.059  26.374  1.00  0.00     0.217 HD
ENDBRANCH   8  20
TORSDOF 3
ENDMDL
