MODEL 2
REMARK VINA RESULT: -9.426846060      1.078      1.259
REMARK  5 active torsions:
REMARK  status: ('A' for Active; 'I' for Inactive)
REMARK    1  A    between atoms: C4_5  and  C5_6 
REMARK    2  A    between atoms: C6_7  and  O1_8 
REMARK    3  A    between atoms: C8_11  and  O2_12 
REMARK    4  A    between atoms: C12_18  and  C13_19 
REMARK    5  A    between atoms: C20_28  and  O5_29 
ROOT
HETATM    1  C5  UNL     1      39.749  37.744  27.705  1.00  0.00     0.017 A 
HETATM    2  C6  UNL     1      40.131  37.564  26.369  1.00  0.00     0.077 A 
HETATM    3  C7  UNL     1      39.873  36.371  25.731  1.00  0.00     0.074 A 
HETATM    4  C8  UNL     1      39.246  35.343  26.372  1.00  0.00     0.085 A 
HETATM    5  C9  UNL     1      38.865  35.510  27.681  1.00  0.00     0.082 A 
HETATM    6  C10 UNL     1      38.230  34.504  28.373  1.00  0.00     0.190 A 
HETATM    7  O3  UNL     1      38.006  33.421  27.767  1.00  0.00    -0.287 OA
HETATM    8  C11 UNL     1      37.875  34.727  29.673  1.00  0.00     0.094 A 
HETATM    9  C12 UNL     1      38.141  35.918  30.287  1.00  0.00     0.091 A 
HETATM   10  O4  UNL     1      38.752  36.859  29.587  1.00  0.00    -0.308 OA
HETATM   11  C19 UNL     1      39.108  36.693  28.353  1.00  0.00     0.102 A 
ENDROOT
BRANCH   1  12
HETATM   12  C4  UNL     1      40.127  39.026  28.272  1.00  0.00     0.056 C 
HETATM   13  C3  UNL     1      39.149  39.763  29.095  1.00  0.00     0.042 C 
HETATM   14  C2  UNL     1      39.892  40.987  29.664  1.00  0.00     0.272 C 
HETATM   15  N1  UNL     1      40.617  40.484  30.835  1.00  0.00     0.086 N 
HETATM   16  C1  UNL     1      41.682  41.386  31.217  1.00  0.00     0.310 C 
HETATM   17  C21 UNL     1      41.060  39.145  30.606  1.00  0.00     0.304 C 
HETATM   18  C20 UNL     1      41.383  38.877  29.146  1.00  0.00     0.155 C 
BRANCH  18  19
HETATM   19  O5  UNL     1      41.802  37.556  29.059  1.00  0.00    -0.393 OA
ATOM     20  H5  UNL     1      42.546  37.450  29.640  1.00  0.00     0.210 HD
ENDBRANCH  18  19
ENDBRANCH   1  12
BRANCH   2  21
HETATM   21  O1  UNL     1      40.770  38.545  25.624  1.00  0.00    -0.360 OA
ATOM     22  H1  UNL     1      41.209  38.369  24.800  1.00  0.00     0.217 HD
ENDBRANCH   2  21
BRANCH   4  23
HETATM   23  O2  UNL     1      38.964  34.120  25.773  1.00  0.00    -0.360 OA
ATOM     24  H2  UNL     1      39.172  33.282  26.166  1.00  0.00     0.217 HD
ENDBRANCH   4  23
BRANCH   9  25
HETATM   25  C13 UNL     1      37.761  36.192  31.695  1.00  0.00     0.020 A 
HETATM   26  C14 UNL     1      38.443  37.211  32.370  1.00  0.00     0.016 A 
HETATM   27  C15 UNL     1      38.203  37.490  33.696  1.00  0.00     0.001 A 
HETATM   28  C16 UNL     1      37.281  36.785  34.434  1.00  0.00     0.002 A 
HETATM   29  C17 UNL     1      36.609  35.787  33.779  1.00  0.00     0.025 A 
HETATM   30  C18 UNL     1      36.852  35.497  32.424  1.00  0.00     0.047 A 
HETATM   31 CL1  UNL     1      35.975  34.159  31.731  1.00  0.00    -0.083 Cl
ENDBRANCH   9  25
TORSDOF 5
ENDMDL
