MODEL 5
REMARK VINA RESULT: -9.099185461      2.355      5.232
REMARK  5 active torsions:
REMARK  status: ('A' for Active; 'I' for Inactive)
REMARK    1  A    between atoms: C4_5  and  C5_6 
REMARK    2  A    between atoms: C6_7  and  O1_8 
REMARK    3  A    between atoms: C8_11  and  O2_12 
REMARK    4  A    between atoms: C12_18  and  C13_19 
REMARK    5  A    between atoms: C20_28  and  O5_29 
ROOT
HETATM    1  C5  UNL     1      39.510  37.827  30.022  1.00  0.00     0.017 A 
HETATM    2  C6  UNL     1      39.437  38.586  31.198  1.00  0.00     0.077 A 
HETATM    3  C7  UNL     1      38.662  38.155  32.252  1.00  0.00     0.074 A 
HETATM    4  C8  UNL     1      37.954  36.990  32.185  1.00  0.00     0.085 A 
HETATM    5  C9  UNL     1      38.022  36.238  31.038  1.00  0.00     0.082 A 
HETATM    6  C10 UNL     1      37.326  35.056  30.918  1.00  0.00     0.190 A 
HETATM    7  O3  UNL     1      36.624  34.682  31.897  1.00  0.00    -0.287 OA
HETATM    8  C11 UNL     1      37.431  34.349  29.754  1.00  0.00     0.094 A 
HETATM    9  C12 UNL     1      38.205  34.796  28.721  1.00  0.00     0.091 A 
HETATM   10  O4  UNL     1      38.857  35.936  28.875  1.00  0.00    -0.308 OA
HETATM   11  C19 UNL     1      38.787  36.640  29.960  1.00  0.00     0.102 A 
ENDROOT
BRANCH   1  12
HETATM   12  C4  UNL     1      40.317  38.421  28.972  1.00  0.00     0.056 C 
HETATM   13  C3  UNL     1      40.471  39.888  28.929  1.00  0.00     0.042 C 
HETATM   14  C2  UNL     1      41.489  40.187  27.811  1.00  0.00     0.272 C 
HETATM   15  N1  UNL     1      42.804  39.987  28.429  1.00  0.00     0.086 N 
HETATM   16  C1  UNL     1      43.830  39.807  27.424  1.00  0.00     0.310 C 
HETATM   17  C21 UNL     1      42.747  38.924  29.382  1.00  0.00     0.304 C 
HETATM   18  C20 UNL     1      41.743  37.849  29.002  1.00  0.00     0.155 C 
BRANCH  18  19
HETATM   19  O5  UNL     1      41.788  36.882  29.997  1.00  0.00    -0.393 OA
ATOM     20  H5  UNL     1      42.241  36.125  29.643  1.00  0.00     0.210 HD
ENDBRANCH  18  19
ENDBRANCH   1  12
BRANCH   2  21
HETATM   21  O1  UNL     1      40.119  39.782  31.373  1.00  0.00    -0.360 OA
ATOM     22  H1  UNL     1      39.698  40.584  31.657  1.00  0.00     0.217 HD
ENDBRANCH   2  21
BRANCH   4  23
HETATM   23  O2  UNL     1      37.159  36.512  33.220  1.00  0.00    -0.360 OA
ATOM     24  H2  UNL     1      36.458  35.883  33.097  1.00  0.00     0.217 HD
ENDBRANCH   4  23
BRANCH   9  25
HETATM   25  C13 UNL     1      38.343  34.047  27.447  1.00  0.00     0.020 A 
HETATM   26  C14 UNL     1      38.032  32.682  27.455  1.00  0.00     0.016 A 
HETATM   27  C15 UNL     1      38.193  31.895  26.337  1.00  0.00     0.001 A 
HETATM   28  C16 UNL     1      38.668  32.403  25.150  1.00  0.00     0.002 A 
HETATM   29  C17 UNL     1      38.974  33.738  25.136  1.00  0.00     0.025 A 
HETATM   30  C18 UNL     1      38.812  34.546  26.276  1.00  0.00     0.047 A 
HETATM   31 CL1  UNL     1      39.300  36.215  26.140  1.00  0.00    -0.083 Cl
ENDBRANCH   9  25
TORSDOF 5
ENDMDL
