MODEL 6
REMARK VINA RESULT: -9.017483465      2.181      5.368
REMARK  5 active torsions:
REMARK  status: ('A' for Active; 'I' for Inactive)
REMARK    1  A    between atoms: C4_5  and  C5_6 
REMARK    2  A    between atoms: C6_7  and  O1_8 
REMARK    3  A    between atoms: C8_11  and  O2_12 
REMARK    4  A    between atoms: C12_18  and  C13_19 
REMARK    5  A    between atoms: C20_28  and  O5_29 
ROOT
HETATM    1  C5  UNL     1      39.580  37.870  31.330  1.00  0.00     0.017 A 
HETATM    2  C6  UNL     1      39.395  38.365  32.628  1.00  0.00     0.077 A 
HETATM    3  C7  UNL     1      38.459  37.789  33.460  1.00  0.00     0.074 A 
HETATM    4  C8  UNL     1      37.696  36.735  33.051  1.00  0.00     0.085 A 
HETATM    5  C9  UNL     1      37.872  36.242  31.781  1.00  0.00     0.082 A 
HETATM    6  C10 UNL     1      37.128  35.180  31.319  1.00  0.00     0.190 A 
HETATM    7  O3  UNL     1      36.277  34.671  32.099  1.00  0.00    -0.287 OA
HETATM    8  C11 UNL     1      37.345  34.732  30.048  1.00  0.00     0.094 A 
HETATM    9  C12 UNL     1      38.279  35.318  29.239  1.00  0.00     0.091 A 
HETATM   10  O4  UNL     1      38.973  36.334  29.721  1.00  0.00    -0.308 OA
HETATM   11  C19 UNL     1      38.800  36.794  30.919  1.00  0.00     0.102 A 
ENDROOT
BRANCH   1  12
HETATM   12  C4  UNL     1      40.557  38.600  30.542  1.00  0.00     0.056 C 
HETATM   13  C3  UNL     1      41.332  37.879  29.514  1.00  0.00     0.042 C 
HETATM   14  C2  UNL     1      42.156  38.943  28.763  1.00  0.00     0.272 C 
HETATM   15  N1  UNL     1      41.233  39.516  27.779  1.00  0.00     0.086 N 
HETATM   16  C1  UNL     1      41.710  40.797  27.301  1.00  0.00     0.310 C 
HETATM   17  C21 UNL     1      39.908  39.565  28.312  1.00  0.00     0.304 C 
HETATM   18  C20 UNL     1      39.889  39.778  29.816  1.00  0.00     0.155 C 
BRANCH  18  19
HETATM   19  O5  UNL     1      38.556  39.810  30.204  1.00  0.00    -0.393 OA
ATOM     20  H5  UNL     1      38.063  39.281  29.588  1.00  0.00     0.210 HD
ENDBRANCH  18  19
ENDBRANCH   1  12
BRANCH   2  21
HETATM   21  O1  UNL     1      40.120  39.429  33.146  1.00  0.00    -0.360 OA
ATOM     22  H1  UNL     1      39.906  40.338  32.971  1.00  0.00     0.217 HD
ENDBRANCH   2  21
BRANCH   4  23
HETATM   23  O2  UNL     1      36.740  36.120  33.851  1.00  0.00    -0.360 OA
ATOM     24  H2  UNL     1      36.863  35.272  34.259  1.00  0.00     0.217 HD
ENDBRANCH   4  23
BRANCH   9  25
HETATM   25  C13 UNL     1      38.542  34.849  27.856  1.00  0.00     0.020 A 
HETATM   26  C14 UNL     1      38.891  35.807  26.896  1.00  0.00     0.016 A 
HETATM   27  C15 UNL     1      39.089  35.472  25.576  1.00  0.00     0.001 A 
HETATM   28  C16 UNL     1      38.956  34.180  25.124  1.00  0.00     0.002 A 
HETATM   29  C17 UNL     1      38.615  33.238  26.058  1.00  0.00     0.025 A 
HETATM   30  C18 UNL     1      38.410  33.576  27.408  1.00  0.00     0.047 A 
HETATM   31 CL1  UNL     1      37.917  32.291  28.479  1.00  0.00    -0.083 Cl
ENDBRANCH   9  25
TORSDOF 5
ENDMDL
