MODEL 1
REMARK VINA RESULT: -10.147414193      0.000      0.000
REMARK  5 active torsions:
REMARK  status: ('A' for Active; 'I' for Inactive)
REMARK    1  A    between atoms: C4_5  and  C5_6 
REMARK    2  A    between atoms: C6_7  and  O1_8 
REMARK    3  A    between atoms: C8_11  and  O2_12 
REMARK    4  A    between atoms: C12_18  and  C13_19 
REMARK    5  A    between atoms: C20_28  and  O5_29 
ROOT
HETATM    1  C5  UNL     1      39.357  36.664  26.911  1.00  0.00     0.017 A 
HETATM    2  C6  UNL     1      39.560  36.208  25.601  1.00  0.00     0.077 A 
HETATM    3  C7  UNL     1      39.167  34.936  25.243  1.00  0.00     0.074 A 
HETATM    4  C8  UNL     1      38.577  34.095  26.141  1.00  0.00     0.085 A 
HETATM    5  C9  UNL     1      38.372  34.534  27.426  1.00  0.00     0.082 A 
HETATM    6  C10 UNL     1      37.781  33.725  28.370  1.00  0.00     0.190 A 
HETATM    7  O3  UNL     1      37.431  32.565  28.018  1.00  0.00    -0.287 OA
HETATM    8  C11 UNL     1      37.603  34.213  29.633  1.00  0.00     0.094 A 
HETATM    9  C12 UNL     1      38.000  35.478  29.966  1.00  0.00     0.091 A 
HETATM   10  O4  UNL     1      38.563  36.223  29.031  1.00  0.00    -0.308 OA
HETATM   11  C19 UNL     1      38.753  35.802  27.821  1.00  0.00     0.102 A 
ENDROOT
BRANCH   1  12
HETATM   12  C4  UNL     1      39.864  37.999  27.168  1.00  0.00     0.056 C 
HETATM   13  C3  UNL     1      39.044  38.938  27.958  1.00  0.00     0.042 C 
HETATM   14  C2  UNL     1      39.910  40.193  28.180  1.00  0.00     0.272 C 
HETATM   15  N1  UNL     1      40.773  39.865  29.318  1.00  0.00     0.086 N 
HETATM   16  C1  UNL     1      41.918  40.749  29.377  1.00  0.00     0.310 C 
HETATM   17  C21 UNL     1      41.124  38.480  29.291  1.00  0.00     0.304 C 
HETATM   18  C20 UNL     1      41.224  37.928  27.879  1.00  0.00     0.155 C 
BRANCH  18  19
HETATM   19  O5  UNL     1      41.573  36.589  27.991  1.00  0.00    -0.393 OA
ATOM     20  H5  UNL     1      41.622  36.379  28.916  1.00  0.00     0.210 HD
ENDBRANCH  18  19
ENDBRANCH   1  12
BRANCH   2  21
HETATM   21  O1  UNL     1      40.146  36.982  24.610  1.00  0.00    -0.360 OA
ATOM     22  H1  UNL     1      40.673  36.617  23.909  1.00  0.00     0.217 HD
ENDBRANCH   2  21
BRANCH   4  23
HETATM   23  O2  UNL     1      38.163  32.805  25.830  1.00  0.00    -0.360 OA
ATOM     24  H2  UNL     1      37.366  32.413  26.165  1.00  0.00     0.217 HD
ENDBRANCH   4  23
BRANCH   9  25
HETATM   25  C13 UNL     1      37.814  36.039  31.328  1.00  0.00     0.020 A 
HETATM   26  C14 UNL     1      38.620  37.119  31.705  1.00  0.00     0.016 A 
HETATM   27  C15 UNL     1      38.562  37.661  32.969  1.00  0.00     0.001 A 
HETATM   28  C16 UNL     1      37.710  37.173  33.933  1.00  0.00     0.002 A 
HETATM   29  C17 UNL     1      36.917  36.116  33.569  1.00  0.00     0.025 A 
HETATM   30  C18 UNL     1      36.975  35.559  32.279  1.00  0.00     0.047 A 
HETATM   31 CL1  UNL     1      35.959  34.175  31.968  1.00  0.00    -0.083 Cl
ENDBRANCH   9  25
TORSDOF 5
ENDMDL
