MODEL 3
REMARK VINA RESULT: -9.329412750      2.410      5.396
REMARK  5 active torsions:
REMARK  status: ('A' for Active; 'I' for Inactive)
REMARK    1  A    between atoms: C4_5  and  C5_6 
REMARK    2  A    between atoms: C6_7  and  O1_8 
REMARK    3  A    between atoms: C8_11  and  O2_12 
REMARK    4  A    between atoms: C12_18  and  C13_19 
REMARK    5  A    between atoms: C20_28  and  O5_29 
ROOT
HETATM    1  C5  UNL     1      39.880  37.466  30.436  1.00  0.00     0.017 A 
HETATM    2  C6  UNL     1      39.824  38.245  31.599  1.00  0.00     0.077 A 
HETATM    3  C7  UNL     1      38.883  37.974  32.568  1.00  0.00     0.074 A 
HETATM    4  C8  UNL     1      37.991  36.952  32.426  1.00  0.00     0.085 A 
HETATM    5  C9  UNL     1      38.040  36.180  31.291  1.00  0.00     0.082 A 
HETATM    6  C10 UNL     1      37.162  35.138  31.099  1.00  0.00     0.190 A 
HETATM    7  O3  UNL     1      36.309  34.910  32.000  1.00  0.00    -0.287 OA
HETATM    8  C11 UNL     1      37.256  34.405  29.950  1.00  0.00     0.094 A 
HETATM    9  C12 UNL     1      38.197  34.692  29.002  1.00  0.00     0.091 A 
HETATM   10  O4  UNL     1      39.022  35.701  29.225  1.00  0.00    -0.308 OA
HETATM   11  C19 UNL     1      38.969  36.424  30.298  1.00  0.00     0.102 A 
ENDROOT
BRANCH   1  12
HETATM   12  C4  UNL     1      40.881  37.891  29.474  1.00  0.00     0.056 C 
HETATM   13  C3  UNL     1      41.401  36.913  28.500  1.00  0.00     0.042 C 
HETATM   14  C2  UNL     1      42.316  37.697  27.539  1.00  0.00     0.272 C 
HETATM   15  N1  UNL     1      41.409  38.309  26.562  1.00  0.00     0.086 N 
HETATM   16  C1  UNL     1      42.052  39.404  25.869  1.00  0.00     0.310 C 
HETATM   17  C21 UNL     1      40.179  38.675  27.189  1.00  0.00     0.304 C 
HETATM   18  C20 UNL     1      40.358  39.074  28.644  1.00  0.00     0.155 C 
BRANCH  18  19
HETATM   19  O5  UNL     1      39.102  39.409  29.131  1.00  0.00    -0.393 OA
ATOM     20  H5  UNL     1      39.161  40.278  29.510  1.00  0.00     0.210 HD
ENDBRANCH  18  19
ENDBRANCH   1  12
BRANCH   2  21
HETATM   21  O1  UNL     1      40.686  39.305  31.845  1.00  0.00    -0.360 OA
ATOM     22  H1  UNL     1      40.904  39.960  31.193  1.00  0.00     0.217 HD
ENDBRANCH   2  21
BRANCH   4  23
HETATM   23  O2  UNL     1      37.023  36.638  33.374  1.00  0.00    -0.360 OA
ATOM     24  H2  UNL     1      37.020  36.986  34.257  1.00  0.00     0.217 HD
ENDBRANCH   4  23
BRANCH   9  25
HETATM   25  C13 UNL     1      38.329  33.910  27.747  1.00  0.00     0.020 A 
HETATM   26  C14 UNL     1      38.177  32.520  27.825  1.00  0.00     0.016 A 
HETATM   27  C15 UNL     1      38.347  31.709  26.726  1.00  0.00     0.001 A 
HETATM   28  C16 UNL     1      38.674  32.216  25.490  1.00  0.00     0.002 A 
HETATM   29  C17 UNL     1      38.823  33.576  25.407  1.00  0.00     0.025 A 
HETATM   30  C18 UNL     1      38.652  34.408  26.528  1.00  0.00     0.047 A 
HETATM   31 CL1  UNL     1      38.935  36.113  26.299  1.00  0.00    -0.083 Cl
ENDBRANCH   9  25
TORSDOF 5
ENDMDL
