MODEL 4
REMARK VINA RESULT: -9.131003380      1.232      1.526
REMARK  5 active torsions:
REMARK  status: ('A' for Active; 'I' for Inactive)
REMARK    1  A    between atoms: C4_5  and  C5_6 
REMARK    2  A    between atoms: C6_7  and  O1_8 
REMARK    3  A    between atoms: C8_11  and  O2_12 
REMARK    4  A    between atoms: C12_18  and  C13_19 
REMARK    5  A    between atoms: C20_28  and  O5_29 
ROOT
HETATM    1  C5  UNL     1      39.117  36.366  26.615  1.00  0.00     0.017 A 
HETATM    2  C6  UNL     1      39.196  35.838  25.320  1.00  0.00     0.077 A 
HETATM    3  C7  UNL     1      38.793  34.544  25.074  1.00  0.00     0.074 A 
HETATM    4  C8  UNL     1      38.311  33.748  26.072  1.00  0.00     0.085 A 
HETATM    5  C9  UNL     1      38.227  34.257  27.345  1.00  0.00     0.082 A 
HETATM    6  C10 UNL     1      37.748  33.496  28.387  1.00  0.00     0.190 A 
HETATM    7  O3  UNL     1      37.386  32.313  28.138  1.00  0.00    -0.287 OA
HETATM    8  C11 UNL     1      37.688  34.054  29.632  1.00  0.00     0.094 A 
HETATM    9  C12 UNL     1      38.094  35.340  29.853  1.00  0.00     0.091 A 
HETATM   10  O4  UNL     1      38.547  36.038  28.826  1.00  0.00    -0.308 OA
HETATM   11  C19 UNL     1      38.623  35.550  27.628  1.00  0.00     0.102 A 
ENDROOT
BRANCH   1  12
HETATM   12  C4  UNL     1      39.623  37.720  26.745  1.00  0.00     0.056 C 
HETATM   13  C3  UNL     1      39.245  38.516  27.929  1.00  0.00     0.042 C 
HETATM   14  C2  UNL     1      40.051  39.827  27.849  1.00  0.00     0.272 C 
HETATM   15  N1  UNL     1      41.372  39.497  28.393  1.00  0.00     0.086 N 
HETATM   16  C1  UNL     1      42.360  40.478  27.997  1.00  0.00     0.310 C 
HETATM   17  C21 UNL     1      41.730  38.157  28.049  1.00  0.00     0.304 C 
HETATM   18  C20 UNL     1      41.159  37.725  26.709  1.00  0.00     0.155 C 
BRANCH  18  19
HETATM   19  O5  UNL     1      41.580  36.419  26.492  1.00  0.00    -0.393 OA
ATOM     20  H5  UNL     1      41.294  35.897  27.233  1.00  0.00     0.210 HD
ENDBRANCH  18  19
ENDBRANCH   1  12
BRANCH   2  21
HETATM   21  O1  UNL     1      39.667  36.562  24.232  1.00  0.00    -0.360 OA
ATOM     22  H1  UNL     1      40.567  36.852  24.152  1.00  0.00     0.217 HD
ENDBRANCH   2  21
BRANCH   4  23
HETATM   23  O2  UNL     1      37.892  32.437  25.877  1.00  0.00    -0.360 OA
ATOM     24  H2  UNL     1      36.996  32.196  25.672  1.00  0.00     0.217 HD
ENDBRANCH   4  23
BRANCH   9  25
HETATM   25  C13 UNL     1      38.034  35.976  31.193  1.00  0.00     0.020 A 
HETATM   26  C14 UNL     1      37.006  35.581  32.058  1.00  0.00     0.016 A 
HETATM   27  C15 UNL     1      36.834  36.163  33.294  1.00  0.00     0.001 A 
HETATM   28  C16 UNL     1      37.660  37.164  33.749  1.00  0.00     0.002 A 
HETATM   29  C17 UNL     1      38.668  37.555  32.907  1.00  0.00     0.025 A 
HETATM   30  C18 UNL     1      38.847  36.963  31.643  1.00  0.00     0.047 A 
HETATM   31 CL1  UNL     1      40.128  37.600  30.646  1.00  0.00    -0.083 Cl
ENDBRANCH   9  25
TORSDOF 5
ENDMDL
