MODEL 9
REMARK VINA RESULT: -6.271240772      1.594      3.958
REMARK  2 active torsions:
REMARK  status: ('A' for Active; 'I' for Inactive)
REMARK    1  A    between atoms: C2_2  and  C4_4 
REMARK    2  A    between atoms: C4_4  and  N1_5 
ROOT
HETATM    1  N1  UNL     1      -2.103 -10.640  21.535  1.00  0.00    -0.283 N 
HETATM    2  C5  UNL     1      -2.262  -9.597  20.704  1.00  0.00     0.332 A 
HETATM    3  O1  UNL     1      -2.751  -8.539  21.152  1.00  0.00    -0.246 OA
HETATM    4  N2  UNL     1      -1.913  -9.646  19.397  1.00  0.00    -0.269 N 
HETATM    5  C6  UNL     1      -2.105  -8.490  18.540  1.00  0.00     0.164 C 
HETATM    6  C7  UNL     1      -1.377 -10.766  18.858  1.00  0.00     0.281 A 
HETATM    7  O2  UNL     1      -1.061 -10.780  17.635  1.00  0.00    -0.265 OA
HETATM    8  C8  UNL     1      -1.203 -11.849  19.684  1.00  0.00     0.147 A 
HETATM    9  N3  UNL     1      -0.713 -13.080  19.480  1.00  0.00    -0.345 N 
ATOM     10  H3  UNL     1      -0.361 -13.439  18.593  1.00  0.00     0.167 HD
HETATM   11  C9  UNL     1      -0.765 -13.775  20.651  1.00  0.00     0.182 A 
HETATM   12  N4  UNL     1      -1.288 -12.967  21.579  1.00  0.00    -0.336 N 
ATOM     13  H4  UNL     1      -1.448 -13.214  22.556  1.00  0.00     0.168 HD
HETATM   14  C10 UNL     1      -1.570 -11.767  21.017  1.00  0.00     0.145 A 
ENDROOT
BRANCH   1  15
HETATM   15  C4  UNL     1      -2.467 -10.616  22.934  1.00  0.00     0.139 C 
BRANCH  15  16
HETATM   16  C2  UNL     1      -1.268 -10.760  23.840  1.00  0.00    -0.004 C 
HETATM   17  C1  UNL     1      -1.721 -11.179  25.221  1.00  0.00     0.011 C 
HETATM   18  C3  UNL     1      -0.463  -9.509  23.952  1.00  0.00     0.011 C 
ENDBRANCH  15  16
ENDBRANCH   1  15
TORSDOF 2
ENDMDL
