MODEL 5
REMARK VINA RESULT: -6.359212388      2.065      4.966
REMARK  2 active torsions:
REMARK  status: ('A' for Active; 'I' for Inactive)
REMARK    1  A    between atoms: C2_2  and  C4_4 
REMARK    2  A    between atoms: C4_4  and  N1_5 
ROOT
HETATM    1  N1  UNL     1      -1.477 -11.583  21.793  1.00  0.00    -0.283 N 
HETATM    2  C5  UNL     1      -1.000 -12.838  21.776  1.00  0.00     0.332 A 
HETATM    3  O1  UNL     1      -0.868 -13.446  22.858  1.00  0.00    -0.246 OA
HETATM    4  N2  UNL     1      -0.656 -13.473  20.630  1.00  0.00    -0.269 N 
HETATM    5  C6  UNL     1      -0.146 -14.831  20.667  1.00  0.00     0.164 C 
HETATM    6  C7  UNL     1      -0.780 -12.862  19.429  1.00  0.00     0.281 A 
HETATM    7  O2  UNL     1      -0.451 -13.481  18.379  1.00  0.00    -0.265 OA
HETATM    8  C8  UNL     1      -1.265 -11.578  19.415  1.00  0.00     0.147 A 
HETATM    9  N3  UNL     1      -1.505 -10.706  18.425  1.00  0.00    -0.345 N 
ATOM     10  H3  UNL     1      -1.350 -10.880  17.432  1.00  0.00     0.167 HD
HETATM   11  C9  UNL     1      -1.990  -9.552  18.962  1.00  0.00     0.182 A 
HETATM   12  N4  UNL     1      -2.048  -9.715  20.287  1.00  0.00    -0.336 N 
ATOM     13  H4  UNL     1      -2.373  -9.015  20.955  1.00  0.00     0.168 HD
HETATM   14  C10 UNL     1      -1.607 -10.956  20.604  1.00  0.00     0.145 A 
ENDROOT
BRANCH   1  15
HETATM   15  C4  UNL     1      -1.851 -10.881  23.000  1.00  0.00     0.139 C 
BRANCH  15  16
HETATM   16  C2  UNL     1      -0.659 -10.279  23.705  1.00  0.00    -0.004 C 
HETATM   17  C1  UNL     1      -0.757 -10.551  25.190  1.00  0.00     0.011 C 
HETATM   18  C3  UNL     1      -0.529  -8.809  23.487  1.00  0.00     0.011 C 
ENDBRANCH  15  16
ENDBRANCH   1  15
TORSDOF 2
ENDMDL
