MODEL 7
REMARK VINA RESULT: -6.309835504      1.929      4.542
REMARK  2 active torsions:
REMARK  status: ('A' for Active; 'I' for Inactive)
REMARK    1  A    between atoms: C2_2  and  C4_4 
REMARK    2  A    between atoms: C4_4  and  N1_5 
ROOT
HETATM    1  N1  UNL     1      -1.865 -11.386  22.199  1.00  0.00    -0.283 N 
HETATM    2  C5  UNL     1      -1.285 -12.514  21.756  1.00  0.00     0.332 A 
HETATM    3  O1  UNL     1      -1.058 -13.434  22.569  1.00  0.00    -0.246 OA
HETATM    4  N2  UNL     1      -0.937 -12.696  20.460  1.00  0.00    -0.269 N 
HETATM    5  C6  UNL     1      -0.314 -13.935  20.032  1.00  0.00     0.164 C 
HETATM    6  C7  UNL     1      -1.160 -11.734  19.535  1.00  0.00     0.281 A 
HETATM    7  O2  UNL     1      -0.824 -11.933  18.334  1.00  0.00    -0.265 OA
HETATM    8  C8  UNL     1      -1.751 -10.569  19.959  1.00  0.00     0.147 A 
HETATM    9  N3  UNL     1      -2.104  -9.443  19.321  1.00  0.00    -0.345 N 
ATOM     10  H3  UNL     1      -1.976  -9.260  18.326  1.00  0.00     0.167 HD
HETATM   11  C9  UNL     1      -2.662  -8.584  20.220  1.00  0.00     0.182 A 
HETATM   12  N4  UNL     1      -2.652  -9.184  21.414  1.00  0.00    -0.336 N 
ATOM     13  H4  UNL     1      -3.006  -8.781  22.282  1.00  0.00     0.168 HD
HETATM   14  C10 UNL     1      -2.096 -10.413  21.290  1.00  0.00     0.145 A 
ENDROOT
BRANCH   1  15
HETATM   15  C4  UNL     1      -2.247 -11.165  23.575  1.00  0.00     0.139 C 
BRANCH  15  16
HETATM   16  C2  UNL     1      -1.051 -10.980  24.478  1.00  0.00    -0.004 C 
HETATM   17  C1  UNL     1      -1.488 -11.067  25.923  1.00  0.00     0.011 C 
HETATM   18  C3  UNL     1      -0.347  -9.683  24.260  1.00  0.00     0.011 C 
ENDBRANCH  15  16
ENDBRANCH   1  15
TORSDOF 2
ENDMDL
