MODEL 3
REMARK VINA RESULT: -8.949721081      2.062      4.120
REMARK  3 active torsions:
REMARK  status: ('A' for Active; 'I' for Inactive)
REMARK    1  A    between atoms: C4_4  and  O1_5 
REMARK    2  A    between atoms: C11_14  and  O3_15 
REMARK    3  A    between atoms: C13_18  and  O4_19 
ROOT
HETATM    1  C1  UNL     1     -50.510 -17.196 -12.285  1.00  0.00     0.048 C 
HETATM    2  C2  UNL     1     -51.192 -15.976 -11.772  1.00  0.00    -0.058 A 
HETATM    3  C3  UNL     1     -52.254 -15.472 -12.467  1.00  0.00     0.044 A 
HETATM    4  C4  UNL     1     -52.920 -14.316 -12.004  1.00  0.00     0.081 A 
HETATM    5  C5  UNL     1     -52.510 -13.681 -10.849  1.00  0.00     0.062 A 
HETATM    6  C6  UNL     1     -51.426 -14.222 -10.167  1.00  0.00     0.032 A 
HETATM    7  C7  UNL     1     -50.759 -15.368 -10.617  1.00  0.00     0.023 A 
HETATM    8  C8  UNL     1     -50.993 -13.553  -8.949  1.00  0.00     0.194 A 
HETATM    9  O2  UNL     1     -50.010 -14.009  -8.293  1.00  0.00    -0.287 OA
HETATM   10  C9  UNL     1     -51.678 -12.364  -8.472  1.00  0.00     0.035 A 
HETATM   11  C10 UNL     1     -51.274 -11.710  -7.301  1.00  0.00     0.053 A 
HETATM   12  C11 UNL     1     -51.915 -10.581  -6.840  1.00  0.00     0.069 A 
HETATM   13  C12 UNL     1     -52.992 -10.049  -7.523  1.00  0.00     0.074 A 
HETATM   14  C13 UNL     1     -53.402 -10.680  -8.674  1.00  0.00     0.083 A 
HETATM   15  C14 UNL     1     -52.753 -11.813  -9.132  1.00  0.00     0.062 A 
HETATM   16  C15 UNL     1     -53.192 -12.491 -10.368  1.00  0.00     0.199 A 
HETATM   17  O5  UNL     1     -54.167 -11.963 -10.936  1.00  0.00    -0.286 OA
ENDROOT
BRANCH   4  18
HETATM   18  O1  UNL     1     -53.978 -13.837 -12.721  1.00  0.00    -0.360 OA
ATOM     19  H1  UNL     1     -54.757 -14.375 -12.800  1.00  0.00     0.217 HD
ENDBRANCH   4  18
BRANCH  14  20
HETATM   20  O4  UNL     1     -54.482 -10.164  -9.376  1.00  0.00    -0.360 OA
ATOM     21  H4  UNL     1     -54.456  -9.257  -9.657  1.00  0.00     0.217 HD
ENDBRANCH  14  20
BRANCH  12  22
HETATM   22  O3  UNL     1     -51.488  -9.956  -5.675  1.00  0.00    -0.361 OA
ATOM     23  H3  UNL     1     -51.740 -10.299  -4.825  1.00  0.00     0.217 HD
ENDBRANCH  12  22
TORSDOF 3
ENDMDL
