MODEL 2
REMARK VINA RESULT: -8.968320195      3.506      6.285
REMARK  3 active torsions:
REMARK  status: ('A' for Active; 'I' for Inactive)
REMARK    1  A    between atoms: C4_4  and  O1_5 
REMARK    2  A    between atoms: C11_14  and  O3_15 
REMARK    3  A    between atoms: C13_18  and  O4_19 
ROOT
HETATM    1  C1  UNL     1     -52.957 -18.804 -11.639  1.00  0.00     0.048 C 
HETATM    2  C2  UNL     1     -53.043 -17.318 -11.642  1.00  0.00    -0.058 A 
HETATM    3  C3  UNL     1     -51.927 -16.592 -11.340  1.00  0.00     0.044 A 
HETATM    4  C4  UNL     1     -51.979 -15.180 -11.336  1.00  0.00     0.081 A 
HETATM    5  C5  UNL     1     -53.152 -14.517 -11.634  1.00  0.00     0.062 A 
HETATM    6  C6  UNL     1     -54.268 -15.288 -11.937  1.00  0.00     0.032 A 
HETATM    7  C7  UNL     1     -54.227 -16.687 -11.944  1.00  0.00     0.023 A 
HETATM    8  C8  UNL     1     -55.505 -14.589 -12.252  1.00  0.00     0.194 A 
HETATM    9  O2  UNL     1     -56.549 -15.248 -12.534  1.00  0.00    -0.287 OA
HETATM   10  C9  UNL     1     -55.559 -13.137 -12.248  1.00  0.00     0.035 A 
HETATM   11  C10 UNL     1     -56.742 -12.450 -12.549  1.00  0.00     0.053 A 
HETATM   12  C11 UNL     1     -56.805 -11.074 -12.548  1.00  0.00     0.069 A 
HETATM   13  C12 UNL     1     -55.691 -10.314 -12.245  1.00  0.00     0.074 A 
HETATM   14  C13 UNL     1     -54.521 -10.974 -11.948  1.00  0.00     0.083 A 
HETATM   15  C14 UNL     1     -54.465 -12.357 -11.951  1.00  0.00     0.062 A 
HETATM   16  C15 UNL     1     -53.210 -13.064 -11.631  1.00  0.00     0.199 A 
HETATM   17  O5  UNL     1     -52.244 -12.323 -11.369  1.00  0.00    -0.286 OA
ENDROOT
BRANCH   4  18
HETATM   18  O1  UNL     1     -50.845 -14.483 -11.030  1.00  0.00    -0.360 OA
ATOM     19  H1  UNL     1     -50.887 -13.534 -11.000  1.00  0.00     0.217 HD
ENDBRANCH   4  18
BRANCH  14  20
HETATM   20  O4  UNL     1     -53.390 -10.231 -11.642  1.00  0.00    -0.360 OA
ATOM     21  H4  UNL     1     -53.070 -10.227 -10.748  1.00  0.00     0.217 HD
ENDBRANCH  14  20
BRANCH  12  22
HETATM   22  O3  UNL     1     -57.994 -10.424 -12.851  1.00  0.00    -0.361 OA
ATOM     23  H3  UNL     1     -57.984  -9.581 -13.288  1.00  0.00     0.217 HD
ENDBRANCH  12  22
TORSDOF 3
ENDMDL
