MODEL 1
REMARK VINA RESULT: -9.436866990      0.000      0.000
REMARK  3 active torsions:
REMARK  status: ('A' for Active; 'I' for Inactive)
REMARK    1  A    between atoms: C4_4  and  O1_5 
REMARK    2  A    between atoms: C11_14  and  O3_15 
REMARK    3  A    between atoms: C13_18  and  O4_19 
ROOT
HETATM    1  C1  UNL     1     -56.540 -10.488 -12.598  1.00  0.00     0.048 C 
HETATM    2  C2  UNL     1     -55.432 -11.136 -11.842  1.00  0.00    -0.058 A 
HETATM    3  C3  UNL     1     -54.949 -12.336 -12.278  1.00  0.00     0.044 A 
HETATM    4  C4  UNL     1     -53.899 -12.973 -11.581  1.00  0.00     0.081 A 
HETATM    5  C5  UNL     1     -53.349 -12.396 -10.454  1.00  0.00     0.062 A 
HETATM    6  C6  UNL     1     -53.866 -11.175 -10.039  1.00  0.00     0.032 A 
HETATM    7  C7  UNL     1     -54.906 -10.535 -10.722  1.00  0.00     0.023 A 
HETATM    8  C8  UNL     1     -53.286 -10.567  -8.850  1.00  0.00     0.194 A 
HETATM    9  O2  UNL     1     -53.724  -9.454  -8.433  1.00  0.00    -0.287 OA
HETATM   10  C9  UNL     1     -52.206 -11.222  -8.132  1.00  0.00     0.035 A 
HETATM   11  C10 UNL     1     -51.638 -10.649  -6.988  1.00  0.00     0.053 A 
HETATM   12  C11 UNL     1     -50.614 -11.261  -6.299  1.00  0.00     0.069 A 
HETATM   13  C12 UNL     1     -50.105 -12.476  -6.719  1.00  0.00     0.074 A 
HETATM   14  C13 UNL     1     -50.652 -13.052  -7.842  1.00  0.00     0.083 A 
HETATM   15  C14 UNL     1     -51.681 -12.431  -8.528  1.00  0.00     0.062 A 
HETATM   16  C15 UNL     1     -52.268 -13.049  -9.733  1.00  0.00     0.199 A 
HETATM   17  O5  UNL     1     -51.766 -14.141 -10.059  1.00  0.00    -0.286 OA
ENDROOT
BRANCH   4  18
HETATM   18  O1  UNL     1     -53.438 -14.172 -12.043  1.00  0.00    -0.360 OA
ATOM     19  H1  UNL     1     -53.202 -14.844 -11.414  1.00  0.00     0.217 HD
ENDBRANCH   4  18
BRANCH  14  20
HETATM   20  O4  UNL     1     -50.156 -14.271  -8.281  1.00  0.00    -0.360 OA
ATOM     21  H4  UNL     1     -50.027 -14.406  -9.213  1.00  0.00     0.217 HD
ENDBRANCH  14  20
BRANCH  12  22
HETATM   22  O3  UNL     1     -50.073 -10.666  -5.167  1.00  0.00    -0.361 OA
ATOM     23  H3  UNL     1     -49.220 -10.932  -4.844  1.00  0.00     0.217 HD
ENDBRANCH  12  22
TORSDOF 3
ENDMDL
