MODEL 9
REMARK VINA RESULT: -9.797434556      4.828      7.679
REMARK  5 active torsions:
REMARK  status: ('A' for Active; 'I' for Inactive)
REMARK    1  A    between atoms: O1_2  and  C2_3 
REMARK    2  A    between atoms: C4_5  and  C5_6 
REMARK    3  A    between atoms: C14_15  and  C15_16 
REMARK    4  A    between atoms: C15_16  and  C17_18 
REMARK    5  A    between atoms: C18_19  and  C19_20 
ROOT
HETATM    1  C2  UNL     1      12.888  -2.586  -5.279  1.00  0.00     0.069 A 
HETATM    2  C3  UNL     1      11.840  -3.118  -5.999  1.00  0.00     0.049 A 
HETATM    3  C4  UNL     1      11.069  -4.167  -5.518  1.00  0.00    -0.023 A 
HETATM    4  C13 UNL     1      11.399  -4.655  -4.279  1.00  0.00     0.021 A 
HETATM    5  C14 UNL     1      12.434  -4.167  -3.509  1.00  0.00    -0.039 A 
HETATM    6  C24 UNL     1      13.171  -3.124  -4.032  1.00  0.00     0.045 A 
ENDROOT
BRANCH   5   7
HETATM    7  C15 UNL     1      12.767  -4.717  -2.169  1.00  0.00     0.094 C 
HETATM    8  C16 UNL     1      11.508  -4.985  -1.372  1.00  0.00     0.028 C 
BRANCH   7   9
HETATM    9  C17 UNL     1      13.554  -5.917  -2.370  1.00  0.00    -0.092 C 
HETATM   10  C18 UNL     1      14.210  -6.923  -2.516  1.00  0.00    -0.061 C 
BRANCH  10  11
HETATM   11  C19 UNL     1      14.989  -8.120  -2.665  1.00  0.00     0.081 A 
HETATM   12  C20 UNL     1      15.035  -8.822  -3.853  1.00  0.00     0.030 A 
HETATM   13  C21 UNL     1      14.246  -8.299  -4.998  1.00  0.00     0.070 C 
HETATM   14  N1  UNL     1      15.769  -9.947  -3.987  1.00  0.00    -0.333 N 
HETATM   15  C22 UNL     1      16.491 -10.434  -2.963  1.00  0.00     0.194 A 
ATOM     16  H1  UNL     1      15.777 -10.436  -4.881  1.00  0.00     0.168 HD
HETATM   17  N2  UNL     1      17.272 -11.636  -3.110  1.00  0.00    -0.063 NA
HETATM   18  N3  UNL     1      16.458  -9.765  -1.799  1.00  0.00    -0.318 N 
HETATM   19  C23 UNL     1      15.741  -8.638  -1.616  1.00  0.00     0.139 A 
ATOM     20  H3  UNL     1      17.002 -10.127  -1.015  1.00  0.00     0.169 HD
HETATM   21  N4  UNL     1      15.703  -7.932  -0.402  1.00  0.00    -0.081 NA
ENDBRANCH  10  11
ENDBRANCH   7   9
ENDBRANCH   5   7
BRANCH   3  22
HETATM   22  C5  UNL     1       9.980  -4.676  -6.335  1.00  0.00    -0.025 A 
HETATM   23  C6  UNL     1       8.937  -5.370  -5.765  1.00  0.00     0.019 A 
HETATM   24  C7  UNL     1       7.884  -5.872  -6.500  1.00  0.00    -0.061 A 
HETATM   25  C8  UNL     1       6.769  -6.616  -5.879  1.00  0.00     0.048 C 
HETATM   26  C9  UNL     1       7.873  -5.671  -7.863  1.00  0.00     0.013 A 
HETATM   27  C10 UNL     1       8.897  -4.980  -8.475  1.00  0.00    -0.061 A 
HETATM   28  C11 UNL     1       8.858  -4.780  -9.943  1.00  0.00     0.048 C 
HETATM   29  C12 UNL     1       9.944  -4.488  -7.699  1.00  0.00     0.019 A 
ENDBRANCH   3  22
BRANCH   1  30
HETATM   30  O1  UNL     1      13.661  -1.533  -5.764  1.00  0.00    -0.356 OA
HETATM   31  C1  UNL     1      13.361  -1.020  -7.050  1.00  0.00     0.210 C 
ENDBRANCH   1  30
TORSDOF 5
ENDMDL
