MODEL 3
REMARK VINA RESULT: -10.525578064      1.275      1.584
REMARK  5 active torsions:
REMARK  status: ('A' for Active; 'I' for Inactive)
REMARK    1  A    between atoms: O1_2  and  C2_3 
REMARK    2  A    between atoms: C4_5  and  C5_6 
REMARK    3  A    between atoms: C14_15  and  C15_16 
REMARK    4  A    between atoms: C15_16  and  C17_18 
REMARK    5  A    between atoms: C18_19  and  C19_20 
ROOT
HETATM    1  C2  UNL     1      16.131  -8.749  -3.210  1.00  0.00     0.069 A 
HETATM    2  C3  UNL     1      14.877  -8.193  -3.069  1.00  0.00     0.049 A 
HETATM    3  C4  UNL     1      14.692  -6.875  -2.676  1.00  0.00    -0.023 A 
HETATM    4  C13 UNL     1      15.826  -6.142  -2.432  1.00  0.00     0.021 A 
HETATM    5  C14 UNL     1      17.107  -6.638  -2.554  1.00  0.00    -0.039 A 
HETATM    6  C24 UNL     1      17.237  -7.955  -2.947  1.00  0.00     0.045 A 
ENDROOT
BRANCH   5   7
HETATM    7  C15 UNL     1      18.315  -5.817  -2.282  1.00  0.00     0.094 C 
HETATM    8  C16 UNL     1      19.374  -6.056  -3.338  1.00  0.00     0.028 C 
BRANCH   7   9
HETATM    9  C17 UNL     1      17.901  -4.430  -2.224  1.00  0.00    -0.092 C 
HETATM   10  C18 UNL     1      17.548  -3.273  -2.196  1.00  0.00    -0.061 C 
BRANCH  10  11
HETATM   11  C19 UNL     1      17.124  -1.901  -2.188  1.00  0.00     0.081 A 
HETATM   12  C20 UNL     1      15.855  -1.523  -2.582  1.00  0.00     0.030 A 
HETATM   13  C21 UNL     1      14.921  -2.589  -3.024  1.00  0.00     0.070 C 
HETATM   14  N1  UNL     1      15.463  -0.232  -2.572  1.00  0.00    -0.333 N 
HETATM   15  C22 UNL     1      16.294   0.747  -2.175  1.00  0.00     0.194 A 
ATOM     16  H1  UNL     1      14.518   0.006  -2.871  1.00  0.00     0.168 HD
HETATM   17  N2  UNL     1      15.872   2.124  -2.167  1.00  0.00    -0.063 NA
HETATM   18  N3  UNL     1      17.532   0.399  -1.788  1.00  0.00    -0.318 N 
HETATM   19  C23 UNL     1      17.971  -0.877  -1.780  1.00  0.00     0.139 A 
ATOM     20  H3  UNL     1      18.172   1.134  -1.486  1.00  0.00     0.169 HD
HETATM   21  N4  UNL     1      19.264  -1.249  -1.376  1.00  0.00    -0.081 NA
ENDBRANCH  10  11
ENDBRANCH   7   9
ENDBRANCH   5   7
BRANCH   3  22
HETATM   22  C5  UNL     1      13.339  -6.358  -2.550  1.00  0.00    -0.025 A 
HETATM   23  C6  UNL     1      12.994  -5.536  -1.501  1.00  0.00     0.019 A 
HETATM   24  C7  UNL     1      11.725  -5.024  -1.340  1.00  0.00    -0.061 A 
HETATM   25  C8  UNL     1      11.364  -4.144  -0.211  1.00  0.00     0.048 C 
HETATM   26  C9  UNL     1      10.759  -5.346  -2.269  1.00  0.00     0.013 A 
HETATM   27  C10 UNL     1      11.061  -6.164  -3.336  1.00  0.00    -0.061 A 
HETATM   28  C11 UNL     1      10.001  -6.494  -4.318  1.00  0.00     0.048 C 
HETATM   29  C12 UNL     1      12.356  -6.664  -3.465  1.00  0.00     0.019 A 
ENDBRANCH   3  22
BRANCH   1  30
HETATM   30  O1  UNL     1      16.313 -10.073  -3.604  1.00  0.00    -0.356 OA
HETATM   31  C1  UNL     1      16.621 -11.031  -2.609  1.00  0.00     0.210 C 
ENDBRANCH   1  30
TORSDOF 5
ENDMDL
