MODEL 1
REMARK VINA RESULT: -10.845451068      0.000      0.000
REMARK  5 active torsions:
REMARK  status: ('A' for Active; 'I' for Inactive)
REMARK    1  A    between atoms: O1_2  and  C2_3 
REMARK    2  A    between atoms: C4_5  and  C5_6 
REMARK    3  A    between atoms: C14_15  and  C15_16 
REMARK    4  A    between atoms: C15_16  and  C17_18 
REMARK    5  A    between atoms: C18_19  and  C19_20 
ROOT
HETATM    1  C2  UNL     1      16.000  -8.216  -2.117  1.00  0.00     0.069 A 
HETATM    2  C3  UNL     1      14.849  -7.582  -2.536  1.00  0.00     0.049 A 
HETATM    3  C4  UNL     1      14.809  -6.221  -2.802  1.00  0.00    -0.023 A 
HETATM    4  C13 UNL     1      15.979  -5.526  -2.628  1.00  0.00     0.021 A 
HETATM    5  C14 UNL     1      17.162  -6.099  -2.213  1.00  0.00    -0.039 A 
HETATM    6  C24 UNL     1      17.151  -7.456  -1.961  1.00  0.00     0.045 A 
ENDROOT
BRANCH   5   7
HETATM    7  C15 UNL     1      18.414  -5.318  -2.035  1.00  0.00     0.094 C 
HETATM    8  C16 UNL     1      19.428  -5.680  -3.099  1.00  0.00     0.028 C 
BRANCH   7   9
HETATM    9  C17 UNL     1      18.063  -3.913  -2.066  1.00  0.00    -0.092 C 
HETATM   10  C18 UNL     1      17.768  -2.739  -2.070  1.00  0.00    -0.061 C 
BRANCH  10  11
HETATM   11  C19 UNL     1      17.410  -1.349  -2.051  1.00  0.00     0.081 A 
HETATM   12  C20 UNL     1      16.184  -0.901  -2.501  1.00  0.00     0.030 A 
HETATM   13  C21 UNL     1      15.224  -1.910  -3.015  1.00  0.00     0.070 C 
HETATM   14  N1  UNL     1      15.854   0.408  -2.481  1.00  0.00    -0.333 N 
HETATM   15  C22 UNL     1      16.709   1.336  -2.018  1.00  0.00     0.194 A 
ATOM     16  H1  UNL     1      14.938   0.698  -2.822  1.00  0.00     0.168 HD
HETATM   17  N2  UNL     1      16.353   2.732  -1.998  1.00  0.00    -0.063 NA
HETATM   18  N3  UNL     1      17.907   0.919  -1.576  1.00  0.00    -0.318 N 
HETATM   19  C23 UNL     1      18.283  -0.376  -1.576  1.00  0.00     0.139 A 
ATOM     20  H3  UNL     1      18.564   1.615  -1.224  1.00  0.00     0.169 HD
HETATM   21  N4  UNL     1      19.533  -0.820  -1.114  1.00  0.00    -0.081 NA
ENDBRANCH  10  11
ENDBRANCH   7   9
ENDBRANCH   5   7
BRANCH   3  22
HETATM   22  C5  UNL     1      13.558  -5.623  -3.240  1.00  0.00    -0.025 A 
HETATM   23  C6  UNL     1      13.555  -4.531  -4.077  1.00  0.00     0.019 A 
HETATM   24  C7  UNL     1      12.395  -3.930  -4.517  1.00  0.00    -0.061 A 
HETATM   25  C8  UNL     1      12.402  -2.758  -5.415  1.00  0.00     0.048 C 
HETATM   26  C9  UNL     1      11.185  -4.445  -4.102  1.00  0.00     0.013 A 
HETATM   27  C10 UNL     1      11.142  -5.538  -3.265  1.00  0.00    -0.061 A 
HETATM   28  C11 UNL     1       9.827  -6.069  -2.835  1.00  0.00     0.048 C 
HETATM   29  C12 UNL     1      12.336  -6.118  -2.841  1.00  0.00     0.019 A 
ENDBRANCH   3  22
BRANCH   1  30
HETATM   30  O1  UNL     1      16.037  -9.583  -1.851  1.00  0.00    -0.356 OA
HETATM   31  C1  UNL     1      16.547 -10.445  -2.851  1.00  0.00     0.210 C 
ENDBRANCH   1  30
TORSDOF 5
ENDMDL
