MODEL 10
REMARK VINA RESULT: -9.767178165      4.835      7.536
REMARK  5 active torsions:
REMARK  status: ('A' for Active; 'I' for Inactive)
REMARK    1  A    between atoms: O1_2  and  C2_3 
REMARK    2  A    between atoms: C4_5  and  C5_6 
REMARK    3  A    between atoms: C14_15  and  C15_16 
REMARK    4  A    between atoms: C15_16  and  C17_18 
REMARK    5  A    between atoms: C18_19  and  C19_20 
ROOT
HETATM    1  C2  UNL     1      12.583  -2.495  -5.219  1.00  0.00     0.069 A 
HETATM    2  C3  UNL     1      11.556  -3.091  -5.920  1.00  0.00     0.049 A 
HETATM    3  C4  UNL     1      10.865  -4.189  -5.429  1.00  0.00    -0.023 A 
HETATM    4  C13 UNL     1      11.252  -4.660  -4.201  1.00  0.00     0.021 A 
HETATM    5  C14 UNL     1      12.270  -4.110  -3.449  1.00  0.00    -0.039 A 
HETATM    6  C24 UNL     1      12.927  -3.020  -3.981  1.00  0.00     0.045 A 
ENDROOT
BRANCH   5   7
HETATM    7  C15 UNL     1      12.665  -4.644  -2.120  1.00  0.00     0.094 C 
HETATM    8  C16 UNL     1      11.445  -4.922  -1.269  1.00  0.00     0.028 C 
BRANCH   7   9
HETATM    9  C17 UNL     1      13.461  -5.834  -2.343  1.00  0.00    -0.092 C 
HETATM   10  C18 UNL     1      14.125  -6.832  -2.509  1.00  0.00    -0.061 C 
BRANCH  10  11
HETATM   11  C19 UNL     1      14.914  -8.020  -2.680  1.00  0.00     0.081 A 
HETATM   12  C20 UNL     1      14.935  -8.721  -3.869  1.00  0.00     0.030 A 
HETATM   13  C21 UNL     1      14.106  -8.209  -4.990  1.00  0.00     0.070 C 
HETATM   14  N1  UNL     1      15.678  -9.837  -4.023  1.00  0.00    -0.333 N 
HETATM   15  C22 UNL     1      16.435 -10.315  -3.021  1.00  0.00     0.194 A 
ATOM     16  H1  UNL     1      15.666 -10.327  -4.918  1.00  0.00     0.168 HD
HETATM   17  N2  UNL     1      17.227 -11.507  -3.190  1.00  0.00    -0.063 NA
HETATM   18  N3  UNL     1      16.427  -9.646  -1.856  1.00  0.00    -0.318 N 
HETATM   19  C23 UNL     1      15.702  -8.528  -1.653  1.00  0.00     0.139 A 
ATOM     20  H3  UNL     1      16.998 -10.002  -1.088  1.00  0.00     0.169 HD
HETATM   21  N4  UNL     1      15.690  -7.822  -0.438  1.00  0.00    -0.081 NA
ENDBRANCH  10  11
ENDBRANCH   7   9
ENDBRANCH   5   7
BRANCH   3  22
HETATM   22  C5  UNL     1       9.793  -4.764  -6.226  1.00  0.00    -0.025 A 
HETATM   23  C6  UNL     1       9.742  -4.563  -7.586  1.00  0.00     0.019 A 
HETATM   24  C7  UNL     1       8.745  -5.087  -8.381  1.00  0.00    -0.061 A 
HETATM   25  C8  UNL     1       8.698  -4.866  -9.841  1.00  0.00     0.048 C 
HETATM   26  C9  UNL     1       7.757  -5.845  -7.790  1.00  0.00     0.013 A 
HETATM   27  C10 UNL     1       7.770  -6.071  -6.431  1.00  0.00    -0.061 A 
HETATM   28  C11 UNL     1       6.694  -6.890  -5.823  1.00  0.00     0.048 C 
HETATM   29  C12 UNL     1       8.794  -5.525  -5.660  1.00  0.00     0.019 A 
ENDBRANCH   3  22
BRANCH   1  30
HETATM   30  O1  UNL     1      13.276  -1.393  -5.715  1.00  0.00    -0.356 OA
HETATM   31  C1  UNL     1      13.365  -1.234  -7.119  1.00  0.00     0.210 C 
ENDBRANCH   1  30
TORSDOF 5
ENDMDL
