MODEL 2
REMARK VINA RESULT: -10.750033932      0.062      1.566
REMARK  5 active torsions:
REMARK  status: ('A' for Active; 'I' for Inactive)
REMARK    1  A    between atoms: O1_2  and  C2_3 
REMARK    2  A    between atoms: C4_5  and  C5_6 
REMARK    3  A    between atoms: C14_15  and  C15_16 
REMARK    4  A    between atoms: C15_16  and  C17_18 
REMARK    5  A    between atoms: C18_19  and  C19_20 
ROOT
HETATM    1  C2  UNL     1      15.937  -8.189  -2.167  1.00  0.00     0.069 A 
HETATM    2  C3  UNL     1      14.795  -7.541  -2.588  1.00  0.00     0.049 A 
HETATM    3  C4  UNL     1      14.768  -6.175  -2.834  1.00  0.00    -0.023 A 
HETATM    4  C13 UNL     1      15.942  -5.493  -2.640  1.00  0.00     0.021 A 
HETATM    5  C14 UNL     1      17.117  -6.081  -2.221  1.00  0.00    -0.039 A 
HETATM    6  C24 UNL     1      17.092  -7.441  -1.988  1.00  0.00     0.045 A 
ENDROOT
BRANCH   5   7
HETATM    7  C15 UNL     1      18.373  -5.312  -2.020  1.00  0.00     0.094 C 
HETATM    8  C16 UNL     1      19.400  -5.679  -3.069  1.00  0.00     0.028 C 
BRANCH   7   9
HETATM    9  C17 UNL     1      18.036  -3.904  -2.050  1.00  0.00    -0.092 C 
HETATM   10  C18 UNL     1      17.752  -2.727  -2.054  1.00  0.00    -0.061 C 
BRANCH  10  11
HETATM   11  C19 UNL     1      17.410  -1.333  -2.033  1.00  0.00     0.081 A 
HETATM   12  C20 UNL     1      16.184  -0.872  -2.472  1.00  0.00     0.030 A 
HETATM   13  C21 UNL     1      15.208  -1.872  -2.976  1.00  0.00     0.070 C 
HETATM   14  N1  UNL     1      15.868   0.440  -2.451  1.00  0.00    -0.333 N 
HETATM   15  C22 UNL     1      16.738   1.359  -1.998  1.00  0.00     0.194 A 
ATOM     16  H1  UNL     1      14.952   0.739  -2.784  1.00  0.00     0.168 HD
HETATM   17  N2  UNL     1      16.397   2.759  -1.977  1.00  0.00    -0.063 NA
HETATM   18  N3  UNL     1      17.935   0.930  -1.567  1.00  0.00    -0.318 N 
HETATM   19  C23 UNL     1      18.298  -0.369  -1.568  1.00  0.00     0.139 A 
ATOM     20  H3  UNL     1      18.603   1.620  -1.222  1.00  0.00     0.169 HD
HETATM   21  N4  UNL     1      19.547  -0.826  -1.118  1.00  0.00    -0.081 NA
ENDBRANCH  10  11
ENDBRANCH   7   9
ENDBRANCH   5   7
BRANCH   3  22
HETATM   22  C5  UNL     1      13.527  -5.561  -3.276  1.00  0.00    -0.025 A 
HETATM   23  C6  UNL     1      12.310  -6.073  -2.886  1.00  0.00     0.019 A 
HETATM   24  C7  UNL     1      11.108  -5.525  -3.281  1.00  0.00    -0.061 A 
HETATM   25  C8  UNL     1       9.808  -6.082  -2.858  1.00  0.00     0.048 C 
HETATM   26  C9  UNL     1      11.124  -4.417  -4.101  1.00  0.00     0.013 A 
HETATM   27  C10 UNL     1      12.320  -3.871  -4.514  1.00  0.00    -0.061 A 
HETATM   28  C11 UNL     1      12.305  -2.680  -5.396  1.00  0.00     0.048 C 
HETATM   29  C12 UNL     1      13.514  -4.453  -4.095  1.00  0.00     0.019 A 
ENDBRANCH   3  22
BRANCH   1  30
HETATM   30  O1  UNL     1      15.961  -9.560  -1.919  1.00  0.00    -0.356 OA
HETATM   31  C1  UNL     1      16.561 -10.404  -2.885  1.00  0.00     0.210 C 
ENDBRANCH   1  30
TORSDOF 5
ENDMDL
