MODEL 15
REMARK VINA RESULT: -9.232729498      6.763      8.442
REMARK  10 active torsions:
REMARK  status: ('A' for Active; 'I' for Inactive)
REMARK    1  A    between atoms: N5_13  and  C6_14 
REMARK    2  A    between atoms: C7_16  and  C8_17 
REMARK    3  A    between atoms: C8_17  and  O2_18 
REMARK    4  A    between atoms: O2_18  and  P1_19 
REMARK    5  A    between atoms: P1_19  and  O5_22 
REMARK    6  A    between atoms: O5_22  and  P2_23 
REMARK    7  A    between atoms: P2_23  and  O8_26 
REMARK    8  A    between atoms: O8_26  and  P3_27 
REMARK    9  A    between atoms: C9_31  and  O12_32 
REMARK   10  A    between atoms: C10_34  and  O13_35 
ROOT
HETATM    1  C6  UNL     1     -17.759  -3.007   1.979  1.00  0.00     0.159 C 
HETATM    2  O1  UNL     1     -17.030  -2.575   3.100  1.00  0.00    -0.326 OA
HETATM    3  C7  UNL     1     -16.272  -3.635   3.381  1.00  0.00     0.186 C 
HETATM    4  C9  UNL     1     -16.374  -4.737   2.318  1.00  0.00     0.186 C 
HETATM    5  C10 UNL     1     -16.771  -3.767   1.168  1.00  0.00     0.224 C 
ENDROOT
BRANCH   3   6
HETATM    6  C8  UNL     1     -14.853  -3.612   3.781  1.00  0.00     0.216 C 
BRANCH   6   7
HETATM    7  O2  UNL     1     -14.750  -3.092   5.095  1.00  0.00    -0.287 OA
BRANCH   7   8
HETATM    8  P1  UNL     1     -13.025  -3.164   5.349  1.00  0.00     0.417 P 
HETATM    9  O3  UNL     1     -12.710  -4.279   6.209  1.00  0.00    -0.624 OA
HETATM   10  O4  UNL     1     -12.479  -3.479   3.687  1.00  0.00    -0.624 OA
BRANCH   8  11
HETATM   11  O5  UNL     1     -12.381  -1.671   5.735  1.00  0.00    -0.180 OA
BRANCH  11  12
HETATM   12  P2  UNL     1     -13.128  -1.129   7.207  1.00  0.00     0.428 P 
HETATM   13  O6  UNL     1     -12.041  -0.468   8.001  1.00  0.00    -0.624 OA
HETATM   14  O7  UNL     1     -13.873  -2.358   8.044  1.00  0.00    -0.624 OA
BRANCH  12  15
HETATM   15  O8  UNL     1     -14.262   0.069   6.749  1.00  0.00    -0.173 OA
BRANCH  15  16
HETATM   16  P3  UNL     1     -15.428   0.223   7.944  1.00  0.00     0.431 P 
HETATM   17  O9  UNL     1     -14.881   0.060   9.319  1.00  0.00    -0.616 OA
HETATM   18  O10 UNL     1     -16.100   1.778   7.799  1.00  0.00    -0.616 OA
HETATM   19  O11 UNL     1     -16.611  -0.957   7.644  1.00  0.00    -0.616 OA
ENDBRANCH  15  16
ENDBRANCH  12  15
ENDBRANCH  11  12
ENDBRANCH   8  11
ENDBRANCH   7   8
ENDBRANCH   6   7
ENDBRANCH   3   6
BRANCH   4  20
HETATM   20  O12 UNL     1     -17.409  -5.555   2.641  1.00  0.00    -0.390 OA
ATOM     21  H12 UNL     1     -18.222  -5.104   2.450  1.00  0.00     0.210 HD
ENDBRANCH   4  20
BRANCH   1  22
HETATM   22  N5  UNL     1     -18.651  -2.132   1.395  1.00  0.00    -0.273 N 
HETATM   23  C3  UNL     1     -19.947  -2.367   1.131  1.00  0.00     0.146 A 
HETATM   24  N3  UNL     1     -20.637  -3.496   1.182  1.00  0.00    -0.336 N 
HETATM   25  C4  UNL     1     -20.576  -1.226   0.756  1.00  0.00     0.120 A 
HETATM   26  C2  UNL     1     -21.943  -3.490   0.866  1.00  0.00     0.183 A 
ATOM     27  H3  UNL     1     -20.181  -4.364   1.459  1.00  0.00     0.168 HD
HETATM   28  N2  UNL     1     -22.588  -2.366   0.503  1.00  0.00    -0.339 N 
HETATM   29  C1  UNL     1     -21.911  -1.220   0.443  1.00  0.00     0.148 A 
ATOM     30  H2  UNL     1     -23.583  -2.391   0.276  1.00  0.00     0.167 HD
HETATM   31  N1  UNL     1     -22.623  -0.024   0.202  1.00  0.00    -0.080 NA
HETATM   32  N4  UNL     1     -19.634  -0.262   0.773  1.00  0.00    -0.346 N 
HETATM   33  C5  UNL     1     -18.470  -0.819   1.157  1.00  0.00     0.192 A 
ATOM     34  H4  UNL     1     -19.778   0.719   0.537  1.00  0.00     0.167 HD
ENDBRANCH   1  22
BRANCH   5  35
HETATM   35  O13 UNL     1     -17.289  -4.644   0.225  1.00  0.00    -0.385 OA
ATOM     36  H13 UNL     1     -17.349  -5.556   0.482  1.00  0.00     0.210 HD
ENDBRANCH   5  35
TORSDOF 10
ENDMDL
