MODEL 12
REMARK VINA RESULT: -9.397055225      1.383      3.485
REMARK  10 active torsions:
REMARK  status: ('A' for Active; 'I' for Inactive)
REMARK    1  A    between atoms: N5_13  and  C6_14 
REMARK    2  A    between atoms: C7_16  and  C8_17 
REMARK    3  A    between atoms: C8_17  and  O2_18 
REMARK    4  A    between atoms: O2_18  and  P1_19 
REMARK    5  A    between atoms: P1_19  and  O5_22 
REMARK    6  A    between atoms: O5_22  and  P2_23 
REMARK    7  A    between atoms: P2_23  and  O8_26 
REMARK    8  A    between atoms: O8_26  and  P3_27 
REMARK    9  A    between atoms: C9_31  and  O12_32 
REMARK   10  A    between atoms: C10_34  and  O13_35 
ROOT
HETATM    1  C6  UNL     1     -16.132   0.317  10.385  1.00  0.00     0.159 C 
HETATM    2  O1  UNL     1     -15.004  -0.518  10.316  1.00  0.00    -0.326 OA
HETATM    3  C7  UNL     1     -14.593  -0.350   9.058  1.00  0.00     0.186 C 
HETATM    4  C9  UNL     1     -15.365   0.754   8.324  1.00  0.00     0.186 C 
HETATM    5  C10 UNL     1     -15.739   1.529   9.620  1.00  0.00     0.224 C 
ENDROOT
BRANCH   3   6
HETATM    6  C8  UNL     1     -13.196  -0.212   8.607  1.00  0.00     0.216 C 
BRANCH   6   7
HETATM    7  O2  UNL     1     -12.338  -0.257   9.735  1.00  0.00    -0.287 OA
BRANCH   7   8
HETATM    8  P1  UNL     1     -11.502  -1.764   9.459  1.00  0.00     0.417 P 
HETATM    9  O3  UNL     1     -10.127  -1.496   9.115  1.00  0.00    -0.624 OA
HETATM   10  O4  UNL     1     -11.615  -2.482  11.081  1.00  0.00    -0.624 OA
BRANCH   8  11
HETATM   11  O5  UNL     1     -12.371  -2.796   8.473  1.00  0.00    -0.180 OA
BRANCH  11  12
HETATM   12  P2  UNL     1     -11.285  -3.434   7.275  1.00  0.00     0.428 P 
HETATM   13  O6  UNL     1     -10.444  -4.453   7.983  1.00  0.00    -0.624 OA
HETATM   14  O7  UNL     1     -10.375  -2.255   6.536  1.00  0.00    -0.624 OA
BRANCH  12  15
HETATM   15  O8  UNL     1     -12.268  -4.249   6.134  1.00  0.00    -0.173 OA
BRANCH  15  16
HETATM   16  P3  UNL     1     -12.829  -3.154   4.995  1.00  0.00     0.431 P 
HETATM   17  O9  UNL     1     -13.200  -1.838   5.583  1.00  0.00    -0.616 OA
HETATM   18  O10 UNL     1     -11.583  -2.918   3.863  1.00  0.00    -0.616 OA
HETATM   19  O11 UNL     1     -14.178  -3.858   4.244  1.00  0.00    -0.616 OA
ENDBRANCH  15  16
ENDBRANCH  12  15
ENDBRANCH  11  12
ENDBRANCH   8  11
ENDBRANCH   7   8
ENDBRANCH   6   7
ENDBRANCH   3   6
BRANCH   4  20
HETATM   20  O12 UNL     1     -16.468   0.204   7.753  1.00  0.00    -0.390 OA
ATOM     21  H12 UNL     1     -17.214   0.368   8.317  1.00  0.00     0.210 HD
ENDBRANCH   4  20
BRANCH   1  22
HETATM   22  N5  UNL     1     -16.813   0.407  11.581  1.00  0.00    -0.273 N 
HETATM   23  C3  UNL     1     -17.497  -0.576  12.189  1.00  0.00     0.146 A 
HETATM   24  N3  UNL     1     -17.843  -1.775  11.746  1.00  0.00    -0.336 N 
HETATM   25  C4  UNL     1     -17.859  -0.206  13.442  1.00  0.00     0.120 A 
HETATM   26  C2  UNL     1     -18.541  -2.601  12.544  1.00  0.00     0.183 A 
ATOM     27  H3  UNL     1     -17.582  -2.070  10.806  1.00  0.00     0.168 HD
HETATM   28  N2  UNL     1     -18.899  -2.258  13.795  1.00  0.00    -0.339 N 
HETATM   29  C1  UNL     1     -18.562  -1.055  14.258  1.00  0.00     0.148 A 
ATOM     30  H2  UNL     1     -19.421  -2.909  14.381  1.00  0.00     0.167 HD
HETATM   31  N1  UNL     1     -18.815  -0.757  15.616  1.00  0.00    -0.080 NA
HETATM   32  N4  UNL     1     -17.398   1.049  13.605  1.00  0.00    -0.346 N 
HETATM   33  C5  UNL     1     -16.769   1.416  12.472  1.00  0.00     0.192 A 
ATOM     34  H4  UNL     1     -17.506   1.623  14.441  1.00  0.00     0.167 HD
ENDBRANCH   1  22
BRANCH   5  35
HETATM   35  O13 UNL     1     -16.774   2.342   9.176  1.00  0.00    -0.385 OA
ATOM     36  H13 UNL     1     -16.727   3.258   9.421  1.00  0.00     0.210 HD
ENDBRANCH   5  35
TORSDOF 10
ENDMDL
