MODEL 14
REMARK VINA RESULT: -9.336460289      6.783      8.794
REMARK  10 active torsions:
REMARK  status: ('A' for Active; 'I' for Inactive)
REMARK    1  A    between atoms: N5_13  and  C6_14 
REMARK    2  A    between atoms: C7_16  and  C8_17 
REMARK    3  A    between atoms: C8_17  and  O2_18 
REMARK    4  A    between atoms: O2_18  and  P1_19 
REMARK    5  A    between atoms: P1_19  and  O5_22 
REMARK    6  A    between atoms: O5_22  and  P2_23 
REMARK    7  A    between atoms: P2_23  and  O8_26 
REMARK    8  A    between atoms: O8_26  and  P3_27 
REMARK    9  A    between atoms: C9_31  and  O12_32 
REMARK   10  A    between atoms: C10_34  and  O13_35 
ROOT
HETATM    1  C6  UNL     1      -8.539  -4.581   6.475  1.00  0.00     0.159 C 
HETATM    2  O1  UNL     1      -9.495  -3.556   6.371  1.00  0.00    -0.326 OA
HETATM    3  C7  UNL     1     -10.577  -4.208   5.945  1.00  0.00     0.186 C 
HETATM    4  C9  UNL     1     -10.385  -5.730   5.929  1.00  0.00     0.186 C 
HETATM    5  C10 UNL     1      -9.293  -5.731   7.038  1.00  0.00     0.224 C 
ENDROOT
BRANCH   3   6
HETATM    6  C8  UNL     1     -11.962  -3.997   6.406  1.00  0.00     0.216 C 
BRANCH   6   7
HETATM    7  O2  UNL     1     -11.937  -3.305   7.643  1.00  0.00    -0.287 OA
BRANCH   7   8
HETATM    8  P1  UNL     1     -13.049  -1.999   7.317  1.00  0.00     0.417 P 
HETATM    9  O3  UNL     1     -12.836  -1.508   5.977  1.00  0.00    -0.624 OA
HETATM   10  O4  UNL     1     -14.593  -2.872   7.427  1.00  0.00    -0.624 OA
BRANCH   8  11
HETATM   11  O5  UNL     1     -13.097  -0.887   8.563  1.00  0.00    -0.180 OA
BRANCH  11  12
HETATM   12  P2  UNL     1     -11.577  -0.955   9.402  1.00  0.00     0.428 P 
HETATM   13  O6  UNL     1     -11.515   0.285  10.243  1.00  0.00    -0.624 OA
HETATM   14  O7  UNL     1     -10.278  -1.094   8.374  1.00  0.00    -0.624 OA
BRANCH  12  15
HETATM   15  O8  UNL     1     -11.674  -2.308  10.447  1.00  0.00    -0.173 OA
BRANCH  15  16
HETATM   16  P3  UNL     1     -11.341  -1.826  12.018  1.00  0.00     0.431 P 
HETATM   17  O9  UNL     1     -10.068  -1.063  12.138  1.00  0.00    -0.616 OA
HETATM   18  O10 UNL     1     -12.626  -0.836  12.526  1.00  0.00    -0.616 OA
HETATM   19  O11 UNL     1     -11.271  -3.230  12.969  1.00  0.00    -0.616 OA
ENDBRANCH  15  16
ENDBRANCH  12  15
ENDBRANCH  11  12
ENDBRANCH   8  11
ENDBRANCH   7   8
ENDBRANCH   6   7
ENDBRANCH   3   6
BRANCH   4  20
HETATM   20  O12 UNL     1      -9.858  -6.087   4.730  1.00  0.00    -0.390 OA
ATOM     21  H12 UNL     1      -9.551  -6.984   4.789  1.00  0.00     0.210 HD
ENDBRANCH   4  20
BRANCH   1  22
HETATM   22  N5  UNL     1      -7.273  -4.260   6.919  1.00  0.00    -0.273 N 
HETATM   23  C3  UNL     1      -6.832  -3.040   7.268  1.00  0.00     0.146 A 
HETATM   24  N3  UNL     1      -7.396  -1.852   7.113  1.00  0.00    -0.336 N 
HETATM   25  C4  UNL     1      -5.614  -3.120   7.858  1.00  0.00     0.120 A 
HETATM   26  C2  UNL     1      -6.756  -0.752   7.545  1.00  0.00     0.183 A 
ATOM     27  H3  UNL     1      -8.311  -1.772   6.670  1.00  0.00     0.168 HD
HETATM   28  N2  UNL     1      -5.552  -0.811   8.143  1.00  0.00    -0.339 N 
HETATM   29  C1  UNL     1      -4.967  -1.997   8.306  1.00  0.00     0.148 A 
ATOM     30  H2  UNL     1      -5.094   0.040   8.468  1.00  0.00     0.167 HD
HETATM   31  N1  UNL     1      -3.775  -2.066   9.061  1.00  0.00    -0.080 NA
HETATM   32  N4  UNL     1      -5.288  -4.427   7.857  1.00  0.00    -0.346 N 
HETATM   33  C5  UNL     1      -6.295  -5.111   7.283  1.00  0.00     0.192 A 
ATOM     34  H4  UNL     1      -4.427  -4.829   8.227  1.00  0.00     0.167 HD
ENDBRANCH   1  22
BRANCH   5  35
HETATM   35  O13 UNL     1      -8.722  -6.986   6.871  1.00  0.00    -0.385 OA
ATOM     36  H13 UNL     1      -9.285  -7.664   6.517  1.00  0.00     0.210 HD
ENDBRANCH   5  35
TORSDOF 10
ENDMDL
