MODEL 13
REMARK VINA RESULT: -9.368433831      1.671      3.573
REMARK  10 active torsions:
REMARK  status: ('A' for Active; 'I' for Inactive)
REMARK    1  A    between atoms: N5_13  and  C6_14 
REMARK    2  A    between atoms: C7_16  and  C8_17 
REMARK    3  A    between atoms: C8_17  and  O2_18 
REMARK    4  A    between atoms: O2_18  and  P1_19 
REMARK    5  A    between atoms: P1_19  and  O5_22 
REMARK    6  A    between atoms: O5_22  and  P2_23 
REMARK    7  A    between atoms: P2_23  and  O8_26 
REMARK    8  A    between atoms: O8_26  and  P3_27 
REMARK    9  A    between atoms: C9_31  and  O12_32 
REMARK   10  A    between atoms: C10_34  and  O13_35 
ROOT
HETATM    1  C6  UNL     1     -16.030   0.749  11.299  1.00  0.00     0.159 C 
HETATM    2  O1  UNL     1     -15.312  -0.325  10.746  1.00  0.00    -0.326 OA
HETATM    3  C7  UNL     1     -14.497   0.282   9.883  1.00  0.00     0.186 C 
HETATM    4  C9  UNL     1     -14.554   1.812   9.987  1.00  0.00     0.186 C 
HETATM    5  C10 UNL     1     -15.013   1.820  11.474  1.00  0.00     0.224 C 
ENDROOT
BRANCH   3   6
HETATM    6  C8  UNL     1     -13.077  -0.038   9.650  1.00  0.00     0.216 C 
BRANCH   6   7
HETATM    7  O2  UNL     1     -12.797  -1.319  10.187  1.00  0.00    -0.287 OA
BRANCH   7   8
HETATM    8  P1  UNL     1     -11.204  -1.613   9.538  1.00  0.00     0.417 P 
HETATM    9  O3  UNL     1     -10.778  -0.469   8.769  1.00  0.00    -0.624 OA
HETATM   10  O4  UNL     1     -10.272  -1.738  11.046  1.00  0.00    -0.624 OA
BRANCH   8  11
HETATM   11  O5  UNL     1     -11.079  -3.123   8.833  1.00  0.00    -0.180 OA
BRANCH  11  12
HETATM   12  P2  UNL     1     -12.115  -3.150   7.437  1.00  0.00     0.428 P 
HETATM   13  O6  UNL     1     -11.796  -1.905   6.664  1.00  0.00    -0.624 OA
HETATM   14  O7  UNL     1     -13.726  -3.262   7.831  1.00  0.00    -0.624 OA
BRANCH  12  15
HETATM   15  O8  UNL     1     -11.620  -4.500   6.508  1.00  0.00    -0.173 OA
BRANCH  15  16
HETATM   16  P3  UNL     1      -9.946  -4.538   6.424  1.00  0.00     0.431 P 
HETATM   17  O9  UNL     1      -9.321  -3.200   6.610  1.00  0.00    -0.616 OA
HETATM   18  O10 UNL     1      -9.400  -5.576   7.654  1.00  0.00    -0.616 OA
HETATM   19  O11 UNL     1      -9.534  -5.166   4.901  1.00  0.00    -0.616 OA
ENDBRANCH  15  16
ENDBRANCH  12  15
ENDBRANCH  11  12
ENDBRANCH   8  11
ENDBRANCH   7   8
ENDBRANCH   6   7
ENDBRANCH   3   6
BRANCH   4  20
HETATM   20  O12 UNL     1     -15.542   2.265   9.173  1.00  0.00    -0.390 OA
ATOM     21  H12 UNL     1     -16.379   2.084   9.583  1.00  0.00     0.210 HD
ENDBRANCH   4  20
BRANCH   1  22
HETATM   22  N5  UNL     1     -16.973   0.483  12.270  1.00  0.00    -0.273 N 
HETATM   23  C3  UNL     1     -17.607  -0.684  12.472  1.00  0.00     0.146 A 
HETATM   24  N3  UNL     1     -17.640  -1.777  11.726  1.00  0.00    -0.336 N 
HETATM   25  C4  UNL     1     -18.301  -0.658  13.636  1.00  0.00     0.120 A 
HETATM   26  C2  UNL     1     -18.357  -2.838  12.135  1.00  0.00     0.183 A 
ATOM     27  H3  UNL     1     -17.126  -1.814  10.846  1.00  0.00     0.168 HD
HETATM   28  N2  UNL     1     -19.043  -2.837  13.292  1.00  0.00    -0.339 N 
HETATM   29  C1  UNL     1     -19.023  -1.746  14.056  1.00  0.00     0.148 A 
ATOM     30  H2  UNL     1     -19.572  -3.660  13.581  1.00  0.00     0.167 HD
HETATM   31  N1  UNL     1     -19.626  -1.802  15.333  1.00  0.00    -0.080 NA
HETATM   32  N4  UNL     1     -18.103   0.568  14.158  1.00  0.00    -0.346 N 
HETATM   33  C5  UNL     1     -17.300   1.255  13.324  1.00  0.00     0.192 A 
ATOM     34  H4  UNL     1     -18.492   0.915  15.034  1.00  0.00     0.167 HD
ENDBRANCH   1  22
BRANCH   5  35
HETATM   35  O13 UNL     1     -15.496   3.114  11.615  1.00  0.00    -0.385 OA
ATOM     36  H13 UNL     1     -14.927   3.813  11.314  1.00  0.00     0.210 HD
ENDBRANCH   5  35
TORSDOF 10
ENDMDL
