MODEL 18
REMARK VINA RESULT: -9.190553032      1.639      3.439
REMARK  10 active torsions:
REMARK  status: ('A' for Active; 'I' for Inactive)
REMARK    1  A    between atoms: N5_13  and  C6_14 
REMARK    2  A    between atoms: C7_16  and  C8_17 
REMARK    3  A    between atoms: C8_17  and  O2_18 
REMARK    4  A    between atoms: O2_18  and  P1_19 
REMARK    5  A    between atoms: P1_19  and  O5_22 
REMARK    6  A    between atoms: O5_22  and  P2_23 
REMARK    7  A    between atoms: P2_23  and  O8_26 
REMARK    8  A    between atoms: O8_26  and  P3_27 
REMARK    9  A    between atoms: C9_31  and  O12_32 
REMARK   10  A    between atoms: C10_34  and  O13_35 
ROOT
HETATM    1  C6  UNL     1     -16.020   0.757  11.396  1.00  0.00     0.159 C 
HETATM    2  O1  UNL     1     -15.238  -0.308  10.918  1.00  0.00    -0.326 OA
HETATM    3  C7  UNL     1     -14.402   0.298  10.074  1.00  0.00     0.186 C 
HETATM    4  C9  UNL     1     -14.518   1.828  10.120  1.00  0.00     0.186 C 
HETATM    5  C10 UNL     1     -15.051   1.869  11.582  1.00  0.00     0.224 C 
ENDROOT
BRANCH   3   6
HETATM    6  C8  UNL     1     -12.962   0.023   9.922  1.00  0.00     0.216 C 
BRANCH   6   7
HETATM    7  O2  UNL     1     -12.697  -1.304  10.343  1.00  0.00    -0.287 OA
BRANCH   7   8
HETATM    8  P1  UNL     1     -11.202  -1.629   9.504  1.00  0.00     0.417 P 
HETATM    9  O3  UNL     1     -10.838  -0.484   8.706  1.00  0.00    -0.624 OA
HETATM   10  O4  UNL     1     -10.101  -1.805  10.888  1.00  0.00    -0.624 OA
BRANCH   8  11
HETATM   11  O5  UNL     1     -11.205  -3.129   8.768  1.00  0.00    -0.180 OA
BRANCH  11  12
HETATM   12  P2  UNL     1     -12.218  -3.032   7.359  1.00  0.00     0.428 P 
HETATM   13  O6  UNL     1     -12.313  -4.429   6.823  1.00  0.00    -0.624 OA
HETATM   14  O7  UNL     1     -11.651  -1.952   6.229  1.00  0.00    -0.624 OA
BRANCH  12  15
HETATM   15  O8  UNL     1     -13.767  -2.567   7.922  1.00  0.00    -0.173 OA
BRANCH  15  16
HETATM   16  P3  UNL     1     -14.616  -1.830   6.679  1.00  0.00     0.431 P 
HETATM   17  O9  UNL     1     -14.537  -2.576   5.393  1.00  0.00    -0.616 OA
HETATM   18  O10 UNL     1     -16.243  -1.737   7.162  1.00  0.00    -0.616 OA
HETATM   19  O11 UNL     1     -13.972  -0.271   6.487  1.00  0.00    -0.616 OA
ENDBRANCH  15  16
ENDBRANCH  12  15
ENDBRANCH  11  12
ENDBRANCH   8  11
ENDBRANCH   7   8
ENDBRANCH   6   7
ENDBRANCH   3   6
BRANCH   4  20
HETATM   20  O12 UNL     1     -15.479   2.216   9.243  1.00  0.00    -0.390 OA
ATOM     21  H12 UNL     1     -15.814   3.062   9.516  1.00  0.00     0.210 HD
ENDBRANCH   4  20
BRANCH   1  22
HETATM   22  N5  UNL     1     -17.000   0.489  12.329  1.00  0.00    -0.273 N 
HETATM   23  C3  UNL     1     -17.633  -0.681  12.511  1.00  0.00     0.146 A 
HETATM   24  N3  UNL     1     -17.628  -1.779  11.771  1.00  0.00    -0.336 N 
HETATM   25  C4  UNL     1     -18.376  -0.654  13.646  1.00  0.00     0.120 A 
HETATM   26  C2  UNL     1     -18.353  -2.843  12.157  1.00  0.00     0.183 A 
ATOM     27  H3  UNL     1     -17.078  -1.817  10.913  1.00  0.00     0.168 HD
HETATM   28  N2  UNL     1     -19.087  -2.840  13.285  1.00  0.00    -0.339 N 
HETATM   29  C1  UNL     1     -19.107  -1.744  14.042  1.00  0.00     0.148 A 
ATOM     30  H2  UNL     1     -19.621  -3.665  13.556  1.00  0.00     0.167 HD
HETATM   31  N1  UNL     1     -19.761  -1.797  15.293  1.00  0.00    -0.080 NA
HETATM   32  N4  UNL     1     -18.207   0.576  14.168  1.00  0.00    -0.346 N 
HETATM   33  C5  UNL     1     -17.376   1.265  13.363  1.00  0.00     0.192 A 
ATOM     34  H4  UNL     1     -18.635   0.926  15.025  1.00  0.00     0.167 HD
ENDBRANCH   1  22
BRANCH   5  35
HETATM   35  O13 UNL     1     -15.586   3.149  11.652  1.00  0.00    -0.385 OA
ATOM     36  H13 UNL     1     -15.444   3.708  10.898  1.00  0.00     0.210 HD
ENDBRANCH   5  35
TORSDOF 10
ENDMDL
