MODEL 5
REMARK VINA RESULT: -9.534706442      1.474      3.157
REMARK  10 active torsions:
REMARK  status: ('A' for Active; 'I' for Inactive)
REMARK    1  A    between atoms: N5_13  and  C6_14 
REMARK    2  A    between atoms: C7_16  and  C8_17 
REMARK    3  A    between atoms: C8_17  and  O2_18 
REMARK    4  A    between atoms: O2_18  and  P1_19 
REMARK    5  A    between atoms: P1_19  and  O5_22 
REMARK    6  A    between atoms: O5_22  and  P2_23 
REMARK    7  A    between atoms: P2_23  and  O8_26 
REMARK    8  A    between atoms: O8_26  and  P3_27 
REMARK    9  A    between atoms: C9_31  and  O12_32 
REMARK   10  A    between atoms: C10_34  and  O13_35 
ROOT
HETATM    1  C6  UNL     1     -16.254   0.262  10.119  1.00  0.00     0.159 C 
HETATM    2  O1  UNL     1     -15.196  -0.648   9.962  1.00  0.00    -0.326 OA
HETATM    3  C7  UNL     1     -14.872  -0.502   8.677  1.00  0.00     0.186 C 
HETATM    4  C9  UNL     1     -15.620   0.658   8.005  1.00  0.00     0.186 C 
HETATM    5  C10 UNL     1     -15.839   1.449   9.327  1.00  0.00     0.224 C 
ENDROOT
BRANCH   3   6
HETATM    6  C8  UNL     1     -13.508  -0.458   8.119  1.00  0.00     0.216 C 
BRANCH   6   7
HETATM    7  O2  UNL     1     -12.881  -1.711   8.331  1.00  0.00    -0.287 OA
BRANCH   7   8
HETATM    8  P1  UNL     1     -11.516  -1.241   9.311  1.00  0.00     0.417 P 
HETATM    9  O3  UNL     1     -11.417   0.198   9.340  1.00  0.00    -0.624 OA
HETATM   10  O4  UNL     1     -12.038  -1.865  10.891  1.00  0.00    -0.624 OA
BRANCH   8  11
HETATM   11  O5  UNL     1     -10.141  -2.115   8.939  1.00  0.00    -0.180 OA
BRANCH  11  12
HETATM   12  P2  UNL     1      -9.650  -1.681   7.329  1.00  0.00     0.428 P 
HETATM   13  O6  UNL     1      -8.330  -2.358   7.105  1.00  0.00    -0.624 OA
HETATM   14  O7  UNL     1      -9.571  -0.037   7.099  1.00  0.00    -0.624 OA
BRANCH  12  15
HETATM   15  O8  UNL     1     -10.801  -2.389   6.277  1.00  0.00    -0.173 OA
BRANCH  15  16
HETATM   16  P3  UNL     1     -10.698  -4.059   6.378  1.00  0.00     0.431 P 
HETATM   17  O9  UNL     1     -10.134  -4.534   7.671  1.00  0.00    -0.616 OA
HETATM   18  O10 UNL     1     -12.273  -4.675   6.205  1.00  0.00    -0.616 OA
HETATM   19  O11 UNL     1      -9.721  -4.580   5.091  1.00  0.00    -0.616 OA
ENDBRANCH  15  16
ENDBRANCH  12  15
ENDBRANCH  11  12
ENDBRANCH   8  11
ENDBRANCH   7   8
ENDBRANCH   6   7
ENDBRANCH   3   6
BRANCH   4  20
HETATM   20  O12 UNL     1     -16.799   0.190   7.521  1.00  0.00    -0.390 OA
ATOM     21  H12 UNL     1     -17.164   0.839   6.932  1.00  0.00     0.210 HD
ENDBRANCH   4  20
BRANCH   1  22
HETATM   22  N5  UNL     1     -16.834   0.391  11.364  1.00  0.00    -0.273 N 
HETATM   23  C3  UNL     1     -17.509  -0.556  12.036  1.00  0.00     0.146 A 
HETATM   24  N3  UNL     1     -17.939  -1.743  11.636  1.00  0.00    -0.336 N 
HETATM   25  C4  UNL     1     -17.753  -0.161  13.310  1.00  0.00     0.120 A 
HETATM   26  C2  UNL     1     -18.605  -2.531  12.497  1.00  0.00     0.183 A 
ATOM     27  H3  UNL     1     -17.766  -2.056  10.682  1.00  0.00     0.168 HD
HETATM   28  N2  UNL     1     -18.847  -2.162  13.768  1.00  0.00    -0.339 N 
HETATM   29  C1  UNL     1     -18.424  -0.971  14.189  1.00  0.00     0.148 A 
ATOM     30  H2  UNL     1     -19.349  -2.786  14.401  1.00  0.00     0.167 HD
HETATM   31  N1  UNL     1     -18.555  -0.651  15.558  1.00  0.00    -0.080 NA
HETATM   32  N4  UNL     1     -17.228   1.075  13.420  1.00  0.00    -0.346 N 
HETATM   33  C5  UNL     1     -16.677   1.405  12.237  1.00  0.00     0.192 A 
ATOM     34  H4  UNL     1     -17.245   1.660  14.255  1.00  0.00     0.167 HD
ENDBRANCH   1  22
BRANCH   5  35
HETATM   35  O13 UNL     1     -16.846   2.334   8.965  1.00  0.00    -0.385 OA
ATOM     36  H13 UNL     1     -17.081   2.353   8.044  1.00  0.00     0.210 HD
ENDBRANCH   5  35
TORSDOF 10
ENDMDL
