MODEL 2
REMARK VINA RESULT: -7.521623419      4.439      5.645
REMARK  7 active torsions:
REMARK  status: ('A' for Active; 'I' for Inactive)
REMARK    1  A    between atoms: C5_5  and  N1_6 
REMARK    2  A    between atoms: N1_6  and  C6_8 
REMARK    3  A    between atoms: C6_8  and  N2_10 
REMARK    4  A    between atoms: N2_10  and  C7_12 
REMARK    5  A    between atoms: C10_15  and  S2_16 
REMARK    6  A    between atoms: S2_16  and  N3_17 
REMARK    7  A    between atoms: N4_29  and  O3_30 
ROOT
HETATM    1  C6  UNL     1      -2.909   6.377  13.207  1.00  0.00     0.172 C 
HETATM    2  S1  UNL     1      -2.296   7.248  14.428  1.00  0.00    -0.041 SA
ENDROOT
BRANCH   1   3
HETATM    3  N1  UNL     1      -2.178   6.312  11.945  1.00  0.00    -0.362 N 
ATOM      4  H1  UNL     1      -2.522   6.825  11.134  1.00  0.00     0.162 HD
BRANCH   3   5
HETATM    5  C5  UNL     1      -0.963   5.522  11.835  1.00  0.00     0.087 C 
HETATM    6  C4  UNL     1      -1.293   4.087  12.101  1.00  0.00     0.052 C 
HETATM    7  C2  UNL     1      -1.652   3.285  10.899  1.00  0.00     0.034 C 
HETATM    8  C1  UNL     1      -1.263   1.829  11.036  1.00  0.00     0.034 C 
HETATM    9  C3  UNL     1      -3.164   3.321  10.757  1.00  0.00     0.034 C 
HETATM   10  N4  UNL     1      -1.103   3.783   9.668  1.00  0.00    -0.182 NA
HETATM   11  C14 UNL     1       0.093   4.564   9.846  1.00  0.00     0.034 C 
HETATM   12  C13 UNL     1      -0.313   5.839  10.547  1.00  0.00     0.052 C 
HETATM   13  C15 UNL     1       1.212   3.889  10.550  1.00  0.00     0.034 C 
HETATM   14  C16 UNL     1       0.577   4.923   8.438  1.00  0.00     0.034 C 
BRANCH  10  15
HETATM   15  O3  UNL     1      -0.922   2.776   8.795  1.00  0.00    -0.312 OA
ATOM     16  H3  UNL     1      -1.432   2.925   8.008  1.00  0.00     0.237 HD
ENDBRANCH  10  15
ENDBRANCH   3   5
ENDBRANCH   1   3
BRANCH   1  17
HETATM   17  N2  UNL     1      -4.119   5.691  13.348  1.00  0.00    -0.332 N 
ATOM     18  H2  UNL     1      -4.841   5.992  12.694  1.00  0.00     0.168 HD
BRANCH  17  19
HETATM   19  C7  UNL     1      -4.526   4.680  14.207  1.00  0.00     0.056 A 
HETATM   20  C8  UNL     1      -3.688   3.763  14.758  1.00  0.00     0.033 A 
HETATM   21  C9  UNL     1      -4.139   2.753  15.626  1.00  0.00     0.027 A 
HETATM   22  C10 UNL     1      -5.452   2.652  15.952  1.00  0.00     0.081 A 
HETATM   23  C11 UNL     1      -6.316   3.556  15.414  1.00  0.00     0.051 A 
HETATM   24  C12 UNL     1      -5.885   4.548  14.566  1.00  0.00     0.062 A 
HETATM   25 CL1  UNL     1      -7.025   5.703  13.888  1.00  0.00    -0.082 Cl
BRANCH  22  26
HETATM   26  S2  UNL     1      -5.967   1.375  17.037  1.00  0.00     0.256 S 
HETATM   27  O1  UNL     1      -4.871   0.358  17.191  1.00  0.00    -0.201 OA
HETATM   28  O2  UNL     1      -7.249   0.762  16.565  1.00  0.00    -0.201 OA
BRANCH  26  29
HETATM   29  N3  UNL     1      -6.303   2.104  18.588  1.00  0.00    -0.324 N 
ATOM     30  H32 UNL     1      -6.501   3.092  18.747  1.00  0.00     0.169 HD
ATOM     31  H31 UNL     1      -6.263   1.366  19.290  1.00  0.00     0.169 HD
ENDBRANCH  26  29
ENDBRANCH  22  26
ENDBRANCH  17  19
ENDBRANCH   1  17
TORSDOF 7
ENDMDL
