MODEL 3
REMARK VINA RESULT: -7.499949717      2.418      3.230
REMARK  7 active torsions:
REMARK  status: ('A' for Active; 'I' for Inactive)
REMARK    1  A    between atoms: C5_5  and  N1_6 
REMARK    2  A    between atoms: N1_6  and  C6_8 
REMARK    3  A    between atoms: C6_8  and  N2_10 
REMARK    4  A    between atoms: N2_10  and  C7_12 
REMARK    5  A    between atoms: C10_15  and  S2_16 
REMARK    6  A    between atoms: S2_16  and  N3_17 
REMARK    7  A    between atoms: N4_29  and  O3_30 
ROOT
HETATM    1  C6  UNL     1      -4.078   5.132  11.763  1.00  0.00     0.172 C 
HETATM    2  S1  UNL     1      -3.880   3.743  10.951  1.00  0.00    -0.041 SA
ENDROOT
BRANCH   1   3
HETATM    3  N1  UNL     1      -4.296   6.365  11.014  1.00  0.00    -0.362 N 
ATOM      4  H1  UNL     1      -3.497   6.914  10.700  1.00  0.00     0.162 HD
BRANCH   3   5
HETATM    5  C5  UNL     1      -5.644   6.818  10.712  1.00  0.00     0.087 C 
HETATM    6  C4  UNL     1      -5.809   8.216  11.216  1.00  0.00     0.052 C 
HETATM    7  C2  UNL     1      -5.474   9.288  10.237  1.00  0.00     0.034 C 
HETATM    8  C1  UNL     1      -6.292  10.543  10.449  1.00  0.00     0.034 C 
HETATM    9  C3  UNL     1      -4.021   9.673  10.457  1.00  0.00     0.034 C 
HETATM   10  N4  UNL     1      -5.601   8.895   8.861  1.00  0.00    -0.182 NA
HETATM   11  C14 UNL     1      -6.525   7.811   8.656  1.00  0.00     0.034 C 
HETATM   12  C13 UNL     1      -5.907   6.581   9.278  1.00  0.00     0.052 C 
HETATM   13  C15 UNL     1      -7.908   8.032   9.147  1.00  0.00     0.034 C 
HETATM   14  C16 UNL     1      -6.598   7.598   7.140  1.00  0.00     0.034 C 
BRANCH  10  15
HETATM   15  O3  UNL     1      -5.896   9.961   8.096  1.00  0.00    -0.312 OA
ATOM     16  H3  UNL     1      -6.634   9.767   7.531  1.00  0.00     0.237 HD
ENDBRANCH  10  15
ENDBRANCH   3   5
ENDBRANCH   1   3
BRANCH   1  17
HETATM   17  N2  UNL     1      -4.045   5.160  13.160  1.00  0.00    -0.332 N 
ATOM     18  H2  UNL     1      -3.577   5.981  13.544  1.00  0.00     0.168 HD
BRANCH  17  19
HETATM   19  C7  UNL     1      -4.527   4.287  14.125  1.00  0.00     0.056 A 
HETATM   20  C8  UNL     1      -3.790   3.298  14.695  1.00  0.00     0.033 A 
HETATM   21  C9  UNL     1      -4.313   2.432  15.672  1.00  0.00     0.027 A 
HETATM   22  C10 UNL     1      -5.598   2.552  16.089  1.00  0.00     0.081 A 
HETATM   23  C11 UNL     1      -6.362   3.534  15.535  1.00  0.00     0.051 A 
HETATM   24  C12 UNL     1      -5.858   4.386  14.581  1.00  0.00     0.062 A 
HETATM   25 CL1  UNL     1      -6.870   5.644  13.884  1.00  0.00    -0.082 Cl
BRANCH  22  26
HETATM   26  S2  UNL     1      -6.206   1.450  17.309  1.00  0.00     0.256 S 
HETATM   27  O1  UNL     1      -5.238   0.317  17.507  1.00  0.00    -0.201 OA
HETATM   28  O2  UNL     1      -7.578   0.968  16.953  1.00  0.00    -0.201 OA
BRANCH  26  29
HETATM   29  N3  UNL     1      -6.362   2.345  18.800  1.00  0.00    -0.324 N 
ATOM     30  H32 UNL     1      -6.177   3.342  18.913  1.00  0.00     0.169 HD
ATOM     31  H31 UNL     1      -6.667   1.692  19.521  1.00  0.00     0.169 HD
ENDBRANCH  26  29
ENDBRANCH  22  26
ENDBRANCH  17  19
ENDBRANCH   1  17
TORSDOF 7
ENDMDL
