MODEL 1
REMARK VINA RESULT: -7.847729782      0.000      0.000
REMARK  7 active torsions:
REMARK  status: ('A' for Active; 'I' for Inactive)
REMARK    1  A    between atoms: C5_5  and  N1_6 
REMARK    2  A    between atoms: N1_6  and  C6_8 
REMARK    3  A    between atoms: C6_8  and  N2_10 
REMARK    4  A    between atoms: N2_10  and  C7_12 
REMARK    5  A    between atoms: C10_15  and  S2_16 
REMARK    6  A    between atoms: S2_16  and  N3_17 
REMARK    7  A    between atoms: N4_29  and  O3_30 
ROOT
HETATM    1  C6  UNL     1      -3.512   4.698   9.797  1.00  0.00     0.172 C 
HETATM    2  S1  UNL     1      -1.962   5.015  10.150  1.00  0.00    -0.041 SA
ENDROOT
BRANCH   1   3
HETATM    3  N1  UNL     1      -4.255   5.636   8.962  1.00  0.00    -0.362 N 
ATOM      4  H1  UNL     1      -4.604   5.336   8.052  1.00  0.00     0.162 HD
BRANCH   3   5
HETATM    5  C5  UNL     1      -4.501   6.994   9.415  1.00  0.00     0.087 C 
HETATM    6  C4  UNL     1      -5.049   7.793   8.275  1.00  0.00     0.052 C 
HETATM    7  C2  UNL     1      -6.535   7.804   8.164  1.00  0.00     0.034 C 
HETATM    8  C1  UNL     1      -7.062   9.089   7.567  1.00  0.00     0.034 C 
HETATM    9  C3  UNL     1      -6.932   6.687   7.214  1.00  0.00     0.034 C 
HETATM   10  N4  UNL     1      -7.224   7.566   9.402  1.00  0.00    -0.182 NA
HETATM   11  C14 UNL     1      -6.454   7.919  10.565  1.00  0.00     0.034 C 
HETATM   12  C13 UNL     1      -5.309   6.937  10.650  1.00  0.00     0.052 C 
HETATM   13  C15 UNL     1      -5.973   9.321  10.627  1.00  0.00     0.034 C 
HETATM   14  C16 UNL     1      -7.374   7.689  11.768  1.00  0.00     0.034 C 
BRANCH  10  15
HETATM   15  O3  UNL     1      -8.426   8.170   9.391  1.00  0.00    -0.312 OA
ATOM     16  H3  UNL     1      -8.324   9.109   9.494  1.00  0.00     0.237 HD
ENDBRANCH  10  15
ENDBRANCH   3   5
ENDBRANCH   1   3
BRANCH   1  17
HETATM   17  N2  UNL     1      -4.138   3.544  10.279  1.00  0.00    -0.332 N 
ATOM     18  H2  UNL     1      -4.603   2.997   9.555  1.00  0.00     0.168 HD
BRANCH  17  19
HETATM   19  C7  UNL     1      -4.248   3.001  11.551  1.00  0.00     0.056 A 
HETATM   20  C8  UNL     1      -4.543   3.721  12.665  1.00  0.00     0.033 A 
HETATM   21  C9  UNL     1      -4.647   3.134  13.938  1.00  0.00     0.027 A 
HETATM   22  C10 UNL     1      -4.454   1.802  14.107  1.00  0.00     0.081 A 
HETATM   23  C11 UNL     1      -4.157   1.055  13.008  1.00  0.00     0.051 A 
HETATM   24  C12 UNL     1      -4.054   1.619  11.759  1.00  0.00     0.062 A 
HETATM   25 CL1  UNL     1      -3.669   0.627  10.359  1.00  0.00    -0.082 Cl
BRANCH  22  26
HETATM   26  S2  UNL     1      -4.594   1.115  15.713  1.00  0.00     0.256 S 
HETATM   27  O1  UNL     1      -3.382   1.467  16.531  1.00  0.00    -0.201 OA
HETATM   28  O2  UNL     1      -4.821  -0.363  15.641  1.00  0.00    -0.201 OA
BRANCH  26  29
HETATM   29  N3  UNL     1      -6.014   1.804  16.460  1.00  0.00    -0.324 N 
ATOM     30  H32 UNL     1      -6.914   1.947  16.000  1.00  0.00     0.169 HD
ATOM     31  H31 UNL     1      -5.776   2.030  17.425  1.00  0.00     0.169 HD
ENDBRANCH  26  29
ENDBRANCH  22  26
ENDBRANCH  17  19
ENDBRANCH   1  17
TORSDOF 7
ENDMDL
