MODEL 9
REMARK VINA RESULT: -7.206403704      4.835      5.893
REMARK  7 active torsions:
REMARK  status: ('A' for Active; 'I' for Inactive)
REMARK    1  A    between atoms: C5_5  and  N1_6 
REMARK    2  A    between atoms: N1_6  and  C6_8 
REMARK    3  A    between atoms: C6_8  and  N2_10 
REMARK    4  A    between atoms: N2_10  and  C7_12 
REMARK    5  A    between atoms: C10_15  and  S2_16 
REMARK    6  A    between atoms: S2_16  and  N3_17 
REMARK    7  A    between atoms: N4_29  and  O3_30 
ROOT
HETATM    1  C6  UNL     1      -2.724   5.327  12.713  1.00  0.00     0.172 C 
HETATM    2  S1  UNL     1      -2.419   4.495  11.356  1.00  0.00    -0.041 SA
ENDROOT
BRANCH   1   3
HETATM    3  N1  UNL     1      -1.685   6.192  13.263  1.00  0.00    -0.362 N 
ATOM      4  H1  UNL     1      -1.254   5.959  14.157  1.00  0.00     0.162 HD
BRANCH   3   5
HETATM    5  C5  UNL     1      -1.259   7.383  12.546  1.00  0.00     0.087 C 
HETATM    6  C4  UNL     1      -2.013   8.561  13.076  1.00  0.00     0.052 C 
HETATM    7  C2  UNL     1      -1.356   9.281  14.203  1.00  0.00     0.034 C 
HETATM    8  C1  UNL     1      -1.685  10.757  14.218  1.00  0.00     0.034 C 
HETATM    9  C3  UNL     1      -1.898   8.700  15.497  1.00  0.00     0.034 C 
HETATM   10  N4  UNL     1       0.073   9.139  14.244  1.00  0.00    -0.182 NA
HETATM   11  C14 UNL     1       0.659   8.844  12.963  1.00  0.00     0.034 C 
HETATM   12  C13 UNL     1       0.216   7.450  12.585  1.00  0.00     0.052 C 
HETATM   13  C15 UNL     1       0.376   9.817  11.879  1.00  0.00     0.034 C 
HETATM   14  C16 UNL     1       2.175   8.822  13.185  1.00  0.00     0.034 C 
BRANCH  10  15
HETATM   15  O3  UNL     1       0.634  10.217  14.819  1.00  0.00    -0.312 OA
ATOM     16  H3  UNL     1       1.577  10.196  14.710  1.00  0.00     0.237 HD
ENDBRANCH  10  15
ENDBRANCH   3   5
ENDBRANCH   1   3
BRANCH   1  17
HETATM   17  N2  UNL     1      -3.961   5.227  13.355  1.00  0.00    -0.332 N 
ATOM     18  H2  UNL     1      -4.623   5.957  13.089  1.00  0.00     0.168 HD
BRANCH  17  19
HETATM   19  C7  UNL     1      -4.463   4.328  14.285  1.00  0.00     0.056 A 
HETATM   20  C8  UNL     1      -3.721   3.368  14.896  1.00  0.00     0.033 A 
HETATM   21  C9  UNL     1      -4.266   2.474  15.835  1.00  0.00     0.027 A 
HETATM   22  C10 UNL     1      -5.578   2.537  16.172  1.00  0.00     0.081 A 
HETATM   23  C11 UNL     1      -6.348   3.488  15.576  1.00  0.00     0.051 A 
HETATM   24  C12 UNL     1      -5.824   4.367  14.658  1.00  0.00     0.062 A 
HETATM   25 CL1  UNL     1      -6.844   5.586  13.905  1.00  0.00    -0.082 Cl
BRANCH  22  26
HETATM   26  S2  UNL     1      -6.213   1.401  17.347  1.00  0.00     0.256 S 
HETATM   27  O1  UNL     1      -5.272   0.239  17.500  1.00  0.00    -0.201 OA
HETATM   28  O2  UNL     1      -7.596   0.967  16.973  1.00  0.00    -0.201 OA
BRANCH  26  29
HETATM   29  N3  UNL     1      -6.347   2.240  18.873  1.00  0.00    -0.324 N 
ATOM     30  H32 UNL     1      -6.422   3.251  18.988  1.00  0.00     0.169 HD
ATOM     31  H31 UNL     1      -6.337   1.538  19.612  1.00  0.00     0.169 HD
ENDBRANCH  26  29
ENDBRANCH  22  26
ENDBRANCH  17  19
ENDBRANCH   1  17
TORSDOF 7
ENDMDL
