MODEL 9
REMARK VINA RESULT: -8.488063843      3.884      6.109
REMARK  11 active torsions:
REMARK  status: ('A' for Active; 'I' for Inactive)
REMARK    1  A    between atoms: C2_2  and  C3_3 
REMARK    2  A    between atoms: C3_3  and  C4_4 
REMARK    3  A    between atoms: C4_4  and  C5_5 
REMARK    4  A    between atoms: C5_5  and  C6_6 
REMARK    5  A    between atoms: C6_6  and  C7_7 
REMARK    6  A    between atoms: C7_7  and  O1_8 
REMARK    7  A    between atoms: O1_8  and  C8_9 
REMARK    8  A    between atoms: N1_13  and  C12_14 
REMARK    9  A    between atoms: C12_14  and  C13_15 
REMARK   10  A    between atoms: C13_15  and  P1_16 
REMARK   11  A    between atoms: C13_15  and  P2_20 
ROOT
HETATM    1  C8  UNL     1      29.940 -14.224  10.433  1.00  0.00     0.084 A 
HETATM    2  C9  UNL     1      28.617 -14.440  10.102  1.00  0.00     0.039 A 
HETATM    3  C10 UNL     1      28.123 -13.877   8.941  1.00  0.00     0.020 A 
HETATM    4  C11 UNL     1      28.986 -13.125   8.173  1.00  0.00     0.090 A 
HETATM    5  N1  UNL     1      30.265 -12.902   8.471  1.00  0.00    -0.362 N 
HETATM    6  C14 UNL     1      30.740 -13.458   9.611  1.00  0.00     0.127 A 
ENDROOT
BRANCH   5   7
HETATM    7  C12 UNL     1      31.106 -12.129   7.643  1.00  0.00     0.160 C 
BRANCH   7   8
HETATM    8  C13 UNL     1      30.759 -12.166   6.139  1.00  0.00     0.263 C 
BRANCH   8   9
HETATM    9  P1  UNL     1      30.771 -10.672   5.292  1.00  0.00     0.279 P 
HETATM   10  O2  UNL     1      29.398 -10.099   4.557  1.00  0.00    -0.639 OA
HETATM   11  O3  UNL     1      32.243  -9.856   5.034  1.00  0.00    -0.639 OA
HETATM   12  O4  UNL     1      30.527  -9.743   6.487  1.00  0.00    -0.639 OA
ENDBRANCH   8   9
BRANCH   8  13
HETATM   13  P2  UNL     1      31.653 -13.474   5.435  1.00  0.00     0.279 P 
HETATM   14  O5  UNL     1      33.231 -13.695   5.813  1.00  0.00    -0.639 OA
HETATM   15  O6  UNL     1      32.030 -12.871   4.065  1.00  0.00    -0.639 OA
HETATM   16  O7  UNL     1      30.820 -14.655   4.512  1.00  0.00    -0.639 OA
ENDBRANCH   8  13
ENDBRANCH   7   8
ENDBRANCH   5   7
BRANCH   1  17
HETATM   17  O1  UNL     1      30.405 -14.799  11.599  1.00  0.00    -0.350 OA
BRANCH  17  18
HETATM   18  C7  UNL     1      29.570 -15.134  12.691  1.00  0.00     0.175 C 
BRANCH  18  19
HETATM   19  C6  UNL     1      29.785 -16.541  13.163  1.00  0.00     0.027 C 
BRANCH  19  20
HETATM   20  C5  UNL     1      29.075 -17.556  12.298  1.00  0.00     0.002 C 
BRANCH  20  21
HETATM   21  C4  UNL     1      28.683 -18.796  13.038  1.00  0.00     0.000 C 
BRANCH  21  22
HETATM   22  C3  UNL     1      29.376 -18.807  14.387  1.00  0.00    -0.000 C 
BRANCH  22  23
HETATM   23  C2  UNL     1      29.281 -20.201  14.987  1.00  0.00    -0.005 C 
HETATM   24  C1  UNL     1      28.605 -21.134  14.001  1.00  0.00     0.005 C 
ENDBRANCH  22  23
ENDBRANCH  21  22
ENDBRANCH  20  21
ENDBRANCH  19  20
ENDBRANCH  18  19
ENDBRANCH  17  18
ENDBRANCH   1  17
TORSDOF 11
ENDMDL
