MODEL 5
REMARK VINA RESULT: -8.698058387      0.857      2.682
REMARK  11 active torsions:
REMARK  status: ('A' for Active; 'I' for Inactive)
REMARK    1  A    between atoms: C2_2  and  C3_3 
REMARK    2  A    between atoms: C3_3  and  C4_4 
REMARK    3  A    between atoms: C4_4  and  C5_5 
REMARK    4  A    between atoms: C5_5  and  C6_6 
REMARK    5  A    between atoms: C6_6  and  C7_7 
REMARK    6  A    between atoms: C7_7  and  O1_8 
REMARK    7  A    between atoms: O1_8  and  C8_9 
REMARK    8  A    between atoms: N1_13  and  C12_14 
REMARK    9  A    between atoms: C12_14  and  C13_15 
REMARK   10  A    between atoms: C13_15  and  P1_16 
REMARK   11  A    between atoms: C13_15  and  P2_20 
ROOT
HETATM    1  C8  UNL     1      29.167 -17.799  13.091  1.00  0.00     0.084 A 
HETATM    2  C9  UNL     1      29.915 -16.817  13.709  1.00  0.00     0.039 A 
HETATM    3  C10 UNL     1      29.957 -15.558  13.140  1.00  0.00     0.020 A 
HETATM    4  C11 UNL     1      29.244 -15.353  11.979  1.00  0.00     0.090 A 
HETATM    5  N1  UNL     1      28.516 -16.284  11.364  1.00  0.00    -0.362 N 
HETATM    6  C14 UNL     1      28.480 -17.514  11.929  1.00  0.00     0.127 A 
ENDROOT
BRANCH   5   7
HETATM    7  C12 UNL     1      27.799 -16.015  10.179  1.00  0.00     0.160 C 
BRANCH   7   8
HETATM    8  C13 UNL     1      27.399 -14.538   9.974  1.00  0.00     0.263 C 
BRANCH   8   9
HETATM    9  P1  UNL     1      27.507 -13.908   8.381  1.00  0.00     0.279 P 
HETATM   10  O2  UNL     1      28.613 -12.729   8.005  1.00  0.00    -0.639 OA
HETATM   11  O3  UNL     1      26.349 -14.350   7.214  1.00  0.00    -0.639 OA
HETATM   12  O4  UNL     1      28.434 -14.976   7.787  1.00  0.00    -0.639 OA
ENDBRANCH   8   9
BRANCH   8  13
HETATM   13  P2  UNL     1      25.906 -14.285  10.818  1.00  0.00     0.279 P 
HETATM   14  O5  UNL     1      24.572 -13.792  10.007  1.00  0.00    -0.639 OA
HETATM   15  O6  UNL     1      26.125 -12.867  11.387  1.00  0.00    -0.639 OA
HETATM   16  O7  UNL     1      25.783 -14.758  12.462  1.00  0.00    -0.639 OA
ENDBRANCH   8  13
ENDBRANCH   7   8
ENDBRANCH   5   7
BRANCH   1  17
HETATM   17  O1  UNL     1      29.144 -19.047  13.682  1.00  0.00    -0.350 OA
BRANCH  17  18
HETATM   18  C7  UNL     1      29.311 -19.255  15.072  1.00  0.00     0.175 C 
BRANCH  18  19
HETATM   19  C6  UNL     1      29.398 -20.709  15.425  1.00  0.00     0.027 C 
BRANCH  19  20
HETATM   20  C5  UNL     1      28.665 -21.589  14.440  1.00  0.00     0.002 C 
BRANCH  20  21
HETATM   21  C4  UNL     1      28.155 -22.859  15.045  1.00  0.00     0.000 C 
BRANCH  21  22
HETATM   22  C3  UNL     1      29.310 -23.829  15.208  1.00  0.00    -0.000 C 
BRANCH  22  23
HETATM   23  C2  UNL     1      29.536 -24.093  16.688  1.00  0.00    -0.005 C 
HETATM   24  C1  UNL     1      31.019 -24.011  16.998  1.00  0.00     0.005 C 
ENDBRANCH  22  23
ENDBRANCH  21  22
ENDBRANCH  20  21
ENDBRANCH  19  20
ENDBRANCH  18  19
ENDBRANCH  17  18
ENDBRANCH   1  17
TORSDOF 11
ENDMDL
