MODEL 1
REMARK VINA RESULT: -9.081650029      0.000      0.000
REMARK  11 active torsions:
REMARK  status: ('A' for Active; 'I' for Inactive)
REMARK    1  A    between atoms: C2_2  and  C3_3 
REMARK    2  A    between atoms: C3_3  and  C4_4 
REMARK    3  A    between atoms: C4_4  and  C5_5 
REMARK    4  A    between atoms: C5_5  and  C6_6 
REMARK    5  A    between atoms: C6_6  and  C7_7 
REMARK    6  A    between atoms: C7_7  and  O1_8 
REMARK    7  A    between atoms: O1_8  and  C8_9 
REMARK    8  A    between atoms: N1_13  and  C12_14 
REMARK    9  A    between atoms: C12_14  and  C13_15 
REMARK   10  A    between atoms: C13_15  and  P1_16 
REMARK   11  A    between atoms: C13_15  and  P2_20 
ROOT
HETATM    1  C8  UNL     1      28.704 -18.066  12.886  1.00  0.00     0.084 A 
HETATM    2  C9  UNL     1      29.291 -17.491  13.995  1.00  0.00     0.039 A 
HETATM    3  C10 UNL     1      29.676 -16.165  13.931  1.00  0.00     0.020 A 
HETATM    4  C11 UNL     1      29.452 -15.487  12.753  1.00  0.00     0.090 A 
HETATM    5  N1  UNL     1      28.889 -16.019  11.669  1.00  0.00    -0.362 N 
HETATM    6  C14 UNL     1      28.514 -17.319  11.742  1.00  0.00     0.127 A 
ENDROOT
BRANCH   5   7
HETATM    7  C12 UNL     1      28.676 -15.274  10.490  1.00  0.00     0.160 C 
BRANCH   7   8
HETATM    8  C13 UNL     1      27.197 -14.989  10.152  1.00  0.00     0.263 C 
BRANCH   8   9
HETATM    9  P1  UNL     1      26.248 -14.220  11.359  1.00  0.00     0.279 P 
HETATM   10  O2  UNL     1      25.817 -12.624  11.215  1.00  0.00    -0.639 OA
HETATM   11  O3  UNL     1      25.903 -15.036  12.813  1.00  0.00    -0.639 OA
HETATM   12  O4  UNL     1      24.865 -14.646  10.853  1.00  0.00    -0.639 OA
ENDBRANCH   8   9
BRANCH   8  13
HETATM   13  P2  UNL     1      27.154 -14.298   8.563  1.00  0.00     0.279 P 
HETATM   14  O5  UNL     1      26.033 -14.793   7.477  1.00  0.00    -0.639 OA
HETATM   15  O6  UNL     1      28.252 -15.119   7.853  1.00  0.00    -0.639 OA
HETATM   16  O7  UNL     1      28.151 -12.948   8.209  1.00  0.00    -0.639 OA
ENDBRANCH   8  13
ENDBRANCH   7   8
ENDBRANCH   5   7
BRANCH   1  17
HETATM   17  O1  UNL     1      28.329 -19.391  12.980  1.00  0.00    -0.350 OA
BRANCH  17  18
HETATM   18  C7  UNL     1      28.839 -20.279  13.957  1.00  0.00     0.175 C 
BRANCH  18  19
HETATM   19  C6  UNL     1      28.292 -21.667  13.809  1.00  0.00     0.027 C 
BRANCH  19  20
HETATM   20  C5  UNL     1      28.452 -22.488  15.066  1.00  0.00     0.002 C 
BRANCH  20  21
HETATM   21  C4  UNL     1      29.012 -21.711  16.215  1.00  0.00     0.000 C 
BRANCH  21  22
HETATM   22  C3  UNL     1      30.294 -22.372  16.683  1.00  0.00    -0.000 C 
BRANCH  22  23
HETATM   23  C2  UNL     1      30.086 -23.876  16.752  1.00  0.00    -0.005 C 
HETATM   24  C1  UNL     1      31.280 -24.525  17.427  1.00  0.00     0.005 C 
ENDBRANCH  22  23
ENDBRANCH  21  22
ENDBRANCH  20  21
ENDBRANCH  19  20
ENDBRANCH  18  19
ENDBRANCH  17  18
ENDBRANCH   1  17
TORSDOF 11
ENDMDL
