MODEL 8
REMARK VINA RESULT: -8.517641604      4.081      6.317
REMARK  11 active torsions:
REMARK  status: ('A' for Active; 'I' for Inactive)
REMARK    1  A    between atoms: C2_2  and  C3_3 
REMARK    2  A    between atoms: C3_3  and  C4_4 
REMARK    3  A    between atoms: C4_4  and  C5_5 
REMARK    4  A    between atoms: C5_5  and  C6_6 
REMARK    5  A    between atoms: C6_6  and  C7_7 
REMARK    6  A    between atoms: C7_7  and  O1_8 
REMARK    7  A    between atoms: O1_8  and  C8_9 
REMARK    8  A    between atoms: N1_13  and  C12_14 
REMARK    9  A    between atoms: C12_14  and  C13_15 
REMARK   10  A    between atoms: C13_15  and  P1_16 
REMARK   11  A    between atoms: C13_15  and  P2_20 
ROOT
HETATM    1  C8  UNL     1      30.038 -14.150  10.294  1.00  0.00     0.084 A 
HETATM    2  C9  UNL     1      28.817 -14.529   9.774  1.00  0.00     0.039 A 
HETATM    3  C10 UNL     1      28.525 -14.206   8.462  1.00  0.00     0.020 A 
HETATM    4  C11 UNL     1      29.476 -13.518   7.742  1.00  0.00     0.090 A 
HETATM    5  N1  UNL     1      30.661 -13.141   8.221  1.00  0.00    -0.362 N 
HETATM    6  C14 UNL     1      30.938 -13.462   9.507  1.00  0.00     0.127 A 
ENDROOT
BRANCH   5   7
HETATM    7  C12 UNL     1      31.601 -12.443   7.434  1.00  0.00     0.160 C 
BRANCH   7   8
HETATM    8  C13 UNL     1      31.222 -12.281   5.947  1.00  0.00     0.263 C 
BRANCH   8   9
HETATM    9  P1  UNL     1      30.884 -10.693   5.389  1.00  0.00     0.279 P 
HETATM   10  O2  UNL     1      30.543  -9.470   6.458  1.00  0.00    -0.639 OA
HETATM   11  O3  UNL     1      30.704 -10.400   3.722  1.00  0.00    -0.639 OA
HETATM   12  O4  UNL     1      32.328 -10.193   5.268  1.00  0.00    -0.639 OA
ENDBRANCH   8   9
BRANCH   8  13
HETATM   13  P2  UNL     1      32.352 -13.213   5.020  1.00  0.00     0.279 P 
HETATM   14  O5  UNL     1      32.151 -13.388   3.405  1.00  0.00    -0.639 OA
HETATM   15  O6  UNL     1      31.835 -14.645   5.274  1.00  0.00    -0.639 OA
HETATM   16  O7  UNL     1      33.793 -13.767   5.769  1.00  0.00    -0.639 OA
ENDBRANCH   8  13
ENDBRANCH   7   8
ENDBRANCH   5   7
BRANCH   1  17
HETATM   17  O1  UNL     1      30.302 -14.486  11.607  1.00  0.00    -0.350 OA
BRANCH  17  18
HETATM   18  C7  UNL     1      29.335 -15.039  12.480  1.00  0.00     0.175 C 
BRANCH  18  19
HETATM   19  C6  UNL     1      29.740 -16.385  13.001  1.00  0.00     0.027 C 
BRANCH  19  20
HETATM   20  C5  UNL     1      29.184 -17.517  12.170  1.00  0.00     0.002 C 
BRANCH  20  21
HETATM   21  C4  UNL     1      28.744 -18.691  12.987  1.00  0.00     0.000 C 
BRANCH  21  22
HETATM   22  C3  UNL     1      29.350 -18.586  14.374  1.00  0.00    -0.000 C 
BRANCH  22  23
HETATM   23  C2  UNL     1      29.366 -19.962  15.018  1.00  0.00    -0.005 C 
HETATM   24  C1  UNL     1      28.657 -20.955  14.117  1.00  0.00     0.005 C 
ENDBRANCH  22  23
ENDBRANCH  21  22
ENDBRANCH  20  21
ENDBRANCH  19  20
ENDBRANCH  18  19
ENDBRANCH  17  18
ENDBRANCH   1  17
TORSDOF 11
ENDMDL
