MODEL 14
REMARK VINA RESULT: -8.266724927      1.372      2.986
REMARK  11 active torsions:
REMARK  status: ('A' for Active; 'I' for Inactive)
REMARK    1  A    between atoms: C2_2  and  C3_3 
REMARK    2  A    between atoms: C3_3  and  C4_4 
REMARK    3  A    between atoms: C4_4  and  C5_5 
REMARK    4  A    between atoms: C5_5  and  C6_6 
REMARK    5  A    between atoms: C6_6  and  C7_7 
REMARK    6  A    between atoms: C7_7  and  O1_8 
REMARK    7  A    between atoms: O1_8  and  C8_9 
REMARK    8  A    between atoms: N1_13  and  C12_14 
REMARK    9  A    between atoms: C12_14  and  C13_15 
REMARK   10  A    between atoms: C13_15  and  P1_16 
REMARK   11  A    between atoms: C13_15  and  P2_20 
ROOT
HETATM    1  C8  UNL     1      29.064 -16.499  13.218  1.00  0.00     0.084 A 
HETATM    2  C9  UNL     1      30.011 -15.505  13.081  1.00  0.00     0.039 A 
HETATM    3  C10 UNL     1      29.672 -14.354  12.394  1.00  0.00     0.020 A 
HETATM    4  C11 UNL     1      28.397 -14.265  11.881  1.00  0.00     0.090 A 
HETATM    5  N1  UNL     1      27.466 -15.209  11.998  1.00  0.00    -0.362 N 
HETATM    6  C14 UNL     1      27.807 -16.333  12.674  1.00  0.00     0.127 A 
ENDROOT
BRANCH   5   7
HETATM    7  C12 UNL     1      26.171 -15.061  11.458  1.00  0.00     0.160 C 
BRANCH   7   8
HETATM    8  C13 UNL     1      26.036 -13.975  10.369  1.00  0.00     0.263 C 
BRANCH   8   9
HETATM    9  P1  UNL     1      26.458 -14.414   8.763  1.00  0.00     0.279 P 
HETATM   10  O2  UNL     1      25.337 -15.082   7.740  1.00  0.00    -0.639 OA
HETATM   11  O3  UNL     1      28.085 -14.344   8.267  1.00  0.00    -0.639 OA
HETATM   12  O4  UNL     1      26.254 -13.045   8.103  1.00  0.00    -0.639 OA
ENDBRANCH   8   9
BRANCH   8  13
HETATM   13  P2  UNL     1      24.498 -13.207  10.593  1.00  0.00     0.279 P 
HETATM   14  O5  UNL     1      24.395 -11.781  11.391  1.00  0.00    -0.639 OA
HETATM   15  O6  UNL     1      23.961 -13.972  11.822  1.00  0.00    -0.639 OA
HETATM   16  O7  UNL     1      23.121 -13.841   9.791  1.00  0.00    -0.639 OA
ENDBRANCH   8  13
ENDBRANCH   7   8
ENDBRANCH   5   7
BRANCH   1  17
HETATM   17  O1  UNL     1      29.431 -17.637  13.908  1.00  0.00    -0.350 OA
BRANCH  17  18
HETATM   18  C7  UNL     1      28.903 -18.921  13.635  1.00  0.00     0.175 C 
BRANCH  18  19
HETATM   19  C6  UNL     1      29.284 -19.929  14.676  1.00  0.00     0.027 C 
BRANCH  19  20
HETATM   20  C5  UNL     1      28.825 -21.325  14.325  1.00  0.00     0.002 C 
BRANCH  20  21
HETATM   21  C4  UNL     1      28.471 -22.151  15.522  1.00  0.00     0.000 C 
BRANCH  21  22
HETATM   22  C3  UNL     1      29.731 -22.442  16.314  1.00  0.00    -0.000 C 
BRANCH  22  23
HETATM   23  C2  UNL     1      29.838 -23.939  16.553  1.00  0.00    -0.005 C 
HETATM   24  C1  UNL     1      31.174 -24.257  17.197  1.00  0.00     0.005 C 
ENDBRANCH  22  23
ENDBRANCH  21  22
ENDBRANCH  20  21
ENDBRANCH  19  20
ENDBRANCH  18  19
ENDBRANCH  17  18
ENDBRANCH   1  17
TORSDOF 11
ENDMDL
