MODEL 2
REMARK VINA RESULT: -9.019334130      1.410      2.141
REMARK  11 active torsions:
REMARK  status: ('A' for Active; 'I' for Inactive)
REMARK    1  A    between atoms: C2_2  and  C3_3 
REMARK    2  A    between atoms: C3_3  and  C4_4 
REMARK    3  A    between atoms: C4_4  and  C5_5 
REMARK    4  A    between atoms: C5_5  and  C6_6 
REMARK    5  A    between atoms: C6_6  and  C7_7 
REMARK    6  A    between atoms: C7_7  and  O1_8 
REMARK    7  A    between atoms: O1_8  and  C8_9 
REMARK    8  A    between atoms: N1_13  and  C12_14 
REMARK    9  A    between atoms: C12_14  and  C13_15 
REMARK   10  A    between atoms: C13_15  and  P1_16 
REMARK   11  A    between atoms: C13_15  and  P2_20 
ROOT
HETATM    1  C8  UNL     1      28.392 -16.563  12.614  1.00  0.00     0.084 A 
HETATM    2  C9  UNL     1      29.539 -16.104  13.229  1.00  0.00     0.039 A 
HETATM    3  C10 UNL     1      30.022 -14.855  12.887  1.00  0.00     0.020 A 
HETATM    4  C11 UNL     1      29.325 -14.133  11.943  1.00  0.00     0.090 A 
HETATM    5  N1  UNL     1      28.217 -14.554  11.335  1.00  0.00    -0.362 N 
HETATM    6  C14 UNL     1      27.751 -15.779  11.678  1.00  0.00     0.127 A 
ENDROOT
BRANCH   5   7
HETATM    7  C12 UNL     1      27.538 -13.768  10.380  1.00  0.00     0.160 C 
BRANCH   7   8
HETATM    8  C13 UNL     1      26.149 -14.297   9.962  1.00  0.00     0.263 C 
BRANCH   8   9
HETATM    9  P1  UNL     1      24.775 -13.500  10.614  1.00  0.00     0.279 P 
HETATM   10  O2  UNL     1      23.240 -13.986  10.214  1.00  0.00    -0.639 OA
HETATM   11  O3  UNL     1      24.975 -12.078  11.528  1.00  0.00    -0.639 OA
HETATM   12  O4  UNL     1      24.683 -14.273  11.935  1.00  0.00    -0.639 OA
ENDBRANCH   8   9
BRANCH   8  13
HETATM   13  P2  UNL     1      26.180 -14.529   8.245  1.00  0.00     0.279 P 
HETATM   14  O5  UNL     1      27.568 -14.303   7.405  1.00  0.00    -0.639 OA
HETATM   15  O6  UNL     1      25.622 -13.177   7.753  1.00  0.00    -0.639 OA
HETATM   16  O7  UNL     1      24.809 -15.203   7.467  1.00  0.00    -0.639 OA
ENDBRANCH   8  13
ENDBRANCH   7   8
ENDBRANCH   5   7
BRANCH   1  17
HETATM   17  O1  UNL     1      27.934 -17.815  12.976  1.00  0.00    -0.350 OA
BRANCH  17  18
HETATM   18  C7  UNL     1      28.762 -18.961  13.038  1.00  0.00     0.175 C 
BRANCH  18  19
HETATM   19  C6  UNL     1      29.231 -19.251  14.432  1.00  0.00     0.027 C 
BRANCH  19  20
HETATM   20  C5  UNL     1      28.992 -20.687  14.835  1.00  0.00     0.002 C 
BRANCH  20  21
HETATM   21  C4  UNL     1      29.661 -21.061  16.120  1.00  0.00     0.000 C 
BRANCH  21  22
HETATM   22  C3  UNL     1      29.483 -22.549  16.357  1.00  0.00    -0.000 C 
BRANCH  22  23
HETATM   23  C2  UNL     1      29.265 -23.246  15.024  1.00  0.00    -0.005 C 
HETATM   24  C1  UNL     1      28.864 -24.689  15.265  1.00  0.00     0.005 C 
ENDBRANCH  22  23
ENDBRANCH  21  22
ENDBRANCH  20  21
ENDBRANCH  19  20
ENDBRANCH  18  19
ENDBRANCH  17  18
ENDBRANCH   1  17
TORSDOF 11
ENDMDL
