MODEL 4
REMARK VINA RESULT: -8.912686304      1.500      2.179
REMARK  11 active torsions:
REMARK  status: ('A' for Active; 'I' for Inactive)
REMARK    1  A    between atoms: C2_2  and  C3_3 
REMARK    2  A    between atoms: C3_3  and  C4_4 
REMARK    3  A    between atoms: C4_4  and  C5_5 
REMARK    4  A    between atoms: C5_5  and  C6_6 
REMARK    5  A    between atoms: C6_6  and  C7_7 
REMARK    6  A    between atoms: C7_7  and  O1_8 
REMARK    7  A    between atoms: O1_8  and  C8_9 
REMARK    8  A    between atoms: N1_13  and  C12_14 
REMARK    9  A    between atoms: C12_14  and  C13_15 
REMARK   10  A    between atoms: C13_15  and  P1_16 
REMARK   11  A    between atoms: C13_15  and  P2_20 
ROOT
HETATM    1  C8  UNL     1      28.394 -16.510  12.689  1.00  0.00     0.084 A 
HETATM    2  C9  UNL     1      29.693 -16.142  12.976  1.00  0.00     0.039 A 
HETATM    3  C10 UNL     1      30.126 -14.885  12.596  1.00  0.00     0.020 A 
HETATM    4  C11 UNL     1      29.229 -14.066  11.946  1.00  0.00     0.090 A 
HETATM    5  N1  UNL     1      27.972 -14.398  11.657  1.00  0.00    -0.362 N 
HETATM    6  C14 UNL     1      27.557 -15.631  12.035  1.00  0.00     0.127 A 
ENDROOT
BRANCH   5   7
HETATM    7  C12 UNL     1      27.094 -13.514  10.996  1.00  0.00     0.160 C 
BRANCH   7   8
HETATM    8  C13 UNL     1      25.893 -14.185  10.296  1.00  0.00     0.263 C 
BRANCH   8   9
HETATM    9  P1  UNL     1      24.322 -13.672  10.765  1.00  0.00     0.279 P 
HETATM   10  O2  UNL     1      23.708 -14.066  12.255  1.00  0.00    -0.639 OA
HETATM   11  O3  UNL     1      23.303 -12.916   9.630  1.00  0.00    -0.639 OA
HETATM   12  O4  UNL     1      24.694 -12.277  11.280  1.00  0.00    -0.639 OA
ENDBRANCH   8   9
BRANCH   8  13
HETATM   13  P2  UNL     1      26.234 -14.213   8.597  1.00  0.00     0.279 P 
HETATM   14  O5  UNL     1      25.214 -14.968   7.561  1.00  0.00    -0.639 OA
HETATM   15  O6  UNL     1      27.237 -15.382   8.515  1.00  0.00    -0.639 OA
HETATM   16  O7  UNL     1      27.526 -13.264   7.987  1.00  0.00    -0.639 OA
ENDBRANCH   8  13
ENDBRANCH   7   8
ENDBRANCH   5   7
BRANCH   1  17
HETATM   17  O1  UNL     1      27.990 -17.771  13.081  1.00  0.00    -0.350 OA
BRANCH  17  18
HETATM   18  C7  UNL     1      28.872 -18.872  13.198  1.00  0.00     0.175 C 
BRANCH  18  19
HETATM   19  C6  UNL     1      29.258 -19.145  14.620  1.00  0.00     0.027 C 
BRANCH  19  20
HETATM   20  C5  UNL     1      29.223 -20.618  14.956  1.00  0.00     0.002 C 
BRANCH  20  21
HETATM   21  C4  UNL     1      28.503 -21.441  13.936  1.00  0.00     0.000 C 
BRANCH  21  22
HETATM   22  C3  UNL     1      28.052 -22.741  14.575  1.00  0.00    -0.000 C 
BRANCH  22  23
HETATM   23  C2  UNL     1      29.200 -23.737  14.546  1.00  0.00    -0.005 C 
HETATM   24  C1  UNL     1      29.471 -24.241  15.951  1.00  0.00     0.005 C 
ENDBRANCH  22  23
ENDBRANCH  21  22
ENDBRANCH  20  21
ENDBRANCH  19  20
ENDBRANCH  18  19
ENDBRANCH  17  18
ENDBRANCH   1  17
TORSDOF 11
ENDMDL
