MODEL 10
REMARK VINA RESULT: -8.447234447      4.155      6.150
REMARK  11 active torsions:
REMARK  status: ('A' for Active; 'I' for Inactive)
REMARK    1  A    between atoms: C2_2  and  C3_3 
REMARK    2  A    between atoms: C3_3  and  C4_4 
REMARK    3  A    between atoms: C4_4  and  C5_5 
REMARK    4  A    between atoms: C5_5  and  C6_6 
REMARK    5  A    between atoms: C6_6  and  C7_7 
REMARK    6  A    between atoms: C7_7  and  O1_8 
REMARK    7  A    between atoms: O1_8  and  C8_9 
REMARK    8  A    between atoms: N1_13  and  C12_14 
REMARK    9  A    between atoms: C12_14  and  C13_15 
REMARK   10  A    between atoms: C13_15  and  P1_16 
REMARK   11  A    between atoms: C13_15  and  P2_20 
ROOT
HETATM    1  C8  UNL     1      30.079 -14.399   9.962  1.00  0.00     0.084 A 
HETATM    2  C9  UNL     1      30.183 -13.351  10.854  1.00  0.00     0.039 A 
HETATM    3  C10 UNL     1      30.258 -12.062  10.360  1.00  0.00     0.020 A 
HETATM    4  C11 UNL     1      30.224 -11.896   8.993  1.00  0.00     0.090 A 
HETATM    5  N1  UNL     1      30.124 -12.889   8.111  1.00  0.00    -0.362 N 
HETATM    6  C14 UNL     1      30.051 -14.149   8.606  1.00  0.00     0.127 A 
ENDROOT
BRANCH   5   7
HETATM    7  C12 UNL     1      30.087 -12.659   6.720  1.00  0.00     0.160 C 
BRANCH   7   8
HETATM    8  C13 UNL     1      31.308 -11.911   6.145  1.00  0.00     0.263 C 
BRANCH   8   9
HETATM    9  P1  UNL     1      32.603 -12.865   5.543  1.00  0.00     0.279 P 
HETATM   10  O2  UNL     1      34.018 -12.159   5.040  1.00  0.00    -0.639 OA
HETATM   11  O3  UNL     1      32.376 -14.531   5.276  1.00  0.00    -0.639 OA
HETATM   12  O4  UNL     1      33.252 -13.223   6.886  1.00  0.00    -0.639 OA
ENDBRANCH   8   9
BRANCH   8  13
HETATM   13  P2  UNL     1      30.707 -10.660   5.107  1.00  0.00     0.279 P 
HETATM   14  O5  UNL     1      30.578 -10.915   3.495  1.00  0.00    -0.639 OA
HETATM   15  O6  UNL     1      31.977  -9.807   4.905  1.00  0.00    -0.639 OA
HETATM   16  O7  UNL     1      30.049  -9.238   5.805  1.00  0.00    -0.639 OA
ENDBRANCH   8  13
ENDBRANCH   7   8
ENDBRANCH   5   7
BRANCH   1  17
HETATM   17  O1  UNL     1      30.006 -15.674  10.485  1.00  0.00    -0.350 OA
BRANCH  17  18
HETATM   18  C7  UNL     1      29.359 -15.981  11.705  1.00  0.00     0.175 C 
BRANCH  18  19
HETATM   19  C6  UNL     1      29.759 -17.323  12.242  1.00  0.00     0.027 C 
BRANCH  19  20
HETATM   20  C5  UNL     1      28.743 -17.886  13.208  1.00  0.00     0.002 C 
BRANCH  20  21
HETATM   21  C4  UNL     1      29.305 -18.933  14.116  1.00  0.00     0.000 C 
BRANCH  21  22
HETATM   22  C3  UNL     1      28.742 -20.285  13.724  1.00  0.00    -0.000 C 
BRANCH  22  23
HETATM   23  C2  UNL     1      28.887 -21.246  14.892  1.00  0.00    -0.005 C 
HETATM   24  C1  UNL     1      29.649 -20.570  16.015  1.00  0.00     0.005 C 
ENDBRANCH  22  23
ENDBRANCH  21  22
ENDBRANCH  20  21
ENDBRANCH  19  20
ENDBRANCH  18  19
ENDBRANCH  17  18
ENDBRANCH   1  17
TORSDOF 11
ENDMDL
