MODEL 4
REMARK VINA RESULT: -9.604872293      2.495      3.785
REMARK  7 active torsions:
REMARK  status: ('A' for Active; 'I' for Inactive)
REMARK    1  A    between atoms: C2_2  and  C4_4 
REMARK    2  A    between atoms: C4_4  and  C5_5 
REMARK    3  A    between atoms: C5_5  and  N1_6 
REMARK    4  A    between atoms: C5_5  and  C18_23 
REMARK    5  A    between atoms: N1_6  and  S1_8 
REMARK    6  A    between atoms: S1_8  and  C6_11 
REMARK    7  A    between atoms: C9_14  and  C10_15 
ROOT
HETATM    1  S1  UNL     1      -0.887  -5.465  -5.395  1.00  0.00     0.259 S 
HETATM    2  O1  UNL     1      -0.033  -4.551  -6.264  1.00  0.00    -0.201 OA
HETATM    3  O2  UNL     1      -0.048  -6.698  -5.174  1.00  0.00    -0.201 OA
ENDROOT
BRANCH   1   4
HETATM    4  N1  UNL     1      -1.218  -4.666  -3.913  1.00  0.00    -0.300 N 
ATOM      5  H1  UNL     1      -1.538  -5.108  -3.052  1.00  0.00     0.173 HD
BRANCH   4   6
HETATM    6  C5  UNL     1      -0.958  -3.229  -4.108  1.00  0.00     0.194 C 
BRANCH   6   7
HETATM    7  C4  UNL     1      -0.188  -2.689  -2.946  1.00  0.00     0.040 C 
BRANCH   7   8
HETATM    8  C2  UNL     1       0.610  -1.487  -3.351  1.00  0.00    -0.020 C 
HETATM    9  C1  UNL     1       2.054  -1.624  -2.875  1.00  0.00     0.009 C 
HETATM   10  C3  UNL     1       0.018  -0.214  -2.738  1.00  0.00     0.009 C 
ENDBRANCH   7   8
ENDBRANCH   6   7
BRANCH   6  11
HETATM   11  C18 UNL     1      -2.215  -2.540  -4.422  1.00  0.00     0.197 C 
HETATM   12  O3  UNL     1      -3.307  -3.038  -3.967  1.00  0.00    -0.646 OA
HETATM   13  O4  UNL     1      -2.364  -1.392  -5.169  1.00  0.00    -0.646 OA
ENDBRANCH   6  11
ENDBRANCH   4   6
ENDBRANCH   1   4
BRANCH   1  14
HETATM   14  C6  UNL     1      -2.371  -5.850  -6.237  1.00  0.00     0.079 A 
HETATM   15  C7  UNL     1      -3.611  -5.870  -5.635  1.00  0.00     0.026 A 
HETATM   16  C8  UNL     1      -4.751  -6.189  -6.344  1.00  0.00     0.014 A 
HETATM   17  C9  UNL     1      -4.728  -6.503  -7.685  1.00  0.00    -0.026 A 
HETATM   18  C16 UNL     1      -3.495  -6.488  -8.305  1.00  0.00     0.014 A 
HETATM   19  C17 UNL     1      -2.355  -6.171  -7.600  1.00  0.00     0.026 A 
BRANCH  17  20
HETATM   20  C10 UNL     1      -5.950  -6.838  -8.420  1.00  0.00    -0.026 A 
HETATM   21  C11 UNL     1      -7.089  -7.131  -7.700  1.00  0.00     0.012 A 
HETATM   22  C12 UNL     1      -8.245  -7.448  -8.356  1.00  0.00     0.001 A 
HETATM   23  C13 UNL     1      -8.261  -7.471  -9.718  1.00  0.00     0.000 A 
HETATM   24  C14 UNL     1      -7.152  -7.187 -10.473  1.00  0.00     0.001 A 
HETATM   25  C15 UNL     1      -5.981  -6.867  -9.788  1.00  0.00     0.012 A 
ENDBRANCH  17  20
ENDBRANCH   1  14
TORSDOF 7
ENDMDL
