MODEL 16
REMARK VINA RESULT: -8.938983589      2.283      3.492
REMARK  7 active torsions:
REMARK  status: ('A' for Active; 'I' for Inactive)
REMARK    1  A    between atoms: C2_2  and  C4_4 
REMARK    2  A    between atoms: C4_4  and  C5_5 
REMARK    3  A    between atoms: C5_5  and  N1_6 
REMARK    4  A    between atoms: C5_5  and  C18_23 
REMARK    5  A    between atoms: N1_6  and  S1_8 
REMARK    6  A    between atoms: S1_8  and  C6_11 
REMARK    7  A    between atoms: C9_14  and  C10_15 
ROOT
HETATM    1  S1  UNL     1      -1.104  -5.363  -5.226  1.00  0.00     0.259 S 
HETATM    2  O1  UNL     1      -0.388  -4.217  -5.927  1.00  0.00    -0.201 OA
HETATM    3  O2  UNL     1      -0.115  -6.501  -5.218  1.00  0.00    -0.201 OA
ENDROOT
BRANCH   1   4
HETATM    4  N1  UNL     1      -1.500  -4.874  -3.630  1.00  0.00    -0.300 N 
ATOM      5  H1  UNL     1      -1.890  -5.468  -2.899  1.00  0.00     0.173 HD
BRANCH   4   6
HETATM    6  C5  UNL     1      -1.178  -3.441  -3.504  1.00  0.00     0.194 C 
BRANCH   6   7
HETATM    7  C4  UNL     1      -0.783  -3.130  -2.097  1.00  0.00     0.040 C 
BRANCH   7   8
HETATM    8  C2  UNL     1      -1.407  -4.103  -1.143  1.00  0.00    -0.020 C 
HETATM    9  C1  UNL     1      -2.587  -3.457  -0.421  1.00  0.00     0.009 C 
HETATM   10  C3  UNL     1      -0.389  -4.558  -0.093  1.00  0.00     0.009 C 
ENDBRANCH   7   8
ENDBRANCH   6   7
BRANCH   6  11
HETATM   11  C18 UNL     1      -2.277  -2.640  -4.057  1.00  0.00     0.197 C 
HETATM   12  O3  UNL     1      -3.478  -3.051  -3.868  1.00  0.00    -0.646 OA
HETATM   13  O4  UNL     1      -2.167  -1.469  -4.772  1.00  0.00    -0.646 OA
ENDBRANCH   6  11
ENDBRANCH   4   6
ENDBRANCH   1   4
BRANCH   1  14
HETATM   14  C6  UNL     1      -2.546  -5.783  -6.122  1.00  0.00     0.079 A 
HETATM   15  C7  UNL     1      -3.809  -5.814  -5.571  1.00  0.00     0.026 A 
HETATM   16  C8  UNL     1      -4.915  -6.160  -6.321  1.00  0.00     0.014 A 
HETATM   17  C9  UNL     1      -4.831  -6.493  -7.656  1.00  0.00    -0.026 A 
HETATM   18  C16 UNL     1      -3.574  -6.467  -8.224  1.00  0.00     0.014 A 
HETATM   19  C17 UNL     1      -2.469  -6.122  -7.479  1.00  0.00     0.026 A 
BRANCH  17  20
HETATM   20  C10 UNL     1      -6.017  -6.858  -8.434  1.00  0.00    -0.026 A 
HETATM   21  C11 UNL     1      -7.174  -7.183  -7.756  1.00  0.00     0.012 A 
HETATM   22  C12 UNL     1      -8.297  -7.527  -8.455  1.00  0.00     0.001 A 
HETATM   23  C13 UNL     1      -8.263  -7.547  -9.816  1.00  0.00     0.000 A 
HETATM   24  C14 UNL     1      -7.136  -7.231 -10.530  1.00  0.00     0.001 A 
HETATM   25  C15 UNL     1      -5.999  -6.882  -9.802  1.00  0.00     0.012 A 
ENDBRANCH  17  20
ENDBRANCH   1  14
TORSDOF 7
ENDMDL
