MODEL 3
REMARK VINA RESULT: -9.632866530      0.938      1.723
REMARK  7 active torsions:
REMARK  status: ('A' for Active; 'I' for Inactive)
REMARK    1  A    between atoms: C2_2  and  C4_4 
REMARK    2  A    between atoms: C4_4  and  C5_5 
REMARK    3  A    between atoms: C5_5  and  N1_6 
REMARK    4  A    between atoms: C5_5  and  C18_23 
REMARK    5  A    between atoms: N1_6  and  S1_8 
REMARK    6  A    between atoms: S1_8  and  C6_11 
REMARK    7  A    between atoms: C9_14  and  C10_15 
ROOT
HETATM    1  S1  UNL     1      -3.343  -5.941  -8.090  1.00  0.00     0.259 S 
HETATM    2  O1  UNL     1      -3.053  -4.679  -8.892  1.00  0.00    -0.201 OA
HETATM    3  O2  UNL     1      -2.299  -6.936  -8.526  1.00  0.00    -0.201 OA
ENDROOT
BRANCH   1   4
HETATM    4  N1  UNL     1      -3.196  -5.579  -6.420  1.00  0.00    -0.300 N 
ATOM      5  H1  UNL     1      -3.865  -5.051  -5.859  1.00  0.00     0.173 HD
BRANCH   4   6
HETATM    6  C5  UNL     1      -1.933  -6.165  -5.940  1.00  0.00     0.194 C 
BRANCH   6   7
HETATM    7  C4  UNL     1      -2.171  -6.921  -4.672  1.00  0.00     0.040 C 
BRANCH   7   8
HETATM    8  C2  UNL     1      -0.961  -7.720  -4.296  1.00  0.00    -0.020 C 
HETATM    9  C1  UNL     1      -1.320  -9.198  -4.164  1.00  0.00     0.009 C 
HETATM   10  C3  UNL     1      -0.393  -7.240  -2.956  1.00  0.00     0.009 C 
ENDBRANCH   7   8
ENDBRANCH   6   7
BRANCH   6  11
HETATM   11  C18 UNL     1      -0.898  -5.126  -5.884  1.00  0.00     0.197 C 
HETATM   12  O3  UNL     1       0.002  -5.121  -6.799  1.00  0.00    -0.646 OA
HETATM   13  O4  UNL     1      -0.776  -4.132  -4.940  1.00  0.00    -0.646 OA
ENDBRANCH   6  11
ENDBRANCH   4   6
ENDBRANCH   1   4
BRANCH   1  14
HETATM   14  C6  UNL     1      -4.955  -6.509  -8.462  1.00  0.00     0.079 A 
HETATM   15  C7  UNL     1      -5.946  -6.675  -7.519  1.00  0.00     0.026 A 
HETATM   16  C8  UNL     1      -7.201  -7.135  -7.863  1.00  0.00     0.014 A 
HETATM   17  C9  UNL     1      -7.543  -7.453  -9.159  1.00  0.00    -0.026 A 
HETATM   18  C16 UNL     1      -6.564  -7.293 -10.118  1.00  0.00     0.014 A 
HETATM   19  C17 UNL     1      -5.311  -6.835  -9.776  1.00  0.00     0.026 A 
BRANCH  17  20
HETATM   20  C10 UNL     1      -8.881  -7.940  -9.505  1.00  0.00    -0.026 A 
HETATM   21  C11 UNL     1      -9.196  -8.102 -10.839  1.00  0.00     0.012 A 
HETATM   22  C12 UNL     1     -10.436  -8.555 -11.193  1.00  0.00     0.001 A 
HETATM   23  C13 UNL     1     -11.350  -8.841 -10.226  1.00  0.00     0.000 A 
HETATM   24  C14 UNL     1     -11.080  -8.694  -8.889  1.00  0.00     0.001 A 
HETATM   25  C15 UNL     1      -9.811  -8.231  -8.544  1.00  0.00     0.012 A 
ENDBRANCH  17  20
ENDBRANCH   1  14
TORSDOF 7
ENDMDL
