MODEL 6
REMARK VINA RESULT: -9.363786538      2.421      3.866
REMARK  7 active torsions:
REMARK  status: ('A' for Active; 'I' for Inactive)
REMARK    1  A    between atoms: C2_2  and  C4_4 
REMARK    2  A    between atoms: C4_4  and  C5_5 
REMARK    3  A    between atoms: C5_5  and  N1_6 
REMARK    4  A    between atoms: C5_5  and  C18_23 
REMARK    5  A    between atoms: N1_6  and  S1_8 
REMARK    6  A    between atoms: S1_8  and  C6_11 
REMARK    7  A    between atoms: C9_14  and  C10_15 
ROOT
HETATM    1  S1  UNL     1      -0.828  -5.554  -5.462  1.00  0.00     0.259 S 
HETATM    2  O1  UNL     1       0.104  -4.754  -6.361  1.00  0.00    -0.201 OA
HETATM    3  O2  UNL     1      -0.060  -6.800  -5.104  1.00  0.00    -0.201 OA
ENDROOT
BRANCH   1   4
HETATM    4  N1  UNL     1      -1.183  -4.621  -4.066  1.00  0.00    -0.300 N 
ATOM      5  H1  UNL     1      -1.591  -4.969  -3.199  1.00  0.00     0.173 HD
BRANCH   4   6
HETATM    6  C5  UNL     1      -0.792  -3.228  -4.343  1.00  0.00     0.194 C 
BRANCH   6   7
HETATM    7  C4  UNL     1       0.201  -2.765  -3.326  1.00  0.00     0.040 C 
BRANCH   7   8
HETATM    8  C2  UNL     1      -0.494  -2.212  -2.119  1.00  0.00    -0.020 C 
HETATM    9  C1  UNL     1       0.073  -0.840  -1.763  1.00  0.00     0.009 C 
HETATM   10  C3  UNL     1      -0.304  -3.140  -0.914  1.00  0.00     0.009 C 
ENDBRANCH   7   8
ENDBRANCH   6   7
BRANCH   6  11
HETATM   11  C18 UNL     1      -1.995  -2.399  -4.489  1.00  0.00     0.197 C 
HETATM   12  O3  UNL     1      -3.126  -2.916  -4.169  1.00  0.00    -0.646 OA
HETATM   13  O4  UNL     1      -2.054  -1.101  -4.943  1.00  0.00    -0.646 OA
ENDBRANCH   6  11
ENDBRANCH   4   6
ENDBRANCH   1   4
BRANCH   1  14
HETATM   14  C6  UNL     1      -2.292  -5.940  -6.337  1.00  0.00     0.079 A 
HETATM   15  C7  UNL     1      -2.320  -6.285  -7.671  1.00  0.00     0.026 A 
HETATM   16  C8  UNL     1      -3.504  -6.574  -8.317  1.00  0.00     0.014 A 
HETATM   17  C9  UNL     1      -4.725  -6.538  -7.679  1.00  0.00    -0.026 A 
HETATM   18  C16 UNL     1      -4.717  -6.194  -6.343  1.00  0.00     0.014 A 
HETATM   19  C17 UNL     1      -3.536  -5.906  -5.695  1.00  0.00     0.026 A 
BRANCH  17  20
HETATM   20  C10 UNL     1      -5.972  -6.848  -8.383  1.00  0.00    -0.026 A 
HETATM   21  C11 UNL     1      -5.964  -6.849  -9.762  1.00  0.00     0.012 A 
HETATM   22  C12 UNL     1      -7.112  -7.134 -10.448  1.00  0.00     0.001 A 
HETATM   23  C13 UNL     1      -8.254  -7.415  -9.761  1.00  0.00     0.000 A 
HETATM   24  C14 UNL     1      -8.306  -7.425  -8.390  1.00  0.00     0.001 A 
HETATM   25  C15 UNL     1      -7.127  -7.131  -7.707  1.00  0.00     0.012 A 
ENDBRANCH  17  20
ENDBRANCH   1  14
TORSDOF 7
ENDMDL
