MODEL 9
REMARK VINA RESULT: -9.314159643      2.174      3.207
REMARK  7 active torsions:
REMARK  status: ('A' for Active; 'I' for Inactive)
REMARK    1  A    between atoms: C2_2  and  C4_4 
REMARK    2  A    between atoms: C4_4  and  C5_5 
REMARK    3  A    between atoms: C5_5  and  N1_6 
REMARK    4  A    between atoms: C5_5  and  C18_23 
REMARK    5  A    between atoms: N1_6  and  S1_8 
REMARK    6  A    between atoms: S1_8  and  C6_11 
REMARK    7  A    between atoms: C9_14  and  C10_15 
ROOT
HETATM    1  S1  UNL     1      -1.490  -5.144  -5.770  1.00  0.00     0.259 S 
HETATM    2  O1  UNL     1      -0.437  -4.640  -6.748  1.00  0.00    -0.201 OA
HETATM    3  O2  UNL     1      -0.827  -6.270  -5.020  1.00  0.00    -0.201 OA
ENDROOT
BRANCH   1   4
HETATM    4  N1  UNL     1      -1.919  -3.863  -4.713  1.00  0.00    -0.300 N 
ATOM      5  H1  UNL     1      -2.847  -3.686  -4.330  1.00  0.00     0.173 HD
BRANCH   4   6
HETATM    6  C5  UNL     1      -0.708  -3.063  -4.457  1.00  0.00     0.194 C 
BRANCH   6   7
HETATM    7  C4  UNL     1      -0.061  -3.511  -3.187  1.00  0.00     0.040 C 
BRANCH   7   8
HETATM    8  C2  UNL     1      -1.092  -3.798  -2.139  1.00  0.00    -0.020 C 
HETATM    9  C1  UNL     1      -0.985  -2.791  -0.997  1.00  0.00     0.009 C 
HETATM   10  C3  UNL     1      -0.898  -5.205  -1.561  1.00  0.00     0.009 C 
ENDBRANCH   7   8
ENDBRANCH   6   7
BRANCH   6  11
HETATM   11  C18 UNL     1      -1.034  -1.635  -4.544  1.00  0.00     0.197 C 
HETATM   12  O3  UNL     1      -2.238  -1.308  -4.850  1.00  0.00    -0.646 OA
HETATM   13  O4  UNL     1      -0.179  -0.577  -4.331  1.00  0.00    -0.646 OA
ENDBRANCH   6  11
ENDBRANCH   4   6
ENDBRANCH   1   4
BRANCH   1  14
HETATM   14  C6  UNL     1      -2.887  -5.709  -6.659  1.00  0.00     0.079 A 
HETATM   15  C7  UNL     1      -2.861  -6.045  -7.995  1.00  0.00     0.026 A 
HETATM   16  C8  UNL     1      -3.995  -6.478  -8.652  1.00  0.00     0.014 A 
HETATM   17  C9  UNL     1      -5.214  -6.604  -8.022  1.00  0.00    -0.026 A 
HETATM   18  C16 UNL     1      -5.259  -6.272  -6.683  1.00  0.00     0.014 A 
HETATM   19  C17 UNL     1      -4.129  -5.840  -6.026  1.00  0.00     0.026 A 
BRANCH  17  20
HETATM   20  C10 UNL     1      -6.406  -7.066  -8.737  1.00  0.00    -0.026 A 
HETATM   21  C11 UNL     1      -7.533  -7.376  -8.003  1.00  0.00     0.012 A 
HETATM   22  C12 UNL     1      -8.661  -7.809  -8.641  1.00  0.00     0.001 A 
HETATM   23  C13 UNL     1      -8.662  -7.932  -9.997  1.00  0.00     0.000 A 
HETATM   24  C14 UNL     1      -7.565  -7.635 -10.765  1.00  0.00     0.001 A 
HETATM   25  C15 UNL     1      -6.423  -7.195 -10.099  1.00  0.00     0.012 A 
ENDBRANCH  17  20
ENDBRANCH   1  14
TORSDOF 7
ENDMDL
