MODEL 13
REMARK VINA RESULT: -9.095405371      3.327      8.761
REMARK  7 active torsions:
REMARK  status: ('A' for Active; 'I' for Inactive)
REMARK    1  A    between atoms: C2_2  and  C4_4 
REMARK    2  A    between atoms: C4_4  and  C5_5 
REMARK    3  A    between atoms: C5_5  and  N1_6 
REMARK    4  A    between atoms: C5_5  and  C18_23 
REMARK    5  A    between atoms: N1_6  and  S1_8 
REMARK    6  A    between atoms: S1_8  and  C6_11 
REMARK    7  A    between atoms: C9_14  and  C10_15 
ROOT
HETATM    1  S1  UNL     1      -7.015  -7.226  -8.874  1.00  0.00     0.259 S 
HETATM    2  O1  UNL     1      -6.753  -8.642  -9.367  1.00  0.00    -0.201 OA
HETATM    3  O2  UNL     1      -7.262  -6.413 -10.118  1.00  0.00    -0.201 OA
ENDROOT
BRANCH   1   4
HETATM    4  N1  UNL     1      -8.399  -7.243  -7.859  1.00  0.00    -0.300 N 
ATOM      5  H1  UNL     1      -8.554  -6.647  -7.046  1.00  0.00     0.173 HD
BRANCH   4   6
HETATM    6  C5  UNL     1      -9.322  -8.271  -8.371  1.00  0.00     0.194 C 
BRANCH   6   7
HETATM    7  C4  UNL     1     -10.256  -7.665  -9.369  1.00  0.00     0.040 C 
BRANCH   7   8
HETATM    8  C2  UNL     1     -10.625  -8.664 -10.423  1.00  0.00    -0.020 C 
HETATM    9  C1  UNL     1      -9.720  -8.507 -11.642  1.00  0.00     0.009 C 
HETATM   10  C3  UNL     1     -12.077  -8.464 -10.871  1.00  0.00     0.009 C 
ENDBRANCH   7   8
ENDBRANCH   6   7
BRANCH   6  11
HETATM   11  C18 UNL     1      -9.950  -8.972  -7.245  1.00  0.00     0.197 C 
HETATM   12  O3  UNL     1      -9.453  -8.800  -6.074  1.00  0.00    -0.646 OA
HETATM   13  O4  UNL     1     -11.037  -9.815  -7.300  1.00  0.00    -0.646 OA
ENDBRANCH   6  11
ENDBRANCH   4   6
ENDBRANCH   1   4
BRANCH   1  14
HETATM   14  C6  UNL     1      -5.615  -6.643  -8.003  1.00  0.00     0.079 A 
HETATM   15  C7  UNL     1      -4.374  -6.469  -8.575  1.00  0.00     0.026 A 
HETATM   16  C8  UNL     1      -3.298  -6.013  -7.841  1.00  0.00     0.014 A 
HETATM   17  C9  UNL     1      -3.392  -5.704  -6.501  1.00  0.00    -0.026 A 
HETATM   18  C16 UNL     1      -4.628  -5.872  -5.911  1.00  0.00     0.014 A 
HETATM   19  C17 UNL     1      -5.703  -6.326  -6.641  1.00  0.00     0.026 A 
BRANCH  17  20
HETATM   20  C10 UNL     1      -2.239  -5.221  -5.739  1.00  0.00    -0.026 A 
HETATM   21  C11 UNL     1      -1.135  -6.041  -5.628  1.00  0.00     0.012 A 
HETATM   22  C12 UNL     1      -0.043  -5.619  -4.923  1.00  0.00     0.001 A 
HETATM   23  C13 UNL     1      -0.054  -4.391  -4.336  1.00  0.00     0.000 A 
HETATM   24  C14 UNL     1      -1.130  -3.543  -4.420  1.00  0.00     0.001 A 
HETATM   25  C15 UNL     1      -2.236  -3.989  -5.142  1.00  0.00     0.012 A 
ENDBRANCH  17  20
ENDBRANCH   1  14
TORSDOF 7
ENDMDL
