MODEL 7
REMARK VINA RESULT: -7.278422690      0.886      1.552
REMARK  5 active torsions:
REMARK  status: ('A' for Active; 'I' for Inactive)
REMARK    1  A    between atoms: O1_2  and  C2_3 
REMARK    2  A    between atoms: C5_6  and  S1_7 
REMARK    3  A    between atoms: S1_7  and  N1_10 
REMARK    4  A    between atoms: N1_10  and  C6_12 
REMARK    5  A    between atoms: C6_12  and  C8_14 
ROOT
HETATM    1  S1  UNL     1      -1.279  -5.673  -5.936  1.00  0.00     0.259 S 
HETATM    2  O2  UNL     1      -0.882  -6.991  -5.330  1.00  0.00    -0.201 OA
HETATM    3  O3  UNL     1      -0.088  -5.182  -6.716  1.00  0.00    -0.201 OA
ENDROOT
BRANCH   1   4
HETATM    4  C5  UNL     1      -2.557  -5.985  -7.067  1.00  0.00     0.079 A 
HETATM    5  C4  UNL     1      -2.363  -6.084  -8.428  1.00  0.00     0.028 A 
HETATM    6  C3  UNL     1      -3.458  -6.338  -9.259  1.00  0.00     0.038 A 
HETATM    7  C2  UNL     1      -4.723  -6.490  -8.766  1.00  0.00     0.068 A 
HETATM    8  C10 UNL     1      -4.912  -6.389  -7.408  1.00  0.00     0.038 A 
HETATM    9  C9  UNL     1      -3.835  -6.139  -6.567  1.00  0.00     0.028 A 
BRANCH   7  10
HETATM   10  O1  UNL     1      -5.802  -6.739  -9.581  1.00  0.00    -0.356 OA
HETATM   11  C1  UNL     1      -6.744  -7.757  -9.354  1.00  0.00     0.210 C 
ENDBRANCH   7  10
ENDBRANCH   1   4
BRANCH   1  12
HETATM   12  N1  UNL     1      -1.716  -4.596  -4.686  1.00  0.00    -0.301 N 
ATOM     13  H1  UNL     1      -2.472  -4.793  -4.030  1.00  0.00     0.173 HD
BRANCH  12  14
HETATM   14  C6  UNL     1      -0.943  -3.401  -4.632  1.00  0.00     0.190 C 
HETATM   15  C7  UNL     1       0.166  -3.499  -3.574  1.00  0.00     0.044 C 
BRANCH  14  16
HETATM   16  C8  UNL     1      -1.740  -2.182  -4.419  1.00  0.00     0.196 C 
HETATM   17  O4  UNL     1      -2.100  -1.508  -5.415  1.00  0.00    -0.646 OA
HETATM   18  O5  UNL     1      -2.118  -1.734  -3.164  1.00  0.00    -0.646 OA
ENDBRANCH  14  16
ENDBRANCH  12  14
ENDBRANCH   1  12
TORSDOF 5
ENDMDL
