MODEL 8
REMARK VINA RESULT: -7.275957253      1.043      1.181
REMARK  5 active torsions:
REMARK  status: ('A' for Active; 'I' for Inactive)
REMARK    1  A    between atoms: O1_2  and  C2_3 
REMARK    2  A    between atoms: C5_6  and  S1_7 
REMARK    3  A    between atoms: S1_7  and  N1_10 
REMARK    4  A    between atoms: N1_10  and  C6_12 
REMARK    5  A    between atoms: C6_12  and  C8_14 
ROOT
HETATM    1  S1  UNL     1      -1.401  -5.376  -6.039  1.00  0.00     0.259 S 
HETATM    2  O2  UNL     1      -0.947  -6.609  -5.307  1.00  0.00    -0.201 OA
HETATM    3  O3  UNL     1      -0.285  -4.994  -6.974  1.00  0.00    -0.201 OA
ENDROOT
BRANCH   1   4
HETATM    4  C5  UNL     1      -2.771  -5.821  -7.008  1.00  0.00     0.079 A 
HETATM    5  C4  UNL     1      -4.023  -6.069  -6.489  1.00  0.00     0.028 A 
HETATM    6  C3  UNL     1      -5.064  -6.422  -7.352  1.00  0.00     0.038 A 
HETATM    7  C2  UNL     1      -4.882  -6.533  -8.702  1.00  0.00     0.068 A 
HETATM    8  C10 UNL     1      -3.630  -6.286  -9.214  1.00  0.00     0.038 A 
HETATM    9  C9  UNL     1      -2.584  -5.932  -8.371  1.00  0.00     0.028 A 
BRANCH   7  10
HETATM   10  O1  UNL     1      -5.903  -6.881  -9.553  1.00  0.00    -0.356 OA
HETATM   11  C1  UNL     1      -6.999  -7.681  -9.186  1.00  0.00     0.210 C 
ENDBRANCH   7  10
ENDBRANCH   1   4
BRANCH   1  12
HETATM   12  N1  UNL     1      -1.736  -4.146  -4.903  1.00  0.00    -0.301 N 
ATOM     13  H1  UNL     1      -2.629  -4.076  -4.415  1.00  0.00     0.173 HD
BRANCH  12  14
HETATM   14  C6  UNL     1      -0.669  -3.227  -4.690  1.00  0.00     0.190 C 
HETATM   15  C7  UNL     1       0.031  -3.483  -3.347  1.00  0.00     0.044 C 
BRANCH  14  16
HETATM   16  C8  UNL     1      -1.069  -1.814  -4.792  1.00  0.00     0.196 C 
HETATM   17  O4  UNL     1      -2.192  -1.532  -5.277  1.00  0.00    -0.646 OA
HETATM   18  O5  UNL     1      -0.263  -0.766  -4.376  1.00  0.00    -0.646 OA
ENDBRANCH  14  16
ENDBRANCH  12  14
ENDBRANCH   1  12
TORSDOF 5
ENDMDL
