MODEL 6
REMARK VINA RESULT: -7.345409087      4.276      7.863
REMARK  5 active torsions:
REMARK  status: ('A' for Active; 'I' for Inactive)
REMARK    1  A    between atoms: O1_2  and  C2_3 
REMARK    2  A    between atoms: C5_6  and  S1_7 
REMARK    3  A    between atoms: S1_7  and  N1_10 
REMARK    4  A    between atoms: N1_10  and  C6_12 
REMARK    5  A    between atoms: C6_12  and  C8_14 
ROOT
HETATM    1  S1  UNL     1      -7.046  -7.748  -9.546  1.00  0.00     0.259 S 
HETATM    2  O2  UNL     1      -7.115  -7.135 -10.917  1.00  0.00    -0.201 OA
HETATM    3  O3  UNL     1      -6.663  -9.191  -9.738  1.00  0.00    -0.201 OA
ENDROOT
BRANCH   1   4
HETATM    4  C5  UNL     1      -5.751  -6.968  -8.693  1.00  0.00     0.079 A 
HETATM    5  C4  UNL     1      -5.775  -6.714  -7.338  1.00  0.00     0.028 A 
HETATM    6  C3  UNL     1      -4.682  -6.079  -6.742  1.00  0.00     0.038 A 
HETATM    7  C2  UNL     1      -3.583  -5.699  -7.459  1.00  0.00     0.068 A 
HETATM    8  C10 UNL     1      -3.565  -5.954  -8.810  1.00  0.00     0.038 A 
HETATM    9  C9  UNL     1      -4.642  -6.585  -9.420  1.00  0.00     0.028 A 
BRANCH   7  10
HETATM   10  O1  UNL     1      -2.507  -5.074  -6.875  1.00  0.00    -0.356 OA
HETATM   11  C1  UNL     1      -1.184  -5.545  -6.952  1.00  0.00     0.210 C 
ENDBRANCH   7  10
ENDBRANCH   1   4
BRANCH   1  12
HETATM   12  N1  UNL     1      -8.565  -7.583  -8.785  1.00  0.00    -0.301 N 
ATOM     13  H1  UNL     1      -8.824  -6.756  -8.247  1.00  0.00     0.173 HD
BRANCH  12  14
HETATM   14  C6  UNL     1      -9.443  -8.691  -8.963  1.00  0.00     0.190 C 
HETATM   15  C7  UNL     1     -10.502  -8.400 -10.036  1.00  0.00     0.044 C 
BRANCH  14  16
HETATM   16  C8  UNL     1     -10.091  -9.145  -7.721  1.00  0.00     0.196 C 
HETATM   17  O4  UNL     1      -9.699  -8.677  -6.623  1.00  0.00    -0.646 OA
HETATM   18  O5  UNL     1     -11.120 -10.071  -7.698  1.00  0.00    -0.646 OA
ENDBRANCH  14  16
ENDBRANCH  12  14
ENDBRANCH   1  12
TORSDOF 5
ENDMDL
