MODEL 2
REMARK VINA RESULT: -7.713486547      0.187      1.160
REMARK  5 active torsions:
REMARK  status: ('A' for Active; 'I' for Inactive)
REMARK    1  A    between atoms: O1_2  and  C2_3 
REMARK    2  A    between atoms: C5_6  and  S1_7 
REMARK    3  A    between atoms: S1_7  and  N1_10 
REMARK    4  A    between atoms: N1_10  and  C6_12 
REMARK    5  A    between atoms: C6_12  and  C8_14 
ROOT
HETATM    1  S1  UNL     1      -0.714  -5.829  -5.449  1.00  0.00     0.259 S 
HETATM    2  O2  UNL     1      -0.261  -7.205  -5.045  1.00  0.00    -0.201 OA
HETATM    3  O3  UNL     1       0.417  -5.217  -6.234  1.00  0.00    -0.201 OA
ENDROOT
BRANCH   1   4
HETATM    4  C5  UNL     1      -2.060  -6.020  -6.528  1.00  0.00     0.079 A 
HETATM    5  C4  UNL     1      -1.938  -6.050  -7.901  1.00  0.00     0.028 A 
HETATM    6  C3  UNL     1      -3.084  -6.208  -8.685  1.00  0.00     0.038 A 
HETATM    7  C2  UNL     1      -4.329  -6.333  -8.136  1.00  0.00     0.068 A 
HETATM    8  C10 UNL     1      -4.445  -6.301  -6.767  1.00  0.00     0.038 A 
HETATM    9  C9  UNL     1      -3.317  -6.146  -5.970  1.00  0.00     0.028 A 
BRANCH   7  10
HETATM   10  O1  UNL     1      -5.457  -6.488  -8.906  1.00  0.00    -0.356 OA
HETATM   11  C1  UNL     1      -6.640  -7.101  -8.458  1.00  0.00     0.210 C 
ENDBRANCH   7  10
ENDBRANCH   1   4
BRANCH   1  12
HETATM   12  N1  UNL     1      -1.081  -4.929  -4.046  1.00  0.00    -0.301 N 
ATOM     13  H1  UNL     1      -1.405  -5.366  -3.183  1.00  0.00     0.173 HD
BRANCH  12  14
HETATM   14  C6  UNL     1      -0.899  -3.523  -4.176  1.00  0.00     0.190 C 
HETATM   15  C7  UNL     1      -0.233  -2.927  -2.927  1.00  0.00     0.044 C 
BRANCH  14  16
HETATM   16  C8  UNL     1      -2.135  -2.787  -4.491  1.00  0.00     0.196 C 
HETATM   17  O4  UNL     1      -3.240  -3.282  -4.159  1.00  0.00    -0.646 OA
HETATM   18  O5  UNL     1      -2.143  -1.564  -5.142  1.00  0.00    -0.646 OA
ENDBRANCH  14  16
ENDBRANCH  12  14
ENDBRANCH   1  12
TORSDOF 5
ENDMDL
