MODEL 1
REMARK VINA RESULT: -7.746413626      0.000      0.000
REMARK  5 active torsions:
REMARK  status: ('A' for Active; 'I' for Inactive)
REMARK    1  A    between atoms: O1_2  and  C2_3 
REMARK    2  A    between atoms: C5_6  and  S1_7 
REMARK    3  A    between atoms: S1_7  and  N1_10 
REMARK    4  A    between atoms: N1_10  and  C6_12 
REMARK    5  A    between atoms: C6_12  and  C8_14 
ROOT
HETATM    1  S1  UNL     1      -0.745  -5.828  -5.442  1.00  0.00     0.259 S 
HETATM    2  O2  UNL     1      -0.285  -7.203  -5.044  1.00  0.00    -0.201 OA
HETATM    3  O3  UNL     1       0.372  -5.217  -6.247  1.00  0.00    -0.201 OA
ENDROOT
BRANCH   1   4
HETATM    4  C5  UNL     1      -2.110  -6.020  -6.496  1.00  0.00     0.079 A 
HETATM    5  C4  UNL     1      -3.405  -6.164  -6.047  1.00  0.00     0.028 A 
HETATM    6  C3  UNL     1      -4.438  -6.314  -6.976  1.00  0.00     0.038 A 
HETATM    7  C2  UNL     1      -4.208  -6.324  -8.323  1.00  0.00     0.068 A 
HETATM    8  C10 UNL     1      -2.915  -6.181  -8.766  1.00  0.00     0.038 A 
HETATM    9  C9  UNL     1      -1.875  -6.030  -7.857  1.00  0.00     0.028 A 
BRANCH   7  10
HETATM   10  O1  UNL     1      -5.223  -6.472  -9.239  1.00  0.00    -0.356 OA
HETATM   11  C1  UNL     1      -6.528  -6.879  -8.911  1.00  0.00     0.210 C 
ENDBRANCH   7  10
ENDBRANCH   1   4
BRANCH   1  12
HETATM   12  N1  UNL     1      -1.087  -4.926  -4.034  1.00  0.00    -0.301 N 
ATOM     13  H1  UNL     1      -1.395  -5.361  -3.164  1.00  0.00     0.173 HD
BRANCH  12  14
HETATM   14  C6  UNL     1      -0.907  -3.520  -4.169  1.00  0.00     0.190 C 
HETATM   15  C7  UNL     1      -0.249  -2.916  -2.919  1.00  0.00     0.044 C 
BRANCH  14  16
HETATM   16  C8  UNL     1      -2.143  -2.788  -4.494  1.00  0.00     0.196 C 
HETATM   17  O4  UNL     1      -3.250  -3.291  -4.178  1.00  0.00    -0.646 OA
HETATM   18  O5  UNL     1      -2.150  -1.561  -5.137  1.00  0.00    -0.646 OA
ENDBRANCH  14  16
ENDBRANCH  12  14
ENDBRANCH   1  12
TORSDOF 5
ENDMDL
