MODEL 17
REMARK VINA RESULT: -7.105079581      1.517      1.838
REMARK  5 active torsions:
REMARK  status: ('A' for Active; 'I' for Inactive)
REMARK    1  A    between atoms: O1_2  and  C2_3 
REMARK    2  A    between atoms: C5_6  and  S1_7 
REMARK    3  A    between atoms: S1_7  and  N1_10 
REMARK    4  A    between atoms: N1_10  and  C6_12 
REMARK    5  A    between atoms: C6_12  and  C8_14 
ROOT
HETATM    1  S1  UNL     1      -1.181  -5.070  -6.617  1.00  0.00     0.259 S 
HETATM    2  O2  UNL     1      -0.692  -6.066  -5.602  1.00  0.00    -0.201 OA
HETATM    3  O3  UNL     1      -0.216  -5.124  -7.772  1.00  0.00    -0.201 OA
ENDROOT
BRANCH   1   4
HETATM    4  C5  UNL     1      -2.721  -5.627  -7.192  1.00  0.00     0.079 A 
HETATM    5  C4  UNL     1      -3.809  -5.837  -6.373  1.00  0.00     0.028 A 
HETATM    6  C3  UNL     1      -5.008  -6.288  -6.931  1.00  0.00     0.038 A 
HETATM    7  C2  UNL     1      -5.140  -6.531  -8.270  1.00  0.00     0.068 A 
HETATM    8  C10 UNL     1      -4.051  -6.322  -9.082  1.00  0.00     0.038 A 
HETATM    9  C9  UNL     1      -2.851  -5.873  -8.545  1.00  0.00     0.028 A 
BRANCH   7  10
HETATM   10  O1  UNL     1      -6.319  -6.975  -8.821  1.00  0.00    -0.356 OA
HETATM   11  C1  UNL     1      -6.450  -7.422 -10.148  1.00  0.00     0.210 C 
ENDBRANCH   7  10
ENDBRANCH   1   4
BRANCH   1  12
HETATM   12  N1  UNL     1      -1.235  -3.523  -5.899  1.00  0.00    -0.301 N 
ATOM     13  H1  UNL     1      -1.373  -2.670  -6.440  1.00  0.00     0.173 HD
BRANCH  12  14
HETATM   14  C6  UNL     1      -1.073  -3.518  -4.484  1.00  0.00     0.190 C 
HETATM   15  C7  UNL     1      -2.430  -3.516  -3.764  1.00  0.00     0.044 C 
BRANCH  14  16
HETATM   16  C8  UNL     1      -0.232  -2.419  -3.982  1.00  0.00     0.196 C 
HETATM   17  O4  UNL     1      -0.337  -1.283  -4.508  1.00  0.00    -0.646 OA
HETATM   18  O5  UNL     1       0.679  -2.572  -2.950  1.00  0.00    -0.646 OA
ENDBRANCH  14  16
ENDBRANCH  12  14
ENDBRANCH   1  12
TORSDOF 5
ENDMDL
