MODEL 7
REMARK VINA RESULT: -8.008310097      2.986      7.008
REMARK  6 active torsions:
REMARK  status: ('A' for Active; 'I' for Inactive)
REMARK    1  A    between atoms: C1_2  and  C2_3 
REMARK    2  A    between atoms: C1_2  and  C11_19 
REMARK    3  A    between atoms: C2_3  and  C3_4 
REMARK    4  A    between atoms: C6_7  and  O2_8 
REMARK    5  A    between atoms: C8_11  and  O3_12 
REMARK    6  A    between atoms: C9_14  and  O4_15 
ROOT
HETATM    1  C3  UNL     1      28.245  65.291  11.252  1.00  0.00     0.231 C 
HETATM    2  C4  UNL     1      29.036  65.564  12.482  1.00  0.00     0.038 C 
HETATM    3  C5  UNL     1      29.031  64.289  13.333  1.00  0.00     0.036 C 
HETATM    4  C6  UNL     1      27.620  63.885  13.702  1.00  0.00     0.154 C 
HETATM    5  C7  UNL     1      26.693  64.873  13.063  1.00  0.00     0.283 C 
HETATM    6  C8  UNL     1      25.242  64.446  13.129  1.00  0.00     0.184 C 
HETATM    7  C9  UNL     1      24.678  65.041  11.854  1.00  0.00     0.177 C 
HETATM    8  C10 UNL     1      25.868  65.703  11.174  1.00  0.00     0.307 C 
HETATM    9  N1  UNL     1      26.934  64.833  11.630  1.00  0.00     0.105 N 
ENDROOT
BRANCH   1  10
HETATM   10  C2  UNL     1      28.229  66.357  10.219  1.00  0.00     0.119 C 
BRANCH  10  11
HETATM   11  C1  UNL     1      28.829  65.959   8.948  1.00  0.00     0.161 C 
HETATM   12  O1  UNL     1      28.162  65.314   8.108  1.00  0.00    -0.292 OA
BRANCH  11  13
HETATM   13  C11 UNL     1      30.222  66.291   8.598  1.00  0.00     0.010 A 
HETATM   14  C12 UNL     1      30.531  66.750   7.331  1.00  0.00     0.015 A 
HETATM   15  C13 UNL     1      31.825  67.065   6.984  1.00  0.00     0.001 A 
HETATM   16  C14 UNL     1      32.838  66.920   7.921  1.00  0.00     0.000 A 
HETATM   17  C15 UNL     1      32.553  66.462   9.194  1.00  0.00     0.001 A 
HETATM   18  C16 UNL     1      31.234  66.155   9.508  1.00  0.00     0.015 A 
ENDBRANCH  11  13
ENDBRANCH  10  11
ENDBRANCH   1  10
BRANCH   4  19
HETATM   19  O2  UNL     1      27.435  63.778  15.076  1.00  0.00    -0.393 OA
ATOM     20  H2  UNL     1      26.810  63.101  15.309  1.00  0.00     0.210 HD
ENDBRANCH   4  19
BRANCH   6  21
HETATM   21  O3  UNL     1      25.102  63.069  13.133  1.00  0.00    -0.391 OA
ATOM     22  H3  UNL     1      25.688  62.647  12.516  1.00  0.00     0.210 HD
ENDBRANCH   6  21
BRANCH   7  23
HETATM   23  O4  UNL     1      24.200  64.034  11.007  1.00  0.00    -0.391 OA
ATOM     24  H4  UNL     1      23.251  64.008  11.020  1.00  0.00     0.210 HD
ENDBRANCH   7  23
TORSDOF 6
ENDMDL
