MODEL 8
REMARK VINA RESULT: -7.980808970      2.583      6.978
REMARK  6 active torsions:
REMARK  status: ('A' for Active; 'I' for Inactive)
REMARK    1  A    between atoms: C1_2  and  C2_3 
REMARK    2  A    between atoms: C1_2  and  C11_19 
REMARK    3  A    between atoms: C2_3  and  C3_4 
REMARK    4  A    between atoms: C6_7  and  O2_8 
REMARK    5  A    between atoms: C8_11  and  O3_12 
REMARK    6  A    between atoms: C9_14  and  O4_15 
ROOT
HETATM    1  C3  UNL     1      27.312  65.112  10.011  1.00  0.00     0.231 C 
HETATM    2  C4  UNL     1      28.224  64.528  11.030  1.00  0.00     0.038 C 
HETATM    3  C5  UNL     1      27.556  63.268  11.590  1.00  0.00     0.036 C 
HETATM    4  C6  UNL     1      26.217  63.594  12.217  1.00  0.00     0.154 C 
HETATM    5  C7  UNL     1      25.989  65.063  12.038  1.00  0.00     0.283 C 
HETATM    6  C8  UNL     1      24.577  65.485  12.385  1.00  0.00     0.184 C 
HETATM    7  C9  UNL     1      24.350  66.644  11.435  1.00  0.00     0.177 C 
HETATM    8  C10 UNL     1      25.631  66.734  10.618  1.00  0.00     0.307 C 
HETATM    9  N1  UNL     1      26.024  65.340  10.612  1.00  0.00     0.105 N 
ENDROOT
BRANCH   1  10
HETATM   10  C2  UNL     1      27.826  66.274   9.244  1.00  0.00     0.119 C 
BRANCH  10  11
HETATM   11  C1  UNL     1      28.715  65.911   8.143  1.00  0.00     0.161 C 
HETATM   12  O1  UNL     1      28.272  65.291   7.150  1.00  0.00    -0.292 OA
BRANCH  11  13
HETATM   13  C11 UNL     1      30.149  66.249   8.147  1.00  0.00     0.010 A 
HETATM   14  C12 UNL     1      30.754  66.733   7.002  1.00  0.00     0.015 A 
HETATM   15  C13 UNL     1      32.092  67.054   6.984  1.00  0.00     0.001 A 
HETATM   16  C14 UNL     1      32.848  66.891   8.136  1.00  0.00     0.000 A 
HETATM   17  C15 UNL     1      32.266  66.409   9.293  1.00  0.00     0.001 A 
HETATM   18  C16 UNL     1      30.912  66.096   9.273  1.00  0.00     0.015 A 
ENDBRANCH  11  13
ENDBRANCH  10  11
ENDBRANCH   1  10
BRANCH   4  19
HETATM   19  O2  UNL     1      26.136  63.190  13.545  1.00  0.00    -0.393 OA
ATOM     20  H2  UNL     1      25.382  63.555  13.993  1.00  0.00     0.210 HD
ENDBRANCH   4  19
BRANCH   6  21
HETATM   21  O3  UNL     1      23.658  64.475  12.156  1.00  0.00    -0.391 OA
ATOM     22  H3  UNL     1      22.810  64.814  11.895  1.00  0.00     0.210 HD
ENDBRANCH   6  21
BRANCH   7  23
HETATM   23  O4  UNL     1      23.295  66.366  10.558  1.00  0.00    -0.391 OA
ATOM     24  H4  UNL     1      22.505  66.818  10.829  1.00  0.00     0.210 HD
ENDBRANCH   7  23
TORSDOF 6
ENDMDL
