MODEL 2
REMARK VINA RESULT: -8.785016418      0.011      1.040
REMARK  6 active torsions:
REMARK  status: ('A' for Active; 'I' for Inactive)
REMARK    1  A    between atoms: C1_2  and  C2_3 
REMARK    2  A    between atoms: C1_2  and  C11_19 
REMARK    3  A    between atoms: C2_3  and  C3_4 
REMARK    4  A    between atoms: C6_7  and  O2_8 
REMARK    5  A    between atoms: C8_11  and  O3_12 
REMARK    6  A    between atoms: C9_14  and  O4_15 
ROOT
HETATM    1  C3  UNL     1      29.308  65.553   8.353  1.00  0.00     0.231 C 
HETATM    2  C4  UNL     1      28.756  66.536   7.383  1.00  0.00     0.038 C 
HETATM    3  C5  UNL     1      29.544  66.396   6.076  1.00  0.00     0.036 C 
HETATM    4  C6  UNL     1      31.019  66.657   6.298  1.00  0.00     0.154 C 
HETATM    5  C7  UNL     1      31.207  66.933   7.758  1.00  0.00     0.283 C 
HETATM    6  C8  UNL     1      32.663  66.955   8.170  1.00  0.00     0.184 C 
HETATM    7  C9  UNL     1      32.597  66.440   9.594  1.00  0.00     0.177 C 
HETATM    8  C10 UNL     1      31.124  66.137   9.831  1.00  0.00     0.307 C 
HETATM    9  N1  UNL     1      30.724  65.772   8.487  1.00  0.00     0.105 N 
ENDROOT
BRANCH   1  10
HETATM   10  C2  UNL     1      28.599  65.429   9.651  1.00  0.00     0.119 C 
BRANCH  10  11
HETATM   11  C1  UNL     1      27.142  65.445   9.534  1.00  0.00     0.161 C 
HETATM   12  O1  UNL     1      26.535  64.464   9.049  1.00  0.00    -0.292 OA
BRANCH  11  13
HETATM   13  C11 UNL     1      26.331  66.595   9.972  1.00  0.00     0.010 A 
HETATM   14  C12 UNL     1      26.893  67.585  10.757  1.00  0.00     0.015 A 
HETATM   15  C13 UNL     1      26.153  68.667  11.177  1.00  0.00     0.001 A 
HETATM   16  C14 UNL     1      24.820  68.768  10.805  1.00  0.00     0.000 A 
HETATM   17  C15 UNL     1      24.237  67.792  10.020  1.00  0.00     0.001 A 
HETATM   18  C16 UNL     1      25.015  66.714   9.615  1.00  0.00     0.015 A 
ENDBRANCH  11  13
ENDBRANCH  10  11
ENDBRANCH   1  10
BRANCH   4  19
HETATM   19  O2  UNL     1      31.511  67.672   5.486  1.00  0.00    -0.393 OA
ATOM     20  H2  UNL     1      32.401  67.921   5.709  1.00  0.00     0.210 HD
ENDBRANCH   4  19
BRANCH   6  21
HETATM   21  O3  UNL     1      33.442  66.124   7.383  1.00  0.00    -0.391 OA
ATOM     22  H3  UNL     1      34.285  65.940   7.779  1.00  0.00     0.210 HD
ENDBRANCH   6  21
BRANCH   7  23
HETATM   23  O4  UNL     1      33.312  65.244   9.721  1.00  0.00    -0.391 OA
ATOM     24  H4  UNL     1      34.129  65.388  10.183  1.00  0.00     0.210 HD
ENDBRANCH   7  23
TORSDOF 6
ENDMDL
