MODEL 6
REMARK VINA RESULT: -8.009783930      2.984      7.053
REMARK  6 active torsions:
REMARK  status: ('A' for Active; 'I' for Inactive)
REMARK    1  A    between atoms: C1_2  and  C2_3 
REMARK    2  A    between atoms: C1_2  and  C11_19 
REMARK    3  A    between atoms: C2_3  and  C3_4 
REMARK    4  A    between atoms: C6_7  and  O2_8 
REMARK    5  A    between atoms: C8_11  and  O3_12 
REMARK    6  A    between atoms: C9_14  and  O4_15 
ROOT
HETATM    1  C3  UNL     1      28.254  65.296  11.261  1.00  0.00     0.231 C 
HETATM    2  C4  UNL     1      29.034  65.573  12.497  1.00  0.00     0.038 C 
HETATM    3  C5  UNL     1      29.028  64.299  13.349  1.00  0.00     0.036 C 
HETATM    4  C6  UNL     1      27.615  63.889  13.707  1.00  0.00     0.154 C 
HETATM    5  C7  UNL     1      26.689  64.874  13.060  1.00  0.00     0.283 C 
HETATM    6  C8  UNL     1      25.239  64.441  13.116  1.00  0.00     0.184 C 
HETATM    7  C9  UNL     1      24.683  65.033  11.836  1.00  0.00     0.177 C 
HETATM    8  C10 UNL     1      25.876  65.699  11.165  1.00  0.00     0.307 C 
HETATM    9  N1  UNL     1      26.941  64.834  11.630  1.00  0.00     0.105 N 
ENDROOT
BRANCH   1  10
HETATM   10  C2  UNL     1      28.242  66.362  10.228  1.00  0.00     0.119 C 
BRANCH  10  11
HETATM   11  C1  UNL     1      28.831  65.958   8.954  1.00  0.00     0.161 C 
HETATM   12  O1  UNL     1      28.160  65.305   8.124  1.00  0.00    -0.292 OA
BRANCH  11  13
HETATM   13  C11 UNL     1      30.220  66.292   8.589  1.00  0.00     0.010 A 
HETATM   14  C12 UNL     1      31.235  66.155   9.517  1.00  0.00     0.015 A 
HETATM   15  C13 UNL     1      32.538  66.463   9.198  1.00  0.00     0.001 A 
HETATM   16  C14 UNL     1      32.839  66.917   7.921  1.00  0.00     0.000 A 
HETATM   17  C15 UNL     1      31.841  67.061   6.977  1.00  0.00     0.001 A 
HETATM   18  C16 UNL     1      30.537  66.741   7.336  1.00  0.00     0.015 A 
ENDBRANCH  11  13
ENDBRANCH  10  11
ENDBRANCH   1  10
BRANCH   4  19
HETATM   19  O2  UNL     1      27.420  63.783  15.080  1.00  0.00    -0.393 OA
ATOM     20  H2  UNL     1      27.090  64.585  15.466  1.00  0.00     0.210 HD
ENDBRANCH   4  19
BRANCH   6  21
HETATM   21  O3  UNL     1      25.104  63.064  13.120  1.00  0.00    -0.391 OA
ATOM     22  H3  UNL     1      25.463  62.666  12.335  1.00  0.00     0.210 HD
ENDBRANCH   6  21
BRANCH   7  23
HETATM   23  O4  UNL     1      24.215  64.024  10.987  1.00  0.00    -0.391 OA
ATOM     24  H4  UNL     1      23.822  63.319  11.487  1.00  0.00     0.210 HD
ENDBRANCH   7  23
TORSDOF 6
ENDMDL
