MODEL 1
REMARK VINA RESULT: -8.792549902      0.000      0.000
REMARK  6 active torsions:
REMARK  status: ('A' for Active; 'I' for Inactive)
REMARK    1  A    between atoms: C1_2  and  C2_3 
REMARK    2  A    between atoms: C1_2  and  C11_19 
REMARK    3  A    between atoms: C2_3  and  C3_4 
REMARK    4  A    between atoms: C6_7  and  O2_8 
REMARK    5  A    between atoms: C8_11  and  O3_12 
REMARK    6  A    between atoms: C9_14  and  O4_15 
ROOT
HETATM    1  C3  UNL     1      29.309  65.553   8.353  1.00  0.00     0.231 C 
HETATM    2  C4  UNL     1      28.756  66.535   7.383  1.00  0.00     0.038 C 
HETATM    3  C5  UNL     1      29.544  66.395   6.075  1.00  0.00     0.036 C 
HETATM    4  C6  UNL     1      31.019  66.656   6.296  1.00  0.00     0.154 C 
HETATM    5  C7  UNL     1      31.207  66.933   7.756  1.00  0.00     0.283 C 
HETATM    6  C8  UNL     1      32.664  66.956   8.167  1.00  0.00     0.184 C 
HETATM    7  C9  UNL     1      32.599  66.441   9.592  1.00  0.00     0.177 C 
HETATM    8  C10 UNL     1      31.126  66.138   9.829  1.00  0.00     0.307 C 
HETATM    9  N1  UNL     1      30.725  65.772   8.486  1.00  0.00     0.105 N 
ENDROOT
BRANCH   1  10
HETATM   10  C2  UNL     1      28.601  65.429   9.652  1.00  0.00     0.119 C 
BRANCH  10  11
HETATM   11  C1  UNL     1      27.144  65.450   9.536  1.00  0.00     0.161 C 
HETATM   12  O1  UNL     1      26.534  64.472   9.050  1.00  0.00    -0.292 OA
BRANCH  11  13
HETATM   13  C11 UNL     1      26.337  66.602   9.977  1.00  0.00     0.010 A 
HETATM   14  C12 UNL     1      25.008  66.702   9.611  1.00  0.00     0.015 A 
HETATM   15  C13 UNL     1      24.237  67.769  10.011  1.00  0.00     0.001 A 
HETATM   16  C14 UNL     1      24.803  68.763  10.797  1.00  0.00     0.000 A 
HETATM   17  C15 UNL     1      26.130  68.685  11.176  1.00  0.00     0.001 A 
HETATM   18  C16 UNL     1      26.877  67.592  10.753  1.00  0.00     0.015 A 
ENDBRANCH  11  13
ENDBRANCH  10  11
ENDBRANCH   1  10
BRANCH   4  19
HETATM   19  O2  UNL     1      31.510  67.671   5.483  1.00  0.00    -0.393 OA
ATOM     20  H2  UNL     1      32.407  67.903   5.690  1.00  0.00     0.210 HD
ENDBRANCH   4  19
BRANCH   6  21
HETATM   21  O3  UNL     1      33.442  66.124   7.380  1.00  0.00    -0.391 OA
ATOM     22  H3  UNL     1      34.356  66.381   7.382  1.00  0.00     0.210 HD
ENDBRANCH   6  21
BRANCH   7  23
HETATM   23  O4  UNL     1      33.314  65.245   9.719  1.00  0.00    -0.391 OA
ATOM     24  H4  UNL     1      32.755  64.553  10.049  1.00  0.00     0.210 HD
ENDBRANCH   7  23
TORSDOF 6
ENDMDL
