MODEL 2
REMARK VINA RESULT: -7.902587441      0.055      1.011
REMARK  6 active torsions:
REMARK  status: ('A' for Active; 'I' for Inactive)
REMARK    1  A    between atoms: C5_5  and  C6_6 
REMARK    2  A    between atoms: C6_6  and  C7_8 
REMARK    3  A    between atoms: C7_8  and  C8_9 
REMARK    4  A    between atoms: C11_12  and  O2_13 
REMARK    5  A    between atoms: C13_16  and  O3_17 
REMARK    6  A    between atoms: C14_19  and  O4_20 
ROOT
HETATM    1  C8  UNL     1      26.519  63.918  11.237  1.00  0.00     0.231 C 
HETATM    2  C9  UNL     1      27.919  63.412  11.585  1.00  0.00     0.038 C 
HETATM    3  C10 UNL     1      27.971  62.861  12.990  1.00  0.00     0.036 C 
HETATM    4  C11 UNL     1      27.523  63.866  14.021  1.00  0.00     0.154 C 
HETATM    5  C12 UNL     1      26.380  64.675  13.496  1.00  0.00     0.283 C 
HETATM    6  C13 UNL     1      25.264  64.846  14.523  1.00  0.00     0.184 C 
HETATM    7  C14 UNL     1      24.016  64.391  13.794  1.00  0.00     0.177 C 
HETATM    8  C15 UNL     1      24.459  64.514  12.348  1.00  0.00     0.307 C 
HETATM    9  N1  UNL     1      25.759  63.910  12.430  1.00  0.00     0.105 N 
ENDROOT
BRANCH   1  10
HETATM   10  C7  UNL     1      26.675  65.254  10.597  1.00  0.00     0.119 C 
BRANCH  10  11
HETATM   11  C6  UNL     1      26.941  65.030   9.128  1.00  0.00     0.161 C 
HETATM   12  O1  UNL     1      26.121  64.377   8.423  1.00  0.00    -0.292 OA
BRANCH  11  13
HETATM   13  C5  UNL     1      28.139  65.559   8.505  1.00  0.00     0.010 A 
HETATM   14  C4  UNL     1      29.284  65.819   9.224  1.00  0.00     0.015 A 
HETATM   15  C3  UNL     1      30.415  66.327   8.591  1.00  0.00     0.007 A 
HETATM   16  C2  UNL     1      30.413  66.579   7.238  1.00  0.00    -0.062 A 
HETATM   17  C1  UNL     1      31.629  67.129   6.543  1.00  0.00     0.048 C 
HETATM   18  C17 UNL     1      29.267  66.321   6.511  1.00  0.00     0.007 A 
HETATM   19  C16 UNL     1      28.141  65.812   7.159  1.00  0.00     0.015 A 
ENDBRANCH  11  13
ENDBRANCH  10  11
ENDBRANCH   1  10
BRANCH   4  20
HETATM   20  O2  UNL     1      28.601  64.727  14.265  1.00  0.00    -0.393 OA
ATOM     21  H2  UNL     1      28.407  65.207  15.062  1.00  0.00     0.210 HD
ENDBRANCH   4  20
BRANCH   6  22
HETATM   22  O3  UNL     1      25.508  64.090  15.661  1.00  0.00    -0.391 OA
ATOM     23  H3  UNL     1      24.696  63.824  16.077  1.00  0.00     0.210 HD
ENDBRANCH   6  22
BRANCH   7  24
HETATM   24  O4  UNL     1      23.812  63.052  14.055  1.00  0.00    -0.391 OA
ATOM     25  H4  UNL     1      24.493  62.549  13.625  1.00  0.00     0.210 HD
ENDBRANCH   7  24
TORSDOF 6
ENDMDL
