MODEL 1
REMARK VINA RESULT: -7.919325138      0.000      0.000
REMARK  6 active torsions:
REMARK  status: ('A' for Active; 'I' for Inactive)
REMARK    1  A    between atoms: C5_5  and  C6_6 
REMARK    2  A    between atoms: C6_6  and  C7_8 
REMARK    3  A    between atoms: C7_8  and  C8_9 
REMARK    4  A    between atoms: C11_12  and  O2_13 
REMARK    5  A    between atoms: C13_16  and  O3_17 
REMARK    6  A    between atoms: C14_19  and  O4_20 
ROOT
HETATM    1  C8  UNL     1      26.545  63.896  11.258  1.00  0.00     0.231 C 
HETATM    2  C9  UNL     1      27.937  63.381  11.621  1.00  0.00     0.038 C 
HETATM    3  C10 UNL     1      27.971  62.833  13.028  1.00  0.00     0.036 C 
HETATM    4  C11 UNL     1      27.519  63.843  14.052  1.00  0.00     0.154 C 
HETATM    5  C12 UNL     1      26.388  64.659  13.514  1.00  0.00     0.283 C 
HETATM    6  C13 UNL     1      25.263  64.840  14.529  1.00  0.00     0.184 C 
HETATM    7  C14 UNL     1      24.019  64.393  13.788  1.00  0.00     0.177 C 
HETATM    8  C15 UNL     1      24.477  64.510  12.346  1.00  0.00     0.307 C 
HETATM    9  N1  UNL     1      25.772  63.896  12.443  1.00  0.00     0.105 N 
ENDROOT
BRANCH   1  10
HETATM   10  C7  UNL     1      26.717  65.230  10.616  1.00  0.00     0.119 C 
BRANCH  10  11
HETATM   11  C6  UNL     1      26.949  65.002   9.143  1.00  0.00     0.161 C 
HETATM   12  O1  UNL     1      26.115  64.344   8.459  1.00  0.00    -0.292 OA
BRANCH  11  13
HETATM   13  C5  UNL     1      28.130  65.535   8.490  1.00  0.00     0.010 A 
HETATM   14  C4  UNL     1      28.148  65.844   7.149  1.00  0.00     0.015 A 
HETATM   15  C3  UNL     1      29.301  66.354   6.557  1.00  0.00     0.007 A 
HETATM   16  C2  UNL     1      30.443  66.558   7.298  1.00  0.00    -0.062 A 
HETATM   17  C1  UNL     1      31.694  67.108   6.670  1.00  0.00     0.048 C 
HETATM   18  C17 UNL     1      30.431  66.249   8.645  1.00  0.00     0.007 A 
HETATM   19  C16 UNL     1      29.268  65.740   9.224  1.00  0.00     0.015 A 
ENDBRANCH  11  13
ENDBRANCH  10  11
ENDBRANCH   1  10
BRANCH   4  20
HETATM   20  O2  UNL     1      28.601  64.696  14.306  1.00  0.00    -0.393 OA
ATOM     21  H2  UNL     1      28.675  64.790  15.249  1.00  0.00     0.210 HD
ENDBRANCH   4  20
BRANCH   6  22
HETATM   22  O3  UNL     1      25.489  64.085  15.670  1.00  0.00    -0.391 OA
ATOM     23  H3  UNL     1      25.705  63.186  15.450  1.00  0.00     0.210 HD
ENDBRANCH   6  22
BRANCH   7  24
HETATM   24  O4  UNL     1      23.802  63.056  14.049  1.00  0.00    -0.391 OA
ATOM     25  H4  UNL     1      24.453  62.757  14.672  1.00  0.00     0.210 HD
ENDBRANCH   7  24
TORSDOF 6
ENDMDL
