MODEL 3
REMARK VINA RESULT: -7.586115196      1.128      2.763
REMARK  6 active torsions:
REMARK  status: ('A' for Active; 'I' for Inactive)
REMARK    1  A    between atoms: C5_5  and  C6_6 
REMARK    2  A    between atoms: C6_6  and  C7_8 
REMARK    3  A    between atoms: C7_8  and  C8_9 
REMARK    4  A    between atoms: C11_12  and  O2_13 
REMARK    5  A    between atoms: C13_16  and  O3_17 
REMARK    6  A    between atoms: C14_19  and  O4_20 
ROOT
HETATM    1  C8  UNL     1      26.122  65.533  11.432  1.00  0.00     0.231 C 
HETATM    2  C9  UNL     1      24.652  65.202  11.692  1.00  0.00     0.038 C 
HETATM    3  C10 UNL     1      24.402  64.923  13.155  1.00  0.00     0.036 C 
HETATM    4  C11 UNL     1      25.276  63.816  13.689  1.00  0.00     0.154 C 
HETATM    5  C12 UNL     1      26.643  63.896  13.089  1.00  0.00     0.283 C 
HETATM    6  C13 UNL     1      27.748  63.704  14.123  1.00  0.00     0.184 C 
HETATM    7  C14 UNL     1      28.648  64.909  13.933  1.00  0.00     0.177 C 
HETATM    8  C15 UNL     1      28.265  65.344  12.531  1.00  0.00     0.307 C 
HETATM    9  N1  UNL     1      26.834  65.258  12.623  1.00  0.00     0.105 N 
ENDROOT
BRANCH   1  10
HETATM   10  C7  UNL     1      26.552  64.745  10.243  1.00  0.00     0.119 C 
BRANCH  10  11
HETATM   11  C6  UNL     1      26.671  65.700   9.080  1.00  0.00     0.161 C 
HETATM   12  O1  UNL     1      25.646  66.278   8.620  1.00  0.00    -0.292 OA
BRANCH  11  13
HETATM   13  C5  UNL     1      27.961  65.970   8.474  1.00  0.00     0.010 A 
HETATM   14  C4  UNL     1      29.109  66.094   9.223  1.00  0.00     0.015 A 
HETATM   15  C3  UNL     1      30.330  66.352   8.605  1.00  0.00     0.007 A 
HETATM   16  C2  UNL     1      30.415  66.489   7.238  1.00  0.00    -0.062 A 
HETATM   17  C1  UNL     1      31.728  66.769   6.560  1.00  0.00     0.048 C 
HETATM   18  C17 UNL     1      29.265  66.366   6.481  1.00  0.00     0.007 A 
HETATM   19  C16 UNL     1      28.049  66.106   7.114  1.00  0.00     0.015 A 
ENDBRANCH  11  13
ENDBRANCH  10  11
ENDBRANCH   1  10
BRANCH   4  20
HETATM   20  O2  UNL     1      24.694  62.600  13.307  1.00  0.00    -0.393 OA
ATOM     21  H2  UNL     1      24.999  62.402  12.429  1.00  0.00     0.210 HD
ENDBRANCH   4  20
BRANCH   6  22
HETATM   22  O3  UNL     1      27.228  63.640  15.408  1.00  0.00    -0.391 OA
ATOM     23  H3  UNL     1      27.495  62.841  15.848  1.00  0.00     0.210 HD
ENDBRANCH   6  22
BRANCH   7  24
HETATM   24  O4  UNL     1      28.249  65.903  14.802  1.00  0.00    -0.391 OA
ATOM     25  H4  UNL     1      28.440  66.747  14.410  1.00  0.00     0.210 HD
ENDBRANCH   7  24
TORSDOF 6
ENDMDL
