MODEL 11
REMARK VINA RESULT: -7.060104128      3.615      7.117
REMARK  6 active torsions:
REMARK  status: ('A' for Active; 'I' for Inactive)
REMARK    1  A    between atoms: C5_5  and  C6_6 
REMARK    2  A    between atoms: C6_6  and  C7_8 
REMARK    3  A    between atoms: C7_8  and  C8_9 
REMARK    4  A    between atoms: C11_12  and  O2_13 
REMARK    5  A    between atoms: C13_16  and  O3_17 
REMARK    6  A    between atoms: C14_19  and  O4_20 
ROOT
HETATM    1  C8  UNL     1      29.078  65.417   8.436  1.00  0.00     0.231 C 
HETATM    2  C9  UNL     1      29.019  65.353   6.910  1.00  0.00     0.038 C 
HETATM    3  C10 UNL     1      30.393  65.160   6.314  1.00  0.00     0.036 C 
HETATM    4  C11 UNL     1      31.364  66.232   6.742  1.00  0.00     0.154 C 
HETATM    5  C12 UNL     1      31.131  66.604   8.171  1.00  0.00     0.283 C 
HETATM    6  C13 UNL     1      32.430  66.727   8.963  1.00  0.00     0.184 C 
HETATM    7  C14 UNL     1      32.217  65.834  10.169  1.00  0.00     0.177 C 
HETATM    8  C15 UNL     1      30.703  65.733  10.195  1.00  0.00     0.307 C 
HETATM    9  N1  UNL     1      30.442  65.493   8.804  1.00  0.00     0.105 N 
ENDROOT
BRANCH   1  10
HETATM   10  C7  UNL     1      28.242  66.573   8.866  1.00  0.00     0.119 C 
BRANCH  10  11
HETATM   11  C6  UNL     1      27.007  66.021   9.535  1.00  0.00     0.161 C 
HETATM   12  O1  UNL     1      26.796  64.776   9.560  1.00  0.00    -0.292 OA
BRANCH  11  13
HETATM   13  C5  UNL     1      26.044  66.910  10.157  1.00  0.00     0.010 A 
HETATM   14  C4  UNL     1      26.425  67.912  11.020  1.00  0.00     0.015 A 
HETATM   15  C3  UNL     1      25.472  68.747  11.599  1.00  0.00     0.007 A 
HETATM   16  C2  UNL     1      24.133  68.588  11.321  1.00  0.00    -0.062 A 
HETATM   17  C1  UNL     1      23.095  69.483  11.940  1.00  0.00     0.048 C 
HETATM   18  C17 UNL     1      23.744  67.584  10.455  1.00  0.00     0.007 A 
HETATM   19  C16 UNL     1      24.711  66.755   9.883  1.00  0.00     0.015 A 
ENDBRANCH  11  13
ENDBRANCH  10  11
ENDBRANCH   1  10
BRANCH   4  20
HETATM   20  O2  UNL     1      31.123  67.359   5.945  1.00  0.00    -0.393 OA
ATOM     21  H2  UNL     1      31.829  67.975   6.103  1.00  0.00     0.210 HD
ENDBRANCH   4  20
BRANCH   6  22
HETATM   22  O3  UNL     1      33.521  66.326   8.204  1.00  0.00    -0.391 OA
ATOM     23  H3  UNL     1      33.249  65.792   7.467  1.00  0.00     0.210 HD
ENDBRANCH   6  22
BRANCH   7  24
HETATM   24  O4  UNL     1      32.713  64.579   9.886  1.00  0.00    -0.391 OA
ATOM     25  H4  UNL     1      32.409  63.972  10.550  1.00  0.00     0.210 HD
ENDBRANCH   7  24
TORSDOF 6
ENDMDL
