MODEL 7
REMARK VINA RESULT: -7.291152861      4.089      5.291
REMARK  7 active torsions:
REMARK  status: ('A' for Active; 'I' for Inactive)
REMARK    1  A    between atoms: C2_2  and  C5_5 
REMARK    2  A    between atoms: C8_8  and  C9_9 
REMARK    3  A    between atoms: C9_9  and  C10_11 
REMARK    4  A    between atoms: C10_11  and  C11_12 
REMARK    5  A    between atoms: C14_15  and  O2_16 
REMARK    6  A    between atoms: C16_19  and  O3_20 
REMARK    7  A    between atoms: C17_22  and  O4_23 
ROOT
HETATM    1  C11 UNL     1      27.752  67.155  11.208  1.00  0.00     0.231 C 
HETATM    2  C12 UNL     1      26.439  66.622  10.614  1.00  0.00     0.038 C 
HETATM    3  C13 UNL     1      26.357  66.836   9.137  1.00  0.00     0.036 C 
HETATM    4  C14 UNL     1      27.504  66.218   8.438  1.00  0.00     0.154 C 
HETATM    5  C15 UNL     1      28.775  66.687   9.088  1.00  0.00     0.283 C 
HETATM    6  C16 UNL     1      30.010  65.892   8.662  1.00  0.00     0.184 C 
HETATM    7  C17 UNL     1      30.974  66.354   9.754  1.00  0.00     0.177 C 
HETATM    8  C18 UNL     1      30.084  66.580  10.971  1.00  0.00     0.307 C 
HETATM    9  N1  UNL     1      28.764  66.435  10.493  1.00  0.00     0.105 N 
ENDROOT
BRANCH   1  10
HETATM   10  C10 UNL     1      27.799  68.628  11.049  1.00  0.00     0.119 C 
BRANCH  10  11
HETATM   11  C9  UNL     1      27.958  69.274  12.388  1.00  0.00     0.161 C 
HETATM   12  O1  UNL     1      26.981  69.185  13.228  1.00  0.00    -0.292 OA
BRANCH  11  13
HETATM   13  C8  UNL     1      29.118  69.981  12.846  1.00  0.00     0.010 A 
HETATM   14  C7  UNL     1      29.291  71.340  12.582  1.00  0.00     0.015 A 
HETATM   15  C6  UNL     1      30.407  72.022  13.011  1.00  0.00     0.009 A 
HETATM   16  C5  UNL     1      31.391  71.349  13.718  1.00  0.00    -0.051 A 
HETATM   17  C20 UNL     1      31.229  70.011  13.987  1.00  0.00     0.009 A 
HETATM   18  C19 UNL     1      30.102  69.330  13.551  1.00  0.00     0.015 A 
BRANCH  16  19
HETATM   19  C2  UNL     1      32.590  72.131  14.164  1.00  0.00    -0.024 C 
HETATM   20  C1  UNL     1      33.725  71.644  13.269  1.00  0.00     0.019 C 
HETATM   21  C3  UNL     1      32.457  73.607  14.002  1.00  0.00     0.019 C 
HETATM   22  C4  UNL     1      32.979  71.822  15.603  1.00  0.00     0.019 C 
ENDBRANCH  16  19
ENDBRANCH  11  13
ENDBRANCH  10  11
ENDBRANCH   1  10
BRANCH   4  23
HETATM   23  O2  UNL     1      27.570  66.609   7.093  1.00  0.00    -0.393 OA
ATOM     24  H2  UNL     1      27.614  67.554   7.001  1.00  0.00     0.210 HD
ENDBRANCH   4  23
BRANCH   6  25
HETATM   25  O3  UNL     1      29.788  64.548   8.852  1.00  0.00    -0.391 OA
ATOM     26  H3  UNL     1      29.482  64.155   8.043  1.00  0.00     0.210 HD
ENDBRANCH   6  25
BRANCH   7  27
HETATM   27  O4  UNL     1      32.002  65.463   9.983  1.00  0.00    -0.391 OA
ATOM     28  H4  UNL     1      32.700  65.827  10.516  1.00  0.00     0.210 HD
ENDBRANCH   7  27
TORSDOF 7
ENDMDL
