MODEL 4
REMARK VINA RESULT: -7.620348458      2.564      3.464
REMARK  7 active torsions:
REMARK  status: ('A' for Active; 'I' for Inactive)
REMARK    1  A    between atoms: C2_2  and  C5_5 
REMARK    2  A    between atoms: C8_8  and  C9_9 
REMARK    3  A    between atoms: C9_9  and  C10_11 
REMARK    4  A    between atoms: C10_11  and  C11_12 
REMARK    5  A    between atoms: C14_15  and  O2_16 
REMARK    6  A    between atoms: C16_19  and  O3_20 
REMARK    7  A    between atoms: C17_22  and  O4_23 
ROOT
HETATM    1  C11 UNL     1      29.228  65.687   7.870  1.00  0.00     0.231 C 
HETATM    2  C12 UNL     1      29.197  65.569   6.338  1.00  0.00     0.038 C 
HETATM    3  C13 UNL     1      29.767  66.776   5.665  1.00  0.00     0.036 C 
HETATM    4  C14 UNL     1      31.150  67.041   6.114  1.00  0.00     0.154 C 
HETATM    5  C15 UNL     1      31.173  67.069   7.616  1.00  0.00     0.283 C 
HETATM    6  C16 UNL     1      32.582  67.031   8.208  1.00  0.00     0.184 C 
HETATM    7  C17 UNL     1      32.220  66.688   9.652  1.00  0.00     0.177 C 
HETATM    8  C18 UNL     1      30.973  65.821   9.532  1.00  0.00     0.307 C 
HETATM    9  N1  UNL     1      30.617  65.876   8.167  1.00  0.00     0.105 N 
ENDROOT
BRANCH   1  10
HETATM   10  C10 UNL     1      28.339  66.795   8.293  1.00  0.00     0.119 C 
BRANCH  10  11
HETATM   11  C9  UNL     1      27.191  66.247   9.079  1.00  0.00     0.161 C 
HETATM   12  O1  UNL     1      27.143  64.973   9.281  1.00  0.00    -0.292 OA
BRANCH  11  13
HETATM   13  C8  UNL     1      26.126  67.015   9.655  1.00  0.00     0.010 A 
HETATM   14  C7  UNL     1      26.381  68.033  10.574  1.00  0.00     0.015 A 
HETATM   15  C6  UNL     1      25.362  68.768  11.138  1.00  0.00     0.009 A 
HETATM   16  C5  UNL     1      24.048  68.493  10.794  1.00  0.00    -0.051 A 
HETATM   17  C20 UNL     1      23.786  67.494   9.887  1.00  0.00     0.009 A 
HETATM   18  C19 UNL     1      24.818  66.757   9.323  1.00  0.00     0.015 A 
BRANCH  16  19
HETATM   19  C2  UNL     1      22.971  69.316  11.434  1.00  0.00    -0.024 C 
HETATM   20  C1  UNL     1      23.084  69.013  12.925  1.00  0.00     0.019 C 
HETATM   21  C3  UNL     1      23.120  70.786  11.236  1.00  0.00     0.019 C 
HETATM   22  C4  UNL     1      21.579  68.893  10.987  1.00  0.00     0.019 C 
ENDBRANCH  16  19
ENDBRANCH  11  13
ENDBRANCH  10  11
ENDBRANCH   1  10
BRANCH   4  23
HETATM   23  O2  UNL     1      31.611  68.292   5.679  1.00  0.00    -0.393 OA
ATOM     24  H2  UNL     1      32.556  68.364   5.744  1.00  0.00     0.210 HD
ENDBRANCH   4  23
BRANCH   6  25
HETATM   25  O3  UNL     1      33.276  65.961   7.693  1.00  0.00    -0.391 OA
ATOM     26  H3  UNL     1      32.901  65.150   8.016  1.00  0.00     0.210 HD
ENDBRANCH   6  25
BRANCH   7  27
HETATM   27  O4  UNL     1      33.250  66.077  10.339  1.00  0.00    -0.391 OA
ATOM     28  H4  UNL     1      33.565  65.287   9.916  1.00  0.00     0.210 HD
ENDBRANCH   7  27
TORSDOF 7
ENDMDL
