MODEL 5
REMARK VINA RESULT: -7.372310883      2.078      3.142
REMARK  7 active torsions:
REMARK  status: ('A' for Active; 'I' for Inactive)
REMARK    1  A    between atoms: C2_2  and  C5_5 
REMARK    2  A    between atoms: C8_8  and  C9_9 
REMARK    3  A    between atoms: C9_9  and  C10_11 
REMARK    4  A    between atoms: C10_11  and  C11_12 
REMARK    5  A    between atoms: C14_15  and  O2_16 
REMARK    6  A    between atoms: C16_19  and  O3_20 
REMARK    7  A    between atoms: C17_22  and  O4_23 
ROOT
HETATM    1  C11 UNL     1      29.245  66.026   9.819  1.00  0.00     0.231 C 
HETATM    2  C12 UNL     1      28.007  65.469   9.098  1.00  0.00     0.038 C 
HETATM    3  C13 UNL     1      27.574  66.338   7.962  1.00  0.00     0.036 C 
HETATM    4  C14 UNL     1      28.668  66.536   6.987  1.00  0.00     0.154 C 
HETATM    5  C15 UNL     1      29.892  67.001   7.724  1.00  0.00     0.283 C 
HETATM    6  C16 UNL     1      31.169  66.951   6.884  1.00  0.00     0.184 C 
HETATM    7  C17 UNL     1      32.195  67.098   8.007  1.00  0.00     0.177 C 
HETATM    8  C18 UNL     1      31.547  66.408   9.201  1.00  0.00     0.307 C 
HETATM    9  N1  UNL     1      30.232  66.108   8.783  1.00  0.00     0.105 N 
ENDROOT
BRANCH   1  10
HETATM   10  C10 UNL     1      28.898  67.318  10.459  1.00  0.00     0.119 C 
BRANCH  10  11
HETATM   11  C9  UNL     1      28.262  67.066  11.788  1.00  0.00     0.161 C 
HETATM   12  O1  UNL     1      27.053  66.613  11.810  1.00  0.00    -0.292 OA
BRANCH  11  13
HETATM   13  C8  UNL     1      28.881  67.267  13.066  1.00  0.00     0.010 A 
HETATM   14  C7  UNL     1      28.818  66.294  14.063  1.00  0.00     0.015 A 
HETATM   15  C6  UNL     1      29.403  66.486  15.295  1.00  0.00     0.009 A 
HETATM   16  C5  UNL     1      30.068  67.672  15.561  1.00  0.00    -0.051 A 
HETATM   17  C20 UNL     1      30.139  68.636  14.583  1.00  0.00     0.009 A 
HETATM   18  C19 UNL     1      29.547  68.436  13.345  1.00  0.00     0.015 A 
BRANCH  16  19
HETATM   19  C2  UNL     1      30.688  67.838  16.916  1.00  0.00    -0.024 C 
HETATM   20  C1  UNL     1      30.877  66.415  17.433  1.00  0.00     0.019 C 
HETATM   21  C3  UNL     1      32.015  68.519  16.906  1.00  0.00     0.019 C 
HETATM   22  C4  UNL     1      29.766  68.559  17.889  1.00  0.00     0.019 C 
ENDBRANCH  16  19
ENDBRANCH  11  13
ENDBRANCH  10  11
ENDBRANCH   1  10
BRANCH   4  23
HETATM   23  O2  UNL     1      28.359  67.532   6.049  1.00  0.00    -0.393 OA
ATOM     24  H2  UNL     1      29.135  67.854   5.605  1.00  0.00     0.210 HD
ENDBRANCH   4  23
BRANCH   6  25
HETATM   25  O3  UNL     1      31.325  65.694   6.347  1.00  0.00    -0.391 OA
ATOM     26  H3  UNL     1      31.926  65.188   6.882  1.00  0.00     0.210 HD
ENDBRANCH   6  25
BRANCH   7  27
HETATM   27  O4  UNL     1      33.434  66.584   7.681  1.00  0.00    -0.391 OA
ATOM     28  H4  UNL     1      33.900  66.230   8.430  1.00  0.00     0.210 HD
ENDBRANCH   7  27
TORSDOF 7
ENDMDL
