MODEL 6
REMARK VINA RESULT: -7.327060147      3.883      8.171
REMARK  7 active torsions:
REMARK  status: ('A' for Active; 'I' for Inactive)
REMARK    1  A    between atoms: C2_2  and  C5_5 
REMARK    2  A    between atoms: C8_8  and  C9_9 
REMARK    3  A    between atoms: C9_9  and  C10_11 
REMARK    4  A    between atoms: C10_11  and  C11_12 
REMARK    5  A    between atoms: C14_15  and  O2_16 
REMARK    6  A    between atoms: C16_19  and  O3_20 
REMARK    7  A    between atoms: C17_22  and  O4_23 
ROOT
HETATM    1  C11 UNL     1      25.221  64.473  13.132  1.00  0.00     0.231 C 
HETATM    2  C12 UNL     1      26.497  63.615  13.143  1.00  0.00     0.038 C 
HETATM    3  C13 UNL     1      27.617  64.275  13.881  1.00  0.00     0.036 C 
HETATM    4  C14 UNL     1      27.229  64.604  15.269  1.00  0.00     0.154 C 
HETATM    5  C15 UNL     1      25.936  65.370  15.239  1.00  0.00     0.283 C 
HETATM    6  C16 UNL     1      25.273  65.506  16.611  1.00  0.00     0.184 C 
HETATM    7  C17 UNL     1      23.885  65.955  16.157  1.00  0.00     0.177 C 
HETATM    8  C18 UNL     1      23.683  65.257  14.818  1.00  0.00     0.307 C 
HETATM    9  N1  UNL     1      24.928  64.661  14.522  1.00  0.00     0.105 N 
ENDROOT
BRANCH   1  10
HETATM   10  C10 UNL     1      25.477  65.719  12.370  1.00  0.00     0.119 C 
BRANCH  10  11
HETATM   11  C9  UNL     1      25.344  65.449  10.905  1.00  0.00     0.161 C 
HETATM   12  O1  UNL     1      24.224  64.976  10.471  1.00  0.00    -0.292 OA
BRANCH  11  13
HETATM   13  C8  UNL     1      26.353  65.685   9.914  1.00  0.00     0.010 A 
HETATM   14  C7  UNL     1      26.018  65.936   8.584  1.00  0.00     0.015 A 
HETATM   15  C6  UNL     1      26.984  66.154   7.626  1.00  0.00     0.009 A 
HETATM   16  C5  UNL     1      28.322  66.120   7.982  1.00  0.00    -0.051 A 
HETATM   17  C20 UNL     1      28.663  65.876   9.291  1.00  0.00     0.009 A 
HETATM   18  C19 UNL     1      27.685  65.657  10.251  1.00  0.00     0.015 A 
BRANCH  16  19
HETATM   19  C2  UNL     1      29.339  66.361   6.907  1.00  0.00    -0.024 C 
HETATM   20  C1  UNL     1      28.655  67.316   5.933  1.00  0.00     0.019 C 
HETATM   21  C3  UNL     1      30.601  66.994   7.385  1.00  0.00     0.019 C 
HETATM   22  C4  UNL     1      29.678  65.092   6.138  1.00  0.00     0.019 C 
ENDBRANCH  16  19
ENDBRANCH  11  13
ENDBRANCH  10  11
ENDBRANCH   1  10
BRANCH   4  23
HETATM   23  O2  UNL     1      28.174  65.430  15.895  1.00  0.00    -0.393 OA
ATOM     24  H2  UNL     1      29.033  65.026  15.924  1.00  0.00     0.210 HD
ENDBRANCH   4  23
BRANCH   6  25
HETATM   25  O3  UNL     1      25.135  64.264  17.186  1.00  0.00    -0.391 OA
ATOM     26  H3  UNL     1      25.919  64.048  17.677  1.00  0.00     0.210 HD
ENDBRANCH   6  25
BRANCH   7  27
HETATM   27  O4  UNL     1      22.896  65.676  17.077  1.00  0.00    -0.391 OA
ATOM     28  H4  UNL     1      22.019  65.819  16.739  1.00  0.00     0.210 HD
ENDBRANCH   7  27
TORSDOF 7
ENDMDL
