MODEL 3
REMARK VINA RESULT: -6.344975216      0.541      1.020
REMARK  6 active torsions:
REMARK  status: ('A' for Active; 'I' for Inactive)
REMARK    1  A    between atoms: O1_1  and  C1_3 
REMARK    2  A    between atoms: C1_3  and  C2_4 
REMARK    3  A    between atoms: C1_3  and  N1_16 
REMARK    4  A    between atoms: C3_5  and  O2_6 
REMARK    5  A    between atoms: C5_9  and  O3_10 
REMARK    6  A    between atoms: C7_13  and  O4_14 
ROOT
HETATM    1  C2  UNL     1      17.115  -2.426  50.994  1.00  0.00     0.082 A 
HETATM    2  C3  UNL     1      17.224  -2.434  52.348  1.00  0.00     0.085 A 
HETATM    3  C4  UNL     1      17.416  -3.601  53.074  1.00  0.00     0.074 A 
HETATM    4  C5  UNL     1      17.506  -4.814  52.452  1.00  0.00     0.071 A 
HETATM    5  C6  UNL     1      17.403  -4.859  51.090  1.00  0.00     0.074 A 
HETATM    6  C7  UNL     1      17.212  -3.697  50.375  1.00  0.00     0.085 A 
ENDROOT
BRANCH   1   7
HETATM    7  C1  UNL     1      16.922  -1.300  50.177  1.00  0.00     0.162 C 
BRANCH   7   8
HETATM    8  O1  UNL     1      17.913  -1.172  49.286  1.00  0.00    -0.345 OA
ATOM      9  H1  UNL     1      18.214  -2.020  48.982  1.00  0.00     0.219 HD
ENDBRANCH   7   8
BRANCH   7  10
HETATM   10  N1  UNL     1      15.956  -0.290  50.065  1.00  0.00    -0.313 N 
HETATM   11  C8  UNL     1      14.672  -0.176  50.322  1.00  0.00     0.098 A 
HETATM   12  C9  UNL     1      14.162   1.100  50.018  1.00  0.00     0.019 A 
HETATM   13  C10 UNL     1      15.211   1.787  49.551  1.00  0.00     0.019 A 
HETATM   14  C11 UNL     1      16.297   0.965  49.573  1.00  0.00     0.098 A 
ENDBRANCH   7  10
ENDBRANCH   1   7
BRANCH   2  15
HETATM   15  O2  UNL     1      17.153  -1.292  53.097  1.00  0.00    -0.360 OA
ATOM     16  H2  UNL     1      16.327  -0.890  53.337  1.00  0.00     0.217 HD
ENDBRANCH   2  15
BRANCH   6  17
HETATM   17  O4  UNL     1      17.107  -3.734  48.996  1.00  0.00    -0.360 OA
ATOM     18  H4  UNL     1      17.123  -4.590  48.586  1.00  0.00     0.217 HD
ENDBRANCH   6  17
BRANCH   4  19
HETATM   19  O3  UNL     1      17.700  -5.992  53.186  1.00  0.00    -0.361 OA
ATOM     20  H3  UNL     1      18.441  -6.560  53.016  1.00  0.00     0.217 HD
ENDBRANCH   4  19
TORSDOF 6
ENDMDL
