MODEL 2
REMARK VINA RESULT: -6.348837435      1.949      5.322
REMARK  6 active torsions:
REMARK  status: ('A' for Active; 'I' for Inactive)
REMARK    1  A    between atoms: O1_1  and  C1_3 
REMARK    2  A    between atoms: C1_3  and  C2_4 
REMARK    3  A    between atoms: C1_3  and  N1_16 
REMARK    4  A    between atoms: C3_5  and  O2_6 
REMARK    5  A    between atoms: C5_9  and  O3_10 
REMARK    6  A    between atoms: C7_13  and  O4_14 
ROOT
HETATM    1  C2  UNL     1      15.933  -1.591  50.204  1.00  0.00     0.082 A 
HETATM    2  C3  UNL     1      14.656  -1.360  50.604  1.00  0.00     0.085 A 
HETATM    3  C4  UNL     1      14.052  -0.116  50.487  1.00  0.00     0.074 A 
HETATM    4  C5  UNL     1      14.723   0.950  49.957  1.00  0.00     0.071 A 
HETATM    5  C6  UNL     1      16.011   0.768  49.539  1.00  0.00     0.074 A 
HETATM    6  C7  UNL     1      16.606  -0.469  49.657  1.00  0.00     0.085 A 
ENDROOT
BRANCH   1   7
HETATM    7  C1  UNL     1      16.625  -2.810  50.281  1.00  0.00     0.162 C 
BRANCH   7   8
HETATM    8  O1  UNL     1      16.743  -3.378  49.073  1.00  0.00    -0.345 OA
ATOM      9  H1  UNL     1      17.590  -3.795  48.971  1.00  0.00     0.219 HD
ENDBRANCH   7   8
BRANCH   7  10
HETATM   10  N1  UNL     1      17.219  -3.571  51.299  1.00  0.00    -0.313 N 
HETATM   11  C8  UNL     1      17.708  -4.785  51.410  1.00  0.00     0.098 A 
HETATM   12  C9  UNL     1      18.202  -5.063  52.698  1.00  0.00     0.019 A 
HETATM   13  C10 UNL     1      17.992  -3.942  53.396  1.00  0.00     0.019 A 
HETATM   14  C11 UNL     1      17.401  -3.034  52.568  1.00  0.00     0.098 A 
ENDBRANCH   7  10
ENDBRANCH   1   7
BRANCH   2  15
HETATM   15  O2  UNL     1      13.869  -2.336  51.151  1.00  0.00    -0.360 OA
ATOM     16  H2  UNL     1      14.187  -2.932  51.819  1.00  0.00     0.217 HD
ENDBRANCH   2  15
BRANCH   6  17
HETATM   17  O4  UNL     1      17.909  -0.663  49.237  1.00  0.00    -0.360 OA
ATOM     18  H4  UNL     1      18.351  -1.443  49.549  1.00  0.00     0.217 HD
ENDBRANCH   6  17
BRANCH   4  19
HETATM   19  O3  UNL     1      14.112   2.205  49.840  1.00  0.00    -0.361 OA
ATOM     20  H3  UNL     1      13.171   2.287  49.744  1.00  0.00     0.217 HD
ENDBRANCH   4  19
TORSDOF 6
ENDMDL
