MODEL 17
REMARK VINA RESULT: -5.545824187      1.980      5.519
REMARK  6 active torsions:
REMARK  status: ('A' for Active; 'I' for Inactive)
REMARK    1  A    between atoms: O1_1  and  C1_3 
REMARK    2  A    between atoms: C1_3  and  C2_4 
REMARK    3  A    between atoms: C1_3  and  N1_16 
REMARK    4  A    between atoms: C3_5  and  O2_6 
REMARK    5  A    between atoms: C5_9  and  O3_10 
REMARK    6  A    between atoms: C7_13  and  O4_14 
ROOT
HETATM    1  C2  UNL     1      16.171  -1.103  51.432  1.00  0.00     0.082 A 
HETATM    2  C3  UNL     1      16.655  -0.317  50.436  1.00  0.00     0.085 A 
HETATM    3  C4  UNL     1      15.861   0.592  49.751  1.00  0.00     0.074 A 
HETATM    4  C5  UNL     1      14.536   0.742  50.050  1.00  0.00     0.071 A 
HETATM    5  C6  UNL     1      14.001  -0.027  51.046  1.00  0.00     0.074 A 
HETATM    6  C7  UNL     1      14.794  -0.928  51.722  1.00  0.00     0.085 A 
ENDROOT
BRANCH   1   7
HETATM    7  C1  UNL     1      16.894  -2.047  52.179  1.00  0.00     0.162 C 
BRANCH   7   8
HETATM    8  O1  UNL     1      17.424  -1.493  53.277  1.00  0.00    -0.345 OA
ATOM      9  H1  UNL     1      16.756  -1.317  53.930  1.00  0.00     0.219 HD
ENDBRANCH   7   8
BRANCH   7  10
HETATM   10  N1  UNL     1      17.193  -3.412  52.060  1.00  0.00    -0.313 N 
HETATM   11  C8  UNL     1      16.974  -4.354  51.171  1.00  0.00     0.098 A 
HETATM   12  C9  UNL     1      17.505  -5.601  51.549  1.00  0.00     0.019 A 
HETATM   13  C10 UNL     1      18.075  -5.384  52.739  1.00  0.00     0.019 A 
HETATM   14  C11 UNL     1      17.896  -4.072  53.061  1.00  0.00     0.098 A 
ENDBRANCH   7  10
ENDBRANCH   1   7
BRANCH   2  15
HETATM   15  O2  UNL     1      17.961  -0.362  50.034  1.00  0.00    -0.360 OA
ATOM     16  H2  UNL     1      18.680  -0.130  50.610  1.00  0.00     0.217 HD
ENDBRANCH   2  15
BRANCH   6  17
HETATM   17  O4  UNL     1      14.261  -1.709  52.731  1.00  0.00    -0.360 OA
ATOM     18  H4  UNL     1      13.797  -2.495  52.468  1.00  0.00     0.217 HD
ENDBRANCH   6  17
BRANCH   4  19
HETATM   19  O3  UNL     1      13.736   1.660  49.358  1.00  0.00    -0.361 OA
ATOM     20  H3  UNL     1      12.968   1.377  48.876  1.00  0.00     0.217 HD
ENDBRANCH   4  19
TORSDOF 6
ENDMDL
