MODEL 7
REMARK VINA RESULT: -5.886658547      2.310      5.740
REMARK  6 active torsions:
REMARK  status: ('A' for Active; 'I' for Inactive)
REMARK    1  A    between atoms: O1_1  and  C1_3 
REMARK    2  A    between atoms: C1_3  and  C2_4 
REMARK    3  A    between atoms: C1_3  and  N1_16 
REMARK    4  A    between atoms: C3_5  and  O2_6 
REMARK    5  A    between atoms: C5_9  and  O3_10 
REMARK    6  A    between atoms: C7_13  and  O4_14 
ROOT
HETATM    1  C2  UNL     1      15.787  -0.244  50.461  1.00  0.00     0.082 A 
HETATM    2  C3  UNL     1      16.840   0.316  49.812  1.00  0.00     0.085 A 
HETATM    3  C4  UNL     1      16.793   1.598  49.282  1.00  0.00     0.074 A 
HETATM    4  C5  UNL     1      15.669   2.368  49.390  1.00  0.00     0.071 A 
HETATM    5  C6  UNL     1      14.582   1.848  50.035  1.00  0.00     0.074 A 
HETATM    6  C7  UNL     1      14.634   0.575  50.559  1.00  0.00     0.085 A 
ENDROOT
BRANCH   1   7
HETATM    7  C1  UNL     1      15.741  -1.528  51.028  1.00  0.00     0.162 C 
BRANCH   7   8
HETATM    8  O1  UNL     1      14.754  -2.259  50.494  1.00  0.00    -0.345 OA
ATOM      9  H1  UNL     1      14.242  -2.689  51.169  1.00  0.00     0.219 HD
ENDBRANCH   7   8
BRANCH   7  10
HETATM   10  N1  UNL     1      16.467  -2.225  52.005  1.00  0.00    -0.313 N 
HETATM   11  C8  UNL     1      17.095  -3.377  52.073  1.00  0.00     0.098 A 
HETATM   12  C9  UNL     1      17.683  -3.610  53.330  1.00  0.00     0.019 A 
HETATM   13  C10 UNL     1      17.383  -2.526  54.055  1.00  0.00     0.019 A 
HETATM   14  C11 UNL     1      16.652  -1.683  53.271  1.00  0.00     0.098 A 
ENDBRANCH   7  10
ENDBRANCH   1   7
BRANCH   2  15
HETATM   15  O2  UNL     1      18.026  -0.340  49.633  1.00  0.00    -0.360 OA
ATOM     16  H2  UNL     1      18.867   0.073  49.793  1.00  0.00     0.217 HD
ENDBRANCH   2  15
BRANCH   6  17
HETATM   17  O4  UNL     1      13.539   0.042  51.213  1.00  0.00    -0.360 OA
ATOM     18  H4  UNL     1      12.807  -0.234  50.673  1.00  0.00     0.217 HD
ENDBRANCH   6  17
BRANCH   4  19
HETATM   19  O3  UNL     1      15.622   3.661  48.855  1.00  0.00    -0.361 OA
ATOM     20  H3  UNL     1      16.389   4.221  48.855  1.00  0.00     0.217 HD
ENDBRANCH   4  19
TORSDOF 6
ENDMDL
