MODEL 1
REMARK VINA RESULT: -6.353246393      0.000      0.000
REMARK  6 active torsions:
REMARK  status: ('A' for Active; 'I' for Inactive)
REMARK    1  A    between atoms: O1_1  and  C1_3 
REMARK    2  A    between atoms: C1_3  and  C2_4 
REMARK    3  A    between atoms: C1_3  and  N1_16 
REMARK    4  A    between atoms: C3_5  and  O2_6 
REMARK    5  A    between atoms: C5_9  and  O3_10 
REMARK    6  A    between atoms: C7_13  and  O4_14 
ROOT
HETATM    1  C2  UNL     1      17.074  -2.506  50.928  1.00  0.00     0.082 A 
HETATM    2  C3  UNL     1      17.201  -2.488  52.280  1.00  0.00     0.085 A 
HETATM    3  C4  UNL     1      17.495  -3.627  53.016  1.00  0.00     0.074 A 
HETATM    4  C5  UNL     1      17.675  -4.837  52.407  1.00  0.00     0.071 A 
HETATM    5  C6  UNL     1      17.558  -4.907  51.047  1.00  0.00     0.074 A 
HETATM    6  C7  UNL     1      17.265  -3.773  50.321  1.00  0.00     0.085 A 
ENDROOT
BRANCH   1   7
HETATM    7  C1  UNL     1      16.779  -1.410  50.101  1.00  0.00     0.162 C 
BRANCH   7   8
HETATM    8  O1  UNL     1      17.816  -1.108  49.309  1.00  0.00    -0.345 OA
ATOM      9  H1  UNL     1      17.618  -0.364  48.752  1.00  0.00     0.219 HD
ENDBRANCH   7   8
BRANCH   7  10
HETATM   10  N1  UNL     1      15.678  -0.564  49.901  1.00  0.00    -0.313 N 
HETATM   11  C8  UNL     1      15.483   0.733  49.832  1.00  0.00     0.098 A 
HETATM   12  C9  UNL     1      14.136   1.075  49.608  1.00  0.00     0.019 A 
HETATM   13  C10 UNL     1      13.492  -0.095  49.541  1.00  0.00     0.019 A 
HETATM   14  C11 UNL     1      14.405  -1.091  49.715  1.00  0.00     0.098 A 
ENDBRANCH   7  10
ENDBRANCH   1   7
BRANCH   2  15
HETATM   15  O2  UNL     1      17.048  -1.346  53.017  1.00  0.00    -0.360 OA
ATOM     16  H2  UNL     1      17.652  -0.616  52.956  1.00  0.00     0.217 HD
ENDBRANCH   2  15
BRANCH   6  17
HETATM   17  O4  UNL     1      17.144  -3.835  48.945  1.00  0.00    -0.360 OA
ATOM     18  H4  UNL     1      16.999  -3.015  48.488  1.00  0.00     0.217 HD
ENDBRANCH   6  17
BRANCH   4  19
HETATM   19  O3  UNL     1      17.972  -5.986  53.151  1.00  0.00    -0.361 OA
ATOM     20  H3  UNL     1      18.861  -6.316  53.211  1.00  0.00     0.217 HD
ENDBRANCH   4  19
TORSDOF 6
ENDMDL
