MODEL 6
REMARK VINA RESULT: -6.046136859      2.057      5.391
REMARK  6 active torsions:
REMARK  status: ('A' for Active; 'I' for Inactive)
REMARK    1  A    between atoms: O1_1  and  C1_3 
REMARK    2  A    between atoms: C1_3  and  C2_4 
REMARK    3  A    between atoms: C1_3  and  N1_16 
REMARK    4  A    between atoms: C3_5  and  O2_6 
REMARK    5  A    between atoms: C5_9  and  O3_10 
REMARK    6  A    between atoms: C7_13  and  O4_14 
ROOT
HETATM    1  C2  UNL     1      15.963  -0.881  50.147  1.00  0.00     0.082 A 
HETATM    2  C3  UNL     1      14.738  -0.316  50.304  1.00  0.00     0.085 A 
HETATM    3  C4  UNL     1      14.504   1.033  50.077  1.00  0.00     0.074 A 
HETATM    4  C5  UNL     1      15.510   1.868  49.677  1.00  0.00     0.071 A 
HETATM    5  C6  UNL     1      16.761   1.347  49.504  1.00  0.00     0.074 A 
HETATM    6  C7  UNL     1      16.987   0.007  49.732  1.00  0.00     0.085 A 
ENDROOT
BRANCH   1   7
HETATM    7  C1  UNL     1      16.294  -2.230  50.352  1.00  0.00     0.162 C 
BRANCH   7   8
HETATM    8  O1  UNL     1      16.425  -2.880  49.188  1.00  0.00    -0.345 OA
ATOM      9  H1  UNL     1      16.781  -3.750  49.318  1.00  0.00     0.219 HD
ENDBRANCH   7   8
BRANCH   7  10
HETATM   10  N1  UNL     1      16.520  -3.056  51.463  1.00  0.00    -0.313 N 
HETATM   11  C8  UNL     1      16.239  -4.296  51.793  1.00  0.00     0.098 A 
HETATM   12  C9  UNL     1      16.710  -4.645  53.072  1.00  0.00     0.019 A 
HETATM   13  C10 UNL     1      17.310  -3.541  53.530  1.00  0.00     0.019 A 
HETATM   14  C11 UNL     1      17.204  -2.575  52.574  1.00  0.00     0.098 A 
ENDBRANCH   7  10
ENDBRANCH   1   7
BRANCH   2  15
HETATM   15  O2  UNL     1      13.643  -1.034  50.699  1.00  0.00    -0.360 OA
ATOM     16  H2  UNL     1      13.585  -1.976  50.592  1.00  0.00     0.217 HD
ENDBRANCH   2  15
BRANCH   6  17
HETATM   17  O4  UNL     1      18.250  -0.529  49.559  1.00  0.00    -0.360 OA
ATOM     18  H4  UNL     1      18.986   0.005  49.833  1.00  0.00     0.217 HD
ENDBRANCH   6  17
BRANCH   4  19
HETATM   19  O3  UNL     1      15.273   3.229  49.448  1.00  0.00    -0.361 OA
ATOM     20  H3  UNL     1      14.619   3.705  49.946  1.00  0.00     0.217 HD
ENDBRANCH   4  19
TORSDOF 6
ENDMDL
