MODEL 5
REMARK VINA RESULT: -6.186171803      1.960      5.363
REMARK  6 active torsions:
REMARK  status: ('A' for Active; 'I' for Inactive)
REMARK    1  A    between atoms: O1_1  and  C1_3 
REMARK    2  A    between atoms: C1_3  and  C2_4 
REMARK    3  A    between atoms: C1_3  and  N1_16 
REMARK    4  A    between atoms: C3_5  and  O2_6 
REMARK    5  A    between atoms: C5_9  and  O3_10 
REMARK    6  A    between atoms: C7_13  and  O4_14 
ROOT
HETATM    1  C2  UNL     1      16.026  -1.649  50.223  1.00  0.00     0.082 A 
HETATM    2  C3  UNL     1      16.572  -0.522  49.699  1.00  0.00     0.085 A 
HETATM    3  C4  UNL     1      15.897   0.690  49.670  1.00  0.00     0.074 A 
HETATM    4  C5  UNL     1      14.633   0.809  50.174  1.00  0.00     0.071 A 
HETATM    5  C6  UNL     1      14.039  -0.298  50.714  1.00  0.00     0.074 A 
HETATM    6  C7  UNL     1      14.714  -1.499  50.740  1.00  0.00     0.085 A 
ENDROOT
BRANCH   1   7
HETATM    7  C1  UNL     1      16.629  -2.915  50.297  1.00  0.00     0.162 C 
BRANCH   7   8
HETATM    8  O1  UNL     1      16.704  -3.488  49.089  1.00  0.00    -0.345 OA
ATOM      9  H1  UNL     1      16.773  -4.432  49.160  1.00  0.00     0.219 HD
ENDBRANCH   7   8
BRANCH   7  10
HETATM   10  N1  UNL     1      17.168  -3.718  51.314  1.00  0.00    -0.313 N 
HETATM   11  C8  UNL     1      17.505  -4.981  51.442  1.00  0.00     0.098 A 
HETATM   12  C9  UNL     1      18.018  -5.286  52.716  1.00  0.00     0.019 A 
HETATM   13  C10 UNL     1      17.982  -4.129  53.387  1.00  0.00     0.019 A 
HETATM   14  C11 UNL     1      17.473  -3.176  52.556  1.00  0.00     0.098 A 
ENDBRANCH   7  10
ENDBRANCH   1   7
BRANCH   2  15
HETATM   15  O2  UNL     1      17.829  -0.497  49.161  1.00  0.00    -0.360 OA
ATOM     16  H2  UNL     1      18.218   0.295  48.809  1.00  0.00     0.217 HD
ENDBRANCH   2  15
BRANCH   6  17
HETATM   17  O4  UNL     1      14.121  -2.623  51.284  1.00  0.00    -0.360 OA
ATOM     18  H4  UNL     1      14.620  -3.431  51.252  1.00  0.00     0.217 HD
ENDBRANCH   6  17
BRANCH   4  19
HETATM   19  O3  UNL     1      13.953   2.032  50.144  1.00  0.00    -0.361 OA
ATOM     20  H3  UNL     1      13.005   2.070  50.199  1.00  0.00     0.217 HD
ENDBRANCH   4  19
TORSDOF 6
ENDMDL
