MODEL 4
REMARK VINA RESULT: -6.316975845      0.540      2.300
REMARK  6 active torsions:
REMARK  status: ('A' for Active; 'I' for Inactive)
REMARK    1  A    between atoms: O1_1  and  C1_3 
REMARK    2  A    between atoms: C1_3  and  C2_4 
REMARK    3  A    between atoms: C1_3  and  N1_16 
REMARK    4  A    between atoms: C3_5  and  O2_6 
REMARK    5  A    between atoms: C5_9  and  O3_10 
REMARK    6  A    between atoms: C7_13  and  O4_14 
ROOT
HETATM    1  C2  UNL     1      17.066  -2.460  50.777  1.00  0.00     0.082 A 
HETATM    2  C3  UNL     1      17.234  -3.706  50.266  1.00  0.00     0.085 A 
HETATM    3  C4  UNL     1      17.397  -4.826  51.069  1.00  0.00     0.074 A 
HETATM    4  C5  UNL     1      17.397  -4.726  52.432  1.00  0.00     0.071 A 
HETATM    5  C6  UNL     1      17.231  -3.492  52.995  1.00  0.00     0.074 A 
HETATM    6  C7  UNL     1      17.070  -2.384  52.193  1.00  0.00     0.085 A 
ENDROOT
BRANCH   1   7
HETATM    7  C1  UNL     1      16.894  -1.272  50.048  1.00  0.00     0.162 C 
BRANCH   7   8
HETATM    8  O1  UNL     1      17.916  -1.067  49.207  1.00  0.00    -0.345 OA
ATOM      9  H1  UNL     1      17.943  -0.165  48.912  1.00  0.00     0.219 HD
ENDBRANCH   7   8
BRANCH   7  10
HETATM   10  N1  UNL     1      15.926  -0.260  49.983  1.00  0.00    -0.313 N 
HETATM   11  C8  UNL     1      14.634  -0.171  50.207  1.00  0.00     0.098 A 
HETATM   12  C9  UNL     1      14.125   1.122  49.986  1.00  0.00     0.019 A 
HETATM   13  C10 UNL     1      15.184   1.847  49.607  1.00  0.00     0.019 A 
HETATM   14  C11 UNL     1      16.274   1.030  49.600  1.00  0.00     0.098 A 
ENDBRANCH   7  10
ENDBRANCH   1   7
BRANCH   2  15
HETATM   15  O2  UNL     1      17.253  -3.951  48.920  1.00  0.00    -0.360 OA
ATOM     16  H2  UNL     1      18.052  -3.919  48.408  1.00  0.00     0.217 HD
ENDBRANCH   2  15
BRANCH   6  17
HETATM   17  O4  UNL     1      16.902  -1.132  52.755  1.00  0.00    -0.360 OA
ATOM     18  H4  UNL     1      16.960  -1.073  53.701  1.00  0.00     0.217 HD
ENDBRANCH   6  17
BRANCH   4  19
HETATM   19  O3  UNL     1      17.561  -5.857  53.241  1.00  0.00    -0.361 OA
ATOM     20  H3  UNL     1      17.370  -5.828  54.171  1.00  0.00     0.217 HD
ENDBRANCH   4  19
TORSDOF 6
ENDMDL
