MODEL 5
REMARK VINA RESULT: -8.321084746      3.169      8.716
REMARK  13 active torsions:
REMARK  status: ('A' for Active; 'I' for Inactive)
REMARK    1  A    between atoms: C2_2  and  C4_4 
REMARK    2  A    between atoms: C4_4  and  N1_5 
REMARK    3  A    between atoms: N1_5  and  C5_6 
REMARK    4  A    between atoms: N1_5  and  S1_28 
REMARK    5  A    between atoms: C5_6  and  C6_7 
REMARK    6  A    between atoms: C6_7  and  O1_8 
REMARK    7  A    between atoms: C6_7  and  C7_10 
REMARK    8  A    between atoms: C7_10  and  C8_11 
REMARK    9  A    between atoms: C7_10  and  N2_18 
REMARK   10  A    between atoms: C8_11  and  C9_12 
REMARK       I    between atoms: N2_18  and  C15_20 
REMARK   11  A    between atoms: C15_20  and  O3_22 
REMARK   12  A    between atoms: O3_22  and  C16_23 
REMARK   13  A    between atoms: S1_28  and  C20_31 
ROOT
HETATM    1  C6  UNL     1      12.056 -22.453  35.078  1.00  0.00     0.160 C 
ENDROOT
BRANCH   1   2
HETATM    2  C5  UNL     1      10.685 -23.008  35.149  1.00  0.00     0.174 C 
BRANCH   2   3
HETATM    3  N1  UNL     1       9.931 -22.807  36.327  1.00  0.00    -0.283 N 
BRANCH   3   4
HETATM    4  C4  UNL     1       8.723 -23.517  36.452  1.00  0.00     0.080 C 
BRANCH   4   5
HETATM    5  C2  UNL     1       7.866 -23.593  35.216  1.00  0.00     0.017 C 
HETATM    6  C1  UNL     1       6.803 -22.556  35.107  1.00  0.00     0.015 C 
HETATM    7  C3  UNL     1       7.327 -24.999  35.005  1.00  0.00     0.015 C 
ENDBRANCH   4   5
ENDBRANCH   3   4
BRANCH   3   8
HETATM    8  S1  UNL     1       9.839 -21.216  36.867  1.00  0.00     0.264 S 
HETATM    9  O5  UNL     1       9.650 -20.268  35.709  1.00  0.00    -0.200 OA
HETATM   10  O6  UNL     1       8.566 -21.045  37.716  1.00  0.00    -0.200 OA
BRANCH   8  11
HETATM   11  C20 UNL     1      11.194 -20.665  37.827  1.00  0.00     0.080 A 
HETATM   12  C21 UNL     1      11.906 -19.520  37.555  1.00  0.00     0.027 A 
HETATM   13  C22 UNL     1      12.968 -19.122  38.363  1.00  0.00     0.028 A 
HETATM   14  C23 UNL     1      13.356 -19.851  39.469  1.00  0.00     0.046 A 
HETATM   15  N3  UNL     1      14.446 -19.424  40.280  1.00  0.00    -0.102 NA
HETATM   16  C24 UNL     1      12.643 -21.000  39.744  1.00  0.00     0.028 A 
HETATM   17  C25 UNL     1      11.592 -21.397  38.948  1.00  0.00     0.027 A 
ENDBRANCH   8  11
ENDBRANCH   3   8
ENDBRANCH   2   3
ENDBRANCH   1   2
BRANCH   1  18
HETATM   18  O1  UNL     1      13.075 -23.387  35.088  1.00  0.00    -0.392 OA
ATOM     19  H1  UNL     1      13.949 -23.038  34.961  1.00  0.00     0.210 HD
ENDBRANCH   1  18
BRANCH   1  20
HETATM   20  C7  UNL     1      12.257 -21.604  33.805  1.00  0.00     0.121 C 
BRANCH  20  21
HETATM   21  C8  UNL     1      12.504 -20.183  34.244  1.00  0.00     0.066 C 
BRANCH  21  22
HETATM   22  C9  UNL     1      13.936 -19.799  34.057  1.00  0.00    -0.056 A 
HETATM   23  C10 UNL     1      14.936 -20.446  34.743  1.00  0.00     0.007 A 
HETATM   24  C11 UNL     1      16.276 -20.084  34.567  1.00  0.00     0.001 A 
HETATM   25  C12 UNL     1      16.587 -19.070  33.697  1.00  0.00     0.000 A 
HETATM   26  C13 UNL     1      15.611 -18.410  33.002  1.00  0.00     0.001 A 
HETATM   27  C14 UNL     1      14.293 -18.787  33.194  1.00  0.00     0.007 A 
ENDBRANCH  21  22
ENDBRANCH  20  21
BRANCH  20  28
HETATM   28  N2  UNL     1      10.919 -21.590  33.187  1.00  0.00    -0.329 N 
HETATM   29  C15 UNL     1      10.770 -21.621  31.788  1.00  0.00     0.361 C 
HETATM   30  O2  UNL     1      11.820 -21.657  31.093  1.00  0.00    -0.238 OA
ATOM     31  H2  UNL     1      10.091 -21.556  33.782  1.00  0.00     0.165 HD
BRANCH  29  32
HETATM   32  O3  UNL     1       9.531 -21.615  31.141  1.00  0.00    -0.296 OA
BRANCH  32  33
HETATM   33  C16 UNL     1       9.050 -22.791  30.499  1.00  0.00     0.159 C 
HETATM   34  C17 UNL     1       8.519 -23.790  31.509  1.00  0.00     0.061 C 
HETATM   35  C18 UNL     1       7.029 -23.758  31.307  1.00  0.00     0.170 C 
HETATM   36  O4  UNL     1       6.934 -23.530  29.925  1.00  0.00    -0.389 OA
HETATM   37  C19 UNL     1       7.800 -22.439  29.729  1.00  0.00     0.200 C 
ENDBRANCH  32  33
ENDBRANCH  29  32
ENDBRANCH  20  28
ENDBRANCH   1  20
TORSDOF 13
ENDMDL
