MODEL 4
REMARK VINA RESULT: -8.338257028      1.227      4.430
REMARK  13 active torsions:
REMARK  status: ('A' for Active; 'I' for Inactive)
REMARK    1  A    between atoms: C2_2  and  C4_4 
REMARK    2  A    between atoms: C4_4  and  N1_5 
REMARK    3  A    between atoms: N1_5  and  C5_6 
REMARK    4  A    between atoms: N1_5  and  S1_28 
REMARK    5  A    between atoms: C5_6  and  C6_7 
REMARK    6  A    between atoms: C6_7  and  O1_8 
REMARK    7  A    between atoms: C6_7  and  C7_10 
REMARK    8  A    between atoms: C7_10  and  C8_11 
REMARK    9  A    between atoms: C7_10  and  N2_18 
REMARK   10  A    between atoms: C8_11  and  C9_12 
REMARK       I    between atoms: N2_18  and  C15_20 
REMARK   11  A    between atoms: C15_20  and  O3_22 
REMARK   12  A    between atoms: O3_22  and  C16_23 
REMARK   13  A    between atoms: S1_28  and  C20_31 
ROOT
HETATM    1  C6  UNL     1      13.067 -21.503  36.525  1.00  0.00     0.160 C 
ENDROOT
BRANCH   1   2
HETATM    2  C5  UNL     1      13.552 -20.161  36.128  1.00  0.00     0.174 C 
BRANCH   2   3
HETATM    3  N1  UNL     1      13.561 -19.820  34.757  1.00  0.00    -0.283 N 
BRANCH   3   4
HETATM    4  C4  UNL     1      13.330 -20.853  33.831  1.00  0.00     0.080 C 
BRANCH   4   5
HETATM    5  C2  UNL     1      11.975 -20.865  33.173  1.00  0.00     0.017 C 
HETATM    6  C1  UNL     1      10.998 -19.871  33.697  1.00  0.00     0.015 C 
HETATM    7  C3  UNL     1      11.400 -22.271  33.122  1.00  0.00     0.015 C 
ENDBRANCH   4   5
ENDBRANCH   3   4
BRANCH   3   8
HETATM    8  S1  UNL     1      14.766 -18.746  34.285  1.00  0.00     0.264 S 
HETATM    9  O5  UNL     1      15.266 -19.076  32.900  1.00  0.00    -0.200 OA
HETATM   10  O6  UNL     1      14.160 -17.336  34.148  1.00  0.00    -0.200 OA
BRANCH   8  11
HETATM   11  C20 UNL     1      16.139 -18.629  35.362  1.00  0.00     0.080 A 
HETATM   12  C21 UNL     1      16.031 -18.392  36.713  1.00  0.00     0.027 A 
HETATM   13  C22 UNL     1      17.160 -18.324  37.526  1.00  0.00     0.028 A 
HETATM   14  C23 UNL     1      18.433 -18.490  37.020  1.00  0.00     0.046 A 
HETATM   15  N3  UNL     1      19.573 -18.415  37.871  1.00  0.00    -0.102 NA
HETATM   16  C24 UNL     1      18.545 -18.728  35.666  1.00  0.00     0.028 A 
HETATM   17  C25 UNL     1      17.432 -18.797  34.858  1.00  0.00     0.027 A 
ENDBRANCH   8  11
ENDBRANCH   3   8
ENDBRANCH   2   3
ENDBRANCH   1   2
BRANCH   1  18
HETATM   18  O1  UNL     1      14.043 -22.380  36.961  1.00  0.00    -0.392 OA
ATOM     19  H1  UNL     1      13.742 -23.260  37.154  1.00  0.00     0.210 HD
ENDBRANCH   1  18
BRANCH   1  20
HETATM   20  C7  UNL     1      12.022 -21.416  37.657  1.00  0.00     0.121 C 
BRANCH  20  21
HETATM   21  C8  UNL     1      10.804 -20.729  37.094  1.00  0.00     0.066 C 
BRANCH  21  22
HETATM   22  C9  UNL     1       9.693 -21.702  36.861  1.00  0.00    -0.056 A 
HETATM   23  C10 UNL     1       8.386 -21.355  37.111  1.00  0.00     0.007 A 
HETATM   24  C11 UNL     1       7.348 -22.266  36.892  1.00  0.00     0.001 A 
HETATM   25  C12 UNL     1       7.646 -23.520  36.421  1.00  0.00     0.000 A 
HETATM   26  C13 UNL     1       8.938 -23.891  36.164  1.00  0.00     0.001 A 
HETATM   27  C14 UNL     1       9.947 -22.970  36.389  1.00  0.00     0.007 A 
ENDBRANCH  21  22
ENDBRANCH  20  21
BRANCH  20  28
HETATM   28  N2  UNL     1      12.613 -20.445  38.595  1.00  0.00    -0.329 N 
HETATM   29  C15 UNL     1      12.596 -20.681  39.983  1.00  0.00     0.361 C 
HETATM   30  O2  UNL     1      12.055 -21.745  40.385  1.00  0.00    -0.238 OA
ATOM     31  H2  UNL     1      13.039 -19.592  38.234  1.00  0.00     0.165 HD
BRANCH  29  32
HETATM   32  O3  UNL     1      13.143 -19.803  40.924  1.00  0.00    -0.296 OA
BRANCH  32  33
HETATM   33  C16 UNL     1      14.454 -20.024  41.435  1.00  0.00     0.159 C 
HETATM   34  C17 UNL     1      15.501 -19.348  40.572  1.00  0.00     0.061 C 
HETATM   35  C18 UNL     1      15.983 -18.198  41.414  1.00  0.00     0.170 C 
HETATM   36  O4  UNL     1      15.895 -18.737  42.707  1.00  0.00    -0.389 OA
HETATM   37  C19 UNL     1      14.593 -19.269  42.735  1.00  0.00     0.200 C 
ENDBRANCH  32  33
ENDBRANCH  29  32
ENDBRANCH  20  28
ENDBRANCH   1  20
TORSDOF 13
ENDMDL
