MODEL 3
REMARK VINA RESULT: -8.352467886      2.836      7.622
REMARK  13 active torsions:
REMARK  status: ('A' for Active; 'I' for Inactive)
REMARK    1  A    between atoms: C2_2  and  C4_4 
REMARK    2  A    between atoms: C4_4  and  N1_5 
REMARK    3  A    between atoms: N1_5  and  C5_6 
REMARK    4  A    between atoms: N1_5  and  S1_28 
REMARK    5  A    between atoms: C5_6  and  C6_7 
REMARK    6  A    between atoms: C6_7  and  O1_8 
REMARK    7  A    between atoms: C6_7  and  C7_10 
REMARK    8  A    between atoms: C7_10  and  C8_11 
REMARK    9  A    between atoms: C7_10  and  N2_18 
REMARK   10  A    between atoms: C8_11  and  C9_12 
REMARK       I    between atoms: N2_18  and  C15_20 
REMARK   11  A    between atoms: C15_20  and  O3_22 
REMARK   12  A    between atoms: O3_22  and  C16_23 
REMARK   13  A    between atoms: S1_28  and  C20_31 
ROOT
HETATM    1  C6  UNL     1      12.516 -22.617  34.829  1.00  0.00     0.160 C 
ENDROOT
BRANCH   1   2
HETATM    2  C5  UNL     1      13.241 -22.022  35.975  1.00  0.00     0.174 C 
BRANCH   2   3
HETATM    3  N1  UNL     1      13.167 -20.625  36.175  1.00  0.00    -0.283 N 
BRANCH   3   4
HETATM    4  C4  UNL     1      14.274 -19.854  35.778  1.00  0.00     0.080 C 
BRANCH   4   5
HETATM    5  C2  UNL     1      14.056 -18.927  34.611  1.00  0.00     0.017 C 
HETATM    6  C1  UNL     1      14.145 -19.558  33.265  1.00  0.00     0.015 C 
HETATM    7  C3  UNL     1      14.921 -17.682  34.727  1.00  0.00     0.015 C 
ENDBRANCH   4   5
ENDBRANCH   3   4
BRANCH   3   8
HETATM    8  S1  UNL     1      12.490 -20.135  37.634  1.00  0.00     0.264 S 
HETATM    9  O5  UNL     1      11.724 -18.846  37.464  1.00  0.00    -0.200 OA
HETATM   10  O6  UNL     1      11.425 -21.161  38.066  1.00  0.00    -0.200 OA
BRANCH   8  11
HETATM   11  C20 UNL     1      13.612 -19.948  38.962  1.00  0.00     0.080 A 
HETATM   12  C21 UNL     1      14.916 -19.537  38.807  1.00  0.00     0.027 A 
HETATM   13  C22 UNL     1      15.762 -19.392  39.904  1.00  0.00     0.028 A 
HETATM   14  C23 UNL     1      15.337 -19.650  41.191  1.00  0.00     0.046 A 
HETATM   15  N3  UNL     1      16.221 -19.494  42.297  1.00  0.00    -0.102 NA
HETATM   16  C24 UNL     1      14.031 -20.061  41.350  1.00  0.00     0.028 A 
HETATM   17  C25 UNL     1      13.190 -20.207  40.269  1.00  0.00     0.027 A 
ENDBRANCH   8  11
ENDBRANCH   3   8
ENDBRANCH   2   3
ENDBRANCH   1   2
BRANCH   1  18
HETATM   18  O1  UNL     1      12.637 -23.988  34.699  1.00  0.00    -0.392 OA
ATOM     19  H1  UNL     1      12.013 -24.397  34.112  1.00  0.00     0.210 HD
ENDBRANCH   1  18
BRANCH   1  20
HETATM   20  C7  UNL     1      11.004 -22.317  34.899  1.00  0.00     0.121 C 
BRANCH  20  21
HETATM   21  C8  UNL     1      10.369 -23.395  35.740  1.00  0.00     0.066 C 
BRANCH  21  22
HETATM   22  C9  UNL     1       8.884 -23.234  35.798  1.00  0.00    -0.056 A 
HETATM   23  C10 UNL     1       8.050 -24.317  35.648  1.00  0.00     0.007 A 
HETATM   24  C11 UNL     1       6.661 -24.163  35.702  1.00  0.00     0.001 A 
HETATM   25  C12 UNL     1       6.132 -22.914  35.908  1.00  0.00     0.000 A 
HETATM   26  C13 UNL     1       6.940 -21.821  36.060  1.00  0.00     0.001 A 
HETATM   27  C14 UNL     1       8.312 -21.999  36.003  1.00  0.00     0.007 A 
ENDBRANCH  21  22
ENDBRANCH  20  21
BRANCH  20  28
HETATM   28  N2  UNL     1      10.539 -22.575  33.526  1.00  0.00    -0.329 N 
HETATM   29  C15 UNL     1      10.159 -21.515  32.681  1.00  0.00     0.361 C 
HETATM   30  O2  UNL     1      10.230 -20.347  33.148  1.00  0.00    -0.238 OA
ATOM     31  H2  UNL     1      10.490 -23.535  33.182  1.00  0.00     0.165 HD
BRANCH  29  32
HETATM   32  O3  UNL     1       9.714 -21.692  31.368  1.00  0.00    -0.296 OA
BRANCH  32  33
HETATM   33  C16 UNL     1       9.721 -22.987  30.776  1.00  0.00     0.159 C 
HETATM   34  C17 UNL     1       8.322 -23.570  30.714  1.00  0.00     0.061 C 
HETATM   35  C18 UNL     1       7.971 -23.528  29.252  1.00  0.00     0.170 C 
HETATM   36  O4  UNL     1       9.219 -23.762  28.654  1.00  0.00    -0.389 OA
HETATM   37  C19 UNL     1      10.057 -22.842  29.311  1.00  0.00     0.200 C 
ENDBRANCH  32  33
ENDBRANCH  29  32
ENDBRANCH  20  28
ENDBRANCH   1  20
TORSDOF 13
ENDMDL
