MODEL 6
REMARK VINA RESULT: -8.290719479      2.846      7.618
REMARK  13 active torsions:
REMARK  status: ('A' for Active; 'I' for Inactive)
REMARK    1  A    between atoms: C2_2  and  C4_4 
REMARK    2  A    between atoms: C4_4  and  N1_5 
REMARK    3  A    between atoms: N1_5  and  C5_6 
REMARK    4  A    between atoms: N1_5  and  S1_28 
REMARK    5  A    between atoms: C5_6  and  C6_7 
REMARK    6  A    between atoms: C6_7  and  O1_8 
REMARK    7  A    between atoms: C6_7  and  C7_10 
REMARK    8  A    between atoms: C7_10  and  C8_11 
REMARK    9  A    between atoms: C7_10  and  N2_18 
REMARK   10  A    between atoms: C8_11  and  C9_12 
REMARK       I    between atoms: N2_18  and  C15_20 
REMARK   11  A    between atoms: C15_20  and  O3_22 
REMARK   12  A    between atoms: O3_22  and  C16_23 
REMARK   13  A    between atoms: S1_28  and  C20_31 
ROOT
HETATM    1  C6  UNL     1      12.470 -22.616  34.815  1.00  0.00     0.160 C 
ENDROOT
BRANCH   1   2
HETATM    2  C5  UNL     1      13.195 -22.028  35.966  1.00  0.00     0.174 C 
BRANCH   2   3
HETATM    3  N1  UNL     1      13.186 -20.624  36.128  1.00  0.00    -0.283 N 
BRANCH   3   4
HETATM    4  C4  UNL     1      14.358 -19.925  35.786  1.00  0.00     0.080 C 
BRANCH   4   5
HETATM    5  C2  UNL     1      14.207 -18.845  34.746  1.00  0.00     0.017 C 
HETATM    6  C1  UNL     1      14.363 -19.288  33.333  1.00  0.00     0.015 C 
HETATM    7  C3  UNL     1      15.073 -17.640  35.075  1.00  0.00     0.015 C 
ENDBRANCH   4   5
ENDBRANCH   3   4
BRANCH   3   8
HETATM    8  S1  UNL     1      12.448 -20.060  37.531  1.00  0.00     0.264 S 
HETATM    9  O5  UNL     1      11.785 -18.727  37.288  1.00  0.00    -0.200 OA
HETATM   10  O6  UNL     1      11.289 -21.004  37.904  1.00  0.00    -0.200 OA
BRANCH   8  11
HETATM   11  C20 UNL     1      13.489 -19.922  38.929  1.00  0.00     0.080 A 
HETATM   12  C21 UNL     1      13.079 -20.186  40.215  1.00  0.00     0.027 A 
HETATM   13  C22 UNL     1      13.958 -20.072  41.290  1.00  0.00     0.028 A 
HETATM   14  C23 UNL     1      15.273 -19.692  41.119  1.00  0.00     0.046 A 
HETATM   15  N3  UNL     1      16.152 -19.582  42.234  1.00  0.00    -0.102 NA
HETATM   16  C24 UNL     1      15.687 -19.427  39.831  1.00  0.00     0.028 A 
HETATM   17  C25 UNL     1      14.823 -19.538  38.765  1.00  0.00     0.027 A 
ENDBRANCH   8  11
ENDBRANCH   3   8
ENDBRANCH   2   3
ENDBRANCH   1   2
BRANCH   1  18
HETATM   18  O1  UNL     1      12.583 -23.987  34.683  1.00  0.00    -0.392 OA
ATOM     19  H1  UNL     1      11.940 -24.395  34.114  1.00  0.00     0.210 HD
ENDBRANCH   1  18
BRANCH   1  20
HETATM   20  C7  UNL     1      10.960 -22.307  34.880  1.00  0.00     0.121 C 
BRANCH  20  21
HETATM   21  C8  UNL     1      10.318 -23.370  35.734  1.00  0.00     0.066 C 
BRANCH  21  22
HETATM   22  C9  UNL     1       8.831 -23.220  35.760  1.00  0.00    -0.056 A 
HETATM   23  C10 UNL     1       8.249 -21.993  35.971  1.00  0.00     0.007 A 
HETATM   24  C11 UNL     1       6.857 -21.855  35.996  1.00  0.00     0.001 A 
HETATM   25  C12 UNL     1       6.070 -22.963  35.806  1.00  0.00     0.000 A 
HETATM   26  C13 UNL     1       6.625 -24.196  35.595  1.00  0.00     0.001 A 
HETATM   27  C14 UNL     1       8.004 -24.306  35.575  1.00  0.00     0.007 A 
ENDBRANCH  21  22
ENDBRANCH  20  21
BRANCH  20  28
HETATM   28  N2  UNL     1      10.494 -22.579  33.510  1.00  0.00    -0.329 N 
HETATM   29  C15 UNL     1      10.114 -21.527  32.654  1.00  0.00     0.361 C 
HETATM   30  O2  UNL     1      10.185 -20.354  33.109  1.00  0.00    -0.238 OA
ATOM     31  H2  UNL     1      10.446 -23.542  33.176  1.00  0.00     0.165 HD
BRANCH  29  32
HETATM   32  O3  UNL     1       9.669 -21.718  31.343  1.00  0.00    -0.296 OA
BRANCH  32  33
HETATM   33  C16 UNL     1       9.677 -23.019  30.764  1.00  0.00     0.159 C 
HETATM   34  C17 UNL     1       8.283 -23.617  30.739  1.00  0.00     0.061 C 
HETATM   35  C18 UNL     1       7.900 -23.593  29.285  1.00  0.00     0.170 C 
HETATM   36  O4  UNL     1       9.137 -23.820  28.661  1.00  0.00    -0.389 OA
HETATM   37  C19 UNL     1       9.979 -22.884  29.291  1.00  0.00     0.200 C 
ENDBRANCH  32  33
ENDBRANCH  29  32
ENDBRANCH  20  28
ENDBRANCH   1  20
TORSDOF 13
ENDMDL
