MODEL 1
REMARK VINA RESULT: -8.419854631      0.000      0.000
REMARK  13 active torsions:
REMARK  status: ('A' for Active; 'I' for Inactive)
REMARK    1  A    between atoms: C2_2  and  C4_4 
REMARK    2  A    between atoms: C4_4  and  N1_5 
REMARK    3  A    between atoms: N1_5  and  C5_6 
REMARK    4  A    between atoms: N1_5  and  S1_28 
REMARK    5  A    between atoms: C5_6  and  C6_7 
REMARK    6  A    between atoms: C6_7  and  O1_8 
REMARK    7  A    between atoms: C6_7  and  C7_10 
REMARK    8  A    between atoms: C7_10  and  C8_11 
REMARK    9  A    between atoms: C7_10  and  N2_18 
REMARK   10  A    between atoms: C8_11  and  C9_12 
REMARK       I    between atoms: N2_18  and  C15_20 
REMARK   11  A    between atoms: C15_20  and  O3_22 
REMARK   12  A    between atoms: O3_22  and  C16_23 
REMARK   13  A    between atoms: S1_28  and  C20_31 
ROOT
HETATM    1  C6  UNL     1      13.370 -21.540  36.647  1.00  0.00     0.160 C 
ENDROOT
BRANCH   1   2
HETATM    2  C5  UNL     1      14.195 -20.321  36.476  1.00  0.00     0.174 C 
BRANCH   2   3
HETATM    3  N1  UNL     1      14.826 -20.097  35.232  1.00  0.00    -0.283 N 
BRANCH   3   4
HETATM    4  C4  UNL     1      16.125 -19.558  35.252  1.00  0.00     0.080 C 
BRANCH   4   5
HETATM    5  C2  UNL     1      16.373 -18.460  36.253  1.00  0.00     0.017 C 
HETATM    6  C1  UNL     1      16.324 -17.074  35.713  1.00  0.00     0.015 C 
HETATM    7  C3  UNL     1      17.635 -18.724  37.058  1.00  0.00     0.015 C 
ENDBRANCH   4   5
ENDBRANCH   3   4
BRANCH   3   8
HETATM    8  S1  UNL     1      13.845 -19.454  34.026  1.00  0.00     0.264 S 
HETATM    9  O5  UNL     1      13.445 -18.038  34.361  1.00  0.00    -0.200 OA
HETATM   10  O6  UNL     1      14.662 -19.325  32.727  1.00  0.00    -0.200 OA
BRANCH   8  11
HETATM   11  C20 UNL     1      12.403 -20.371  33.656  1.00  0.00     0.080 A 
HETATM   12  C21 UNL     1      11.130 -19.852  33.722  1.00  0.00     0.027 A 
HETATM   13  C22 UNL     1      10.018 -20.626  33.402  1.00  0.00     0.028 A 
HETATM   14  C23 UNL     1      10.136 -21.942  33.005  1.00  0.00     0.046 A 
HETATM   15  N3  UNL     1       8.983 -22.714  32.684  1.00  0.00    -0.102 NA
HETATM   16  C24 UNL     1      11.410 -22.466  32.938  1.00  0.00     0.028 A 
HETATM   17  C25 UNL     1      12.513 -21.704  33.253  1.00  0.00     0.027 A 
ENDBRANCH   8  11
ENDBRANCH   3   8
ENDBRANCH   2   3
ENDBRANCH   1   2
BRANCH   1  18
HETATM   18  O1  UNL     1      14.076 -22.705  36.881  1.00  0.00    -0.392 OA
ATOM     19  H1  UNL     1      13.547 -23.484  37.004  1.00  0.00     0.210 HD
ENDBRANCH   1  18
BRANCH   1  20
HETATM   20  C7  UNL     1      12.376 -21.390  37.818  1.00  0.00     0.121 C 
BRANCH  20  21
HETATM   21  C8  UNL     1      11.179 -20.635  37.300  1.00  0.00     0.066 C 
BRANCH  21  22
HETATM   22  C9  UNL     1      10.074 -21.567  36.920  1.00  0.00    -0.056 A 
HETATM   23  C10 UNL     1      10.339 -22.863  36.548  1.00  0.00     0.007 A 
HETATM   24  C11 UNL     1       9.303 -23.733  36.192  1.00  0.00     0.001 A 
HETATM   25  C12 UNL     1       8.008 -23.279  36.218  1.00  0.00     0.000 A 
HETATM   26  C13 UNL     1       7.717 -21.993  36.584  1.00  0.00     0.001 A 
HETATM   27  C14 UNL     1       8.761 -21.153  36.932  1.00  0.00     0.007 A 
ENDBRANCH  21  22
ENDBRANCH  20  21
BRANCH  20  28
HETATM   28  N2  UNL     1      13.058 -20.455  38.729  1.00  0.00    -0.329 N 
HETATM   29  C15 UNL     1      12.903 -20.563  40.124  1.00  0.00     0.361 C 
HETATM   30  O2  UNL     1      12.159 -21.484  40.556  1.00  0.00    -0.238 OA
ATOM     31  H2  UNL     1      13.650 -19.719  38.344  1.00  0.00     0.165 HD
BRANCH  29  32
HETATM   32  O3  UNL     1      13.525 -19.711  41.041  1.00  0.00    -0.296 OA
BRANCH  32  33
HETATM   33  C16 UNL     1      14.897 -19.894  41.375  1.00  0.00     0.159 C 
HETATM   34  C17 UNL     1      15.804 -19.289  40.321  1.00  0.00     0.061 C 
HETATM   35  C18 UNL     1      16.391 -18.079  40.995  1.00  0.00     0.170 C 
HETATM   36  O4  UNL     1      16.494 -18.515  42.325  1.00  0.00    -0.389 OA
HETATM   37  C19 UNL     1      15.214 -19.041  42.580  1.00  0.00     0.200 C 
ENDBRANCH  32  33
ENDBRANCH  29  32
ENDBRANCH  20  28
ENDBRANCH   1  20
TORSDOF 13
ENDMDL
