MODEL 12
REMARK VINA RESULT: -8.073180953      2.912      7.782
REMARK  13 active torsions:
REMARK  status: ('A' for Active; 'I' for Inactive)
REMARK    1  A    between atoms: C2_2  and  C4_4 
REMARK    2  A    between atoms: C4_4  and  N1_5 
REMARK    3  A    between atoms: N1_5  and  C5_6 
REMARK    4  A    between atoms: N1_5  and  S1_28 
REMARK    5  A    between atoms: C5_6  and  C6_7 
REMARK    6  A    between atoms: C6_7  and  O1_8 
REMARK    7  A    between atoms: C6_7  and  C7_10 
REMARK    8  A    between atoms: C7_10  and  C8_11 
REMARK    9  A    between atoms: C7_10  and  N2_18 
REMARK   10  A    between atoms: C8_11  and  C9_12 
REMARK       I    between atoms: N2_18  and  C15_20 
REMARK   11  A    between atoms: C15_20  and  O3_22 
REMARK   12  A    between atoms: O3_22  and  C16_23 
REMARK   13  A    between atoms: S1_28  and  C20_31 
ROOT
HETATM    1  C6  UNL     1      12.182 -20.595  34.239  1.00  0.00     0.160 C 
ENDROOT
BRANCH   1   2
HETATM    2  C5  UNL     1      12.217 -19.464  35.195  1.00  0.00     0.174 C 
BRANCH   2   3
HETATM    3  N1  UNL     1      13.323 -19.344  36.065  1.00  0.00    -0.283 N 
BRANCH   3   4
HETATM    4  C4  UNL     1      14.605 -19.321  35.485  1.00  0.00     0.080 C 
BRANCH   4   5
HETATM    5  C2  UNL     1      14.951 -18.089  34.691  1.00  0.00     0.017 C 
HETATM    6  C1  UNL     1      15.247 -18.317  33.250  1.00  0.00     0.015 C 
HETATM    7  C3  UNL     1      16.033 -17.274  35.382  1.00  0.00     0.015 C 
ENDBRANCH   4   5
ENDBRANCH   3   4
BRANCH   3   8
HETATM    8  S1  UNL     1      13.237 -20.254  37.477  1.00  0.00     0.264 S 
HETATM    9  O5  UNL     1      11.801 -20.534  37.848  1.00  0.00    -0.200 OA
HETATM   10  O6  UNL     1      13.845 -21.646  37.218  1.00  0.00    -0.200 OA
BRANCH   8  11
HETATM   11  C20 UNL     1      14.051 -19.572  38.867  1.00  0.00     0.080 A 
HETATM   12  C21 UNL     1      13.401 -19.175  40.013  1.00  0.00     0.027 A 
HETATM   13  C22 UNL     1      14.103 -18.651  41.096  1.00  0.00     0.028 A 
HETATM   14  C23 UNL     1      15.475 -18.504  41.072  1.00  0.00     0.046 A 
HETATM   15  N3  UNL     1      16.171 -17.964  42.191  1.00  0.00    -0.102 NA
HETATM   16  C24 UNL     1      16.129 -18.900  39.924  1.00  0.00     0.028 A 
HETATM   17  C25 UNL     1      15.439 -19.419  38.851  1.00  0.00     0.027 A 
ENDBRANCH   8  11
ENDBRANCH   3   8
ENDBRANCH   2   3
ENDBRANCH   1   2
BRANCH   1  18
HETATM   18  O1  UNL     1      13.056 -21.630  34.514  1.00  0.00    -0.392 OA
ATOM     19  H1  UNL     1      13.694 -21.453  35.195  1.00  0.00     0.210 HD
ENDBRANCH   1  18
BRANCH   1  20
HETATM   20  C7  UNL     1      10.774 -21.223  34.158  1.00  0.00     0.121 C 
BRANCH  20  21
HETATM   21  C8  UNL     1      10.779 -22.454  35.029  1.00  0.00     0.066 C 
BRANCH  21  22
HETATM   22  C9  UNL     1       9.486 -22.603  35.764  1.00  0.00    -0.056 A 
HETATM   23  C10 UNL     1       8.919 -23.841  35.951  1.00  0.00     0.007 A 
HETATM   24  C11 UNL     1       7.709 -23.978  36.639  1.00  0.00     0.001 A 
HETATM   25  C12 UNL     1       7.088 -22.858  37.132  1.00  0.00     0.000 A 
HETATM   26  C13 UNL     1       7.632 -21.614  36.960  1.00  0.00     0.001 A 
HETATM   27  C14 UNL     1       8.830 -21.506  36.275  1.00  0.00     0.007 A 
ENDBRANCH  21  22
ENDBRANCH  20  21
BRANCH  20  28
HETATM   28  N2  UNL     1      10.702 -21.728  32.776  1.00  0.00    -0.329 N 
HETATM   29  C15 UNL     1      10.071 -20.979  31.765  1.00  0.00     0.361 C 
HETATM   30  O2  UNL     1       9.571 -19.869  32.093  1.00  0.00    -0.238 OA
ATOM     31  H2  UNL     1      11.115 -22.633  32.549  1.00  0.00     0.165 HD
BRANCH  29  32
HETATM   32  O3  UNL     1       9.973 -21.399  30.436  1.00  0.00    -0.296 OA
BRANCH  32  33
HETATM   33  C16 UNL     1       9.845 -22.783  30.128  1.00  0.00     0.159 C 
HETATM   34  C17 UNL     1       8.478 -23.309  30.521  1.00  0.00     0.061 C 
HETATM   35  C18 UNL     1       7.782 -23.536  29.207  1.00  0.00     0.170 C 
HETATM   36  O4  UNL     1       8.848 -23.932  28.385  1.00  0.00    -0.389 OA
HETATM   37  C19 UNL     1       9.814 -22.938  28.626  1.00  0.00     0.200 C 
ENDBRANCH  32  33
ENDBRANCH  29  32
ENDBRANCH  20  28
ENDBRANCH   1  20
TORSDOF 13
ENDMDL
