MODEL 3
REMARK VINA RESULT: -7.449622096      1.654      1.847
REMARK  4 active torsions:
REMARK  status: ('A' for Active; 'I' for Inactive)
REMARK    1  A    between atoms: C7_7  and  C8_8 
REMARK       I    between atoms: N1_12  and  C12_13 
REMARK    2  A    between atoms: C12_13  and  C13_15 
REMARK    3  A    between atoms: C16_18  and  O2_19 
REMARK    4  A    between atoms: C18_22  and  O3_23 
ROOT
HETATM    1  C8  UNL     1      15.470  -2.752  50.789  1.00  0.00     0.121 C 
HETATM    2  C9  UNL     1      16.727  -3.592  50.790  1.00  0.00     0.032 C 
HETATM    3  C10 UNL     1      16.349  -4.760  51.667  1.00  0.00     0.022 C 
HETATM    4  C11 UNL     1      15.244  -4.190  52.551  1.00  0.00     0.127 C 
HETATM    5  N1  UNL     1      15.205  -2.812  52.252  1.00  0.00    -0.339 N 
HETATM    6  C12 UNL     1      14.930  -1.728  53.085  1.00  0.00     0.257 C 
HETATM    7  O1  UNL     1      15.043  -0.526  52.609  1.00  0.00    -0.267 OA
ENDROOT
BRANCH   1   8
HETATM    8  C7  UNL     1      15.578  -1.423  50.254  1.00  0.00    -0.029 A 
HETATM    9  C2  UNL     1      14.441  -0.757  49.825  1.00  0.00    -0.054 A 
HETATM   10  C1  UNL     1      13.096  -1.388  49.869  1.00  0.00     0.049 C 
HETATM   11  C3  UNL     1      14.510   0.536  49.316  1.00  0.00     0.007 A 
HETATM   12  C4  UNL     1      15.695   1.182  49.225  1.00  0.00     0.001 A 
HETATM   13  C5  UNL     1      16.848   0.557  49.640  1.00  0.00     0.001 A 
HETATM   14  C6  UNL     1      16.772  -0.734  50.147  1.00  0.00     0.010 A 
ENDBRANCH   1   8
BRANCH   6  15
HETATM   15  C13 UNL     1      14.522  -1.774  54.461  1.00  0.00     0.065 A 
HETATM   16  C14 UNL     1      13.363  -2.340  54.904  1.00  0.00     0.022 A 
HETATM   17  C15 UNL     1      12.983  -2.302  56.239  1.00  0.00     0.037 A 
HETATM   18  C16 UNL     1      13.751  -1.693  57.173  1.00  0.00     0.068 A 
HETATM   19  C17 UNL     1      14.918  -1.113  56.770  1.00  0.00     0.074 A 
HETATM   20  C18 UNL     1      15.299  -1.147  55.458  1.00  0.00     0.084 A 
BRANCH  18  21
HETATM   21  O2  UNL     1      13.368  -1.652  58.528  1.00  0.00    -0.361 OA
ATOM     22  H2  UNL     1      14.012  -1.668  59.226  1.00  0.00     0.217 HD
ENDBRANCH  18  21
BRANCH  20  23
HETATM   23  O3  UNL     1      16.480  -0.562  55.042  1.00  0.00    -0.360 OA
ATOM     24  H3  UNL     1      16.618   0.343  55.298  1.00  0.00     0.217 HD
ENDBRANCH  20  23
ENDBRANCH   6  15
TORSDOF 4
ENDMDL
