MODEL 2
REMARK VINA RESULT: -7.560346154      2.841      4.436
REMARK  4 active torsions:
REMARK  status: ('A' for Active; 'I' for Inactive)
REMARK    1  A    between atoms: C7_7  and  C8_8 
REMARK       I    between atoms: N1_12  and  C12_13 
REMARK    2  A    between atoms: C12_13  and  C13_15 
REMARK    3  A    between atoms: C16_18  and  O2_19 
REMARK    4  A    between atoms: C18_22  and  O3_23 
ROOT
HETATM    1  C8  UNL     1      16.342  -1.430  52.806  1.00  0.00     0.121 C 
HETATM    2  C9  UNL     1      15.992  -1.074  54.233  1.00  0.00     0.032 C 
HETATM    3  C10 UNL     1      17.062  -1.783  55.026  1.00  0.00     0.022 C 
HETATM    4  C11 UNL     1      17.481  -2.925  54.106  1.00  0.00     0.127 C 
HETATM    5  N1  UNL     1      16.573  -2.884  53.028  1.00  0.00    -0.339 N 
HETATM    6  C12 UNL     1      16.034  -3.927  52.277  1.00  0.00     0.257 C 
HETATM    7  O1  UNL     1      15.134  -3.658  51.382  1.00  0.00    -0.267 OA
ENDROOT
BRANCH   1   8
HETATM    8  C7  UNL     1      15.359  -1.127  51.802  1.00  0.00    -0.029 A 
HETATM    9  C2  UNL     1      15.759  -0.856  50.503  1.00  0.00    -0.054 A 
HETATM   10  C1  UNL     1      17.192  -0.838  50.110  1.00  0.00     0.049 C 
HETATM   11  C3  UNL     1      14.832  -0.574  49.506  1.00  0.00     0.007 A 
HETATM   12  C4  UNL     1      13.507  -0.554  49.777  1.00  0.00     0.001 A 
HETATM   13  C5  UNL     1      13.067  -0.817  51.054  1.00  0.00     0.001 A 
HETATM   14  C6  UNL     1      13.998  -1.098  52.045  1.00  0.00     0.010 A 
ENDBRANCH   1   8
BRANCH   6  15
HETATM   15  C13 UNL     1      16.361  -5.322  52.374  1.00  0.00     0.065 A 
HETATM   16  C14 UNL     1      17.618  -5.832  52.241  1.00  0.00     0.022 A 
HETATM   17  C15 UNL     1      17.874  -7.196  52.279  1.00  0.00     0.037 A 
HETATM   18  C16 UNL     1      16.874  -8.095  52.449  1.00  0.00     0.068 A 
HETATM   19  C17 UNL     1      15.601  -7.626  52.583  1.00  0.00     0.074 A 
HETATM   20  C18 UNL     1      15.343  -6.285  52.548  1.00  0.00     0.084 A 
BRANCH  18  21
HETATM   21  O2  UNL     1      17.130  -9.480  52.487  1.00  0.00    -0.361 OA
ATOM     22  H2  UNL     1      17.418  -9.909  53.284  1.00  0.00     0.217 HD
ENDBRANCH  18  21
BRANCH  20  23
HETATM   23  O3  UNL     1      14.055  -5.801  52.684  1.00  0.00    -0.360 OA
ATOM     24  H3  UNL     1      13.813  -5.074  52.123  1.00  0.00     0.217 HD
ENDBRANCH  20  23
ENDBRANCH   6  15
TORSDOF 4
ENDMDL
