MODEL 1
REMARK VINA RESULT: -7.680140543      0.000      0.000
REMARK  4 active torsions:
REMARK  status: ('A' for Active; 'I' for Inactive)
REMARK    1  A    between atoms: C7_7  and  C8_8 
REMARK       I    between atoms: N1_12  and  C12_13 
REMARK    2  A    between atoms: C12_13  and  C13_15 
REMARK    3  A    between atoms: C16_18  and  O2_19 
REMARK    4  A    between atoms: C18_22  and  O3_23 
ROOT
HETATM    1  C8  UNL     1      16.040  -2.373  49.904  1.00  0.00     0.121 C 
HETATM    2  C9  UNL     1      17.360  -2.878  49.368  1.00  0.00     0.032 C 
HETATM    3  C10 UNL     1      17.451  -4.266  49.953  1.00  0.00     0.022 C 
HETATM    4  C11 UNL     1      16.578  -4.176  51.201  1.00  0.00     0.127 C 
HETATM    5  N1  UNL     1      16.231  -2.813  51.313  1.00  0.00    -0.339 N 
HETATM    6  C12 UNL     1      16.043  -2.034  52.453  1.00  0.00     0.257 C 
HETATM    7  O1  UNL     1      15.815  -0.763  52.314  1.00  0.00    -0.267 OA
ENDROOT
BRANCH   1   8
HETATM    8  C7  UNL     1      15.771  -0.970  49.747  1.00  0.00    -0.029 A 
HETATM    9  C2  UNL     1      14.464  -0.509  49.785  1.00  0.00    -0.054 A 
HETATM   10  C1  UNL     1      13.311  -1.431  49.953  1.00  0.00     0.049 C 
HETATM   11  C3  UNL     1      14.171   0.843  49.651  1.00  0.00     0.007 A 
HETATM   12  C4  UNL     1      15.158   1.752  49.479  1.00  0.00     0.001 A 
HETATM   13  C5  UNL     1      16.469   1.338  49.436  1.00  0.00     0.001 A 
HETATM   14  C6  UNL     1      16.755  -0.015  49.570  1.00  0.00     0.010 A 
ENDBRANCH   1   8
BRANCH   6  15
HETATM   15  C13 UNL     1      16.070  -2.475  53.819  1.00  0.00     0.065 A 
HETATM   16  C14 UNL     1      14.984  -2.926  54.507  1.00  0.00     0.022 A 
HETATM   17  C15 UNL     1      15.049  -3.282  55.847  1.00  0.00     0.037 A 
HETATM   18  C16 UNL     1      16.208  -3.194  56.543  1.00  0.00     0.068 A 
HETATM   19  C17 UNL     1      17.319  -2.745  55.892  1.00  0.00     0.074 A 
HETATM   20  C18 UNL     1      17.261  -2.394  54.572  1.00  0.00     0.084 A 
BRANCH  18  21
HETATM   21  O2  UNL     1      16.278  -3.553  57.904  1.00  0.00    -0.361 OA
ATOM     22  H2  UNL     1      17.080  -3.449  58.403  1.00  0.00     0.217 HD
ENDBRANCH  18  21
BRANCH  20  23
HETATM   23  O3  UNL     1      18.383  -1.939  53.905  1.00  0.00    -0.360 OA
ATOM     24  H3  UNL     1      19.186  -1.886  54.411  1.00  0.00     0.217 HD
ENDBRANCH  20  23
ENDBRANCH   6  15
TORSDOF 4
ENDMDL
