MODEL 5
REMARK VINA RESULT: -9.053457999      2.842      9.624
REMARK  13 active torsions:
REMARK  status: ('A' for Active; 'I' for Inactive)
REMARK    1  A    between atoms: C2_2  and  C4_4 
REMARK    2  A    between atoms: C4_4  and  N1_5 
REMARK    3  A    between atoms: N1_5  and  C5_6 
REMARK    4  A    between atoms: N1_5  and  S1_31 
REMARK    5  A    between atoms: C5_6  and  C6_7 
REMARK    6  A    between atoms: C6_7  and  O1_8 
REMARK    7  A    between atoms: C6_7  and  C7_10 
REMARK    8  A    between atoms: C7_10  and  C8_11 
REMARK    9  A    between atoms: C7_10  and  N2_18 
REMARK   10  A    between atoms: C8_11  and  C9_12 
REMARK       I    between atoms: N2_18  and  C15_20 
REMARK   11  A    between atoms: C15_20  and  O3_22 
REMARK   12  A    between atoms: O3_22  and  C16_23 
REMARK   13  A    between atoms: S1_31  and  C22_34 
ROOT
HETATM    1  C7  UNL     1      21.419  42.876  -6.435  1.00  0.00     0.029 C 
ENDROOT
BRANCH   1   2
HETATM    2  C6  UNL     1      20.557  41.644  -6.548  1.00  0.00     0.203 C 
BRANCH   2   3
HETATM    3  C5  UNL     1      19.115  41.895  -6.726  1.00  0.00     0.119 C 
BRANCH   3   4
HETATM    4  N1  UNL     1      18.456  41.216  -7.759  1.00  0.00    -0.262 N 
BRANCH   4   5
HETATM    5  C4  UNL     1      17.842  39.978  -7.558  1.00  0.00     0.085 C 
BRANCH   5   6
HETATM    6  C2  UNL     1      18.234  38.881  -8.540  1.00  0.00     0.017 C 
HETATM    7  C1  UNL     1      18.900  37.704  -7.886  1.00  0.00     0.015 C 
HETATM    8  C3  UNL     1      17.052  38.416  -9.359  1.00  0.00     0.015 C 
ENDBRANCH   5   6
ENDBRANCH   4   5
BRANCH   4   9
HETATM    9  S1  UNL     1      17.927  42.189  -9.035  1.00  0.00     0.267 S 
HETATM   10  O6  UNL     1      16.409  42.103  -9.090  1.00  0.00    -0.200 OA
HETATM   11  O7  UNL     1      18.320  43.649  -8.849  1.00  0.00    -0.200 OA
BRANCH   9  12
HETATM   12  C22 UNL     1      18.533  41.686 -10.608  1.00  0.00     0.080 A 
HETATM   13  C23 UNL     1      17.716  41.245 -11.627  1.00  0.00     0.027 A 
HETATM   14  C24 UNL     1      18.217  40.850 -12.854  1.00  0.00     0.028 A 
HETATM   15  C25 UNL     1      19.571  40.884 -13.107  1.00  0.00     0.046 A 
HETATM   16  N3  UNL     1      20.096  40.472 -14.382  1.00  0.00    -0.102 NA
HETATM   17  C26 UNL     1      20.402  41.321 -12.100  1.00  0.00     0.028 A 
HETATM   18  C27 UNL     1      19.898  41.713 -10.880  1.00  0.00     0.027 A 
ENDBRANCH   9  12
ENDBRANCH   4   9
ENDBRANCH   3   4
ENDBRANCH   2   3
BRANCH   2  19
HETATM   19  O1  UNL     1      21.026  40.958  -7.695  1.00  0.00    -0.385 OA
ATOM     20  H1  UNL     1      21.596  40.256  -7.404  1.00  0.00     0.211 HD
ENDBRANCH   2  19
ENDBRANCH   1   2
BRANCH   1  21
HETATM   21  C8  UNL     1      21.741  43.240  -5.012  1.00  0.00     0.094 C 
BRANCH  21  22
HETATM   22  C9  UNL     1      21.729  44.670  -4.707  1.00  0.00    -0.053 A 
HETATM   23  C10 UNL     1      22.948  45.343  -4.605  1.00  0.00     0.007 A 
HETATM   24  C11 UNL     1      23.063  46.671  -4.294  1.00  0.00     0.001 A 
HETATM   25  C12 UNL     1      21.909  47.399  -4.067  1.00  0.00     0.000 A 
HETATM   26  C13 UNL     1      20.686  46.780  -4.155  1.00  0.00     0.001 A 
HETATM   27  C14 UNL     1      20.615  45.415  -4.476  1.00  0.00     0.007 A 
ENDBRANCH  21  22
ENDBRANCH   1  21
BRANCH   1  28
HETATM   28  N2  UNL     1      21.123  43.912  -7.343  1.00  0.00    -0.307 N 
HETATM   29  C15 UNL     1      21.652  44.023  -8.652  1.00  0.00     0.365 C 
HETATM   30  O2  UNL     1      22.443  43.170  -9.073  1.00  0.00    -0.238 OA
ATOM     31  H2  UNL     1      20.479  44.639  -7.033  1.00  0.00     0.170 HD
BRANCH  29  32
HETATM   32  O3  UNL     1      21.293  45.086  -9.486  1.00  0.00    -0.296 OA
BRANCH  32  33
HETATM   33  C16 UNL     1      22.264  45.791 -10.243  1.00  0.00     0.166 C 
HETATM   34  C17 UNL     1      21.665  46.915 -11.021  1.00  0.00     0.204 C 
HETATM   35  O4  UNL     1      22.465  48.021 -10.905  1.00  0.00    -0.358 OA
HETATM   36  C18 UNL     1      23.557  47.717 -10.108  1.00  0.00     0.266 C 
HETATM   37  O5  UNL     1      23.838  48.707  -9.175  1.00  0.00    -0.361 OA
HETATM   38  C21 UNL     1      23.148  46.530  -9.260  1.00  0.00     0.075 C 
HETATM   39  C19 UNL     1      22.930  48.618  -8.148  1.00  0.00     0.171 C 
HETATM   40  C20 UNL     1      22.394  47.182  -8.148  1.00  0.00     0.038 C 
ENDBRANCH  32  33
ENDBRANCH  29  32
ENDBRANCH   1  28
TORSDOF 13
ENDMDL
