MODEL 4
REMARK VINA RESULT: -9.095194781      2.833     10.109
REMARK  13 active torsions:
REMARK  status: ('A' for Active; 'I' for Inactive)
REMARK    1  A    between atoms: C2_2  and  C4_4 
REMARK    2  A    between atoms: C4_4  and  N1_5 
REMARK    3  A    between atoms: N1_5  and  C5_6 
REMARK    4  A    between atoms: N1_5  and  S1_31 
REMARK    5  A    between atoms: C5_6  and  C6_7 
REMARK    6  A    between atoms: C6_7  and  O1_8 
REMARK    7  A    between atoms: C6_7  and  C7_10 
REMARK    8  A    between atoms: C7_10  and  C8_11 
REMARK    9  A    between atoms: C7_10  and  N2_18 
REMARK   10  A    between atoms: C8_11  and  C9_12 
REMARK       I    between atoms: N2_18  and  C15_20 
REMARK   11  A    between atoms: C15_20  and  O3_22 
REMARK   12  A    between atoms: O3_22  and  C16_23 
REMARK   13  A    between atoms: S1_31  and  C22_34 
ROOT
HETATM    1  C7  UNL     1      20.803  42.408  -7.001  1.00  0.00     0.029 C 
ENDROOT
BRANCH   1   2
HETATM    2  C6  UNL     1      19.992  41.226  -7.466  1.00  0.00     0.203 C 
BRANCH   2   3
HETATM    3  C5  UNL     1      18.924  41.533  -8.435  1.00  0.00     0.119 C 
BRANCH   3   4
HETATM    4  N1  UNL     1      18.527  40.516  -9.314  1.00  0.00    -0.262 N 
BRANCH   4   5
HETATM    5  C4  UNL     1      17.373  39.761  -9.099  1.00  0.00     0.085 C 
BRANCH   5   6
HETATM    6  C2  UNL     1      17.601  38.308  -8.700  1.00  0.00     0.017 C 
HETATM    7  C1  UNL     1      17.385  38.049  -7.236  1.00  0.00     0.015 C 
HETATM    8  C3  UNL     1      16.755  37.364  -9.522  1.00  0.00     0.015 C 
ENDBRANCH   5   6
ENDBRANCH   4   5
BRANCH   4   9
HETATM    9  S1  UNL     1      19.131  40.650 -10.886  1.00  0.00     0.267 S 
HETATM   10  O6  UNL     1      18.755  42.026 -11.416  1.00  0.00    -0.200 OA
HETATM   11  O7  UNL     1      20.646  40.512 -10.936  1.00  0.00    -0.200 OA
BRANCH   9  12
HETATM   12  C22 UNL     1      18.466  39.465 -12.003  1.00  0.00     0.080 A 
HETATM   13  C23 UNL     1      17.277  39.645 -12.678  1.00  0.00     0.027 A 
HETATM   14  C24 UNL     1      16.772  38.697 -13.547  1.00  0.00     0.028 A 
HETATM   15  C25 UNL     1      17.449  37.518 -13.775  1.00  0.00     0.046 A 
HETATM   16  N3  UNL     1      16.925  36.528 -14.680  1.00  0.00    -0.102 NA
HETATM   17  C26 UNL     1      18.637  37.321 -13.110  1.00  0.00     0.028 A 
HETATM   18  C27 UNL     1      19.136  38.269 -12.245  1.00  0.00     0.027 A 
ENDBRANCH   9  12
ENDBRANCH   4   9
ENDBRANCH   3   4
ENDBRANCH   2   3
BRANCH   2  19
HETATM   19  O1  UNL     1      20.916  40.356  -8.095  1.00  0.00    -0.385 OA
ATOM     20  H1  UNL     1      21.102  39.643  -7.495  1.00  0.00     0.211 HD
ENDBRANCH   2  19
ENDBRANCH   1   2
BRANCH   1  21
HETATM   21  C8  UNL     1      20.848  42.539  -5.504  1.00  0.00     0.094 C 
BRANCH  21  22
HETATM   22  C9  UNL     1      21.148  43.878  -4.995  1.00  0.00    -0.053 A 
HETATM   23  C10 UNL     1      22.483  44.268  -4.887  1.00  0.00     0.007 A 
HETATM   24  C11 UNL     1      22.886  45.482  -4.397  1.00  0.00     0.001 A 
HETATM   25  C12 UNL     1      21.920  46.380  -3.982  1.00  0.00     0.000 A 
HETATM   26  C13 UNL     1      20.593  46.040  -4.069  1.00  0.00     0.001 A 
HETATM   27  C14 UNL     1      20.224  44.784  -4.577  1.00  0.00     0.007 A 
ENDBRANCH  21  22
ENDBRANCH   1  21
BRANCH   1  28
HETATM   28  N2  UNL     1      20.672  43.579  -7.774  1.00  0.00    -0.307 N 
HETATM   29  C15 UNL     1      21.368  43.840  -8.980  1.00  0.00     0.365 C 
HETATM   30  O2  UNL     1      22.167  43.009  -9.425  1.00  0.00    -0.238 OA
ATOM     31  H2  UNL     1      20.026  44.294  -7.440  1.00  0.00     0.170 HD
BRANCH  29  32
HETATM   32  O3  UNL     1      21.165  45.032  -9.684  1.00  0.00    -0.296 OA
BRANCH  32  33
HETATM   33  C16 UNL     1      22.247  45.728 -10.282  1.00  0.00     0.166 C 
HETATM   34  C17 UNL     1      21.789  46.909 -11.073  1.00  0.00     0.204 C 
HETATM   35  O4  UNL     1      22.607  47.975 -10.807  1.00  0.00    -0.358 OA
HETATM   36  C18 UNL     1      23.580  47.592  -9.898  1.00  0.00     0.266 C 
HETATM   37  O5  UNL     1      23.779  48.529  -8.891  1.00  0.00    -0.361 OA
HETATM   38  C21 UNL     1      23.028  46.387  -9.164  1.00  0.00     0.075 C 
HETATM   39  C19 UNL     1      22.747  48.432  -7.989  1.00  0.00     0.171 C 
HETATM   40  C20 UNL     1      22.165  47.021  -8.123  1.00  0.00     0.038 C 
ENDBRANCH  32  33
ENDBRANCH  29  32
ENDBRANCH   1  28
TORSDOF 13
ENDMDL
