MODEL 2
REMARK VINA RESULT: -9.208220355      3.202     10.037
REMARK  13 active torsions:
REMARK  status: ('A' for Active; 'I' for Inactive)
REMARK    1  A    between atoms: C2_2  and  C4_4 
REMARK    2  A    between atoms: C4_4  and  N1_5 
REMARK    3  A    between atoms: N1_5  and  C5_6 
REMARK    4  A    between atoms: N1_5  and  S1_31 
REMARK    5  A    between atoms: C5_6  and  C6_7 
REMARK    6  A    between atoms: C6_7  and  O1_8 
REMARK    7  A    between atoms: C6_7  and  C7_10 
REMARK    8  A    between atoms: C7_10  and  C8_11 
REMARK    9  A    between atoms: C7_10  and  N2_18 
REMARK   10  A    between atoms: C8_11  and  C9_12 
REMARK       I    between atoms: N2_18  and  C15_20 
REMARK   11  A    between atoms: C15_20  and  O3_22 
REMARK   12  A    between atoms: O3_22  and  C16_23 
REMARK   13  A    between atoms: S1_31  and  C22_34 
ROOT
HETATM    1  C7  UNL     1      19.143  42.314  -8.678  1.00  0.00     0.029 C 
ENDROOT
BRANCH   1   2
HETATM    2  C6  UNL     1      17.957  42.309  -9.608  1.00  0.00     0.203 C 
BRANCH   2   3
HETATM    3  C5  UNL     1      17.466  40.975 -10.000  1.00  0.00     0.119 C 
BRANCH   3   4
HETATM    4  N1  UNL     1      18.415  40.010 -10.362  1.00  0.00    -0.262 N 
BRANCH   4   5
HETATM    5  C4  UNL     1      18.573  38.822  -9.647  1.00  0.00     0.085 C 
BRANCH   5   6
HETATM    6  C2  UNL     1      17.334  38.326  -8.911  1.00  0.00     0.017 C 
HETATM    7  C1  UNL     1      16.515  37.351  -9.710  1.00  0.00     0.015 C 
HETATM    8  C3  UNL     1      17.683  37.729  -7.568  1.00  0.00     0.015 C 
ENDBRANCH   5   6
ENDBRANCH   4   5
BRANCH   4   9
HETATM    9  S1  UNL     1      18.907  40.059 -11.978  1.00  0.00     0.267 S 
HETATM   10  O6  UNL     1      18.535  41.424 -12.539  1.00  0.00    -0.200 OA
HETATM   11  O7  UNL     1      20.410  39.868 -12.130  1.00  0.00    -0.200 OA
BRANCH   9  12
HETATM   12  C22 UNL     1      18.127  38.851 -12.992  1.00  0.00     0.080 A 
HETATM   13  C23 UNL     1      18.819  37.863 -13.659  1.00  0.00     0.027 A 
HETATM   14  C24 UNL     1      18.184  36.928 -14.455  1.00  0.00     0.028 A 
HETATM   15  C25 UNL     1      16.815  36.949 -14.612  1.00  0.00     0.046 A 
HETATM   16  N3  UNL     1      16.151  35.977 -15.441  1.00  0.00    -0.102 NA
HETATM   17  C26 UNL     1      16.108  37.930 -13.954  1.00  0.00     0.028 A 
HETATM   18  C27 UNL     1      16.746  38.858 -13.163  1.00  0.00     0.027 A 
ENDBRANCH   9  12
ENDBRANCH   4   9
ENDBRANCH   3   4
ENDBRANCH   2   3
BRANCH   2  19
HETATM   19  O1  UNL     1      16.920  42.967  -8.903  1.00  0.00    -0.385 OA
ATOM     20  H1  UNL     1      17.066  43.903  -8.974  1.00  0.00     0.211 HD
ENDBRANCH   2  19
ENDBRANCH   1   2
BRANCH   1  21
HETATM   21  C8  UNL     1      18.820  41.781  -7.309  1.00  0.00     0.094 C 
BRANCH  21  22
HETATM   22  C9  UNL     1      19.518  42.428  -6.198  1.00  0.00    -0.053 A 
HETATM   23  C10 UNL     1      20.620  41.783  -5.634  1.00  0.00     0.007 A 
HETATM   24  C11 UNL     1      21.331  42.275  -4.573  1.00  0.00     0.001 A 
HETATM   25  C12 UNL     1      20.944  43.483  -4.020  1.00  0.00     0.000 A 
HETATM   26  C13 UNL     1      19.866  44.155  -4.542  1.00  0.00     0.001 A 
HETATM   27  C14 UNL     1      19.164  43.613  -5.631  1.00  0.00     0.007 A 
ENDBRANCH  21  22
ENDBRANCH   1  21
BRANCH   1  28
HETATM   28  N2  UNL     1      19.993  43.433  -8.780  1.00  0.00    -0.307 N 
HETATM   29  C15 UNL     1      21.357  43.388  -9.161  1.00  0.00     0.365 C 
HETATM   30  O2  UNL     1      21.888  42.304  -9.428  1.00  0.00    -0.238 OA
ATOM     31  H2  UNL     1      19.595  44.347  -8.562  1.00  0.00     0.170 HD
BRANCH  29  32
HETATM   32  O3  UNL     1      22.120  44.557  -9.241  1.00  0.00    -0.296 OA
BRANCH  32  33
HETATM   33  C16 UNL     1      21.603  45.807  -8.815  1.00  0.00     0.166 C 
HETATM   34  C17 UNL     1      22.514  46.496  -7.854  1.00  0.00     0.204 C 
HETATM   35  O4  UNL     1      22.604  47.821  -8.187  1.00  0.00    -0.358 OA
HETATM   36  C18 UNL     1      21.817  48.069  -9.300  1.00  0.00     0.266 C 
HETATM   37  O5  UNL     1      22.452  48.866 -10.245  1.00  0.00    -0.361 OA
HETATM   38  C21 UNL     1      21.647  46.741 -10.007  1.00  0.00     0.075 C 
HETATM   39  C19 UNL     1      23.364  48.099 -10.929  1.00  0.00     0.171 C 
HETATM   40  C20 UNL     1      22.909  46.642 -10.800  1.00  0.00     0.038 C 
ENDBRANCH  32  33
ENDBRANCH  29  32
ENDBRANCH   1  28
TORSDOF 13
ENDMDL
