MODEL 11
REMARK VINA RESULT: -8.924652613      2.268      3.465
REMARK  13 active torsions:
REMARK  status: ('A' for Active; 'I' for Inactive)
REMARK    1  A    between atoms: C2_2  and  C4_4 
REMARK    2  A    between atoms: C4_4  and  N1_5 
REMARK    3  A    between atoms: N1_5  and  C5_6 
REMARK    4  A    between atoms: N1_5  and  S1_31 
REMARK    5  A    between atoms: C5_6  and  C6_7 
REMARK    6  A    between atoms: C6_7  and  O1_8 
REMARK    7  A    between atoms: C6_7  and  C7_10 
REMARK    8  A    between atoms: C7_10  and  C8_11 
REMARK    9  A    between atoms: C7_10  and  N2_18 
REMARK   10  A    between atoms: C8_11  and  C9_12 
REMARK       I    between atoms: N2_18  and  C15_20 
REMARK   11  A    between atoms: C15_20  and  O3_22 
REMARK   12  A    between atoms: O3_22  and  C16_23 
REMARK   13  A    between atoms: S1_31  and  C22_34 
ROOT
HETATM    1  C7  UNL     1      18.154  40.599  -9.612  1.00  0.00     0.029 C 
ENDROOT
BRANCH   1   2
HETATM    2  C6  UNL     1      17.681  41.646  -8.636  1.00  0.00     0.203 C 
BRANCH   2   3
HETATM    3  C5  UNL     1      18.405  42.930  -8.684  1.00  0.00     0.119 C 
BRANCH   3   4
HETATM    4  N1  UNL     1      19.747  42.939  -8.279  1.00  0.00    -0.262 N 
BRANCH   4   5
HETATM    5  C4  UNL     1      20.183  42.247  -7.148  1.00  0.00     0.085 C 
BRANCH   5   6
HETATM    6  C2  UNL     1      20.630  43.115  -5.978  1.00  0.00     0.017 C 
HETATM    7  C1  UNL     1      19.557  44.037  -5.473  1.00  0.00     0.015 C 
HETATM    8  C3  UNL     1      21.172  42.282  -4.840  1.00  0.00     0.015 C 
ENDBRANCH   5   6
ENDBRANCH   4   5
BRANCH   4   9
HETATM    9  S1  UNL     1      20.862  43.290  -9.500  1.00  0.00     0.267 S 
HETATM   10  O6  UNL     1      22.116  42.470  -9.237  1.00  0.00    -0.200 OA
HETATM   11  O7  UNL     1      20.335  42.935 -10.883  1.00  0.00    -0.200 OA
BRANCH   9  12
HETATM   12  C22 UNL     1      21.348  44.980  -9.549  1.00  0.00     0.080 A 
HETATM   13  C23 UNL     1      21.671  45.641 -10.715  1.00  0.00     0.027 A 
HETATM   14  C24 UNL     1      22.055  46.968 -10.728  1.00  0.00     0.028 A 
HETATM   15  C25 UNL     1      22.129  47.692  -9.557  1.00  0.00     0.046 A 
HETATM   16  N3  UNL     1      22.529  49.075  -9.567  1.00  0.00    -0.102 NA
HETATM   17  C26 UNL     1      21.811  47.048  -8.383  1.00  0.00     0.028 A 
HETATM   18  C27 UNL     1      21.428  45.726  -8.376  1.00  0.00     0.027 A 
ENDBRANCH   9  12
ENDBRANCH   4   9
ENDBRANCH   3   4
ENDBRANCH   2   3
BRANCH   2  19
HETATM   19  O1  UNL     1      16.328  41.895  -8.972  1.00  0.00    -0.385 OA
ATOM     20  H1  UNL     1      15.814  41.840  -8.176  1.00  0.00     0.211 HD
ENDBRANCH   2  19
ENDBRANCH   1   2
BRANCH   1  21
HETATM   21  C8  UNL     1      17.782  40.911 -11.036  1.00  0.00     0.094 C 
BRANCH  21  22
HETATM   22  C9  UNL     1      17.969  39.819 -11.991  1.00  0.00    -0.053 A 
HETATM   23  C10 UNL     1      19.263  39.360 -12.238  1.00  0.00     0.007 A 
HETATM   24  C11 UNL     1      19.564  38.368 -13.132  1.00  0.00     0.001 A 
HETATM   25  C12 UNL     1      18.530  37.779 -13.837  1.00  0.00     0.000 A 
HETATM   26  C13 UNL     1      17.239  38.197 -13.628  1.00  0.00     0.001 A 
HETATM   27  C14 UNL     1      16.976  39.219 -12.702  1.00  0.00     0.007 A 
ENDBRANCH  21  22
ENDBRANCH   1  21
BRANCH   1  28
HETATM   28  N2  UNL     1      18.056  39.265  -9.169  1.00  0.00    -0.307 N 
HETATM   29  C15 UNL     1      19.010  38.606  -8.355  1.00  0.00     0.365 C 
HETATM   30  O2  UNL     1      20.026  39.205  -7.986  1.00  0.00    -0.238 OA
ATOM     31  H2  UNL     1      17.235  38.733  -9.457  1.00  0.00     0.170 HD
BRANCH  29  32
HETATM   32  O3  UNL     1      18.822  37.278  -7.959  1.00  0.00    -0.296 OA
BRANCH  32  33
HETATM   33  C16 UNL     1      17.849  36.929  -6.988  1.00  0.00     0.166 C 
HETATM   34  C17 UNL     1      16.809  37.987  -6.827  1.00  0.00     0.204 C 
HETATM   35  O4  UNL     1      15.573  37.400  -6.765  1.00  0.00    -0.358 OA
HETATM   36  C18 UNL     1      15.711  36.025  -6.871  1.00  0.00     0.266 C 
HETATM   37  O5  UNL     1      14.785  35.453  -7.733  1.00  0.00    -0.361 OA
HETATM   38  C21 UNL     1      17.039  35.782  -7.557  1.00  0.00     0.075 C 
HETATM   39  C19 UNL     1      15.175  35.698  -9.027  1.00  0.00     0.171 C 
HETATM   40  C20 UNL     1      16.685  35.955  -8.998  1.00  0.00     0.038 C 
ENDBRANCH  32  33
ENDBRANCH  29  32
ENDBRANCH   1  28
TORSDOF 13
ENDMDL
