MODEL 9
REMARK VINA RESULT: -8.978716326      2.414      3.583
REMARK  13 active torsions:
REMARK  status: ('A' for Active; 'I' for Inactive)
REMARK    1  A    between atoms: C2_2  and  C4_4 
REMARK    2  A    between atoms: C4_4  and  N1_5 
REMARK    3  A    between atoms: N1_5  and  C5_6 
REMARK    4  A    between atoms: N1_5  and  S1_31 
REMARK    5  A    between atoms: C5_6  and  C6_7 
REMARK    6  A    between atoms: C6_7  and  O1_8 
REMARK    7  A    between atoms: C6_7  and  C7_10 
REMARK    8  A    between atoms: C7_10  and  C8_11 
REMARK    9  A    between atoms: C7_10  and  N2_18 
REMARK   10  A    between atoms: C8_11  and  C9_12 
REMARK       I    between atoms: N2_18  and  C15_20 
REMARK   11  A    between atoms: C15_20  and  O3_22 
REMARK   12  A    between atoms: O3_22  and  C16_23 
REMARK   13  A    between atoms: S1_31  and  C22_34 
ROOT
HETATM    1  C7  UNL     1      17.744  40.652  -9.600  1.00  0.00     0.029 C 
ENDROOT
BRANCH   1   2
HETATM    2  C6  UNL     1      17.520  41.883  -8.760  1.00  0.00     0.203 C 
BRANCH   2   3
HETATM    3  C5  UNL     1      18.450  42.999  -9.014  1.00  0.00     0.119 C 
BRANCH   3   4
HETATM    4  N1  UNL     1      19.738  42.913  -8.469  1.00  0.00    -0.262 N 
BRANCH   4   5
HETATM    5  C4  UNL     1      20.018  42.126  -7.350  1.00  0.00     0.085 C 
BRANCH   5   6
HETATM    6  C2  UNL     1      20.396  42.890  -6.087  1.00  0.00     0.017 C 
HETATM    7  C1  UNL     1      19.273  43.715  -5.528  1.00  0.00     0.015 C 
HETATM    8  C3  UNL     1      20.941  41.969  -5.020  1.00  0.00     0.015 C 
ENDBRANCH   5   6
ENDBRANCH   4   5
BRANCH   4   9
HETATM    9  S1  UNL     1      20.994  43.287  -9.536  1.00  0.00     0.267 S 
HETATM   10  O6  UNL     1      22.223  42.498  -9.107  1.00  0.00    -0.200 OA
HETATM   11  O7  UNL     1      20.661  42.915 -10.974  1.00  0.00    -0.200 OA
BRANCH   9  12
HETATM   12  C22 UNL     1      21.443  44.988  -9.532  1.00  0.00     0.080 A 
HETATM   13  C23 UNL     1      21.466  45.761  -8.390  1.00  0.00     0.027 A 
HETATM   14  C24 UNL     1      21.817  47.098  -8.413  1.00  0.00     0.028 A 
HETATM   15  C25 UNL     1      22.163  47.716  -9.595  1.00  0.00     0.046 A 
HETATM   16  N3  UNL     1      22.529  49.108  -9.622  1.00  0.00    -0.102 NA
HETATM   17  C26 UNL     1      22.145  46.959 -10.745  1.00  0.00     0.028 A 
HETATM   18  C27 UNL     1      21.795  45.628 -10.716  1.00  0.00     0.027 A 
ENDBRANCH   9  12
ENDBRANCH   4   9
ENDBRANCH   3   4
ENDBRANCH   2   3
BRANCH   2  19
HETATM   19  O1  UNL     1      16.212  42.325  -9.076  1.00  0.00    -0.385 OA
ATOM     20  H1  UNL     1      15.606  41.881  -8.495  1.00  0.00     0.211 HD
ENDBRANCH   2  19
ENDBRANCH   1   2
BRANCH   1  21
HETATM   21  C8  UNL     1      18.124  40.968 -11.020  1.00  0.00     0.094 C 
BRANCH  21  22
HETATM   22  C9  UNL     1      18.105  39.837 -11.947  1.00  0.00    -0.053 A 
HETATM   23  C10 UNL     1      19.152  38.915 -11.899  1.00  0.00     0.007 A 
HETATM   24  C11 UNL     1      19.258  37.836 -12.735  1.00  0.00     0.001 A 
HETATM   25  C12 UNL     1      18.274  37.639 -13.687  1.00  0.00     0.000 A 
HETATM   26  C13 UNL     1      17.224  38.519 -13.773  1.00  0.00     0.001 A 
HETATM   27  C14 UNL     1      17.156  39.613 -12.895  1.00  0.00     0.007 A 
ENDBRANCH  21  22
ENDBRANCH   1  21
BRANCH   1  28
HETATM   28  N2  UNL     1      16.854  39.584  -9.365  1.00  0.00    -0.307 N 
HETATM   29  C15 UNL     1      17.094  38.504  -8.480  1.00  0.00     0.365 C 
HETATM   30  O2  UNL     1      18.155  38.448  -7.849  1.00  0.00    -0.238 OA
ATOM     31  H2  UNL     1      15.969  39.590  -9.871  1.00  0.00     0.170 HD
BRANCH  29  32
HETATM   32  O3  UNL     1      16.144  37.492  -8.307  1.00  0.00    -0.296 OA
BRANCH  32  33
HETATM   33  C16 UNL     1      16.469  36.130  -8.534  1.00  0.00     0.166 C 
HETATM   34  C17 UNL     1      15.276  35.240  -8.419  1.00  0.00     0.204 C 
HETATM   35  O4  UNL     1      15.285  34.337  -9.449  1.00  0.00    -0.358 OA
HETATM   36  C18 UNL     1      16.400  34.556 -10.243  1.00  0.00     0.266 C 
HETATM   37  O5  UNL     1      16.112  34.521 -11.601  1.00  0.00    -0.361 OA
HETATM   38  C21 UNL     1      16.819  35.992 -10.002  1.00  0.00     0.075 C 
HETATM   39  C19 UNL     1      15.498  35.698 -11.954  1.00  0.00     0.171 C 
HETATM   40  C20 UNL     1      15.902  36.744 -10.910  1.00  0.00     0.038 C 
ENDBRANCH  32  33
ENDBRANCH  29  32
ENDBRANCH   1  28
TORSDOF 13
ENDMDL
