MODEL 3
REMARK VINA RESULT: -9.260269573      0.873      1.159
REMARK  13 active torsions:
REMARK  status: ('A' for Active; 'I' for Inactive)
REMARK    1  A    between atoms: C2_2  and  C4_4 
REMARK    2  A    between atoms: C4_4  and  N1_5 
REMARK    3  A    between atoms: N1_5  and  C5_6 
REMARK    4  A    between atoms: N1_5  and  S1_28 
REMARK    5  A    between atoms: C5_6  and  C6_7 
REMARK    6  A    between atoms: C6_7  and  O1_8 
REMARK    7  A    between atoms: C6_7  and  C7_10 
REMARK    8  A    between atoms: C7_10  and  C8_11 
REMARK    9  A    between atoms: C7_10  and  N2_18 
REMARK   10  A    between atoms: C8_11  and  C9_12 
REMARK       I    between atoms: N2_18  and  C15_20 
REMARK   11  A    between atoms: C15_20  and  O3_22 
REMARK   12  A    between atoms: O3_22  and  C16_23 
REMARK   13  A    between atoms: S1_28  and  C20_31 
ROOT
HETATM    1  C6  UNL     1      20.078  29.387  15.636  1.00  0.00     0.160 C 
ENDROOT
BRANCH   1   2
HETATM    2  C5  UNL     1      19.161  30.459  16.090  1.00  0.00     0.174 C 
BRANCH   2   3
HETATM    3  N1  UNL     1      19.370  31.775  15.622  1.00  0.00    -0.283 N 
BRANCH   3   4
HETATM    4  C4  UNL     1      20.014  32.677  16.488  1.00  0.00     0.080 C 
BRANCH   4   5
HETATM    5  C2  UNL     1      21.464  32.959  16.194  1.00  0.00     0.017 C 
HETATM    6  C1  UNL     1      21.900  32.692  14.796  1.00  0.00     0.015 C 
HETATM    7  C3  UNL     1      22.372  32.301  17.221  1.00  0.00     0.015 C 
ENDBRANCH   4   5
ENDBRANCH   3   4
BRANCH   3   8
HETATM    8  S1  UNL     1      18.087  32.455  14.771  1.00  0.00     0.264 S 
HETATM    9  O5  UNL     1      18.592  33.331  13.651  1.00  0.00    -0.200 OA
HETATM   10  O6  UNL     1      17.304  31.335  14.061  1.00  0.00    -0.200 OA
BRANCH   8  11
HETATM   11  C20 UNL     1      16.948  33.373  15.729  1.00  0.00     0.080 A 
HETATM   12  C21 UNL     1      16.978  34.743  15.846  1.00  0.00     0.027 A 
HETATM   13  C22 UNL     1      16.034  35.423  16.612  1.00  0.00     0.028 A 
HETATM   14  C23 UNL     1      15.030  34.761  17.287  1.00  0.00     0.046 A 
HETATM   15  N3  UNL     1      14.077  35.478  18.065  1.00  0.00    -0.102 NA
HETATM   16  C24 UNL     1      14.997  33.387  17.172  1.00  0.00     0.028 A 
HETATM   17  C25 UNL     1      15.927  32.710  16.415  1.00  0.00     0.027 A 
ENDBRANCH   8  11
ENDBRANCH   3   8
ENDBRANCH   2   3
ENDBRANCH   1   2
BRANCH   1  18
HETATM   18  O1  UNL     1      20.045  28.224  16.381  1.00  0.00    -0.392 OA
ATOM     19  H1  UNL     1      20.854  27.727  16.395  1.00  0.00     0.210 HD
ENDBRANCH   1  18
BRANCH   1  20
HETATM   20  C7  UNL     1      19.788  28.978  14.176  1.00  0.00     0.121 C 
BRANCH  20  21
HETATM   21  C8  UNL     1      18.607  28.043  14.195  1.00  0.00     0.066 C 
BRANCH  21  22
HETATM   22  C9  UNL     1      18.181  27.678  12.810  1.00  0.00    -0.056 A 
HETATM   23  C10 UNL     1      17.568  28.600  11.994  1.00  0.00     0.007 A 
HETATM   24  C11 UNL     1      17.170  28.256  10.698  1.00  0.00     0.001 A 
HETATM   25  C12 UNL     1      17.398  26.982  10.242  1.00  0.00     0.000 A 
HETATM   26  C13 UNL     1      18.005  26.046  11.034  1.00  0.00     0.001 A 
HETATM   27  C14 UNL     1      18.390  26.411  12.313  1.00  0.00     0.007 A 
ENDBRANCH  21  22
ENDBRANCH  20  21
BRANCH  20  28
HETATM   28  N2  UNL     1      20.942  28.134  13.821  1.00  0.00    -0.329 N 
HETATM   29  C15 UNL     1      21.989  28.639  13.026  1.00  0.00     0.361 C 
HETATM   30  O2  UNL     1      21.894  29.832  12.632  1.00  0.00    -0.238 OA
ATOM     31  H2  UNL     1      20.984  27.171  14.155  1.00  0.00     0.165 HD
BRANCH  29  32
HETATM   32  O3  UNL     1      23.112  27.893  12.659  1.00  0.00    -0.296 OA
BRANCH  32  33
HETATM   33  C16 UNL     1      23.198  27.317  11.359  1.00  0.00     0.159 C 
HETATM   34  C17 UNL     1      24.635  26.992  10.997  1.00  0.00     0.061 C 
HETATM   35  C18 UNL     1      24.693  25.490  11.044  1.00  0.00     0.170 C 
HETATM   36  O4  UNL     1      23.407  25.141  10.601  1.00  0.00    -0.389 OA
HETATM   37  C19 UNL     1      22.574  25.943  11.402  1.00  0.00     0.200 C 
ENDBRANCH  32  33
ENDBRANCH  29  32
ENDBRANCH  20  28
ENDBRANCH   1  20
TORSDOF 13
ENDMDL
