MODEL 5
REMARK VINA RESULT: -9.046237752      1.303      1.636
REMARK  13 active torsions:
REMARK  status: ('A' for Active; 'I' for Inactive)
REMARK    1  A    between atoms: C2_2  and  C4_4 
REMARK    2  A    between atoms: C4_4  and  N1_5 
REMARK    3  A    between atoms: N1_5  and  C5_6 
REMARK    4  A    between atoms: N1_5  and  S1_28 
REMARK    5  A    between atoms: C5_6  and  C6_7 
REMARK    6  A    between atoms: C6_7  and  O1_8 
REMARK    7  A    between atoms: C6_7  and  C7_10 
REMARK    8  A    between atoms: C7_10  and  C8_11 
REMARK    9  A    between atoms: C7_10  and  N2_18 
REMARK   10  A    between atoms: C8_11  and  C9_12 
REMARK       I    between atoms: N2_18  and  C15_20 
REMARK   11  A    between atoms: C15_20  and  O3_22 
REMARK   12  A    between atoms: O3_22  and  C16_23 
REMARK   13  A    between atoms: S1_28  and  C20_31 
ROOT
HETATM    1  C6  UNL     1      19.935  30.119  16.050  1.00  0.00     0.160 C 
ENDROOT
BRANCH   1   2
HETATM    2  C5  UNL     1      18.866  31.070  16.434  1.00  0.00     0.174 C 
BRANCH   2   3
HETATM    3  N1  UNL     1      18.949  32.405  15.980  1.00  0.00    -0.283 N 
BRANCH   3   4
HETATM    4  C4  UNL     1      19.703  33.306  16.754  1.00  0.00     0.080 C 
BRANCH   4   5
HETATM    5  C2  UNL     1      20.769  34.079  16.023  1.00  0.00     0.017 C 
HETATM    6  C1  UNL     1      21.795  33.255  15.326  1.00  0.00     0.015 C 
HETATM    7  C3  UNL     1      21.388  35.143  16.916  1.00  0.00     0.015 C 
ENDBRANCH   4   5
ENDBRANCH   3   4
BRANCH   3   8
HETATM    8  S1  UNL     1      17.519  33.059  15.382  1.00  0.00     0.264 S 
HETATM    9  O5  UNL     1      17.758  33.753  14.064  1.00  0.00    -0.200 OA
HETATM   10  O6  UNL     1      16.545  31.915  15.045  1.00  0.00    -0.200 OA
BRANCH   8  11
HETATM   11  C20 UNL     1      16.688  34.164  16.454  1.00  0.00     0.080 A 
HETATM   12  C21 UNL     1      16.836  35.531  16.405  1.00  0.00     0.027 A 
HETATM   13  C22 UNL     1      16.137  36.364  17.275  1.00  0.00     0.028 A 
HETATM   14  C23 UNL     1      15.267  35.863  18.222  1.00  0.00     0.046 A 
HETATM   15  N3  UNL     1      14.564  36.735  19.101  1.00  0.00    -0.102 NA
HETATM   16  C24 UNL     1      15.116  34.493  18.273  1.00  0.00     0.028 A 
HETATM   17  C25 UNL     1      15.805  33.665  17.415  1.00  0.00     0.027 A 
ENDBRANCH   8  11
ENDBRANCH   3   8
ENDBRANCH   2   3
ENDBRANCH   1   2
BRANCH   1  18
HETATM   18  O1  UNL     1      20.026  28.983  16.832  1.00  0.00    -0.392 OA
ATOM     19  H1  UNL     1      20.566  28.287  16.477  1.00  0.00     0.210 HD
ENDBRANCH   1  18
BRANCH   1  20
HETATM   20  C7  UNL     1      19.764  29.634  14.595  1.00  0.00     0.121 C 
BRANCH  20  21
HETATM   21  C8  UNL     1      18.724  28.543  14.602  1.00  0.00     0.066 C 
BRANCH  21  22
HETATM   22  C9  UNL     1      18.249  28.238  13.218  1.00  0.00    -0.056 A 
HETATM   23  C10 UNL     1      17.419  29.107  12.550  1.00  0.00     0.007 A 
HETATM   24  C11 UNL     1      16.974  28.819  11.255  1.00  0.00     0.001 A 
HETATM   25  C12 UNL     1      17.377  27.654  10.651  1.00  0.00     0.000 A 
HETATM   26  C13 UNL     1      18.202  26.773  11.295  1.00  0.00     0.001 A 
HETATM   27  C14 UNL     1      18.628  27.081  12.576  1.00  0.00     0.007 A 
ENDBRANCH  21  22
ENDBRANCH  20  21
BRANCH  20  28
HETATM   28  N2  UNL     1      21.038  28.951  14.309  1.00  0.00    -0.329 N 
HETATM   29  C15 UNL     1      21.748  29.215  13.122  1.00  0.00     0.361 C 
HETATM   30  O2  UNL     1      21.248  30.049  12.320  1.00  0.00    -0.238 OA
ATOM     31  H2  UNL     1      21.410  28.279  14.979  1.00  0.00     0.165 HD
BRANCH  29  32
HETATM   32  O3  UNL     1      22.962  28.605  12.794  1.00  0.00    -0.296 OA
BRANCH  32  33
HETATM   33  C16 UNL     1      23.056  27.762  11.650  1.00  0.00     0.159 C 
HETATM   34  C17 UNL     1      24.496  27.382  11.366  1.00  0.00     0.061 C 
HETATM   35  C18 UNL     1      24.572  25.927  11.739  1.00  0.00     0.170 C 
HETATM   36  O4  UNL     1      23.291  25.476  11.383  1.00  0.00    -0.389 OA
HETATM   37  C19 UNL     1      22.447  26.423  11.992  1.00  0.00     0.200 C 
ENDBRANCH  32  33
ENDBRANCH  29  32
ENDBRANCH  20  28
ENDBRANCH   1  20
TORSDOF 13
ENDMDL
