MODEL 6
REMARK VINA RESULT: -8.941580276      2.735      8.332
REMARK  13 active torsions:
REMARK  status: ('A' for Active; 'I' for Inactive)
REMARK    1  A    between atoms: C2_2  and  C4_4 
REMARK    2  A    between atoms: C4_4  and  N1_5 
REMARK    3  A    between atoms: N1_5  and  C5_6 
REMARK    4  A    between atoms: N1_5  and  S1_28 
REMARK    5  A    between atoms: C5_6  and  C6_7 
REMARK    6  A    between atoms: C6_7  and  O1_8 
REMARK    7  A    between atoms: C6_7  and  C7_10 
REMARK    8  A    between atoms: C7_10  and  C8_11 
REMARK    9  A    between atoms: C7_10  and  N2_18 
REMARK   10  A    between atoms: C8_11  and  C9_12 
REMARK       I    between atoms: N2_18  and  C15_20 
REMARK   11  A    between atoms: C15_20  and  O3_22 
REMARK   12  A    between atoms: O3_22  and  C16_23 
REMARK   13  A    between atoms: S1_28  and  C20_31 
ROOT
HETATM    1  C6  UNL     1      21.011  31.046  13.699  1.00  0.00     0.160 C 
ENDROOT
BRANCH   1   2
HETATM    2  C5  UNL     1      20.234  30.088  12.877  1.00  0.00     0.174 C 
BRANCH   2   3
HETATM    3  N1  UNL     1      19.859  28.852  13.449  1.00  0.00    -0.283 N 
BRANCH   3   4
HETATM    4  C4  UNL     1      20.812  27.817  13.438  1.00  0.00     0.080 C 
BRANCH   4   5
HETATM    5  C2  UNL     1      21.738  27.779  12.251  1.00  0.00     0.017 C 
HETATM    6  C1  UNL     1      21.684  26.535  11.434  1.00  0.00     0.015 C 
HETATM    7  C3  UNL     1      23.158  28.150  12.648  1.00  0.00     0.015 C 
ENDBRANCH   4   5
ENDBRANCH   3   4
BRANCH   3   8
HETATM    8  S1  UNL     1      18.297  28.335  13.099  1.00  0.00     0.264 S 
HETATM    9  O5  UNL     1      17.651  27.720  14.316  1.00  0.00    -0.200 OA
HETATM   10  O6  UNL     1      17.421  29.561  12.777  1.00  0.00    -0.200 OA
BRANCH   8  11
HETATM   11  C20 UNL     1      18.153  27.216  11.763  1.00  0.00     0.080 A 
HETATM   12  C21 UNL     1      18.066  27.606  10.446  1.00  0.00     0.027 A 
HETATM   13  C22 UNL     1      17.967  26.668   9.421  1.00  0.00     0.028 A 
HETATM   14  C23 UNL     1      17.952  25.311   9.673  1.00  0.00     0.046 A 
HETATM   15  N3  UNL     1      17.849  24.372   8.608  1.00  0.00    -0.102 NA
HETATM   16  C24 UNL     1      18.039  24.917  10.992  1.00  0.00     0.028 A 
HETATM   17  C25 UNL     1      18.137  25.840  12.009  1.00  0.00     0.027 A 
ENDBRANCH   8  11
ENDBRANCH   3   8
ENDBRANCH   2   3
ENDBRANCH   1   2
BRANCH   1  18
HETATM   18  O1  UNL     1      21.747  31.975  12.989  1.00  0.00    -0.392 OA
ATOM     19  H1  UNL     1      22.686  31.938  13.123  1.00  0.00     0.210 HD
ENDBRANCH   1  18
BRANCH   1  20
HETATM   20  C7  UNL     1      20.095  31.849  14.647  1.00  0.00     0.121 C 
BRANCH  20  21
HETATM   21  C8  UNL     1      19.007  32.468  13.806  1.00  0.00     0.066 C 
BRANCH  21  22
HETATM   22  C9  UNL     1      17.793  32.767  14.625  1.00  0.00    -0.056 A 
HETATM   23  C10 UNL     1      17.149  31.772  15.323  1.00  0.00     0.007 A 
HETATM   24  C11 UNL     1      16.013  32.053  16.087  1.00  0.00     0.001 A 
HETATM   25  C12 UNL     1      15.541  33.341  16.138  1.00  0.00     0.000 A 
HETATM   26  C13 UNL     1      16.162  34.349  15.453  1.00  0.00     0.001 A 
HETATM   27  C14 UNL     1      17.286  34.044  14.703  1.00  0.00     0.007 A 
ENDBRANCH  21  22
ENDBRANCH  20  21
BRANCH  20  28
HETATM   28  N2  UNL     1      20.943  32.976  15.071  1.00  0.00    -0.329 N 
HETATM   29  C15 UNL     1      21.663  32.922  16.280  1.00  0.00     0.361 C 
HETATM   30  O2  UNL     1      21.547  31.880  16.979  1.00  0.00    -0.238 OA
ATOM     31  H2  UNL     1      21.010  33.806  14.482  1.00  0.00     0.165 HD
BRANCH  29  32
HETATM   32  O3  UNL     1      22.488  33.954  16.737  1.00  0.00    -0.296 OA
BRANCH  32  33
HETATM   33  C16 UNL     1      22.144  34.683  17.911  1.00  0.00     0.159 C 
HETATM   34  C17 UNL     1      22.668  36.104  17.848  1.00  0.00     0.061 C 
HETATM   35  C18 UNL     1      21.433  36.942  17.655  1.00  0.00     0.170 C 
HETATM   36  O4  UNL     1      20.482  36.219  18.392  1.00  0.00    -0.389 OA
HETATM   37  C19 UNL     1      20.651  34.906  17.915  1.00  0.00     0.200 C 
ENDBRANCH  32  33
ENDBRANCH  29  32
ENDBRANCH  20  28
ENDBRANCH   1  20
TORSDOF 13
ENDMDL
