MODEL 4
REMARK VINA RESULT: -9.242305839      2.643      7.848
REMARK  13 active torsions:
REMARK  status: ('A' for Active; 'I' for Inactive)
REMARK    1  A    between atoms: C2_2  and  C4_4 
REMARK    2  A    between atoms: C4_4  and  N1_5 
REMARK    3  A    between atoms: N1_5  and  C5_6 
REMARK    4  A    between atoms: N1_5  and  S1_28 
REMARK    5  A    between atoms: C5_6  and  C6_7 
REMARK    6  A    between atoms: C6_7  and  O1_8 
REMARK    7  A    between atoms: C6_7  and  C7_10 
REMARK    8  A    between atoms: C7_10  and  C8_11 
REMARK    9  A    between atoms: C7_10  and  N2_18 
REMARK   10  A    between atoms: C8_11  and  C9_12 
REMARK       I    between atoms: N2_18  and  C15_20 
REMARK   11  A    between atoms: C15_20  and  O3_22 
REMARK   12  A    between atoms: O3_22  and  C16_23 
REMARK   13  A    between atoms: S1_28  and  C20_31 
ROOT
HETATM    1  C6  UNL     1      19.298  30.709  16.241  1.00  0.00     0.160 C 
ENDROOT
BRANCH   1   2
HETATM    2  C5  UNL     1      20.117  31.940  16.344  1.00  0.00     0.174 C 
BRANCH   2   3
HETATM    3  N1  UNL     1      21.490  31.871  16.018  1.00  0.00    -0.283 N 
BRANCH   3   4
HETATM    4  C4  UNL     1      22.374  32.674  16.763  1.00  0.00     0.080 C 
BRANCH   4   5
HETATM    5  C2  UNL     1      21.791  33.930  17.354  1.00  0.00     0.017 C 
HETATM    6  C1  UNL     1      21.287  34.929  16.371  1.00  0.00     0.015 C 
HETATM    7  C3  UNL     1      22.734  34.547  18.375  1.00  0.00     0.015 C 
ENDBRANCH   4   5
ENDBRANCH   3   4
BRANCH   3   8
HETATM    8  S1  UNL     1      21.845  31.820  14.375  1.00  0.00     0.264 S 
HETATM    9  O5  UNL     1      20.959  32.769  13.606  1.00  0.00    -0.200 OA
HETATM   10  O6  UNL     1      23.270  32.357  14.150  1.00  0.00    -0.200 OA
BRANCH   8  11
HETATM   11  C20 UNL     1      21.751  30.240  13.631  1.00  0.00     0.080 A 
HETATM   12  C21 UNL     1      21.700  29.063  14.342  1.00  0.00     0.027 A 
HETATM   13  C22 UNL     1      21.611  27.833  13.695  1.00  0.00     0.028 A 
HETATM   14  C23 UNL     1      21.571  27.734  12.319  1.00  0.00     0.046 A 
HETATM   15  N3  UNL     1      21.482  26.464  11.681  1.00  0.00    -0.102 NA
HETATM   16  C24 UNL     1      21.623  28.911  11.604  1.00  0.00     0.028 A 
HETATM   17  C25 UNL     1      21.710  30.131  12.238  1.00  0.00     0.027 A 
ENDBRANCH   8  11
ENDBRANCH   3   8
ENDBRANCH   2   3
ENDBRANCH   1   2
BRANCH   1  18
HETATM   18  O1  UNL     1      19.050  30.062  17.436  1.00  0.00    -0.392 OA
ATOM     19  H1  UNL     1      19.173  29.120  17.422  1.00  0.00     0.210 HD
ENDBRANCH   1  18
BRANCH   1  20
HETATM   20  C7  UNL     1      17.921  30.999  15.608  1.00  0.00     0.121 C 
BRANCH  20  21
HETATM   21  C8  UNL     1      18.109  31.029  14.112  1.00  0.00     0.066 C 
BRANCH  21  22
HETATM   22  C9  UNL     1      18.029  29.655  13.528  1.00  0.00    -0.056 A 
HETATM   23  C10 UNL     1      17.977  28.545  14.338  1.00  0.00     0.007 A 
HETATM   24  C11 UNL     1      17.903  27.261  13.789  1.00  0.00     0.001 A 
HETATM   25  C12 UNL     1      17.881  27.115  12.425  1.00  0.00     0.000 A 
HETATM   26  C13 UNL     1      17.931  28.203  11.597  1.00  0.00     0.001 A 
HETATM   27  C14 UNL     1      18.004  29.464  12.165  1.00  0.00     0.007 A 
ENDBRANCH  21  22
ENDBRANCH  20  21
BRANCH  20  28
HETATM   28  N2  UNL     1      17.653  32.396  15.991  1.00  0.00    -0.329 N 
HETATM   29  C15 UNL     1      16.350  32.819  16.317  1.00  0.00     0.361 C 
HETATM   30  O2  UNL     1      15.431  31.959  16.263  1.00  0.00    -0.238 OA
ATOM     31  H2  UNL     1      18.422  33.066  16.020  1.00  0.00     0.165 HD
BRANCH  29  32
HETATM   32  O3  UNL     1      16.032  34.126  16.693  1.00  0.00    -0.296 OA
BRANCH  32  33
HETATM   33  C16 UNL     1      15.710  34.427  18.047  1.00  0.00     0.159 C 
HETATM   34  C17 UNL     1      16.600  35.527  18.592  1.00  0.00     0.061 C 
HETATM   35  C18 UNL     1      15.685  36.715  18.707  1.00  0.00     0.170 C 
HETATM   36  O4  UNL     1      14.467  36.104  19.045  1.00  0.00    -0.389 OA
HETATM   37  C19 UNL     1      14.352  35.086  18.080  1.00  0.00     0.200 C 
ENDBRANCH  32  33
ENDBRANCH  29  32
ENDBRANCH  20  28
ENDBRANCH   1  20
TORSDOF 13
ENDMDL
