MODEL 2
REMARK VINA RESULT: -9.521486705      0.072      1.131
REMARK  13 active torsions:
REMARK  status: ('A' for Active; 'I' for Inactive)
REMARK    1  A    between atoms: C2_2  and  C4_4 
REMARK    2  A    between atoms: C4_4  and  N1_5 
REMARK    3  A    between atoms: N1_5  and  C5_6 
REMARK    4  A    between atoms: N1_5  and  S1_28 
REMARK    5  A    between atoms: C5_6  and  C6_7 
REMARK    6  A    between atoms: C6_7  and  O1_8 
REMARK    7  A    between atoms: C6_7  and  C7_10 
REMARK    8  A    between atoms: C7_10  and  C8_11 
REMARK    9  A    between atoms: C7_10  and  N2_18 
REMARK   10  A    between atoms: C8_11  and  C9_12 
REMARK       I    between atoms: N2_18  and  C15_20 
REMARK   11  A    between atoms: C15_20  and  O3_22 
REMARK   12  A    between atoms: O3_22  and  C16_23 
REMARK   13  A    between atoms: S1_28  and  C20_31 
ROOT
HETATM    1  C6  UNL     1      20.377  29.099  15.307  1.00  0.00     0.160 C 
ENDROOT
BRANCH   1   2
HETATM    2  C5  UNL     1      19.635  30.223  15.924  1.00  0.00     0.174 C 
BRANCH   2   3
HETATM    3  N1  UNL     1      19.840  31.528  15.423  1.00  0.00    -0.283 N 
BRANCH   3   4
HETATM    4  C4  UNL     1      20.691  32.377  16.154  1.00  0.00     0.080 C 
BRANCH   4   5
HETATM    5  C2  UNL     1      22.160  32.275  15.840  1.00  0.00     0.017 C 
HETATM    6  C1  UNL     1      23.048  33.178  16.621  1.00  0.00     0.015 C 
HETATM    7  C3  UNL     1      22.411  32.368  14.343  1.00  0.00     0.015 C 
ENDBRANCH   4   5
ENDBRANCH   3   4
BRANCH   3   8
HETATM    8  S1  UNL     1      18.470  32.298  14.823  1.00  0.00     0.264 S 
HETATM    9  O5  UNL     1      18.846  33.339  13.798  1.00  0.00    -0.200 OA
HETATM   10  O6  UNL     1      17.620  31.278  14.042  1.00  0.00    -0.200 OA
BRANCH   8  11
HETATM   11  C20 UNL     1      17.435  33.041  16.022  1.00  0.00     0.080 A 
HETATM   12  C21 UNL     1      16.089  32.778  16.137  1.00  0.00     0.027 A 
HETATM   13  C22 UNL     1      15.316  33.389  17.122  1.00  0.00     0.028 A 
HETATM   14  C23 UNL     1      15.858  34.281  18.024  1.00  0.00     0.046 A 
HETATM   15  N3  UNL     1      15.047  34.894  19.021  1.00  0.00    -0.102 NA
HETATM   16  C24 UNL     1      17.206  34.547  17.911  1.00  0.00     0.028 A 
HETATM   17  C25 UNL     1      17.975  33.945  16.940  1.00  0.00     0.027 A 
ENDBRANCH   8  11
ENDBRANCH   3   8
ENDBRANCH   2   3
ENDBRANCH   1   2
BRANCH   1  18
HETATM   18  O1  UNL     1      20.288  27.893  15.976  1.00  0.00    -0.392 OA
ATOM     19  H1  UNL     1      20.823  27.192  15.622  1.00  0.00     0.210 HD
ENDBRANCH   1  18
BRANCH   1  20
HETATM   20  C7  UNL     1      19.899  28.833  13.863  1.00  0.00     0.121 C 
BRANCH  20  21
HETATM   21  C8  UNL     1      18.733  27.881  13.942  1.00  0.00     0.066 C 
BRANCH  21  22
HETATM   22  C9  UNL     1      18.274  27.472  12.580  1.00  0.00    -0.056 A 
HETATM   23  C10 UNL     1      18.408  26.174  12.149  1.00  0.00     0.007 A 
HETATM   24  C11 UNL     1      17.978  25.794  10.873  1.00  0.00     0.001 A 
HETATM   25  C12 UNL     1      17.415  26.735  10.048  1.00  0.00     0.000 A 
HETATM   26  C13 UNL     1      17.270  28.033  10.453  1.00  0.00     0.001 A 
HETATM   27  C14 UNL     1      17.704  28.384  11.720  1.00  0.00     0.007 A 
ENDBRANCH  21  22
ENDBRANCH  20  21
BRANCH  20  28
HETATM   28  N2  UNL     1      21.000  28.047  13.278  1.00  0.00    -0.329 N 
HETATM   29  C15 UNL     1      21.850  28.609  12.306  1.00  0.00     0.361 C 
HETATM   30  O2  UNL     1      21.628  29.800  11.960  1.00  0.00    -0.238 OA
ATOM     31  H2  UNL     1      21.147  27.084  13.579  1.00  0.00     0.165 HD
BRANCH  29  32
HETATM   32  O3  UNL     1      22.913  27.920  11.716  1.00  0.00    -0.296 OA
BRANCH  32  33
HETATM   33  C16 UNL     1      23.152  26.554  12.041  1.00  0.00     0.159 C 
HETATM   34  C17 UNL     1      22.551  25.628  11.001  1.00  0.00     0.061 C 
HETATM   35  C18 UNL     1      23.744  25.072  10.273  1.00  0.00     0.170 C 
HETATM   36  O4  UNL     1      24.695  24.997  11.301  1.00  0.00    -0.389 OA
HETATM   37  C19 UNL     1      24.628  26.276  11.882  1.00  0.00     0.200 C 
ENDBRANCH  32  33
ENDBRANCH  29  32
ENDBRANCH  20  28
ENDBRANCH   1  20
TORSDOF 13
ENDMDL
