MODEL 1
REMARK VINA RESULT: -9.596012736      0.000      0.000
REMARK  13 active torsions:
REMARK  status: ('A' for Active; 'I' for Inactive)
REMARK    1  A    between atoms: C2_2  and  C4_4 
REMARK    2  A    between atoms: C4_4  and  N1_5 
REMARK    3  A    between atoms: N1_5  and  C5_6 
REMARK    4  A    between atoms: N1_5  and  S1_28 
REMARK    5  A    between atoms: C5_6  and  C6_7 
REMARK    6  A    between atoms: C6_7  and  O1_8 
REMARK    7  A    between atoms: C6_7  and  C7_10 
REMARK    8  A    between atoms: C7_10  and  C8_11 
REMARK    9  A    between atoms: C7_10  and  N2_18 
REMARK   10  A    between atoms: C8_11  and  C9_12 
REMARK       I    between atoms: N2_18  and  C15_20 
REMARK   11  A    between atoms: C15_20  and  O3_22 
REMARK   12  A    between atoms: O3_22  and  C16_23 
REMARK   13  A    between atoms: S1_28  and  C20_31 
ROOT
HETATM    1  C6  UNL     1      20.358  29.090  15.338  1.00  0.00     0.160 C 
ENDROOT
BRANCH   1   2
HETATM    2  C5  UNL     1      19.628  30.221  15.956  1.00  0.00     0.174 C 
BRANCH   2   3
HETATM    3  N1  UNL     1      19.830  31.522  15.441  1.00  0.00    -0.283 N 
BRANCH   3   4
HETATM    4  C4  UNL     1      20.716  32.364  16.137  1.00  0.00     0.080 C 
BRANCH   4   5
HETATM    5  C2  UNL     1      22.174  32.233  15.780  1.00  0.00     0.017 C 
HETATM    6  C1  UNL     1      23.105  33.097  16.557  1.00  0.00     0.015 C 
HETATM    7  C3  UNL     1      22.386  32.356  14.279  1.00  0.00     0.015 C 
ENDBRANCH   4   5
ENDBRANCH   3   4
BRANCH   3   8
HETATM    8  S1  UNL     1      18.448  32.304  14.887  1.00  0.00     0.264 S 
HETATM    9  O5  UNL     1      18.797  33.322  13.829  1.00  0.00    -0.200 OA
HETATM   10  O6  UNL     1      17.549  31.287  14.161  1.00  0.00    -0.200 OA
BRANCH   8  11
HETATM   11  C20 UNL     1      17.478  33.085  16.116  1.00  0.00     0.080 A 
HETATM   12  C21 UNL     1      17.997  33.907  17.090  1.00  0.00     0.027 A 
HETATM   13  C22 UNL     1      17.174  34.514  18.036  1.00  0.00     0.028 A 
HETATM   14  C23 UNL     1      15.808  34.323  18.042  1.00  0.00     0.046 A 
HETATM   15  N3  UNL     1      14.987  34.954  19.020  1.00  0.00    -0.102 NA
HETATM   16  C24 UNL     1      15.284  33.501  17.067  1.00  0.00     0.028 A 
HETATM   17  C25 UNL     1      16.094  32.898  16.129  1.00  0.00     0.027 A 
ENDBRANCH   8  11
ENDBRANCH   3   8
ENDBRANCH   2   3
ENDBRANCH   1   2
BRANCH   1  18
HETATM   18  O1  UNL     1      20.248  27.882  16.001  1.00  0.00    -0.392 OA
ATOM     19  H1  UNL     1      21.036  27.352  16.014  1.00  0.00     0.210 HD
ENDBRANCH   1  18
BRANCH   1  20
HETATM   20  C7  UNL     1      19.887  28.837  13.890  1.00  0.00     0.121 C 
BRANCH  20  21
HETATM   21  C8  UNL     1      18.717  27.889  13.955  1.00  0.00     0.066 C 
BRANCH  21  22
HETATM   22  C9  UNL     1      18.256  27.502  12.587  1.00  0.00    -0.056 A 
HETATM   23  C10 UNL     1      17.678  28.426  11.749  1.00  0.00     0.007 A 
HETATM   24  C11 UNL     1      17.247  28.062  10.469  1.00  0.00     0.001 A 
HETATM   25  C12 UNL     1      17.407  26.765  10.052  1.00  0.00     0.000 A 
HETATM   26  C13 UNL     1      17.979  25.826  10.866  1.00  0.00     0.001 A 
HETATM   27  C14 UNL     1      18.398  26.212  12.128  1.00  0.00     0.007 A 
ENDBRANCH  21  22
ENDBRANCH  20  21
BRANCH  20  28
HETATM   28  N2  UNL     1      20.988  28.053  13.303  1.00  0.00    -0.329 N 
HETATM   29  C15 UNL     1      21.821  28.607  12.313  1.00  0.00     0.361 C 
HETATM   30  O2  UNL     1      21.584  29.790  11.951  1.00  0.00    -0.238 OA
ATOM     31  H2  UNL     1      21.148  27.096  13.619  1.00  0.00     0.165 HD
BRANCH  29  32
HETATM   32  O3  UNL     1      22.883  27.918  11.721  1.00  0.00    -0.296 OA
BRANCH  32  33
HETATM   33  C16 UNL     1      23.128  26.554  12.050  1.00  0.00     0.159 C 
HETATM   34  C17 UNL     1      22.559  25.624  10.996  1.00  0.00     0.061 C 
HETATM   35  C18 UNL     1      23.773  25.080  10.295  1.00  0.00     0.170 C 
HETATM   36  O4  UNL     1      24.702  25.012  11.345  1.00  0.00    -0.389 OA
HETATM   37  C19 UNL     1      24.609  26.290  11.925  1.00  0.00     0.200 C 
ENDBRANCH  32  33
ENDBRANCH  29  32
ENDBRANCH  20  28
ENDBRANCH   1  20
TORSDOF 13
ENDMDL
