MODEL 13
REMARK VINA RESULT: -8.761966843      1.467      1.888
REMARK  13 active torsions:
REMARK  status: ('A' for Active; 'I' for Inactive)
REMARK    1  A    between atoms: C2_2  and  C4_4 
REMARK    2  A    between atoms: C4_4  and  N1_5 
REMARK    3  A    between atoms: N1_5  and  C5_6 
REMARK    4  A    between atoms: N1_5  and  S1_28 
REMARK    5  A    between atoms: C5_6  and  C6_7 
REMARK    6  A    between atoms: C6_7  and  O1_8 
REMARK    7  A    between atoms: C6_7  and  C7_10 
REMARK    8  A    between atoms: C7_10  and  C8_11 
REMARK    9  A    between atoms: C7_10  and  N2_18 
REMARK   10  A    between atoms: C8_11  and  C9_12 
REMARK       I    between atoms: N2_18  and  C15_20 
REMARK   11  A    between atoms: C15_20  and  O3_22 
REMARK   12  A    between atoms: O3_22  and  C16_23 
REMARK   13  A    between atoms: S1_28  and  C20_31 
ROOT
HETATM    1  C6  UNL     1      19.819  30.342  15.813  1.00  0.00     0.160 C 
ENDROOT
BRANCH   1   2
HETATM    2  C5  UNL     1      18.794  31.217  16.427  1.00  0.00     0.174 C 
BRANCH   2   3
HETATM    3  N1  UNL     1      18.796  32.594  16.108  1.00  0.00    -0.283 N 
BRANCH   3   4
HETATM    4  C4  UNL     1      19.511  33.455  16.959  1.00  0.00     0.080 C 
BRANCH   4   5
HETATM    5  C2  UNL     1      20.639  34.228  16.327  1.00  0.00     0.017 C 
HETATM    6  C1  UNL     1      21.887  33.456  16.081  1.00  0.00     0.015 C 
HETATM    7  C3  UNL     1      20.898  35.529  17.070  1.00  0.00     0.015 C 
ENDBRANCH   4   5
ENDBRANCH   3   4
BRANCH   3   8
HETATM    8  S1  UNL     1      17.322  33.221  15.593  1.00  0.00     0.264 S 
HETATM    9  O5  UNL     1      17.453  33.840  14.223  1.00  0.00    -0.200 OA
HETATM   10  O6  UNL     1      16.322  32.066  15.400  1.00  0.00    -0.200 OA
BRANCH   8  11
HETATM   11  C20 UNL     1      16.582  34.388  16.666  1.00  0.00     0.080 A 
HETATM   12  C21 UNL     1      16.809  35.743  16.593  1.00  0.00     0.027 A 
HETATM   13  C22 UNL     1      16.180  36.628  17.466  1.00  0.00     0.028 A 
HETATM   14  C23 UNL     1      15.305  36.192  18.439  1.00  0.00     0.046 A 
HETATM   15  N3  UNL     1      14.675  37.116  19.321  1.00  0.00    -0.102 NA
HETATM   16  C24 UNL     1      15.076  34.835  18.515  1.00  0.00     0.028 A 
HETATM   17  C25 UNL     1      15.695  33.955  17.654  1.00  0.00     0.027 A 
ENDBRANCH   8  11
ENDBRANCH   3   8
ENDBRANCH   2   3
ENDBRANCH   1   2
BRANCH   1  18
HETATM   18  O1  UNL     1      20.074  29.164  16.489  1.00  0.00    -0.392 OA
ATOM     19  H1  UNL     1      20.845  29.171  17.042  1.00  0.00     0.210 HD
ENDBRANCH   1  18
BRANCH   1  20
HETATM   20  C7  UNL     1      19.433  29.944  14.373  1.00  0.00     0.121 C 
BRANCH  20  21
HETATM   21  C8  UNL     1      18.382  28.868  14.469  1.00  0.00     0.066 C 
BRANCH  21  22
HETATM   22  C9  UNL     1      18.012  28.349  13.117  1.00  0.00    -0.056 A 
HETATM   23  C10 UNL     1      18.376  27.084  12.721  1.00  0.00     0.007 A 
HETATM   24  C11 UNL     1      18.029  26.601  11.455  1.00  0.00     0.001 A 
HETATM   25  C12 UNL     1      17.315  27.406  10.604  1.00  0.00     0.000 A 
HETATM   26  C13 UNL     1      16.940  28.669  10.973  1.00  0.00     0.001 A 
HETATM   27  C14 UNL     1      17.296  29.123  12.231  1.00  0.00     0.007 A 
ENDBRANCH  21  22
ENDBRANCH  20  21
BRANCH  20  28
HETATM   28  N2  UNL     1      20.638  29.262  13.870  1.00  0.00    -0.329 N 
HETATM   29  C15 UNL     1      21.192  29.602  12.620  1.00  0.00     0.361 C 
HETATM   30  O2  UNL     1      20.613  30.502  11.955  1.00  0.00    -0.238 OA
ATOM     31  H2  UNL     1      21.077  28.535  14.434  1.00  0.00     0.165 HD
BRANCH  29  32
HETATM   32  O3  UNL     1      22.334  28.997  12.090  1.00  0.00    -0.296 OA
BRANCH  32  33
HETATM   33  C16 UNL     1      22.764  27.728  12.571  1.00  0.00     0.159 C 
HETATM   34  C17 UNL     1      22.035  26.599  11.869  1.00  0.00     0.061 C 
HETATM   35  C18 UNL     1      23.083  25.981  10.983  1.00  0.00     0.170 C 
HETATM   36  O4  UNL     1      24.242  26.143  11.758  1.00  0.00    -0.389 OA
HETATM   37  C19 UNL     1      24.187  27.502  12.118  1.00  0.00     0.200 C 
ENDBRANCH  32  33
ENDBRANCH  29  32
ENDBRANCH  20  28
ENDBRANCH   1  20
TORSDOF 13
ENDMDL
