MODEL 8
REMARK VINA RESULT: -8.883828500      2.294      9.507
REMARK  13 active torsions:
REMARK  status: ('A' for Active; 'I' for Inactive)
REMARK    1  A    between atoms: C2_2  and  C4_4 
REMARK    2  A    between atoms: C4_4  and  N1_5 
REMARK    3  A    between atoms: N1_5  and  C5_6 
REMARK    4  A    between atoms: N1_5  and  S1_28 
REMARK    5  A    between atoms: C5_6  and  C6_7 
REMARK    6  A    between atoms: C6_7  and  O1_8 
REMARK    7  A    between atoms: C6_7  and  C7_10 
REMARK    8  A    between atoms: C7_10  and  C8_11 
REMARK    9  A    between atoms: C7_10  and  N2_18 
REMARK   10  A    between atoms: C8_11  and  C9_12 
REMARK       I    between atoms: N2_18  and  C15_20 
REMARK   11  A    between atoms: C15_20  and  O3_22 
REMARK   12  A    between atoms: O3_22  and  C16_23 
REMARK   13  A    between atoms: S1_28  and  C20_31 
ROOT
HETATM    1  C6  UNL     1      18.126  30.747  14.237  1.00  0.00     0.160 C 
ENDROOT
BRANCH   1   2
HETATM    2  C5  UNL     1      19.038  30.610  13.077  1.00  0.00     0.174 C 
BRANCH   2   3
HETATM    3  N1  UNL     1      19.567  29.335  12.775  1.00  0.00    -0.283 N 
BRANCH   3   4
HETATM    4  C4  UNL     1      18.657  28.267  12.665  1.00  0.00     0.080 C 
BRANCH   4   5
HETATM    5  C2  UNL     1      18.041  28.057  11.307  1.00  0.00     0.017 C 
HETATM    6  C1  UNL     1      16.709  28.690  11.102  1.00  0.00     0.015 C 
HETATM    7  C3  UNL     1      18.049  26.587  10.920  1.00  0.00     0.015 C 
ENDBRANCH   4   5
ENDBRANCH   3   4
BRANCH   3   8
HETATM    8  S1  UNL     1      20.990  28.931  13.575  1.00  0.00     0.264 S 
HETATM    9  O5  UNL     1      21.801  30.166  13.882  1.00  0.00    -0.200 OA
HETATM   10  O6  UNL     1      20.643  28.346  14.957  1.00  0.00    -0.200 OA
BRANCH   8  11
HETATM   11  C20 UNL     1      22.017  27.778  12.754  1.00  0.00     0.080 A 
HETATM   12  C21 UNL     1      23.377  27.932  12.613  1.00  0.00     0.027 A 
HETATM   13  C22 UNL     1      24.147  26.972  11.960  1.00  0.00     0.028 A 
HETATM   14  C23 UNL     1      23.589  25.828  11.428  1.00  0.00     0.046 A 
HETATM   15  N3  UNL     1      24.398  24.862  10.765  1.00  0.00    -0.102 NA
HETATM   16  C24 UNL     1      22.227  25.671  11.568  1.00  0.00     0.028 A 
HETATM   17  C25 UNL     1      21.460  26.616  12.212  1.00  0.00     0.027 A 
ENDBRANCH   8  11
ENDBRANCH   3   8
ENDBRANCH   2   3
ENDBRANCH   1   2
BRANCH   1  18
HETATM   18  O1  UNL     1      18.073  29.654  15.080  1.00  0.00    -0.392 OA
ATOM     19  H1  UNL     1      17.202  29.394  15.355  1.00  0.00     0.210 HD
ENDBRANCH   1  18
BRANCH   1  20
HETATM   20  C7  UNL     1      18.507  31.958  15.115  1.00  0.00     0.121 C 
BRANCH  20  21
HETATM   21  C8  UNL     1      19.425  31.456  16.200  1.00  0.00     0.066 C 
BRANCH  21  22
HETATM   22  C9  UNL     1      20.485  32.460  16.521  1.00  0.00    -0.056 A 
HETATM   23  C10 UNL     1      21.765  32.063  16.827  1.00  0.00     0.007 A 
HETATM   24  C11 UNL     1      22.755  33.004  17.128  1.00  0.00     0.001 A 
HETATM   25  C12 UNL     1      22.437  34.339  17.113  1.00  0.00     0.000 A 
HETATM   26  C13 UNL     1      21.171  34.761  16.811  1.00  0.00     0.001 A 
HETATM   27  C14 UNL     1      20.209  33.809  16.518  1.00  0.00     0.007 A 
ENDBRANCH  21  22
ENDBRANCH  20  21
BRANCH  20  28
HETATM   28  N2  UNL     1      17.247  32.295  15.800  1.00  0.00    -0.329 N 
HETATM   29  C15 UNL     1      16.599  33.521  15.558  1.00  0.00     0.361 C 
HETATM   30  O2  UNL     1      17.141  34.312  14.741  1.00  0.00    -0.238 OA
ATOM     31  H2  UNL     1      16.839  31.631  16.459  1.00  0.00     0.165 HD
BRANCH  29  32
HETATM   32  O3  UNL     1      15.401  33.898  16.171  1.00  0.00    -0.296 OA
BRANCH  32  33
HETATM   33  C16 UNL     1      15.315  33.980  17.590  1.00  0.00     0.159 C 
HETATM   34  C17 UNL     1      16.571  34.590  18.182  1.00  0.00     0.061 C 
HETATM   35  C18 UNL     1      16.133  35.952  18.646  1.00  0.00     0.170 C 
HETATM   36  O4  UNL     1      14.812  35.703  19.050  1.00  0.00    -0.389 OA
HETATM   37  C19 UNL     1      14.275  35.014  17.947  1.00  0.00     0.200 C 
ENDBRANCH  32  33
ENDBRANCH  29  32
ENDBRANCH  20  28
ENDBRANCH   1  20
TORSDOF 13
ENDMDL
