MODEL 4
REMARK VINA RESULT: -10.458867632      2.161      6.604
REMARK  11 active torsions:
REMARK  status: ('A' for Active; 'I' for Inactive)
REMARK    1  A    between atoms: C7_8  and  C8_9 
REMARK       I    between atoms: C8_9  and  N1_11 
REMARK    2  A    between atoms: N1_11  and  C9_13 
REMARK    3  A    between atoms: C9_13  and  C10_14 
REMARK    4  A    between atoms: C9_13  and  C17_22 
REMARK    5  A    between atoms: C10_14  and  S1_15 
REMARK    6  A    between atoms: S1_15  and  C11_16 
REMARK    7  A    between atoms: C17_22  and  O3_23 
REMARK    8  A    between atoms: C17_22  and  C18_25 
REMARK    9  A    between atoms: C18_25  and  N2_26 
REMARK   10  A    between atoms: C27_35  and  C28_36 
REMARK       I    between atoms: C28_36  and  N3_38 
REMARK   11  A    between atoms: N3_38  and  C29_40 
ROOT
HETATM    1  C17 UNL     1      19.984  29.495  15.673  1.00  0.00     0.170 C 
ENDROOT
BRANCH   1   2
HETATM    2  C9  UNL     1      20.527  30.892  15.283  1.00  0.00     0.124 C 
BRANCH   2   3
HETATM    3  N1  UNL     1      19.964  31.884  16.187  1.00  0.00    -0.349 N 
HETATM    4  C8  UNL     1      19.196  32.977  15.742  1.00  0.00     0.248 C 
HETATM    5  O2  UNL     1      19.000  33.070  14.481  1.00  0.00    -0.268 OA
ATOM      6  H1  UNL     1      20.133  31.783  17.187  1.00  0.00     0.163 HD
BRANCH   4   7
HETATM    7  C7  UNL     1      18.622  33.994  16.647  1.00  0.00     0.021 A 
HETATM    8  C2  UNL     1      17.242  33.794  17.133  1.00  0.00     0.094 A 
HETATM    9  C1  UNL     1      16.317  33.702  15.916  1.00  0.00     0.023 C 
HETATM   10  C3  UNL     1      16.738  34.845  18.030  1.00  0.00     0.157 A 
HETATM   11  O1  UNL     1      15.545  34.743  18.497  1.00  0.00    -0.293 OA
HETATM   12  C4  UNL     1      17.554  35.990  18.397  1.00  0.00     0.051 A 
HETATM   13  C5  UNL     1      18.770  36.090  17.919  1.00  0.00     0.004 A 
HETATM   14  C6  UNL     1      19.294  35.049  17.021  1.00  0.00     0.013 A 
ENDBRANCH   4   7
ENDBRANCH   2   3
BRANCH   2  15
HETATM   15  C10 UNL     1      22.014  30.873  15.270  1.00  0.00     0.107 C 
BRANCH  15  16
HETATM   16  S1  UNL     1      22.689  32.290  14.417  1.00  0.00    -0.128 SA
BRANCH  16  17
HETATM   17  C11 UNL     1      22.759  33.761  15.402  1.00  0.00     0.000 A 
HETATM   18  C12 UNL     1      22.388  35.001  14.939  1.00  0.00     0.018 A 
HETATM   19  C13 UNL     1      22.450  36.152  15.712  1.00  0.00     0.001 A 
HETATM   20  C14 UNL     1      22.912  36.041  17.022  1.00  0.00     0.000 A 
HETATM   21  C15 UNL     1      23.291  34.815  17.515  1.00  0.00     0.001 A 
HETATM   22  C16 UNL     1      23.212  33.711  16.719  1.00  0.00     0.018 A 
ENDBRANCH  16  17
ENDBRANCH  15  16
ENDBRANCH   2  15
ENDBRANCH   1   2
BRANCH   1  23
HETATM   23  O3  UNL     1      20.124  29.325  17.046  1.00  0.00    -0.392 OA
ATOM     24  H3  UNL     1      19.342  29.650  17.476  1.00  0.00     0.210 HD
ENDBRANCH   1  23
BRANCH   1  25
HETATM   25  C18 UNL     1      20.640  28.412  14.890  1.00  0.00     0.307 C 
BRANCH  25  26
HETATM   26  N2  UNL     1      20.236  28.485  13.448  1.00  0.00     0.105 N 
HETATM   27  C19 UNL     1      18.920  28.946  13.439  1.00  0.00     0.278 C 
HETATM   28  C20 UNL     1      17.814  28.205  12.818  1.00  0.00     0.018 C 
HETATM   29  C21 UNL     1      17.359  28.851  11.514  1.00  0.00     0.007 C 
HETATM   30  C25 UNL     1      18.189  26.749  12.594  1.00  0.00    -0.006 C 
HETATM   31  C22 UNL     1      16.298  28.045  10.843  1.00  0.00     0.000 C 
HETATM   32  C23 UNL     1      16.824  26.687  10.507  1.00  0.00     0.000 C 
HETATM   33  C24 UNL     1      17.138  26.010  11.846  1.00  0.00     0.005 C 
HETATM   34  C26 UNL     1      19.507  26.780  11.879  1.00  0.00     0.050 C 
HETATM   35  C27 UNL     1      20.548  27.270  12.837  1.00  0.00     0.314 C 
BRANCH  35  36
HETATM   36  C28 UNL     1      21.802  27.363  11.976  1.00  0.00     0.252 C 
HETATM   37  O4  UNL     1      21.773  26.814  10.858  1.00  0.00    -0.271 OA
HETATM   38  N3  UNL     1      22.965  28.037  12.396  1.00  0.00    -0.351 N 
ATOM     39  H3  UNL     1      22.949  28.473  13.318  1.00  0.00     0.163 HD
BRANCH  38  40
HETATM   40  C29 UNL     1      24.172  28.157  11.626  1.00  0.00     0.022 C 
HETATM   41  C30 UNL     1      25.156  29.029  12.385  1.00  0.00     0.037 C 
HETATM   42  C31 UNL     1      24.840  26.846  11.350  1.00  0.00     0.037 C 
HETATM   43  C32 UNL     1      23.939  28.838  10.287  1.00  0.00     0.037 C 
ENDBRANCH  38  40
ENDBRANCH  35  36
ENDBRANCH  25  26
ENDBRANCH   1  25
TORSDOF 11
ENDMDL
