MODEL 5
REMARK VINA RESULT: -10.390124864      1.973      6.211
REMARK  11 active torsions:
REMARK  status: ('A' for Active; 'I' for Inactive)
REMARK    1  A    between atoms: C7_8  and  C8_9 
REMARK       I    between atoms: C8_9  and  N1_11 
REMARK    2  A    between atoms: N1_11  and  C9_13 
REMARK    3  A    between atoms: C9_13  and  C10_14 
REMARK    4  A    between atoms: C9_13  and  C17_22 
REMARK    5  A    between atoms: C10_14  and  S1_15 
REMARK    6  A    between atoms: S1_15  and  C11_16 
REMARK    7  A    between atoms: C17_22  and  O3_23 
REMARK    8  A    between atoms: C17_22  and  C18_25 
REMARK    9  A    between atoms: C18_25  and  N2_26 
REMARK   10  A    between atoms: C27_35  and  C28_36 
REMARK       I    between atoms: C28_36  and  N3_38 
REMARK   11  A    between atoms: N3_38  and  C29_40 
ROOT
HETATM    1  C17 UNL     1      20.002  29.571  15.033  1.00  0.00     0.170 C 
ENDROOT
BRANCH   1   2
HETATM    2  C9  UNL     1      19.226  30.892  15.261  1.00  0.00     0.124 C 
BRANCH   2   3
HETATM    3  N1  UNL     1      20.179  31.987  15.362  1.00  0.00    -0.349 N 
HETATM    4  C8  UNL     1      20.042  33.039  16.288  1.00  0.00     0.248 C 
HETATM    5  O2  UNL     1      19.024  32.998  17.062  1.00  0.00    -0.268 OA
ATOM      6  H1  UNL     1      20.983  31.992  14.735  1.00  0.00     0.163 HD
BRANCH   4   7
HETATM    7  C7  UNL     1      20.999  34.159  16.399  1.00  0.00     0.021 A 
HETATM    8  C2  UNL     1      22.421  33.891  16.102  1.00  0.00     0.094 A 
HETATM    9  C1  UNL     1      22.906  32.789  17.048  1.00  0.00     0.023 C 
HETATM   10  C3  UNL     1      23.315  35.052  16.232  1.00  0.00     0.157 A 
HETATM   11  O1  UNL     1      24.567  34.900  15.989  1.00  0.00    -0.293 OA
HETATM   12  C4  UNL     1      22.815  36.358  16.629  1.00  0.00     0.051 A 
HETATM   13  C5  UNL     1      21.537  36.507  16.875  1.00  0.00     0.004 A 
HETATM   14  C6  UNL     1      20.626  35.359  16.749  1.00  0.00     0.013 A 
ENDBRANCH   4   7
ENDBRANCH   2   3
BRANCH   2  15
HETATM   15  C10 UNL     1      18.217  31.079  14.184  1.00  0.00     0.107 C 
BRANCH  15  16
HETATM   16  S1  UNL     1      16.556  31.155  14.836  1.00  0.00    -0.128 SA
BRANCH  16  17
HETATM   17  C11 UNL     1      16.115  32.733  15.512  1.00  0.00     0.000 A 
HETATM   18  C12 UNL     1      15.388  32.885  16.668  1.00  0.00     0.018 A 
HETATM   19  C13 UNL     1      15.040  34.123  17.191  1.00  0.00     0.001 A 
HETATM   20  C14 UNL     1      15.451  35.265  16.506  1.00  0.00     0.000 A 
HETATM   21  C15 UNL     1      16.180  35.146  15.346  1.00  0.00     0.001 A 
HETATM   22  C16 UNL     1      16.499  33.909  14.871  1.00  0.00     0.018 A 
ENDBRANCH  16  17
ENDBRANCH  15  16
ENDBRANCH   2  15
ENDBRANCH   1   2
BRANCH   1  23
HETATM   23  O3  UNL     1      20.243  28.973  16.265  1.00  0.00    -0.392 OA
ATOM     24  H3  UNL     1      20.442  28.055  16.127  1.00  0.00     0.210 HD
ENDBRANCH   1  23
BRANCH   1  25
HETATM   25  C18 UNL     1      21.247  29.793  14.248  1.00  0.00     0.307 C 
BRANCH  25  26
HETATM   26  N2  UNL     1      21.575  28.582  13.426  1.00  0.00     0.105 N 
HETATM   27  C19 UNL     1      22.937  28.347  13.611  1.00  0.00     0.278 C 
HETATM   28  C20 UNL     1      23.899  28.296  12.503  1.00  0.00     0.018 C 
HETATM   29  C21 UNL     1      24.359  26.871  12.216  1.00  0.00     0.007 C 
HETATM   30  C25 UNL     1      23.326  28.938  11.250  1.00  0.00    -0.006 C 
HETATM   31  C22 UNL     1      25.267  26.814  11.033  1.00  0.00     0.000 C 
HETATM   32  C23 UNL     1      24.550  27.305   9.816  1.00  0.00     0.000 C 
HETATM   33  C24 UNL     1      24.228  28.780  10.078  1.00  0.00     0.005 C 
HETATM   34  C26 UNL     1      21.985  28.297  11.049  1.00  0.00     0.050 C 
HETATM   35  C27 UNL     1      21.072  28.771  12.138  1.00  0.00     0.314 C 
BRANCH  35  36
HETATM   36  C28 UNL     1      19.794  27.978  11.895  1.00  0.00     0.252 C 
HETATM   37  O4  UNL     1      19.873  26.734  11.939  1.00  0.00    -0.271 OA
HETATM   38  N3  UNL     1      18.556  28.593  11.630  1.00  0.00    -0.351 N 
ATOM     39  H3  UNL     1      18.533  29.612  11.601  1.00  0.00     0.163 HD
BRANCH  38  40
HETATM   40  C29 UNL     1      17.322  27.895  11.395  1.00  0.00     0.022 C 
HETATM   41  C30 UNL     1      17.249  27.501   9.931  1.00  0.00     0.037 C 
HETATM   42  C31 UNL     1      17.171  26.651  12.214  1.00  0.00     0.037 C 
HETATM   43  C32 UNL     1      16.105  28.767  11.665  1.00  0.00     0.037 C 
ENDBRANCH  38  40
ENDBRANCH  35  36
ENDBRANCH  25  26
ENDBRANCH   1  25
TORSDOF 11
ENDMDL
