MODEL 3
REMARK VINA RESULT: -10.460754411      2.245      6.739
REMARK  11 active torsions:
REMARK  status: ('A' for Active; 'I' for Inactive)
REMARK    1  A    between atoms: C7_8  and  C8_9 
REMARK       I    between atoms: C8_9  and  N1_11 
REMARK    2  A    between atoms: N1_11  and  C9_13 
REMARK    3  A    between atoms: C9_13  and  C10_14 
REMARK    4  A    between atoms: C9_13  and  C17_22 
REMARK    5  A    between atoms: C10_14  and  S1_15 
REMARK    6  A    between atoms: S1_15  and  C11_16 
REMARK    7  A    between atoms: C17_22  and  O3_23 
REMARK    8  A    between atoms: C17_22  and  C18_25 
REMARK    9  A    between atoms: C18_25  and  N2_26 
REMARK   10  A    between atoms: C27_35  and  C28_36 
REMARK       I    between atoms: C28_36  and  N3_38 
REMARK   11  A    between atoms: N3_38  and  C29_40 
ROOT
HETATM    1  C17 UNL     1      21.078  29.299  15.109  1.00  0.00     0.170 C 
ENDROOT
BRANCH   1   2
HETATM    2  C9  UNL     1      20.951  30.673  14.406  1.00  0.00     0.124 C 
BRANCH   2   3
HETATM    3  N1  UNL     1      19.776  31.359  14.923  1.00  0.00    -0.349 N 
HETATM    4  C8  UNL     1      18.810  31.957  14.092  1.00  0.00     0.248 C 
HETATM    5  O2  UNL     1      19.001  31.872  12.830  1.00  0.00    -0.268 OA
ATOM      6  H1  UNL     1      19.646  31.409  15.933  1.00  0.00     0.163 HD
BRANCH   4   7
HETATM    7  C7  UNL     1      17.615  32.661  14.603  1.00  0.00     0.021 A 
HETATM    8  C2  UNL     1      16.704  31.923  15.501  1.00  0.00     0.094 A 
HETATM    9  C1  UNL     1      16.210  30.677  14.760  1.00  0.00     0.023 C 
HETATM   10  C3  UNL     1      15.538  32.686  15.971  1.00  0.00     0.157 A 
HETATM   11  O1  UNL     1      14.698  32.113  16.757  1.00  0.00    -0.293 OA
HETATM   12  C4  UNL     1      15.316  34.064  15.567  1.00  0.00     0.051 A 
HETATM   13  C5  UNL     1      16.175  34.643  14.765  1.00  0.00     0.004 A 
HETATM   14  C6  UNL     1      17.350  33.898  14.285  1.00  0.00     0.013 A 
ENDBRANCH   4   7
ENDBRANCH   2   3
BRANCH   2  15
HETATM   15  C10 UNL     1      22.211  31.445  14.568  1.00  0.00     0.107 C 
BRANCH  15  16
HETATM   16  S1  UNL     1      22.461  31.963  16.259  1.00  0.00    -0.128 SA
BRANCH  16  17
HETATM   17  C11 UNL     1      22.244  33.702  16.522  1.00  0.00     0.000 A 
HETATM   18  C12 UNL     1      21.019  34.289  16.732  1.00  0.00     0.018 A 
HETATM   19  C13 UNL     1      20.852  35.653  16.933  1.00  0.00     0.001 A 
HETATM   20  C14 UNL     1      21.986  36.462  16.918  1.00  0.00     0.000 A 
HETATM   21  C15 UNL     1      23.226  35.906  16.711  1.00  0.00     0.001 A 
HETATM   22  C16 UNL     1      23.340  34.561  16.519  1.00  0.00     0.018 A 
ENDBRANCH  16  17
ENDBRANCH  15  16
ENDBRANCH   2  15
ENDBRANCH   1   2
BRANCH   1  23
HETATM   23  O3  UNL     1      22.343  28.780  14.857  1.00  0.00    -0.392 OA
ATOM     24  H3  UNL     1      22.270  27.843  14.722  1.00  0.00     0.210 HD
ENDBRANCH   1  23
BRANCH   1  25
HETATM   25  C18 UNL     1      19.986  28.372  14.707  1.00  0.00     0.307 C 
BRANCH  25  26
HETATM   26  N2  UNL     1      19.789  28.401  13.221  1.00  0.00     0.105 N 
HETATM   27  C19 UNL     1      18.410  28.436  13.015  1.00  0.00     0.278 C 
HETATM   28  C20 UNL     1      17.692  27.429  12.223  1.00  0.00     0.018 C 
HETATM   29  C21 UNL     1      17.249  27.978  10.872  1.00  0.00     0.007 C 
HETATM   30  C25 UNL     1      18.530  26.174  12.043  1.00  0.00    -0.006 C 
HETATM   31  C22 UNL     1      16.599  26.927  10.037  1.00  0.00     0.000 C 
HETATM   32  C23 UNL     1      17.566  25.817   9.772  1.00  0.00     0.000 C 
HETATM   33  C24 UNL     1      17.880  25.192  11.135  1.00  0.00     0.005 C 
HETATM   34  C26 UNL     1      19.860  26.650  11.540  1.00  0.00     0.050 C 
HETATM   35  C27 UNL     1      20.549  27.379  12.653  1.00  0.00     0.314 C 
BRANCH  35  36
HETATM   36  C28 UNL     1      21.820  27.902  11.995  1.00  0.00     0.252 C 
HETATM   37  O4  UNL     1      21.715  28.895  11.250  1.00  0.00    -0.271 OA
HETATM   38  N3  UNL     1      23.082  27.311  12.201  1.00  0.00    -0.351 N 
ATOM     39  H3  UNL     1      23.126  26.500  12.818  1.00  0.00     0.163 HD
BRANCH  38  40
HETATM   40  C29 UNL     1      24.310  27.763  11.610  1.00  0.00     0.022 C 
HETATM   41  C30 UNL     1      25.333  26.644  11.683  1.00  0.00     0.037 C 
HETATM   42  C31 UNL     1      24.172  28.167  10.175  1.00  0.00     0.037 C 
HETATM   43  C32 UNL     1      24.912  28.943  12.357  1.00  0.00     0.037 C 
ENDBRANCH  38  40
ENDBRANCH  35  36
ENDBRANCH  25  26
ENDBRANCH   1  25
TORSDOF 11
ENDMDL
