MODEL 2
REMARK VINA RESULT: -10.644874155      2.267      6.908
REMARK  11 active torsions:
REMARK  status: ('A' for Active; 'I' for Inactive)
REMARK    1  A    between atoms: C7_8  and  C8_9 
REMARK       I    between atoms: C8_9  and  N1_11 
REMARK    2  A    between atoms: N1_11  and  C9_13 
REMARK    3  A    between atoms: C9_13  and  C10_14 
REMARK    4  A    between atoms: C9_13  and  C17_22 
REMARK    5  A    between atoms: C10_14  and  S1_15 
REMARK    6  A    between atoms: S1_15  and  C11_16 
REMARK    7  A    between atoms: C17_22  and  O3_23 
REMARK    8  A    between atoms: C17_22  and  C18_25 
REMARK    9  A    between atoms: C18_25  and  N2_26 
REMARK   10  A    between atoms: C27_35  and  C28_36 
REMARK       I    between atoms: C28_36  and  N3_38 
REMARK   11  A    between atoms: N3_38  and  C29_40 
ROOT
HETATM    1  C17 UNL     1      20.269  29.443  15.481  1.00  0.00     0.170 C 
ENDROOT
BRANCH   1   2
HETATM    2  C9  UNL     1      19.615  29.163  14.106  1.00  0.00     0.124 C 
BRANCH   2   3
HETATM    3  N1  UNL     1      20.288  28.031  13.486  1.00  0.00    -0.349 N 
HETATM    4  C8  UNL     1      20.924  28.111  12.233  1.00  0.00     0.248 C 
HETATM    5  O2  UNL     1      20.896  29.245  11.642  1.00  0.00    -0.268 OA
ATOM      6  H1  UNL     1      20.298  27.140  13.982  1.00  0.00     0.163 HD
BRANCH   4   7
HETATM    7  C7  UNL     1      21.607  26.969  11.590  1.00  0.00     0.021 A 
HETATM    8  C2  UNL     1      23.023  26.722  11.932  1.00  0.00     0.094 A 
HETATM    9  C1  UNL     1      23.823  27.981  11.582  1.00  0.00     0.023 C 
HETATM   10  C3  UNL     1      23.636  25.570  11.254  1.00  0.00     0.157 A 
HETATM   11  O1  UNL     1      24.866  25.289  11.500  1.00  0.00    -0.293 OA
HETATM   12  C4  UNL     1      22.887  24.748  10.319  1.00  0.00     0.051 A 
HETATM   13  C5  UNL     1      21.633  25.038  10.073  1.00  0.00     0.004 A 
HETATM   14  C6  UNL     1      21.000  26.186  10.741  1.00  0.00     0.013 A 
ENDBRANCH   4   7
ENDBRANCH   2   3
BRANCH   2  15
HETATM   15  C10 UNL     1      18.150  28.967  14.272  1.00  0.00     0.107 C 
BRANCH  15  16
HETATM   16  S1  UNL     1      17.269  29.202  12.736  1.00  0.00    -0.128 SA
BRANCH  16  17
HETATM   17  C11 UNL     1      17.362  27.820  11.630  1.00  0.00     0.000 A 
HETATM   18  C12 UNL     1      17.498  27.948  10.269  1.00  0.00     0.018 A 
HETATM   19  C13 UNL     1      17.564  26.864   9.405  1.00  0.00     0.001 A 
HETATM   20  C14 UNL     1      17.490  25.583   9.950  1.00  0.00     0.000 A 
HETATM   21  C15 UNL     1      17.354  25.422  11.309  1.00  0.00     0.001 A 
HETATM   22  C16 UNL     1      17.294  26.517  12.118  1.00  0.00     0.018 A 
ENDBRANCH  16  17
ENDBRANCH  15  16
ENDBRANCH   2  15
ENDBRANCH   1   2
BRANCH   1  23
HETATM   23  O3  UNL     1      20.263  28.271  16.229  1.00  0.00    -0.392 OA
ATOM     24  H3  UNL     1      19.666  28.375  16.960  1.00  0.00     0.210 HD
ENDBRANCH   1  23
BRANCH   1  25
HETATM   25  C18 UNL     1      19.610  30.577  16.184  1.00  0.00     0.307 C 
BRANCH  25  26
HETATM   26  N2  UNL     1      20.028  31.885  15.581  1.00  0.00     0.105 N 
HETATM   27  C19 UNL     1      21.377  31.748  15.258  1.00  0.00     0.278 C 
HETATM   28  C20 UNL     1      22.421  32.639  15.779  1.00  0.00     0.018 C 
HETATM   29  C21 UNL     1      22.936  33.597  14.710  1.00  0.00     0.007 C 
HETATM   30  C25 UNL     1      21.929  33.407  16.995  1.00  0.00    -0.006 C 
HETATM   31  C22 UNL     1      23.931  34.559  15.267  1.00  0.00     0.000 C 
HETATM   32  C23 UNL     1      23.296  35.386  16.338  1.00  0.00     0.000 C 
HETATM   33  C24 UNL     1      22.920  34.413  17.461  1.00  0.00     0.005 C 
HETATM   34  C26 UNL     1      20.623  34.016  16.582  1.00  0.00     0.050 C 
HETATM   35  C27 UNL     1      19.619  32.915  16.429  1.00  0.00     0.314 C 
BRANCH  35  36
HETATM   36  C28 UNL     1      18.383  33.636  15.906  1.00  0.00     0.252 C 
HETATM   37  O4  UNL     1      18.220  33.676  14.671  1.00  0.00    -0.271 OA
HETATM   38  N3  UNL     1      17.440  34.244  16.758  1.00  0.00    -0.351 N 
ATOM     39  H3  UNL     1      17.609  34.190  17.762  1.00  0.00     0.163 HD
BRANCH  38  40
HETATM   40  C29 UNL     1      16.258  34.934  16.321  1.00  0.00     0.022 C 
HETATM   41  C30 UNL     1      16.387  36.404  16.676  1.00  0.00     0.037 C 
HETATM   42  C31 UNL     1      16.018  34.838  14.846  1.00  0.00     0.037 C 
HETATM   43  C32 UNL     1      15.004  34.432  17.019  1.00  0.00     0.037 C 
ENDBRANCH  38  40
ENDBRANCH  35  36
ENDBRANCH  25  26
ENDBRANCH   1  25
TORSDOF 11
ENDMDL
