MODEL 1
REMARK VINA RESULT: -10.705307818      0.000      0.000
REMARK  11 active torsions:
REMARK  status: ('A' for Active; 'I' for Inactive)
REMARK    1  A    between atoms: C7_8  and  C8_9 
REMARK       I    between atoms: C8_9  and  N1_11 
REMARK    2  A    between atoms: N1_11  and  C9_13 
REMARK    3  A    between atoms: C9_13  and  C10_14 
REMARK    4  A    between atoms: C9_13  and  C17_22 
REMARK    5  A    between atoms: C10_14  and  S1_15 
REMARK    6  A    between atoms: S1_15  and  C11_16 
REMARK    7  A    between atoms: C17_22  and  O3_23 
REMARK    8  A    between atoms: C17_22  and  C18_25 
REMARK    9  A    between atoms: C18_25  and  N2_26 
REMARK   10  A    between atoms: C27_35  and  C28_36 
REMARK       I    between atoms: C28_36  and  N3_38 
REMARK   11  A    between atoms: N3_38  and  C29_40 
ROOT
HETATM    1  C17 UNL     1      18.999  28.835  14.114  1.00  0.00     0.170 C 
ENDROOT
BRANCH   1   2
HETATM    2  C9  UNL     1      17.771  29.773  14.010  1.00  0.00     0.124 C 
BRANCH   2   3
HETATM    3  N1  UNL     1      18.046  30.994  14.752  1.00  0.00    -0.349 N 
HETATM    4  C8  UNL     1      17.038  31.766  15.359  1.00  0.00     0.248 C 
HETATM    5  O2  UNL     1      15.835  31.344  15.236  1.00  0.00    -0.268 OA
ATOM      6  H1  UNL     1      19.014  31.305  14.837  1.00  0.00     0.163 HD
BRANCH   4   7
HETATM    7  C7  UNL     1      17.302  33.010  16.111  1.00  0.00     0.021 A 
HETATM    8  C2  UNL     1      16.344  34.125  15.971  1.00  0.00     0.094 A 
HETATM    9  C1  UNL     1      16.267  34.503  14.489  1.00  0.00     0.023 C 
HETATM   10  C3  UNL     1      16.671  35.330  16.749  1.00  0.00     0.157 A 
HETATM   11  O1  UNL     1      15.885  36.344  16.680  1.00  0.00    -0.293 OA
HETATM   12  C4  UNL     1      17.857  35.397  17.586  1.00  0.00     0.051 A 
HETATM   13  C5  UNL     1      18.655  34.361  17.652  1.00  0.00     0.004 A 
HETATM   14  C6  UNL     1      18.345  33.145  16.883  1.00  0.00     0.013 A 
ENDBRANCH   4   7
ENDBRANCH   2   3
BRANCH   2  15
HETATM   15  C10 UNL     1      17.433  30.007  12.580  1.00  0.00     0.107 C 
BRANCH  15  16
HETATM   16  S1  UNL     1      16.187  28.869  11.996  1.00  0.00    -0.128 SA
BRANCH  16  17
HETATM   17  C11 UNL     1      16.839  27.449  11.161  1.00  0.00     0.000 A 
HETATM   18  C12 UNL     1      17.044  26.237  11.775  1.00  0.00     0.018 A 
HETATM   19  C13 UNL     1      17.561  25.128  11.119  1.00  0.00     0.001 A 
HETATM   20  C14 UNL     1      17.886  25.256   9.770  1.00  0.00     0.000 A 
HETATM   21  C15 UNL     1      17.692  26.455   9.126  1.00  0.00     0.001 A 
HETATM   22  C16 UNL     1      17.182  27.516   9.812  1.00  0.00     0.018 A 
ENDBRANCH  16  17
ENDBRANCH  15  16
ENDBRANCH   2  15
ENDBRANCH   1   2
BRANCH   1  23
HETATM   23  O3  UNL     1      18.609  27.650  14.729  1.00  0.00    -0.392 OA
ATOM     24  H3  UNL     1      19.386  27.165  14.981  1.00  0.00     0.210 HD
ENDBRANCH   1  23
BRANCH   1  25
HETATM   25  C18 UNL     1      20.138  29.496  14.808  1.00  0.00     0.307 C 
BRANCH  25  26
HETATM   26  N2  UNL     1      21.081  30.102  13.812  1.00  0.00     0.105 N 
HETATM   27  C19 UNL     1      21.146  29.205  12.746  1.00  0.00     0.278 C 
HETATM   28  C20 UNL     1      22.401  28.606  12.277  1.00  0.00     0.018 C 
HETATM   29  C21 UNL     1      22.856  29.203  10.950  1.00  0.00     0.007 C 
HETATM   30  C25 UNL     1      23.495  28.734  13.326  1.00  0.00    -0.006 C 
HETATM   31  C22 UNL     1      24.176  28.655  10.524  1.00  0.00     0.000 C 
HETATM   32  C23 UNL     1      25.219  28.987  11.542  1.00  0.00     0.000 C 
HETATM   33  C24 UNL     1      24.810  28.254  12.825  1.00  0.00     0.005 C 
HETATM   34  C26 UNL     1      23.507  30.182  13.716  1.00  0.00     0.050 C 
HETATM   35  C27 UNL     1      22.250  30.473  14.477  1.00  0.00     0.314 C 
BRANCH  35  36
HETATM   36  C28 UNL     1      22.325  31.975  14.718  1.00  0.00     0.252 C 
HETATM   37  O4  UNL     1      22.036  32.725  13.765  1.00  0.00    -0.271 OA
HETATM   38  N3  UNL     1      22.702  32.530  15.956  1.00  0.00    -0.351 N 
ATOM     39  H3  UNL     1      22.931  31.883  16.711  1.00  0.00     0.163 HD
BRANCH  38  40
HETATM   40  C29 UNL     1      22.788  33.936  16.239  1.00  0.00     0.022 C 
HETATM   41  C30 UNL     1      22.752  34.140  17.742  1.00  0.00     0.037 C 
HETATM   42  C31 UNL     1      24.036  34.577  15.718  1.00  0.00     0.037 C 
HETATM   43  C32 UNL     1      21.609  34.712  15.673  1.00  0.00     0.037 C 
ENDBRANCH  38  40
ENDBRANCH  35  36
ENDBRANCH  25  26
ENDBRANCH   1  25
TORSDOF 11
ENDMDL
