MODEL 2
REMARK VINA RESULT: -10.921943852      2.515      6.156
REMARK  14 active torsions:
REMARK  status: ('A' for Active; 'I' for Inactive)
REMARK    1  A    between atoms: C2_2  and  N1_5 
REMARK       I    between atoms: N1_5  and  C5_7 
REMARK    2  A    between atoms: C5_7  and  C6_9 
REMARK    3  A    between atoms: N2_18  and  C15_19 
REMARK    4  A    between atoms: C15_19  and  C16_20 
REMARK    5  A    between atoms: C16_20  and  O2_21 
REMARK    6  A    between atoms: C16_20  and  C17_23 
REMARK    7  A    between atoms: C17_23  and  C18_24 
REMARK    8  A    between atoms: C17_23  and  N3_31 
REMARK    9  A    between atoms: C18_24  and  C19_25 
REMARK       I    between atoms: N3_31  and  C25_33 
REMARK   10  A    between atoms: C25_33  and  C26_35 
REMARK   11  A    between atoms: C26_35  and  C27_36 
REMARK   12  A    between atoms: C26_35  and  N5_40 
REMARK   13  A    between atoms: C27_36  and  C28_37 
REMARK       I    between atoms: N5_40  and  C29_42 
REMARK   14  A    between atoms: C29_42  and  C30_44 
ROOT
HETATM    1  C17 UNL     1       4.812  -1.899  15.522  1.00  0.00     0.119 C 
ENDROOT
BRANCH   1   2
HETATM    2  C16 UNL     1       5.439  -0.568  15.885  1.00  0.00     0.169 C 
BRANCH   2   3
HETATM    3  C15 UNL     1       5.128   0.584  15.007  1.00  0.00     0.307 C 
BRANCH   3   4
HETATM    4  N2  UNL     1       5.515   0.553  13.644  1.00  0.00     0.105 N 
HETATM    5  C6  UNL     1       4.533   1.153  12.756  1.00  0.00     0.314 C 
HETATM    6  C7  UNL     1       5.097   1.118  11.353  1.00  0.00     0.050 C 
HETATM    7  C8  UNL     1       6.042   2.302  11.252  1.00  0.00    -0.006 C 
HETATM    8  C9  UNL     1       7.113   1.963  10.249  1.00  0.00     0.005 C 
HETATM    9  C13 UNL     1       6.599   2.543  12.639  1.00  0.00     0.018 C 
HETATM   10  C10 UNL     1       7.902   3.219   9.949  1.00  0.00     0.000 C 
HETATM   11  C11 UNL     1       7.975   4.008  11.242  1.00  0.00     0.000 C 
HETATM   12  C12 UNL     1       8.017   3.095  12.439  1.00  0.00     0.007 C 
HETATM   13  C14 UNL     1       6.762   1.268  13.411  1.00  0.00     0.278 C 
BRANCH   5  14
HETATM   14  C5  UNL     1       3.245   0.433  12.724  1.00  0.00     0.252 C 
HETATM   15  N1  UNL     1       1.994   1.068  12.852  1.00  0.00    -0.351 N 
ATOM     16  H1  UNL     1       1.991   2.082  12.971  1.00  0.00     0.163 HD
HETATM   17  O1  UNL     1       3.238  -0.807  12.577  1.00  0.00    -0.271 OA
BRANCH  15  18
HETATM   18  C2  UNL     1       0.727   0.401  12.827  1.00  0.00     0.022 C 
HETATM   19  C1  UNL     1      -0.400   1.336  13.216  1.00  0.00     0.037 C 
HETATM   20  C3  UNL     1       0.670  -0.785  13.758  1.00  0.00     0.037 C 
HETATM   21  C4  UNL     1       0.421  -0.089  11.430  1.00  0.00     0.037 C 
ENDBRANCH  15  18
ENDBRANCH   5  14
ENDBRANCH   3   4
ENDBRANCH   2   3
BRANCH   2  22
HETATM   22  O2  UNL     1       5.391  -0.295  17.238  1.00  0.00    -0.392 OA
ATOM     23  H2  UNL     1       5.959  -0.836  17.775  1.00  0.00     0.210 HD
ENDBRANCH   2  22
ENDBRANCH   1   2
BRANCH   1  24
HETATM   24  C18 UNL     1       3.370  -1.883  16.013  1.00  0.00     0.066 C 
BRANCH  24  25
HETATM   25  C19 UNL     1       2.778  -3.245  15.978  1.00  0.00    -0.056 A 
HETATM   26  C20 UNL     1       2.345  -3.847  17.119  1.00  0.00     0.007 A 
HETATM   27  C21 UNL     1       1.788  -5.109  17.119  1.00  0.00     0.001 A 
HETATM   28  C22 UNL     1       1.663  -5.792  15.919  1.00  0.00     0.000 A 
HETATM   29  C23 UNL     1       2.105  -5.175  14.760  1.00  0.00     0.001 A 
HETATM   30  C24 UNL     1       2.658  -3.923  14.760  1.00  0.00     0.007 A 
ENDBRANCH  24  25
ENDBRANCH   1  24
BRANCH   1  31
HETATM   31  N3  UNL     1       5.428  -2.944  16.383  1.00  0.00    -0.352 N 
HETATM   32  C25 UNL     1       6.550  -3.685  15.968  1.00  0.00     0.241 C 
HETATM   33  O3  UNL     1       7.032  -3.439  14.827  1.00  0.00    -0.271 OA
ATOM     34  H3  UNL     1       5.025  -3.128  17.302  1.00  0.00     0.163 HD
BRANCH  32  35
HETATM   35  C26 UNL     1       7.161  -4.742  16.854  1.00  0.00     0.185 C 
BRANCH  35  36
HETATM   36  C27 UNL     1       8.612  -4.963  16.482  1.00  0.00     0.134 C 
BRANCH  36  37
HETATM   37  C28 UNL     1       9.464  -5.225  17.676  1.00  0.00     0.233 C 
HETATM   38  N4  UNL     1       8.975  -6.119  18.662  1.00  0.00    -0.062 NA
HETATM   39  O4  UNL     1      10.582  -4.657  17.789  1.00  0.00    -0.277 OA
ENDBRANCH  36  37
ENDBRANCH  35  36
BRANCH  35  40
HETATM   40  N5  UNL     1       6.456  -5.978  16.668  1.00  0.00    -0.342 N 
HETATM   41  C29 UNL     1       5.354  -6.388  17.462  1.00  0.00     0.268 C 
HETATM   42  O5  UNL     1       4.973  -5.631  18.372  1.00  0.00    -0.266 OA
ATOM     43  H5  UNL     1       6.766  -6.599  15.921  1.00  0.00     0.163 HD
BRANCH  41  44
HETATM   44  C30 UNL     1       4.666  -7.667  17.234  1.00  0.00     0.101 A 
HETATM   45  C31 UNL     1       3.807  -8.156  18.194  1.00  0.00     0.036 A 
HETATM   46  C32 UNL     1       3.117  -9.343  18.079  1.00  0.00     0.016 A 
HETATM   47  C33 UNL     1       3.324 -10.065  16.907  1.00  0.00    -0.009 A 
HETATM   48  C34 UNL     1       2.661 -11.271  16.725  1.00  0.00     0.013 A 
HETATM   49  C38 UNL     1       4.194  -9.556  15.951  1.00  0.00     0.043 A 
HETATM   50  C35 UNL     1       2.891 -11.961  15.557  1.00  0.00     0.001 A 
HETATM   51  C36 UNL     1       3.753 -11.470  14.592  1.00  0.00     0.002 A 
HETATM   52  C37 UNL     1       4.406 -10.272  14.782  1.00  0.00     0.030 A 
HETATM   53  N6  UNL     1       4.845  -8.378  16.125  1.00  0.00    -0.351 N 
ATOM     54  H6  UNL     1       5.475  -8.036  15.400  1.00  0.00     0.166 HD
ENDBRANCH  41  44
ENDBRANCH  35  40
ENDBRANCH  32  35
ENDBRANCH   1  31
TORSDOF 14
ENDMDL
