MODEL 7
REMARK VINA RESULT: -10.642830622      2.362      5.249
REMARK  14 active torsions:
REMARK  status: ('A' for Active; 'I' for Inactive)
REMARK    1  A    between atoms: C2_2  and  N1_5 
REMARK       I    between atoms: N1_5  and  C5_7 
REMARK    2  A    between atoms: C5_7  and  C6_9 
REMARK    3  A    between atoms: N2_18  and  C15_19 
REMARK    4  A    between atoms: C15_19  and  C16_20 
REMARK    5  A    between atoms: C16_20  and  O2_21 
REMARK    6  A    between atoms: C16_20  and  C17_23 
REMARK    7  A    between atoms: C17_23  and  C18_24 
REMARK    8  A    between atoms: C17_23  and  N3_31 
REMARK    9  A    between atoms: C18_24  and  C19_25 
REMARK       I    between atoms: N3_31  and  C25_33 
REMARK   10  A    between atoms: C25_33  and  C26_35 
REMARK   11  A    between atoms: C26_35  and  C27_36 
REMARK   12  A    between atoms: C26_35  and  N5_40 
REMARK   13  A    between atoms: C27_36  and  C28_37 
REMARK       I    between atoms: N5_40  and  C29_42 
REMARK   14  A    between atoms: C29_42  and  C30_44 
ROOT
HETATM    1  C17 UNL     1       4.667  -2.084  15.633  1.00  0.00     0.119 C 
ENDROOT
BRANCH   1   2
HETATM    2  C16 UNL     1       5.244  -0.683  15.652  1.00  0.00     0.169 C 
BRANCH   2   3
HETATM    3  C15 UNL     1       4.874   0.212  14.531  1.00  0.00     0.307 C 
BRANCH   3   4
HETATM    4  N2  UNL     1       5.459   0.018  13.254  1.00  0.00     0.105 N 
HETATM    5  C6  UNL     1       5.600   1.250  12.496  1.00  0.00     0.314 C 
HETATM    6  C7  UNL     1       6.295   0.914  11.195  1.00  0.00     0.050 C 
HETATM    7  C8  UNL     1       7.776   0.839  11.519  1.00  0.00    -0.006 C 
HETATM    8  C9  UNL     1       8.418  -0.124  10.555  1.00  0.00     0.005 C 
HETATM    9  C13 UNL     1       7.892   0.386  12.958  1.00  0.00     0.018 C 
HETATM   10  C10 UNL     1       9.921  -0.010  10.696  1.00  0.00     0.000 C 
HETATM   11  C11 UNL     1      10.203   0.254  12.162  1.00  0.00     0.000 C 
HETATM   12  C12 UNL     1       9.191  -0.426  13.046  1.00  0.00     0.007 C 
HETATM   13  C14 UNL     1       6.792  -0.559  13.343  1.00  0.00     0.278 C 
BRANCH   5  14
HETATM   14  C5  UNL     1       4.312   1.883  12.149  1.00  0.00     0.252 C 
HETATM   15  N1  UNL     1       3.271   1.214  11.476  1.00  0.00    -0.351 N 
ATOM     16  H1  UNL     1       3.427   0.238  11.220  1.00  0.00     0.163 HD
HETATM   17  O1  UNL     1       4.112   3.075  12.458  1.00  0.00    -0.271 OA
BRANCH  15  18
HETATM   18  C2  UNL     1       2.012   1.798  11.122  1.00  0.00     0.022 C 
HETATM   19  C1  UNL     1       2.195   3.028  10.257  1.00  0.00     0.037 C 
HETATM   20  C3  UNL     1       1.198   2.209  12.324  1.00  0.00     0.037 C 
HETATM   21  C4  UNL     1       1.190   0.820  10.316  1.00  0.00     0.037 C 
ENDBRANCH  15  18
ENDBRANCH   5  14
ENDBRANCH   3   4
ENDBRANCH   2   3
BRANCH   2  22
HETATM   22  O2  UNL     1       5.202  -0.095  16.902  1.00  0.00    -0.392 OA
ATOM     23  H2  UNL     1       4.346   0.225  17.163  1.00  0.00     0.210 HD
ENDBRANCH   2  22
ENDBRANCH   1   2
BRANCH   1  24
HETATM   24  C18 UNL     1       3.331  -2.047  16.364  1.00  0.00     0.066 C 
BRANCH  24  25
HETATM   25  C19 UNL     1       2.601  -3.332  16.212  1.00  0.00    -0.056 A 
HETATM   26  C20 UNL     1       2.275  -3.806  14.978  1.00  0.00     0.007 A 
HETATM   27  C21 UNL     1       1.600  -4.996  14.803  1.00  0.00     0.001 A 
HETATM   28  C22 UNL     1       1.240  -5.740  15.917  1.00  0.00     0.000 A 
HETATM   29  C23 UNL     1       1.575  -5.252  17.170  1.00  0.00     0.001 A 
HETATM   30  C24 UNL     1       2.244  -4.070  17.344  1.00  0.00     0.007 A 
ENDBRANCH  24  25
ENDBRANCH   1  24
BRANCH   1  31
HETATM   31  N3  UNL     1       5.496  -2.931  16.532  1.00  0.00    -0.352 N 
HETATM   32  C25 UNL     1       6.525  -3.754  16.039  1.00  0.00     0.241 C 
HETATM   33  O3  UNL     1       6.735  -3.757  14.794  1.00  0.00    -0.271 OA
ATOM     34  H3  UNL     1       5.312  -2.915  17.535  1.00  0.00     0.163 HD
BRANCH  32  35
HETATM   35  C26 UNL     1       7.355  -4.608  16.965  1.00  0.00     0.185 C 
BRANCH  35  36
HETATM   36  C27 UNL     1       8.823  -4.489  16.614  1.00  0.00     0.134 C 
BRANCH  36  37
HETATM   37  C28 UNL     1       9.674  -5.382  17.450  1.00  0.00     0.233 C 
HETATM   38  N4  UNL     1      10.786  -6.011  16.836  1.00  0.00    -0.062 NA
HETATM   39  O4  UNL     1       9.395  -5.560  18.665  1.00  0.00    -0.277 OA
ENDBRANCH  36  37
ENDBRANCH  35  36
BRANCH  35  40
HETATM   40  N5  UNL     1       6.967  -5.982  16.815  1.00  0.00    -0.342 N 
HETATM   41  C29 UNL     1       5.776  -6.531  17.354  1.00  0.00     0.268 C 
HETATM   42  O5  UNL     1       5.020  -5.779  17.994  1.00  0.00    -0.266 OA
ATOM     43  H5  UNL     1       7.585  -6.600  16.289  1.00  0.00     0.163 HD
BRANCH  41  44
HETATM   44  C30 UNL     1       5.423  -7.948  17.175  1.00  0.00     0.101 A 
HETATM   45  C31 UNL     1       4.097  -8.321  17.169  1.00  0.00     0.036 A 
HETATM   46  C32 UNL     1       3.662  -9.619  17.011  1.00  0.00     0.016 A 
HETATM   47  C33 UNL     1       4.652 -10.585  16.850  1.00  0.00    -0.009 A 
HETATM   48  C34 UNL     1       4.284 -11.914  16.687  1.00  0.00     0.013 A 
HETATM   49  C38 UNL     1       5.983 -10.189  16.859  1.00  0.00     0.043 A 
HETATM   50  C35 UNL     1       5.288 -12.843  16.533  1.00  0.00     0.001 A 
HETATM   51  C36 UNL     1       6.620 -12.468  16.538  1.00  0.00     0.002 A 
HETATM   52  C37 UNL     1       6.974 -11.147  16.700  1.00  0.00     0.030 A 
HETATM   53  N6  UNL     1       6.347  -8.891  17.019  1.00  0.00    -0.351 N 
ATOM     54  H6  UNL     1       7.335  -8.638  17.019  1.00  0.00     0.166 HD
ENDBRANCH  41  44
ENDBRANCH  35  40
ENDBRANCH  32  35
ENDBRANCH   1  31
TORSDOF 14
ENDMDL
