MODEL 4
REMARK VINA RESULT: -10.679148001      2.451      5.504
REMARK  14 active torsions:
REMARK  status: ('A' for Active; 'I' for Inactive)
REMARK    1  A    between atoms: C2_2  and  N1_5 
REMARK       I    between atoms: N1_5  and  C5_7 
REMARK    2  A    between atoms: C5_7  and  C6_9 
REMARK    3  A    between atoms: N2_18  and  C15_19 
REMARK    4  A    between atoms: C15_19  and  C16_20 
REMARK    5  A    between atoms: C16_20  and  O2_21 
REMARK    6  A    between atoms: C16_20  and  C17_23 
REMARK    7  A    between atoms: C17_23  and  C18_24 
REMARK    8  A    between atoms: C17_23  and  N3_31 
REMARK    9  A    between atoms: C18_24  and  C19_25 
REMARK       I    between atoms: N3_31  and  C25_33 
REMARK   10  A    between atoms: C25_33  and  C26_35 
REMARK   11  A    between atoms: C26_35  and  C27_36 
REMARK   12  A    between atoms: C26_35  and  N5_40 
REMARK   13  A    between atoms: C27_36  and  C28_37 
REMARK       I    between atoms: N5_40  and  C29_42 
REMARK   14  A    between atoms: C29_42  and  C30_44 
ROOT
HETATM    1  C17 UNL     1       4.611  -1.901  15.462  1.00  0.00     0.119 C 
ENDROOT
BRANCH   1   2
HETATM    2  C16 UNL     1       5.043  -0.463  15.261  1.00  0.00     0.169 C 
BRANCH   2   3
HETATM    3  C15 UNL     1       4.453   0.262  14.111  1.00  0.00     0.307 C 
BRANCH   3   4
HETATM    4  N2  UNL     1       5.090   0.210  12.846  1.00  0.00     0.105 N 
HETATM    5  C6  UNL     1       5.360   1.523  12.287  1.00  0.00     0.314 C 
HETATM    6  C7  UNL     1       6.098   1.327  10.981  1.00  0.00     0.050 C 
HETATM    7  C8  UNL     1       7.550   1.088  11.353  1.00  0.00    -0.006 C 
HETATM    8  C9  UNL     1       8.172   0.227  10.284  1.00  0.00     0.005 C 
HETATM    9  C13 UNL     1       7.556   0.422  12.712  1.00  0.00     0.018 C 
HETATM   10  C10 UNL     1       9.670   0.199  10.504  1.00  0.00     0.000 C 
HETATM   11  C11 UNL     1       9.891   0.224  12.004  1.00  0.00     0.000 C 
HETATM   12  C12 UNL     1       8.786  -0.495  12.733  1.00  0.00     0.007 C 
HETATM   13  C14 UNL     1       6.372  -0.478  12.905  1.00  0.00     0.278 C 
BRANCH   5  14
HETATM   14  C5  UNL     1       4.143   2.301  11.984  1.00  0.00     0.252 C 
HETATM   15  N1  UNL     1       3.126   1.850  11.119  1.00  0.00    -0.351 N 
ATOM     16  H1  UNL     1       3.249   0.936  10.684  1.00  0.00     0.163 HD
HETATM   17  O1  UNL     1       3.983   3.421  12.511  1.00  0.00    -0.271 OA
BRANCH  15  18
HETATM   18  C2  UNL     1       1.934   2.579  10.802  1.00  0.00     0.022 C 
HETATM   19  C1  UNL     1       1.120   1.874   9.736  1.00  0.00     0.037 C 
HETATM   20  C3  UNL     1       2.215   3.976  10.304  1.00  0.00     0.037 C 
HETATM   21  C4  UNL     1       1.049   2.689  12.021  1.00  0.00     0.037 C 
ENDBRANCH  15  18
ENDBRANCH   5  14
ENDBRANCH   3   4
ENDBRANCH   2   3
BRANCH   2  22
HETATM   22  O2  UNL     1       5.093   0.260  16.438  1.00  0.00    -0.392 OA
ATOM     23  H2  UNL     1       4.470  -0.014  17.100  1.00  0.00     0.210 HD
ENDBRANCH   2  22
ENDBRANCH   1   2
BRANCH   1  24
HETATM   24  C18 UNL     1       3.355  -1.893  16.326  1.00  0.00     0.066 C 
BRANCH  24  25
HETATM   25  C19 UNL     1       2.631  -3.187  16.230  1.00  0.00    -0.056 A 
HETATM   26  C20 UNL     1       2.432  -3.958  17.334  1.00  0.00     0.007 A 
HETATM   27  C21 UNL     1       1.762  -5.162  17.278  1.00  0.00     0.001 A 
HETATM   28  C22 UNL     1       1.272  -5.608  16.059  1.00  0.00     0.000 A 
HETATM   29  C23 UNL     1       1.478  -4.819  14.940  1.00  0.00     0.001 A 
HETATM   30  C24 UNL     1       2.143  -3.624  14.994  1.00  0.00     0.007 A 
ENDBRANCH  24  25
ENDBRANCH   1  24
BRANCH   1  31
HETATM   31  N3  UNL     1       5.604  -2.556  16.356  1.00  0.00    -0.352 N 
HETATM   32  C25 UNL     1       6.431  -3.603  15.909  1.00  0.00     0.241 C 
HETATM   33  O3  UNL     1       6.310  -3.982  14.710  1.00  0.00    -0.271 OA
ATOM     34  H3  UNL     1       5.688  -2.236  17.321  1.00  0.00     0.163 HD
BRANCH  32  35
HETATM   35  C26 UNL     1       7.432  -4.256  16.829  1.00  0.00     0.185 C 
BRANCH  35  36
HETATM   36  C27 UNL     1       8.843  -3.902  16.405  1.00  0.00     0.134 C 
BRANCH  36  37
HETATM   37  C28 UNL     1       9.838  -4.906  16.876  1.00  0.00     0.233 C 
HETATM   38  N4  UNL     1      10.120  -4.966  18.264  1.00  0.00    -0.062 NA
HETATM   39  O4  UNL     1      10.402  -5.669  16.048  1.00  0.00    -0.277 OA
ENDBRANCH  36  37
ENDBRANCH  35  36
BRANCH  35  40
HETATM   40  N5  UNL     1       7.284  -5.681  16.752  1.00  0.00    -0.342 N 
HETATM   41  C29 UNL     1       6.947  -6.503  17.858  1.00  0.00     0.268 C 
HETATM   42  O5  UNL     1       6.766  -5.958  18.961  1.00  0.00    -0.266 OA
ATOM     43  H5  UNL     1       7.430  -6.130  15.848  1.00  0.00     0.163 HD
BRANCH  41  44
HETATM   44  C30 UNL     1       6.809  -7.961  17.728  1.00  0.00     0.101 A 
HETATM   45  C31 UNL     1       7.548  -8.788  18.546  1.00  0.00     0.036 A 
HETATM   46  C32 UNL     1       7.494 -10.164  18.504  1.00  0.00     0.016 A 
HETATM   47  C33 UNL     1       6.628 -10.717  17.565  1.00  0.00    -0.009 A 
HETATM   48  C34 UNL     1       6.525 -12.098  17.466  1.00  0.00     0.013 A 
HETATM   49  C38 UNL     1       5.892  -9.868  16.749  1.00  0.00     0.043 A 
HETATM   50  C35 UNL     1       5.662 -12.613  16.526  1.00  0.00     0.001 A 
HETATM   51  C36 UNL     1       4.918 -11.783  15.704  1.00  0.00     0.002 A 
HETATM   52  C37 UNL     1       5.028 -10.414  15.810  1.00  0.00     0.030 A 
HETATM   53  N6  UNL     1       5.990  -8.517  16.841  1.00  0.00    -0.351 N 
ATOM     54  H6  UNL     1       5.432  -7.925  16.225  1.00  0.00     0.166 HD
ENDBRANCH  41  44
ENDBRANCH  35  40
ENDBRANCH  32  35
ENDBRANCH   1  31
TORSDOF 14
ENDMDL
