MODEL 5
REMARK VINA RESULT: -10.673605848      3.463      9.630
REMARK  14 active torsions:
REMARK  status: ('A' for Active; 'I' for Inactive)
REMARK    1  A    between atoms: C2_2  and  N1_5 
REMARK       I    between atoms: N1_5  and  C5_7 
REMARK    2  A    between atoms: C5_7  and  C6_9 
REMARK    3  A    between atoms: N2_18  and  C15_19 
REMARK    4  A    between atoms: C15_19  and  C16_20 
REMARK    5  A    between atoms: C16_20  and  O2_21 
REMARK    6  A    between atoms: C16_20  and  C17_23 
REMARK    7  A    between atoms: C17_23  and  C18_24 
REMARK    8  A    between atoms: C17_23  and  N3_31 
REMARK    9  A    between atoms: C18_24  and  C19_25 
REMARK       I    between atoms: N3_31  and  C25_33 
REMARK   10  A    between atoms: C25_33  and  C26_35 
REMARK   11  A    between atoms: C26_35  and  C27_36 
REMARK   12  A    between atoms: C26_35  and  N5_40 
REMARK   13  A    between atoms: C27_36  and  C28_37 
REMARK       I    between atoms: N5_40  and  C29_42 
REMARK   14  A    between atoms: C29_42  and  C30_44 
ROOT
HETATM    1  C17 UNL     1       3.857  -1.347  15.280  1.00  0.00     0.119 C 
ENDROOT
BRANCH   1   2
HETATM    2  C16 UNL     1       5.156  -0.976  15.965  1.00  0.00     0.169 C 
BRANCH   2   3
HETATM    3  C15 UNL     1       6.353  -1.777  15.616  1.00  0.00     0.307 C 
BRANCH   3   4
HETATM    4  N2  UNL     1       7.482  -1.140  15.043  1.00  0.00     0.105 N 
HETATM    5  C6  UNL     1       8.452  -2.076  14.498  1.00  0.00     0.314 C 
HETATM    6  C7  UNL     1       9.562  -1.271  13.860  1.00  0.00     0.050 C 
HETATM    7  C8  UNL     1       9.051  -0.865  12.490  1.00  0.00    -0.006 C 
HETATM    8  C9  UNL     1       9.713   0.434  12.108  1.00  0.00     0.005 C 
HETATM    9  C13 UNL     1       7.546  -0.740  12.598  1.00  0.00     0.018 C 
HETATM   10  C10 UNL     1       9.414   0.712  10.650  1.00  0.00     0.000 C 
HETATM   11  C11 UNL     1       8.009   0.207  10.389  1.00  0.00     0.000 C 
HETATM   12  C12 UNL     1       7.136   0.357  11.607  1.00  0.00     0.007 C 
HETATM   13  C14 UNL     1       7.115  -0.253  13.949  1.00  0.00     0.278 C 
BRANCH   5  14
HETATM   14  C5  UNL     1       9.075  -2.944  15.516  1.00  0.00     0.252 C 
HETATM   15  N1  UNL     1       8.607  -4.236  15.829  1.00  0.00    -0.351 N 
ATOM     16  H1  UNL     1       7.794  -4.579  15.318  1.00  0.00     0.163 HD
HETATM   17  O1  UNL     1      10.070  -2.534  16.147  1.00  0.00    -0.271 OA
BRANCH  15  18
HETATM   18  C2  UNL     1       9.186  -5.103  16.811  1.00  0.00     0.022 C 
HETATM   19  C1  UNL     1       8.139  -5.626  17.775  1.00  0.00     0.037 C 
HETATM   20  C3  UNL     1      10.257  -4.429  17.632  1.00  0.00     0.037 C 
HETATM   21  C4  UNL     1       9.801  -6.311  16.144  1.00  0.00     0.037 C 
ENDBRANCH  15  18
ENDBRANCH   5  14
ENDBRANCH   3   4
ENDBRANCH   2   3
BRANCH   2  22
HETATM   22  O2  UNL     1       5.369   0.388  16.025  1.00  0.00    -0.392 OA
ATOM     23  H2  UNL     1       6.212   0.675  15.694  1.00  0.00     0.210 HD
ENDBRANCH   2  22
ENDBRANCH   1   2
BRANCH   1  24
HETATM   24  C18 UNL     1       4.114  -2.591  14.437  1.00  0.00     0.066 C 
BRANCH  24  25
HETATM   25  C19 UNL     1       3.409  -3.772  14.998  1.00  0.00    -0.056 A 
HETATM   26  C20 UNL     1       4.073  -4.680  15.765  1.00  0.00     0.007 A 
HETATM   27  C21 UNL     1       3.447  -5.786  16.302  1.00  0.00     0.001 A 
HETATM   28  C22 UNL     1       2.096  -5.984  16.056  1.00  0.00     0.000 A 
HETATM   29  C23 UNL     1       1.426  -5.056  15.275  1.00  0.00     0.001 A 
HETATM   30  C24 UNL     1       2.048  -3.959  14.741  1.00  0.00     0.007 A 
ENDBRANCH  24  25
ENDBRANCH   1  24
BRANCH   1  31
HETATM   31  N3  UNL     1       3.576  -0.317  14.244  1.00  0.00    -0.352 N 
HETATM   32  C25 UNL     1       2.266  -0.015  13.829  1.00  0.00     0.241 C 
HETATM   33  O3  UNL     1       1.315  -0.651  14.366  1.00  0.00    -0.271 OA
ATOM     34  H3  UNL     1       4.357   0.187  13.823  1.00  0.00     0.163 HD
BRANCH  32  35
HETATM   35  C26 UNL     1       2.000   1.032  12.777  1.00  0.00     0.185 C 
BRANCH  35  36
HETATM   36  C27 UNL     1       1.098   0.473  11.696  1.00  0.00     0.134 C 
BRANCH  36  37
HETATM   37  C28 UNL     1       0.626   1.530  10.758  1.00  0.00     0.233 C 
HETATM   38  N4  UNL     1      -0.352   2.445  11.221  1.00  0.00    -0.062 NA
HETATM   39  O4  UNL     1       1.094   1.590   9.591  1.00  0.00    -0.277 OA
ENDBRANCH  36  37
ENDBRANCH  35  36
BRANCH  35  40
HETATM   40  N5  UNL     1       3.242   1.418  12.170  1.00  0.00    -0.342 N 
HETATM   41  C29 UNL     1       3.570   2.751  11.815  1.00  0.00     0.268 C 
HETATM   42  O5  UNL     1       2.733   3.642  12.044  1.00  0.00    -0.266 OA
ATOM     43  H5  UNL     1       3.931   0.689  11.984  1.00  0.00     0.163 HD
BRANCH  41  44
HETATM   44  C30 UNL     1       4.857   3.096  11.193  1.00  0.00     0.101 A 
HETATM   45  C31 UNL     1       5.832   3.710  11.947  1.00  0.00     0.036 A 
HETATM   46  C32 UNL     1       7.068   4.075  11.459  1.00  0.00     0.016 A 
HETATM   47  C33 UNL     1       7.310   3.791  10.119  1.00  0.00    -0.009 A 
HETATM   48  C34 UNL     1       8.535   4.133   9.561  1.00  0.00     0.013 A 
HETATM   49  C38 UNL     1       6.315   3.172   9.375  1.00  0.00     0.043 A 
HETATM   50  C35 UNL     1       8.740   3.839   8.232  1.00  0.00     0.001 A 
HETATM   51  C36 UNL     1       7.760   3.222   7.474  1.00  0.00     0.002 A 
HETATM   52  C37 UNL     1       6.549   2.886   8.037  1.00  0.00     0.030 A 
HETATM   53  N6  UNL     1       5.115   2.836   9.915  1.00  0.00    -0.351 N 
ATOM     54  H6  UNL     1       4.408   2.381   9.337  1.00  0.00     0.166 HD
ENDBRANCH  41  44
ENDBRANCH  35  40
ENDBRANCH  32  35
ENDBRANCH   1  31
TORSDOF 14
ENDMDL
