MODEL 1
REMARK VINA RESULT: -11.176192656      0.000      0.000
REMARK  14 active torsions:
REMARK  status: ('A' for Active; 'I' for Inactive)
REMARK    1  A    between atoms: C2_2  and  N1_5 
REMARK       I    between atoms: N1_5  and  C5_7 
REMARK    2  A    between atoms: C5_7  and  C6_9 
REMARK    3  A    between atoms: N2_18  and  C15_19 
REMARK    4  A    between atoms: C15_19  and  C16_20 
REMARK    5  A    between atoms: C16_20  and  O2_21 
REMARK    6  A    between atoms: C16_20  and  C17_23 
REMARK    7  A    between atoms: C17_23  and  C18_24 
REMARK    8  A    between atoms: C17_23  and  N3_31 
REMARK    9  A    between atoms: C18_24  and  C19_25 
REMARK       I    between atoms: N3_31  and  C25_33 
REMARK   10  A    between atoms: C25_33  and  C26_35 
REMARK   11  A    between atoms: C26_35  and  C27_36 
REMARK   12  A    between atoms: C26_35  and  N5_40 
REMARK   13  A    between atoms: C27_36  and  C28_37 
REMARK       I    between atoms: N5_40  and  C29_42 
REMARK   14  A    between atoms: C29_42  and  C30_44 
ROOT
HETATM    1  C17 UNL     1       2.806  -2.825  14.685  1.00  0.00     0.119 C 
ENDROOT
BRANCH   1   2
HETATM    2  C16 UNL     1       4.227  -2.562  14.230  1.00  0.00     0.169 C 
BRANCH   2   3
HETATM    3  C15 UNL     1       5.287  -2.634  15.262  1.00  0.00     0.307 C 
BRANCH   3   4
HETATM    4  N2  UNL     1       6.539  -3.219  14.945  1.00  0.00     0.105 N 
HETATM    5  C6  UNL     1       7.662  -2.324  15.168  1.00  0.00     0.314 C 
HETATM    6  C7  UNL     1       8.930  -3.089  14.860  1.00  0.00     0.050 C 
HETATM    7  C8  UNL     1       9.230  -3.918  16.096  1.00  0.00    -0.006 C 
HETATM    8  C9  UNL     1       9.975  -5.154  15.662  1.00  0.00     0.005 C 
HETATM    9  C13 UNL     1       7.901  -4.239  16.746  1.00  0.00     0.018 C 
HETATM   10  C10 UNL     1      10.503  -5.852  16.897  1.00  0.00     0.000 C 
HETATM   11  C11 UNL     1       9.466  -5.656  17.985  1.00  0.00     0.000 C 
HETATM   12  C12 UNL     1       8.073  -5.610  17.414  1.00  0.00     0.007 C 
HETATM   13  C14 UNL     1       6.805  -4.410  15.737  1.00  0.00     0.278 C 
BRANCH   5  14
HETATM   14  C5  UNL     1       7.653  -1.131  14.299  1.00  0.00     0.252 C 
HETATM   15  N1  UNL     1       8.266  -1.087  13.031  1.00  0.00    -0.351 N 
ATOM     16  H1  UNL     1       8.738  -1.931  12.707  1.00  0.00     0.163 HD
HETATM   17  O1  UNL     1       7.078  -0.094  14.687  1.00  0.00    -0.271 OA
BRANCH  15  18
HETATM   18  C2  UNL     1       8.278   0.053  12.164  1.00  0.00     0.022 C 
HETATM   19  C1  UNL     1       9.285  -0.113  11.044  1.00  0.00     0.037 C 
HETATM   20  C3  UNL     1       8.612   1.336  12.884  1.00  0.00     0.037 C 
HETATM   21  C4  UNL     1       6.927   0.225  11.509  1.00  0.00     0.037 C 
ENDBRANCH  15  18
ENDBRANCH   5  14
ENDBRANCH   3   4
ENDBRANCH   2   3
BRANCH   2  22
HETATM   22  O2  UNL     1       4.539  -3.181  13.035  1.00  0.00    -0.392 OA
ATOM     23  H2  UNL     1       3.867  -3.119  12.367  1.00  0.00     0.210 HD
ENDBRANCH   2  22
ENDBRANCH   1   2
BRANCH   1  24
HETATM   24  C18 UNL     1       2.250  -1.523  15.248  1.00  0.00     0.066 C 
BRANCH  24  25
HETATM   25  C19 UNL     1       1.841  -0.600  14.157  1.00  0.00    -0.056 A 
HETATM   26  C20 UNL     1       2.749   0.223  13.564  1.00  0.00     0.007 A 
HETATM   27  C21 UNL     1       2.401   1.088  12.547  1.00  0.00     0.001 A 
HETATM   28  C22 UNL     1       1.085   1.126  12.111  1.00  0.00     0.000 A 
HETATM   29  C23 UNL     1       0.166   0.287  12.719  1.00  0.00     0.001 A 
HETATM   30  C24 UNL     1       0.510  -0.572  13.728  1.00  0.00     0.007 A 
ENDBRANCH  24  25
ENDBRANCH   1  24
BRANCH   1  31
HETATM   31  N3  UNL     1       2.866  -3.691  15.893  1.00  0.00    -0.352 N 
HETATM   32  C25 UNL     1       2.697  -5.086  15.818  1.00  0.00     0.241 C 
HETATM   33  O3  UNL     1       2.490  -5.596  14.682  1.00  0.00    -0.271 OA
ATOM     34  H3  UNL     1       3.035  -3.261  16.802  1.00  0.00     0.163 HD
BRANCH  32  35
HETATM   35  C26 UNL     1       2.760  -5.949  17.054  1.00  0.00     0.185 C 
BRANCH  35  36
HETATM   36  C27 UNL     1       2.980  -5.091  18.282  1.00  0.00     0.134 C 
BRANCH  36  37
HETATM   37  C28 UNL     1       2.770  -5.854  19.544  1.00  0.00     0.233 C 
HETATM   38  N4  UNL     1       3.890  -6.491  20.134  1.00  0.00    -0.062 NA
HETATM   39  O4  UNL     1       1.621  -5.920  20.055  1.00  0.00    -0.277 OA
ENDBRANCH  36  37
ENDBRANCH  35  36
BRANCH  35  40
HETATM   40  N5  UNL     1       3.864  -6.859  16.937  1.00  0.00    -0.342 N 
HETATM   41  C29 UNL     1       3.744  -8.268  17.051  1.00  0.00     0.268 C 
HETATM   42  O5  UNL     1       2.615  -8.745  17.263  1.00  0.00    -0.266 OA
ATOM     43  H5  UNL     1       4.790  -6.470  16.762  1.00  0.00     0.163 HD
BRANCH  41  44
HETATM   44  C30 UNL     1       4.907  -9.159  16.927  1.00  0.00     0.101 A 
HETATM   45  C31 UNL     1       4.770 -10.365  16.275  1.00  0.00     0.036 A 
HETATM   46  C32 UNL     1       5.795 -11.271  16.107  1.00  0.00     0.016 A 
HETATM   47  C33 UNL     1       7.029 -10.912  16.642  1.00  0.00    -0.009 A 
HETATM   48  C34 UNL     1       8.105 -11.778  16.510  1.00  0.00     0.013 A 
HETATM   49  C38 UNL     1       7.147  -9.693  17.296  1.00  0.00     0.043 A 
HETATM   50  C35 UNL     1       9.310 -11.394  17.053  1.00  0.00     0.001 A 
HETATM   51  C36 UNL     1       9.448 -10.182  17.707  1.00  0.00     0.002 A 
HETATM   52  C37 UNL     1       8.374  -9.329  17.833  1.00  0.00     0.030 A 
HETATM   53  N6  UNL     1       6.096  -8.842  17.428  1.00  0.00    -0.351 N 
ATOM     54  H6  UNL     1       6.222  -7.954  17.914  1.00  0.00     0.166 HD
ENDBRANCH  41  44
ENDBRANCH  35  40
ENDBRANCH  32  35
ENDBRANCH   1  31
TORSDOF 14
ENDMDL
