MODEL 8
REMARK VINA RESULT: -10.612678910      1.223      3.714
REMARK  14 active torsions:
REMARK  status: ('A' for Active; 'I' for Inactive)
REMARK    1  A    between atoms: C2_2  and  N1_5 
REMARK       I    between atoms: N1_5  and  C5_7 
REMARK    2  A    between atoms: C5_7  and  C6_9 
REMARK    3  A    between atoms: N2_18  and  C15_19 
REMARK    4  A    between atoms: C15_19  and  C16_20 
REMARK    5  A    between atoms: C16_20  and  O2_21 
REMARK    6  A    between atoms: C16_20  and  C17_23 
REMARK    7  A    between atoms: C17_23  and  C18_24 
REMARK    8  A    between atoms: C17_23  and  N3_31 
REMARK    9  A    between atoms: C18_24  and  C19_25 
REMARK       I    between atoms: N3_31  and  C25_33 
REMARK   10  A    between atoms: C25_33  and  C26_35 
REMARK   11  A    between atoms: C26_35  and  C27_36 
REMARK   12  A    between atoms: C26_35  and  N5_40 
REMARK   13  A    between atoms: C27_36  and  C28_37 
REMARK       I    between atoms: N5_40  and  C29_42 
REMARK   14  A    between atoms: C29_42  and  C30_44 
ROOT
HETATM    1  C17 UNL     1       2.790  -2.807  14.869  1.00  0.00     0.119 C 
ENDROOT
BRANCH   1   2
HETATM    2  C16 UNL     1       4.261  -2.770  14.511  1.00  0.00     0.169 C 
BRANCH   2   3
HETATM    3  C15 UNL     1       5.193  -2.266  15.547  1.00  0.00     0.307 C 
BRANCH   3   4
HETATM    4  N2  UNL     1       6.389  -1.613  15.158  1.00  0.00     0.105 N 
HETATM    5  C6  UNL     1       7.271  -2.456  14.368  1.00  0.00     0.314 C 
HETATM    6  C7  UNL     1       8.467  -1.622  13.964  1.00  0.00     0.050 C 
HETATM    7  C8  UNL     1       8.023  -0.808  12.763  1.00  0.00    -0.006 C 
HETATM    8  C9  UNL     1       8.817   0.473  12.746  1.00  0.00     0.005 C 
HETATM    9  C13 UNL     1       6.536  -0.567  12.916  1.00  0.00     0.018 C 
HETATM   10  C10 UNL     1       8.574   1.168  11.423  1.00  0.00     0.000 C 
HETATM   11  C11 UNL     1       7.130   0.897  11.047  1.00  0.00     0.000 C 
HETATM   12  C12 UNL     1       6.255   0.795  12.268  1.00  0.00     0.007 C 
HETATM   13  C14 UNL     1       6.132  -0.428  14.353  1.00  0.00     0.278 C 
BRANCH   5  14
HETATM   14  C5  UNL     1       7.787  -3.627  15.103  1.00  0.00     0.252 C 
HETATM   15  N1  UNL     1       8.883  -3.572  15.987  1.00  0.00    -0.351 N 
ATOM     16  H1  UNL     1       9.336  -2.667  16.119  1.00  0.00     0.163 HD
HETATM   17  O1  UNL     1       7.240  -4.738  14.948  1.00  0.00    -0.271 OA
BRANCH  15  18
HETATM   18  C2  UNL     1       9.410  -4.688  16.713  1.00  0.00     0.022 C 
HETATM   19  C1  UNL     1      10.585  -4.281  17.579  1.00  0.00     0.037 C 
HETATM   20  C3  UNL     1       9.878  -5.805  15.814  1.00  0.00     0.037 C 
HETATM   21  C4  UNL     1       8.360  -5.249  17.644  1.00  0.00     0.037 C 
ENDBRANCH  15  18
ENDBRANCH   5  14
ENDBRANCH   3   4
ENDBRANCH   2   3
BRANCH   2  22
HETATM   22  O2  UNL     1       4.690  -3.904  13.849  1.00  0.00    -0.392 OA
ATOM     23  H2  UNL     1       4.738  -3.820  12.904  1.00  0.00     0.210 HD
ENDBRANCH   2  22
ENDBRANCH   1   2
BRANCH   1  24
HETATM   24  C18 UNL     1       2.399  -1.424  15.374  1.00  0.00     0.066 C 
BRANCH  24  25
HETATM   25  C19 UNL     1       1.950  -0.554  14.256  1.00  0.00    -0.056 A 
HETATM   26  C20 UNL     1       2.825   0.273  13.622  1.00  0.00     0.007 A 
HETATM   27  C21 UNL     1       2.441   1.091  12.579  1.00  0.00     0.001 A 
HETATM   28  C22 UNL     1       1.119   1.074  12.159  1.00  0.00     0.000 A 
HETATM   29  C23 UNL     1       0.233   0.230  12.808  1.00  0.00     0.001 A 
HETATM   30  C24 UNL     1       0.614  -0.581  13.843  1.00  0.00     0.007 A 
ENDBRANCH  24  25
ENDBRANCH   1  24
BRANCH   1  31
HETATM   31  N3  UNL     1       2.638  -3.643  16.090  1.00  0.00    -0.352 N 
HETATM   32  C25 UNL     1       2.271  -5.000  16.023  1.00  0.00     0.241 C 
HETATM   33  O3  UNL     1       2.069  -5.502  14.882  1.00  0.00    -0.271 OA
ATOM     34  H3  UNL     1       2.806  -3.220  17.003  1.00  0.00     0.163 HD
BRANCH  32  35
HETATM   35  C26 UNL     1       2.121  -5.832  17.272  1.00  0.00     0.185 C 
BRANCH  35  36
HETATM   36  C27 UNL     1       2.574  -5.046  18.484  1.00  0.00     0.134 C 
BRANCH  36  37
HETATM   37  C28 UNL     1       2.476  -5.844  19.739  1.00  0.00     0.233 C 
HETATM   38  N4  UNL     1       3.639  -6.507  20.201  1.00  0.00    -0.062 NA
HETATM   39  O4  UNL     1       1.380  -5.915  20.355  1.00  0.00    -0.277 OA
ENDBRANCH  36  37
ENDBRANCH  35  36
BRANCH  35  40
HETATM   40  N5  UNL     1       2.946  -7.002  17.161  1.00  0.00    -0.342 N 
HETATM   41  C29 UNL     1       4.316  -6.972  16.798  1.00  0.00     0.268 C 
HETATM   42  O5  UNL     1       4.838  -5.868  16.563  1.00  0.00    -0.266 OA
ATOM     43  H5  UNL     1       2.521  -7.908  17.355  1.00  0.00     0.163 HD
BRANCH  41  44
HETATM   44  C30 UNL     1       5.120  -8.200  16.695  1.00  0.00     0.101 A 
HETATM   45  C31 UNL     1       4.569  -9.325  16.123  1.00  0.00     0.036 A 
HETATM   46  C32 UNL     1       5.235 -10.523  15.982  1.00  0.00     0.016 A 
HETATM   47  C33 UNL     1       6.543 -10.561  16.458  1.00  0.00    -0.009 A 
HETATM   48  C34 UNL     1       7.272 -11.737  16.349  1.00  0.00     0.013 A 
HETATM   49  C38 UNL     1       7.080  -9.416  17.031  1.00  0.00     0.043 A 
HETATM   50  C35 UNL     1       8.561 -11.741  16.832  1.00  0.00     0.001 A 
HETATM   51  C36 UNL     1       9.115 -10.610  17.406  1.00  0.00     0.002 A 
HETATM   52  C37 UNL     1       8.383  -9.448  17.509  1.00  0.00     0.030 A 
HETATM   53  N6  UNL     1       6.370  -8.264  17.141  1.00  0.00    -0.351 N 
ATOM     54  H6  UNL     1       6.799  -7.443  17.568  1.00  0.00     0.166 HD
ENDBRANCH  41  44
ENDBRANCH  35  40
ENDBRANCH  32  35
ENDBRANCH   1  31
TORSDOF 14
ENDMDL
