MODEL 3
REMARK VINA RESULT: -10.693510904      2.416      5.381
REMARK  14 active torsions:
REMARK  status: ('A' for Active; 'I' for Inactive)
REMARK    1  A    between atoms: C2_2  and  N1_5 
REMARK       I    between atoms: N1_5  and  C5_7 
REMARK    2  A    between atoms: C5_7  and  C6_9 
REMARK    3  A    between atoms: N2_18  and  C15_19 
REMARK    4  A    between atoms: C15_19  and  C16_20 
REMARK    5  A    between atoms: C16_20  and  O2_21 
REMARK    6  A    between atoms: C16_20  and  C17_23 
REMARK    7  A    between atoms: C17_23  and  C18_24 
REMARK    8  A    between atoms: C17_23  and  N3_31 
REMARK    9  A    between atoms: C18_24  and  C19_25 
REMARK       I    between atoms: N3_31  and  C25_33 
REMARK   10  A    between atoms: C25_33  and  C26_35 
REMARK   11  A    between atoms: C26_35  and  C27_36 
REMARK   12  A    between atoms: C26_35  and  N5_40 
REMARK   13  A    between atoms: C27_36  and  C28_37 
REMARK       I    between atoms: N5_40  and  C29_42 
REMARK   14  A    between atoms: C29_42  and  C30_44 
ROOT
HETATM    1  C17 UNL     1       4.708  -2.103  15.706  1.00  0.00     0.119 C 
ENDROOT
BRANCH   1   2
HETATM    2  C16 UNL     1       5.260  -0.692  15.722  1.00  0.00     0.169 C 
BRANCH   2   3
HETATM    3  C15 UNL     1       4.878   0.192  14.596  1.00  0.00     0.307 C 
BRANCH   3   4
HETATM    4  N2  UNL     1       5.453  -0.011  13.316  1.00  0.00     0.105 N 
HETATM    5  C6  UNL     1       5.581   1.214  12.545  1.00  0.00     0.314 C 
HETATM    6  C7  UNL     1       6.267   0.870  11.241  1.00  0.00     0.050 C 
HETATM    7  C8  UNL     1       7.751   0.807  11.554  1.00  0.00    -0.006 C 
HETATM    8  C9  UNL     1       8.391  -0.163  10.594  1.00  0.00     0.005 C 
HETATM    9  C13 UNL     1       7.882   0.367  12.997  1.00  0.00     0.018 C 
HETATM   10  C10 UNL     1       9.895  -0.039  10.722  1.00  0.00     0.000 C 
HETATM   11  C11 UNL     1      10.187   0.241  12.183  1.00  0.00     0.000 C 
HETATM   12  C12 UNL     1       9.185  -0.437  13.082  1.00  0.00     0.007 C 
HETATM   13  C14 UNL     1       6.790  -0.579  13.400  1.00  0.00     0.278 C 
BRANCH   5  14
HETATM   14  C5  UNL     1       4.287   1.837  12.203  1.00  0.00     0.252 C 
HETATM   15  N1  UNL     1       3.253   1.162  11.525  1.00  0.00    -0.351 N 
ATOM     16  H1  UNL     1       3.418   0.190  11.263  1.00  0.00     0.163 HD
HETATM   17  O1  UNL     1       4.076   3.026  12.520  1.00  0.00    -0.271 OA
BRANCH  15  18
HETATM   18  C2  UNL     1       1.987   1.737  11.176  1.00  0.00     0.022 C 
HETATM   19  C1  UNL     1       2.159   2.991  10.343  1.00  0.00     0.037 C 
HETATM   20  C3  UNL     1       1.158   2.105  12.381  1.00  0.00     0.037 C 
HETATM   21  C4  UNL     1       1.187   0.767  10.338  1.00  0.00     0.037 C 
ENDBRANCH  15  18
ENDBRANCH   5  14
ENDBRANCH   3   4
ENDBRANCH   2   3
BRANCH   2  22
HETATM   22  O2  UNL     1       5.203  -0.099  16.969  1.00  0.00    -0.392 OA
ATOM     23  H2  UNL     1       4.745  -0.605  17.630  1.00  0.00     0.210 HD
ENDBRANCH   2  22
ENDBRANCH   1   2
BRANCH   1  24
HETATM   24  C18 UNL     1       3.375  -2.089  16.443  1.00  0.00     0.066 C 
BRANCH  24  25
HETATM   25  C19 UNL     1       2.636  -3.361  16.235  1.00  0.00    -0.056 A 
HETATM   26  C20 UNL     1       2.234  -4.115  17.295  1.00  0.00     0.007 A 
HETATM   27  C21 UNL     1       1.544  -5.299  17.135  1.00  0.00     0.001 A 
HETATM   28  C22 UNL     1       1.247  -5.741  15.854  1.00  0.00     0.000 A 
HETATM   29  C23 UNL     1       1.659  -4.970  14.780  1.00  0.00     0.001 A 
HETATM   30  C24 UNL     1       2.345  -3.795  14.938  1.00  0.00     0.007 A 
ENDBRANCH  24  25
ENDBRANCH   1  24
BRANCH   1  31
HETATM   31  N3  UNL     1       5.557  -2.934  16.602  1.00  0.00    -0.352 N 
HETATM   32  C25 UNL     1       6.566  -3.777  16.102  1.00  0.00     0.241 C 
HETATM   33  O3  UNL     1       6.740  -3.813  14.851  1.00  0.00    -0.271 OA
ATOM     34  H3  UNL     1       5.402  -2.891  17.610  1.00  0.00     0.163 HD
BRANCH  32  35
HETATM   35  C26 UNL     1       7.416  -4.614  17.025  1.00  0.00     0.185 C 
BRANCH  35  36
HETATM   36  C27 UNL     1       8.879  -4.479  16.657  1.00  0.00     0.134 C 
BRANCH  36  37
HETATM   37  C28 UNL     1       9.749  -5.356  17.490  1.00  0.00     0.233 C 
HETATM   38  N4  UNL     1      10.881  -5.949  16.877  1.00  0.00    -0.062 NA
HETATM   39  O4  UNL     1       9.468  -5.554  18.701  1.00  0.00    -0.277 OA
ENDBRANCH  36  37
ENDBRANCH  35  36
BRANCH  35  40
HETATM   40  N5  UNL     1       7.043  -5.993  16.889  1.00  0.00    -0.342 N 
HETATM   41  C29 UNL     1       5.891  -6.564  17.486  1.00  0.00     0.268 C 
HETATM   42  O5  UNL     1       5.156  -5.827  18.167  1.00  0.00    -0.266 OA
ATOM     43  H5  UNL     1       7.643  -6.599  16.329  1.00  0.00     0.163 HD
BRANCH  41  44
HETATM   44  C30 UNL     1       5.553  -7.986  17.319  1.00  0.00     0.101 A 
HETATM   45  C31 UNL     1       5.797  -8.867  18.349  1.00  0.00     0.036 A 
HETATM   46  C32 UNL     1       5.520 -10.215  18.292  1.00  0.00     0.016 A 
HETATM   47  C33 UNL     1       4.959 -10.680  17.106  1.00  0.00    -0.009 A 
HETATM   48  C34 UNL     1       4.655 -12.028  16.980  1.00  0.00     0.013 A 
HETATM   49  C38 UNL     1       4.720  -9.776  16.079  1.00  0.00     0.043 A 
HETATM   50  C35 UNL     1       4.103 -12.455  15.793  1.00  0.00     0.001 A 
HETATM   51  C36 UNL     1       3.857 -11.569  14.758  1.00  0.00     0.002 A 
HETATM   52  C37 UNL     1       4.162 -10.233  14.893  1.00  0.00     0.030 A 
HETATM   53  N6  UNL     1       5.016  -8.457  16.198  1.00  0.00    -0.351 N 
ATOM     54  H6  UNL     1       4.825  -7.823  15.421  1.00  0.00     0.166 HD
ENDBRANCH  41  44
ENDBRANCH  35  40
ENDBRANCH  32  35
ENDBRANCH   1  31
TORSDOF 14
ENDMDL
