MODEL 9
REMARK VINA RESULT: -9.950197059      2.068      8.187
REMARK  12 active torsions:
REMARK  status: ('A' for Active; 'I' for Inactive)
REMARK    1  A    between atoms: C3_3  and  O1_4 
REMARK    2  A    between atoms: C7_9  and  C8_10 
REMARK       I    between atoms: C8_10  and  N1_12 
REMARK    3  A    between atoms: N1_12  and  C9_14 
REMARK    4  A    between atoms: C9_14  and  C10_15 
REMARK    5  A    between atoms: C9_14  and  C17_23 
REMARK    6  A    between atoms: C10_15  and  S1_16 
REMARK    7  A    between atoms: S1_16  and  C11_17 
REMARK    8  A    between atoms: C17_23  and  O3_24 
REMARK    9  A    between atoms: C17_23  and  C18_26 
REMARK   10  A    between atoms: C18_26  and  N2_27 
REMARK   11  A    between atoms: C27_36  and  C28_37 
REMARK       I    between atoms: C28_37  and  N3_39 
REMARK   12  A    between atoms: N3_39  and  C29_41 
ROOT
HETATM    1  C9  UNL     1       5.358  -2.010  15.406  1.00  0.00     0.124 C 
ENDROOT
BRANCH   1   2
HETATM    2  N1  UNL     1       6.459  -2.727  15.961  1.00  0.00    -0.349 N 
HETATM    3  C8  UNL     1       7.253  -3.672  15.270  1.00  0.00     0.252 C 
HETATM    4  O2  UNL     1       6.976  -3.921  14.055  1.00  0.00    -0.268 OA
ATOM      5  H1  UNL     1       6.694  -2.542  16.936  1.00  0.00     0.163 HD
BRANCH   3   6
HETATM    6  C7  UNL     1       8.372  -4.356  15.927  1.00  0.00     0.040 A 
HETATM    7  C2  UNL     1       8.096  -5.148  17.014  1.00  0.00    -0.013 A 
HETATM    8  C1  UNL     1       6.735  -5.359  17.544  1.00  0.00     0.052 C 
HETATM    9  C3  UNL     1       9.170  -5.784  17.630  1.00  0.00     0.072 A 
HETATM   10  C4  UNL     1      10.473  -5.645  17.189  1.00  0.00     0.037 A 
HETATM   11  C5  UNL     1      10.721  -4.853  16.107  1.00  0.00     0.004 A 
HETATM   12  C6  UNL     1       9.660  -4.204  15.473  1.00  0.00     0.018 A 
BRANCH   9  13
HETATM   13  O1  UNL     1       8.966  -6.590  18.722  1.00  0.00    -0.360 OA
ATOM     14  H1  UNL     1       8.166  -7.094  18.804  1.00  0.00     0.217 HD
ENDBRANCH   9  13
ENDBRANCH   3   6
ENDBRANCH   1   2
BRANCH   1  15
HETATM   15  C10 UNL     1       4.044  -2.527  16.008  1.00  0.00     0.107 C 
BRANCH  15  16
HETATM   16  S1  UNL     1       3.396  -3.948  15.094  1.00  0.00    -0.128 SA
BRANCH  16  17
HETATM   17  C11 UNL     1       3.190  -5.309  16.225  1.00  0.00     0.000 A 
HETATM   18  C12 UNL     1       3.036  -5.087  17.594  1.00  0.00     0.018 A 
HETATM   19  C13 UNL     1       2.873  -6.115  18.491  1.00  0.00     0.001 A 
HETATM   20  C14 UNL     1       2.857  -7.422  18.053  1.00  0.00     0.000 A 
HETATM   21  C15 UNL     1       3.007  -7.664  16.709  1.00  0.00     0.001 A 
HETATM   22  C16 UNL     1       3.172  -6.609  15.801  1.00  0.00     0.018 A 
ENDBRANCH  16  17
ENDBRANCH  15  16
ENDBRANCH   1  15
BRANCH   1  23
HETATM   23  C17 UNL     1       5.481  -0.520  15.668  1.00  0.00     0.170 C 
BRANCH  23  24
HETATM   24  O3  UNL     1       5.195  -0.174  16.961  1.00  0.00    -0.392 OA
ATOM     25  H3  UNL     1       4.957   0.741  17.061  1.00  0.00     0.210 HD
ENDBRANCH  23  24
BRANCH  23  26
HETATM   26  C18 UNL     1       4.852   0.351  14.630  1.00  0.00     0.307 C 
BRANCH  26  27
HETATM   27  N2  UNL     1       5.665   0.627  13.466  1.00  0.00     0.105 N 
HETATM   28  C19 UNL     1       6.852   1.302  13.921  1.00  0.00     0.278 C 
HETATM   29  C20 UNL     1       7.594   2.129  12.956  1.00  0.00     0.018 C 
HETATM   30  C21 UNL     1       8.739   1.301  12.352  1.00  0.00     0.007 C 
HETATM   31  C25 UNL     1       6.778   2.789  11.894  1.00  0.00    -0.006 C 
HETATM   32  C22 UNL     1       9.561   2.272  11.531  1.00  0.00     0.000 C 
HETATM   33  C23 UNL     1       8.712   2.602  10.300  1.00  0.00     0.000 C 
HETATM   34  C24 UNL     1       7.544   3.407  10.797  1.00  0.00     0.005 C 
HETATM   35  C26 UNL     1       5.753   1.783  11.379  1.00  0.00     0.050 C 
HETATM   36  C27 UNL     1       4.892   1.495  12.621  1.00  0.00     0.314 C 
BRANCH  36  37
HETATM   37  C28 UNL     1       3.629   0.982  12.132  1.00  0.00     0.252 C 
HETATM   38  O4  UNL     1       3.480  -0.156  11.638  1.00  0.00    -0.271 OA
HETATM   39  N3  UNL     1       2.445   1.795  12.197  1.00  0.00    -0.351 N 
ATOM     40  H3  UNL     1       2.513   2.733  12.592  1.00  0.00     0.163 HD
BRANCH  39  41
HETATM   41  C29 UNL     1       1.164   1.330  11.723  1.00  0.00     0.022 C 
HETATM   42  C30 UNL     1       0.193   2.491  11.764  1.00  0.00     0.037 C 
HETATM   43  C31 UNL     1       1.226   0.857  10.284  1.00  0.00     0.037 C 
HETATM   44  C32 UNL     1       0.584   0.229  12.580  1.00  0.00     0.037 C 
ENDBRANCH  39  41
ENDBRANCH  36  37
ENDBRANCH  26  27
ENDBRANCH  23  26
ENDBRANCH   1  23
TORSDOF 12
ENDMDL
