MODEL 2
REMARK VINA RESULT: -10.406735448      0.735      1.090
REMARK  12 active torsions:
REMARK  status: ('A' for Active; 'I' for Inactive)
REMARK    1  A    between atoms: C3_3  and  O1_4 
REMARK    2  A    between atoms: C7_9  and  C8_10 
REMARK       I    between atoms: C8_10  and  N1_12 
REMARK    3  A    between atoms: N1_12  and  C9_14 
REMARK    4  A    between atoms: C9_14  and  C10_15 
REMARK    5  A    between atoms: C9_14  and  C17_23 
REMARK    6  A    between atoms: C10_15  and  S1_16 
REMARK    7  A    between atoms: S1_16  and  C11_17 
REMARK    8  A    between atoms: C17_23  and  O3_24 
REMARK    9  A    between atoms: C17_23  and  C18_26 
REMARK   10  A    between atoms: C18_26  and  N2_27 
REMARK   11  A    between atoms: C27_36  and  C28_37 
REMARK       I    between atoms: C28_37  and  N3_39 
REMARK   12  A    between atoms: N3_39  and  C29_41 
ROOT
HETATM    1  C9  UNL     1       2.865  -1.112  14.416  1.00  0.00     0.124 C 
ENDROOT
BRANCH   1   2
HETATM    2  N1  UNL     1       3.835  -0.597  13.506  1.00  0.00    -0.349 N 
HETATM    3  C8  UNL     1       4.778   0.416  13.800  1.00  0.00     0.252 C 
HETATM    4  O2  UNL     1       4.775   0.925  14.965  1.00  0.00    -0.268 OA
ATOM      5  H1  UNL     1       3.850  -0.991  12.565  1.00  0.00     0.163 HD
BRANCH   3   6
HETATM    6  C7  UNL     1       5.741   0.878  12.795  1.00  0.00     0.040 A 
HETATM    7  C2  UNL     1       5.372   1.916  11.975  1.00  0.00    -0.013 A 
HETATM    8  C1  UNL     1       4.067   2.599  12.063  1.00  0.00     0.052 C 
HETATM    9  C3  UNL     1       6.296   2.337  11.023  1.00  0.00     0.072 A 
HETATM   10  C4  UNL     1       7.543   1.754  10.883  1.00  0.00     0.037 A 
HETATM   11  C5  UNL     1       7.885   0.727  11.710  1.00  0.00     0.004 A 
HETATM   12  C6  UNL     1       6.975   0.286  12.673  1.00  0.00     0.018 A 
BRANCH   9  13
HETATM   13  O1  UNL     1       5.993   3.368  10.170  1.00  0.00    -0.360 OA
ATOM     14  H1  UNL     1       5.705   4.206  10.513  1.00  0.00     0.217 HD
ENDBRANCH   9  13
ENDBRANCH   3   6
ENDBRANCH   1   2
BRANCH   1  15
HETATM   15  C10 UNL     1       1.602  -1.530  13.650  1.00  0.00     0.107 C 
BRANCH  15  16
HETATM   16  S1  UNL     1       0.368  -0.207  13.612  1.00  0.00    -0.128 SA
BRANCH  16  17
HETATM   17  C11 UNL     1       0.636   0.783  12.156  1.00  0.00     0.000 A 
HETATM   18  C12 UNL     1       1.209   0.232  11.010  1.00  0.00     0.018 A 
HETATM   19  C13 UNL     1       1.427   0.970   9.871  1.00  0.00     0.001 A 
HETATM   20  C14 UNL     1       1.077   2.301   9.829  1.00  0.00     0.000 A 
HETATM   21  C15 UNL     1       0.511   2.865  10.947  1.00  0.00     0.001 A 
HETATM   22  C16 UNL     1       0.292   2.105  12.105  1.00  0.00     0.018 A 
ENDBRANCH  16  17
ENDBRANCH  15  16
ENDBRANCH   1  15
BRANCH   1  23
HETATM   23  C17 UNL     1       3.407  -2.305  15.183  1.00  0.00     0.170 C 
BRANCH  23  24
HETATM   24  O3  UNL     1       3.671  -2.026  16.497  1.00  0.00    -0.392 OA
ATOM     25  H3  UNL     1       3.145  -1.314  16.842  1.00  0.00     0.210 HD
ENDBRANCH  23  24
BRANCH  23  26
HETATM   26  C18 UNL     1       4.477  -3.070  14.474  1.00  0.00     0.307 C 
BRANCH  26  27
HETATM   27  N2  UNL     1       5.725  -3.214  15.190  1.00  0.00     0.105 N 
HETATM   28  C19 UNL     1       6.754  -2.612  14.383  1.00  0.00     0.278 C 
HETATM   29  C20 UNL     1       8.146  -3.039  14.601  1.00  0.00     0.018 C 
HETATM   30  C21 UNL     1       8.834  -2.057  15.562  1.00  0.00     0.007 C 
HETATM   31  C25 UNL     1       8.337  -4.454  15.037  1.00  0.00    -0.006 C 
HETATM   32  C22 UNL     1      10.296  -2.449  15.575  1.00  0.00     0.000 C 
HETATM   33  C23 UNL     1      10.368  -3.768  16.350  1.00  0.00     0.000 C 
HETATM   34  C24 UNL     1       9.697  -4.801  15.488  1.00  0.00     0.005 C 
HETATM   35  C26 UNL     1       7.285  -4.780  16.093  1.00  0.00     0.050 C 
HETATM   36  C27 UNL     1       5.961  -4.625  15.325  1.00  0.00     0.314 C 
BRANCH  36  37
HETATM   37  C28 UNL     1       4.973  -5.389  16.058  1.00  0.00     0.252 C 
HETATM   38  O4  UNL     1       4.036  -6.019  15.523  1.00  0.00    -0.271 OA
HETATM   39  N3  UNL     1       5.030  -5.455  17.493  1.00  0.00    -0.351 N 
ATOM     40  H3  UNL     1       5.776  -4.958  17.980  1.00  0.00     0.163 HD
BRANCH  39  41
HETATM   41  C29 UNL     1       4.069  -6.201  18.269  1.00  0.00     0.022 C 
HETATM   42  C30 UNL     1       4.497  -6.162  19.721  1.00  0.00     0.037 C 
HETATM   43  C31 UNL     1       2.684  -5.590  18.201  1.00  0.00     0.037 C 
HETATM   44  C32 UNL     1       3.988  -7.655  17.865  1.00  0.00     0.037 C 
ENDBRANCH  39  41
ENDBRANCH  36  37
ENDBRANCH  26  27
ENDBRANCH  23  26
ENDBRANCH   1  23
TORSDOF 12
ENDMDL
