MODEL 4
REMARK VINA RESULT: -10.223317630      1.930      8.177
REMARK  12 active torsions:
REMARK  status: ('A' for Active; 'I' for Inactive)
REMARK    1  A    between atoms: C3_3  and  O1_4 
REMARK    2  A    between atoms: C7_9  and  C8_10 
REMARK       I    between atoms: C8_10  and  N1_12 
REMARK    3  A    between atoms: N1_12  and  C9_14 
REMARK    4  A    between atoms: C9_14  and  C10_15 
REMARK    5  A    between atoms: C9_14  and  C17_23 
REMARK    6  A    between atoms: C10_15  and  S1_16 
REMARK    7  A    between atoms: S1_16  and  C11_17 
REMARK    8  A    between atoms: C17_23  and  O3_24 
REMARK    9  A    between atoms: C17_23  and  C18_26 
REMARK   10  A    between atoms: C18_26  and  N2_27 
REMARK   11  A    between atoms: C27_36  and  C28_37 
REMARK       I    between atoms: C28_37  and  N3_39 
REMARK   12  A    between atoms: N3_39  and  C29_41 
ROOT
HETATM    1  C9  UNL     1       5.146  -1.619  15.224  1.00  0.00     0.124 C 
ENDROOT
BRANCH   1   2
HETATM    2  N1  UNL     1       6.325  -2.205  15.774  1.00  0.00    -0.349 N 
HETATM    3  C8  UNL     1       6.844  -3.476  15.432  1.00  0.00     0.252 C 
HETATM    4  O2  UNL     1       6.222  -4.171  14.569  1.00  0.00    -0.268 OA
ATOM      5  H1  UNL     1       6.836  -1.663  16.471  1.00  0.00     0.163 HD
BRANCH   3   6
HETATM    6  C7  UNL     1       8.070  -3.991  16.051  1.00  0.00     0.040 A 
HETATM    7  C2  UNL     1       7.946  -4.936  17.040  1.00  0.00    -0.013 A 
HETATM    8  C1  UNL     1       6.649  -5.468  17.501  1.00  0.00     0.052 C 
HETATM    9  C3  UNL     1       9.119  -5.409  17.621  1.00  0.00     0.072 A 
HETATM   10  C4  UNL     1      10.373  -4.967  17.240  1.00  0.00     0.037 A 
HETATM   11  C5  UNL     1      10.469  -4.030  16.255  1.00  0.00     0.004 A 
HETATM   12  C6  UNL     1       9.306  -3.539  15.657  1.00  0.00     0.018 A 
BRANCH   9  13
HETATM   13  O1  UNL     1       9.069  -6.352  18.616  1.00  0.00    -0.360 OA
ATOM     14  H1  UNL     1       9.705  -7.057  18.643  1.00  0.00     0.217 HD
ENDBRANCH   9  13
ENDBRANCH   3   6
ENDBRANCH   1   2
BRANCH   1  15
HETATM   15  C10 UNL     1       3.938  -1.950  16.111  1.00  0.00     0.107 C 
BRANCH  15  16
HETATM   16  S1  UNL     1       2.803  -3.104  15.302  1.00  0.00    -0.128 SA
BRANCH  16  17
HETATM   17  C11 UNL     1       2.972  -4.703  16.069  1.00  0.00     0.000 A 
HETATM   18  C12 UNL     1       2.893  -4.845  17.455  1.00  0.00     0.018 A 
HETATM   19  C13 UNL     1       3.017  -6.065  18.075  1.00  0.00     0.001 A 
HETATM   20  C14 UNL     1       3.227  -7.205  17.329  1.00  0.00     0.000 A 
HETATM   21  C15 UNL     1       3.308  -7.087  15.963  1.00  0.00     0.001 A 
HETATM   22  C16 UNL     1       3.180  -5.839  15.338  1.00  0.00     0.018 A 
ENDBRANCH  16  17
ENDBRANCH  15  16
ENDBRANCH   1  15
BRANCH   1  23
HETATM   23  C17 UNL     1       5.285  -0.112  15.101  1.00  0.00     0.170 C 
BRANCH  23  24
HETATM   24  O3  UNL     1       5.085   0.546  16.284  1.00  0.00    -0.392 OA
ATOM     25  H3  UNL     1       4.265   1.027  16.312  1.00  0.00     0.210 HD
ENDBRANCH  23  24
BRANCH  23  26
HETATM   26  C18 UNL     1       4.588   0.485  13.922  1.00  0.00     0.307 C 
BRANCH  26  27
HETATM   27  N2  UNL     1       5.434   0.822  12.798  1.00  0.00     0.105 N 
HETATM   28  C19 UNL     1       6.795   0.812  13.267  1.00  0.00     0.278 C 
HETATM   29  C20 UNL     1       7.795   1.583  12.511  1.00  0.00     0.018 C 
HETATM   30  C21 UNL     1       8.513   0.653  11.521  1.00  0.00     0.007 C 
HETATM   31  C25 UNL     1       7.298   2.819  11.837  1.00  0.00    -0.006 C 
HETATM   32  C22 UNL     1       9.646   1.469  10.935  1.00  0.00     0.000 C 
HETATM   33  C23 UNL     1       8.986   2.490  10.004  1.00  0.00     0.000 C 
HETATM   34  C24 UNL     1       8.236   3.446  10.890  1.00  0.00     0.005 C 
HETATM   35  C26 UNL     1       5.954   2.506  11.186  1.00  0.00     0.050 C 
HETATM   36  C27 UNL     1       5.060   2.148  12.387  1.00  0.00     0.314 C 
BRANCH  36  37
HETATM   37  C28 UNL     1       3.693   2.339  11.949  1.00  0.00     0.252 C 
HETATM   38  O4  UNL     1       3.006   3.348  12.217  1.00  0.00    -0.271 OA
HETATM   39  N3  UNL     1       3.042   1.334  11.155  1.00  0.00    -0.351 N 
ATOM     40  H3  UNL     1       3.559   0.490  10.908  1.00  0.00     0.163 HD
BRANCH  39  41
HETATM   41  C29 UNL     1       1.682   1.476  10.695  1.00  0.00     0.022 C 
HETATM   42  C30 UNL     1       1.387   0.349   9.728  1.00  0.00     0.037 C 
HETATM   43  C31 UNL     1       0.682   1.359  11.827  1.00  0.00     0.037 C 
HETATM   44  C32 UNL     1       1.443   2.773   9.958  1.00  0.00     0.037 C 
ENDBRANCH  39  41
ENDBRANCH  36  37
ENDBRANCH  26  27
ENDBRANCH  23  26
ENDBRANCH   1  23
TORSDOF 12
ENDMDL
