MODEL 7
REMARK VINA RESULT: -10.077828208      2.157      8.129
REMARK  12 active torsions:
REMARK  status: ('A' for Active; 'I' for Inactive)
REMARK    1  A    between atoms: C3_3  and  O1_4 
REMARK    2  A    between atoms: C7_9  and  C8_10 
REMARK       I    between atoms: C8_10  and  N1_12 
REMARK    3  A    between atoms: N1_12  and  C9_14 
REMARK    4  A    between atoms: C9_14  and  C10_15 
REMARK    5  A    between atoms: C9_14  and  C17_23 
REMARK    6  A    between atoms: C10_15  and  S1_16 
REMARK    7  A    between atoms: S1_16  and  C11_17 
REMARK    8  A    between atoms: C17_23  and  O3_24 
REMARK    9  A    between atoms: C17_23  and  C18_26 
REMARK   10  A    between atoms: C18_26  and  N2_27 
REMARK   11  A    between atoms: C27_36  and  C28_37 
REMARK       I    between atoms: C28_37  and  N3_39 
REMARK   12  A    between atoms: N3_39  and  C29_41 
ROOT
HETATM    1  C9  UNL     1       5.006  -1.969  15.225  1.00  0.00     0.124 C 
ENDROOT
BRANCH   1   2
HETATM    2  N1  UNL     1       5.673  -2.931  16.039  1.00  0.00    -0.349 N 
HETATM    3  C8  UNL     1       6.587  -3.906  15.575  1.00  0.00     0.252 C 
HETATM    4  O2  UNL     1       6.845  -3.948  14.331  1.00  0.00    -0.268 OA
ATOM      5  H1  UNL     1       5.475  -2.914  17.040  1.00  0.00     0.163 HD
BRANCH   3   6
HETATM    6  C7  UNL     1       7.228  -4.851  16.495  1.00  0.00     0.040 A 
HETATM    7  C2  UNL     1       8.589  -4.769  16.661  1.00  0.00    -0.013 A 
HETATM    8  C1  UNL     1       9.434  -3.772  15.976  1.00  0.00     0.052 C 
HETATM    9  C3  UNL     1       9.182  -5.679  17.532  1.00  0.00     0.072 A 
HETATM   10  C4  UNL     1       8.457  -6.637  18.217  1.00  0.00     0.037 A 
HETATM   11  C5  UNL     1       7.108  -6.697  18.036  1.00  0.00     0.004 A 
HETATM   12  C6  UNL     1       6.490  -5.796  17.166  1.00  0.00     0.018 A 
BRANCH   9  13
HETATM   13  O1  UNL     1      10.537  -5.654  17.744  1.00  0.00    -0.360 OA
ATOM     14  H1  UNL     1      11.131  -6.011  17.094  1.00  0.00     0.217 HD
ENDBRANCH   9  13
ENDBRANCH   3   6
ENDBRANCH   1   2
BRANCH   1  15
HETATM   15  C10 UNL     1       3.486  -2.152  15.341  1.00  0.00     0.107 C 
BRANCH  15  16
HETATM   16  S1  UNL     1       2.929  -3.680  14.547  1.00  0.00    -0.128 SA
BRANCH  16  17
HETATM   17  C11 UNL     1       2.967  -4.995  15.748  1.00  0.00     0.000 A 
HETATM   18  C12 UNL     1       2.858  -4.722  17.112  1.00  0.00     0.018 A 
HETATM   19  C13 UNL     1       2.882  -5.715  18.063  1.00  0.00     0.001 A 
HETATM   20  C14 UNL     1       3.016  -7.034  17.685  1.00  0.00     0.000 A 
HETATM   21  C15 UNL     1       3.125  -7.324  16.347  1.00  0.00     0.001 A 
HETATM   22  C16 UNL     1       3.100  -6.306  15.384  1.00  0.00     0.018 A 
ENDBRANCH  16  17
ENDBRANCH  15  16
ENDBRANCH   1  15
BRANCH   1  23
HETATM   23  C17 UNL     1       5.376  -0.552  15.627  1.00  0.00     0.170 C 
BRANCH  23  24
HETATM   24  O3  UNL     1       5.166  -0.297  16.955  1.00  0.00    -0.392 OA
ATOM     25  H3  UNL     1       4.987   0.618  17.138  1.00  0.00     0.210 HD
ENDBRANCH  23  24
BRANCH  23  26
HETATM   26  C18 UNL     1       4.887   0.509  14.697  1.00  0.00     0.307 C 
BRANCH  26  27
HETATM   27  N2  UNL     1       5.691   0.726  13.514  1.00  0.00     0.105 N 
HETATM   28  C19 UNL     1       6.877   1.430  13.924  1.00  0.00     0.278 C 
HETATM   29  C20 UNL     1       7.608   2.207  12.911  1.00  0.00     0.018 C 
HETATM   30  C21 UNL     1       8.753   1.353  12.344  1.00  0.00     0.007 C 
HETATM   31  C25 UNL     1       6.782   2.805  11.821  1.00  0.00    -0.006 C 
HETATM   32  C22 UNL     1       9.566   2.282  11.466  1.00  0.00     0.000 C 
HETATM   33  C23 UNL     1       8.707   2.542  10.225  1.00  0.00     0.000 C 
HETATM   34  C24 UNL     1       7.538   3.367  10.687  1.00  0.00     0.005 C 
HETATM   35  C26 UNL     1       5.759   1.769  11.367  1.00  0.00     0.050 C 
HETATM   36  C27 UNL     1       4.908   1.544  12.629  1.00  0.00     0.314 C 
BRANCH  36  37
HETATM   37  C28 UNL     1       3.644   1.000  12.177  1.00  0.00     0.252 C 
HETATM   38  O4  UNL     1       3.490  -0.174  11.779  1.00  0.00    -0.271 OA
HETATM   39  N3  UNL     1       2.465   1.822  12.167  1.00  0.00    -0.351 N 
ATOM     40  H3  UNL     1       2.537   2.790  12.484  1.00  0.00     0.163 HD
BRANCH  39  41
HETATM   41  C29 UNL     1       1.184   1.327  11.726  1.00  0.00     0.022 C 
HETATM   42  C30 UNL     1       0.197   2.476  11.749  1.00  0.00     0.037 C 
HETATM   43  C31 UNL     1       1.231   0.814  10.301  1.00  0.00     0.037 C 
HETATM   44  C32 UNL     1       0.631   0.244  12.623  1.00  0.00     0.037 C 
ENDBRANCH  39  41
ENDBRANCH  36  37
ENDBRANCH  26  27
ENDBRANCH  23  26
ENDBRANCH   1  23
TORSDOF 12
ENDMDL
