MODEL 1
REMARK VINA RESULT: -10.428622313      0.000      0.000
REMARK  12 active torsions:
REMARK  status: ('A' for Active; 'I' for Inactive)
REMARK    1  A    between atoms: C3_3  and  O1_4 
REMARK    2  A    between atoms: C7_9  and  C8_10 
REMARK       I    between atoms: C8_10  and  N1_12 
REMARK    3  A    between atoms: N1_12  and  C9_14 
REMARK    4  A    between atoms: C9_14  and  C10_15 
REMARK    5  A    between atoms: C9_14  and  C17_23 
REMARK    6  A    between atoms: C10_15  and  S1_16 
REMARK    7  A    between atoms: S1_16  and  C11_17 
REMARK    8  A    between atoms: C17_23  and  O3_24 
REMARK    9  A    between atoms: C17_23  and  C18_26 
REMARK   10  A    between atoms: C18_26  and  N2_27 
REMARK   11  A    between atoms: C27_36  and  C28_37 
REMARK       I    between atoms: C28_37  and  N3_39 
REMARK   12  A    between atoms: N3_39  and  C29_41 
ROOT
HETATM    1  C9  UNL     1       2.875  -1.167  14.410  1.00  0.00     0.124 C 
ENDROOT
BRANCH   1   2
HETATM    2  N1  UNL     1       3.884  -0.699  13.516  1.00  0.00    -0.349 N 
HETATM    3  C8  UNL     1       4.793   0.351  13.785  1.00  0.00     0.252 C 
HETATM    4  O2  UNL     1       4.719   0.943  14.908  1.00  0.00    -0.268 OA
ATOM      5  H1  UNL     1       3.956  -1.160  12.609  1.00  0.00     0.163 HD
BRANCH   3   6
HETATM    6  C7  UNL     1       5.801   0.758  12.801  1.00  0.00     0.040 A 
HETATM    7  C2  UNL     1       5.451   1.708  11.873  1.00  0.00    -0.013 A 
HETATM    8  C1  UNL     1       4.123   2.348  11.823  1.00  0.00     0.052 C 
HETATM    9  C3  UNL     1       6.419   2.078  10.942  1.00  0.00     0.072 A 
HETATM   10  C4  UNL     1       7.689   1.531  10.928  1.00  0.00     0.037 A 
HETATM   11  C5  UNL     1       8.011   0.591  11.861  1.00  0.00     0.004 A 
HETATM   12  C6  UNL     1       7.058   0.203  12.804  1.00  0.00     0.018 A 
BRANCH   9  13
HETATM   13  O1  UNL     1       6.137   3.019   9.985  1.00  0.00    -0.360 OA
ATOM     14  H1  UNL     1       6.805   3.293   9.369  1.00  0.00     0.217 HD
ENDBRANCH   9  13
ENDBRANCH   3   6
ENDBRANCH   1   2
BRANCH   1  15
HETATM   15  C10 UNL     1       1.623  -1.568  13.617  1.00  0.00     0.107 C 
BRANCH  15  16
HETATM   16  S1  UNL     1       0.381  -0.252  13.606  1.00  0.00    -0.128 SA
BRANCH  16  17
HETATM   17  C11 UNL     1       0.627   0.754  12.156  1.00  0.00     0.000 A 
HETATM   18  C12 UNL     1       1.169   0.210  10.991  1.00  0.00     0.018 A 
HETATM   19  C13 UNL     1       1.369   0.960   9.856  1.00  0.00     0.001 A 
HETATM   20  C14 UNL     1       1.031   2.296   9.838  1.00  0.00     0.000 A 
HETATM   21  C15 UNL     1       0.496   2.851  10.975  1.00  0.00     0.001 A 
HETATM   22  C16 UNL     1       0.296   2.079  12.128  1.00  0.00     0.018 A 
ENDBRANCH  16  17
ENDBRANCH  15  16
ENDBRANCH   1  15
BRANCH   1  23
HETATM   23  C17 UNL     1       3.362  -2.356  15.218  1.00  0.00     0.170 C 
BRANCH  23  24
HETATM   24  O3  UNL     1       3.613  -2.051  16.529  1.00  0.00    -0.392 OA
ATOM     25  H3  UNL     1       4.354  -2.523  16.888  1.00  0.00     0.210 HD
ENDBRANCH  23  24
BRANCH  23  26
HETATM   26  C18 UNL     1       4.416  -3.177  14.550  1.00  0.00     0.307 C 
BRANCH  26  27
HETATM   27  N2  UNL     1       5.679  -3.266  15.248  1.00  0.00     0.105 N 
HETATM   28  C19 UNL     1       6.686  -2.697  14.391  1.00  0.00     0.278 C 
HETATM   29  C20 UNL     1       8.086  -3.095  14.606  1.00  0.00     0.018 C 
HETATM   30  C21 UNL     1       8.779  -2.054  15.499  1.00  0.00     0.007 C 
HETATM   31  C25 UNL     1       8.303  -4.482  15.115  1.00  0.00    -0.006 C 
HETATM   32  C22 UNL     1      10.246  -2.427  15.506  1.00  0.00     0.000 C 
HETATM   33  C23 UNL     1      10.349  -3.701  16.350  1.00  0.00     0.000 C 
HETATM   34  C24 UNL     1       9.676  -4.787  15.558  1.00  0.00     0.005 C 
HETATM   35  C26 UNL     1       7.276  -4.762  16.206  1.00  0.00     0.050 C 
HETATM   36  C27 UNL     1       5.936  -4.665  15.456  1.00  0.00     0.314 C 
BRANCH  36  37
HETATM   37  C28 UNL     1       4.971  -5.399  16.248  1.00  0.00     0.252 C 
HETATM   38  O4  UNL     1       4.412  -4.945  17.269  1.00  0.00    -0.271 OA
HETATM   39  N3  UNL     1       4.601  -6.738  15.878  1.00  0.00    -0.351 N 
ATOM     40  H3  UNL     1       5.028  -7.156  15.052  1.00  0.00     0.163 HD
BRANCH  39  41
HETATM   41  C29 UNL     1       3.646  -7.511  16.634  1.00  0.00     0.022 C 
HETATM   42  C30 UNL     1       3.583  -8.902  16.041  1.00  0.00     0.037 C 
HETATM   43  C31 UNL     1       4.059  -7.668  18.084  1.00  0.00     0.037 C 
HETATM   44  C32 UNL     1       2.249  -6.937  16.579  1.00  0.00     0.037 C 
ENDBRANCH  39  41
ENDBRANCH  36  37
ENDBRANCH  26  27
ENDBRANCH  23  26
ENDBRANCH   1  23
TORSDOF 12
ENDMDL
