MODEL 3
REMARK VINA RESULT: -10.320092280      1.838      6.650
REMARK  12 active torsions:
REMARK  status: ('A' for Active; 'I' for Inactive)
REMARK    1  A    between atoms: C3_3  and  O1_4 
REMARK    2  A    between atoms: C7_9  and  C8_10 
REMARK       I    between atoms: C8_10  and  N1_12 
REMARK    3  A    between atoms: N1_12  and  C9_14 
REMARK    4  A    between atoms: C9_14  and  C10_15 
REMARK    5  A    between atoms: C9_14  and  C17_23 
REMARK    6  A    between atoms: C10_15  and  S1_16 
REMARK    7  A    between atoms: S1_16  and  C11_17 
REMARK    8  A    between atoms: C17_23  and  O3_24 
REMARK    9  A    between atoms: C17_23  and  C18_26 
REMARK   10  A    between atoms: C18_26  and  N2_27 
REMARK   11  A    between atoms: C27_36  and  C28_37 
REMARK       I    between atoms: C28_37  and  N3_39 
REMARK   12  A    between atoms: N3_39  and  C29_41 
ROOT
HETATM    1  C9  UNL     1       2.698  -1.470  13.511  1.00  0.00     0.124 C 
ENDROOT
BRANCH   1   2
HETATM    2  N1  UNL     1       3.055  -2.604  14.300  1.00  0.00    -0.349 N 
HETATM    3  C8  UNL     1       2.266  -3.766  14.469  1.00  0.00     0.252 C 
HETATM    4  O2  UNL     1       1.140  -3.823  13.883  1.00  0.00    -0.268 OA
ATOM      5  H1  UNL     1       3.954  -2.575  14.781  1.00  0.00     0.163 HD
BRANCH   3   6
HETATM    6  C7  UNL     1       2.723  -4.885  15.299  1.00  0.00     0.040 A 
HETATM    7  C2  UNL     1       2.890  -4.666  16.644  1.00  0.00    -0.013 A 
HETATM    8  C1  UNL     1       2.621  -3.371  17.299  1.00  0.00     0.052 C 
HETATM    9  C3  UNL     1       3.331  -5.738  17.416  1.00  0.00     0.072 A 
HETATM   10  C4  UNL     1       3.597  -6.984  16.880  1.00  0.00     0.037 A 
HETATM   11  C5  UNL     1       3.422  -7.176  15.542  1.00  0.00     0.004 A 
HETATM   12  C6  UNL     1       2.982  -6.116  14.747  1.00  0.00     0.018 A 
BRANCH   9  13
HETATM   13  O1  UNL     1       3.522  -5.588  18.766  1.00  0.00    -0.360 OA
ATOM     14  H1  UNL     1       4.308  -5.924  19.181  1.00  0.00     0.217 HD
ENDBRANCH   9  13
ENDBRANCH   3   6
ENDBRANCH   1   2
BRANCH   1  15
HETATM   15  C10 UNL     1       1.775  -0.546  14.317  1.00  0.00     0.107 C 
BRANCH  15  16
HETATM   16  S1  UNL     1       0.230  -0.204  13.439  1.00  0.00    -0.128 SA
BRANCH  16  17
HETATM   17  C11 UNL     1       0.582   0.861  12.056  1.00  0.00     0.000 A 
HETATM   18  C12 UNL     1       1.071   0.340  10.857  1.00  0.00     0.018 A 
HETATM   19  C13 UNL     1       1.351   1.136   9.772  1.00  0.00     0.001 A 
HETATM   20  C14 UNL     1       1.151   2.498   9.840  1.00  0.00     0.000 A 
HETATM   21  C15 UNL     1       0.671   3.031  11.011  1.00  0.00     0.001 A 
HETATM   22  C16 UNL     1       0.388   2.213  12.113  1.00  0.00     0.018 A 
ENDBRANCH  16  17
ENDBRANCH  15  16
ENDBRANCH   1  15
BRANCH   1  23
HETATM   23  C17 UNL     1       3.927  -0.696  13.070  1.00  0.00     0.170 C 
BRANCH  23  24
HETATM   24  O3  UNL     1       4.458  -1.152  11.894  1.00  0.00    -0.392 OA
ATOM     25  H3  UNL     1       5.395  -1.304  11.939  1.00  0.00     0.210 HD
ENDBRANCH  23  24
BRANCH  23  26
HETATM   26  C18 UNL     1       4.924  -0.436  14.152  1.00  0.00     0.307 C 
BRANCH  26  27
HETATM   27  N2  UNL     1       6.085  -1.297  14.156  1.00  0.00     0.105 N 
HETATM   28  C19 UNL     1       6.115  -1.972  15.427  1.00  0.00     0.278 C 
HETATM   29  C20 UNL     1       7.403  -2.501  15.902  1.00  0.00     0.018 C 
HETATM   30  C21 UNL     1       7.513  -3.986  15.524  1.00  0.00     0.007 C 
HETATM   31  C25 UNL     1       8.618  -1.740  15.486  1.00  0.00    -0.006 C 
HETATM   32  C22 UNL     1       8.760  -4.497  16.214  1.00  0.00     0.000 C 
HETATM   33  C23 UNL     1       9.939  -3.879  15.456  1.00  0.00     0.000 C 
HETATM   34  C24 UNL     1       9.906  -2.405  15.754  1.00  0.00     0.005 C 
HETATM   35  C26 UNL     1       8.468  -1.357  14.017  1.00  0.00     0.050 C 
HETATM   36  C27 UNL     1       7.232  -0.441  14.021  1.00  0.00     0.314 C 
BRANCH  36  37
HETATM   37  C28 UNL     1       7.315   0.360  12.817  1.00  0.00     0.252 C 
HETATM   38  O4  UNL     1       7.400  -0.115  11.664  1.00  0.00    -0.271 OA
HETATM   39  N3  UNL     1       7.304   1.794  12.902  1.00  0.00    -0.351 N 
ATOM     40  H3  UNL     1       7.236   2.233  13.821  1.00  0.00     0.163 HD
BRANCH  39  41
HETATM   41  C29 UNL     1       7.385   2.637  11.733  1.00  0.00     0.022 C 
HETATM   42  C30 UNL     1       7.389   4.081  12.187  1.00  0.00     0.037 C 
HETATM   43  C31 UNL     1       8.669   2.415  10.958  1.00  0.00     0.037 C 
HETATM   44  C32 UNL     1       6.209   2.463  10.801  1.00  0.00     0.037 C 
ENDBRANCH  39  41
ENDBRANCH  36  37
ENDBRANCH  26  27
ENDBRANCH  23  26
ENDBRANCH   1  23
TORSDOF 12
ENDMDL
