MODEL 3
REMARK VINA RESULT: -5.851126149      1.861      2.453
REMARK  6 active torsions:
REMARK  status: ('A' for Active; 'I' for Inactive)
REMARK    1  A    between atoms: N1_1  and  C1_4 
REMARK    2  A    between atoms: N3_9  and  C3_10 
REMARK    3  A    between atoms: C4_12  and  C5_13 
REMARK    4  A    between atoms: C5_13  and  O3_14 
REMARK    5  A    between atoms: C6_16  and  O4_17 
REMARK    6  A    between atoms: C7_19  and  O5_20 
ROOT
HETATM    1  C1  UNL     1      31.510   0.525  40.667  1.00  0.00     0.143 A 
HETATM    2  N2  UNL     1      31.467  -0.036  39.467  1.00  0.00    -0.292 N 
ATOM      3  H2  UNL     1      31.076   0.488  38.684  1.00  0.00     0.172 HD
HETATM    4  C2  UNL     1      31.931  -1.290  39.260  1.00  0.00     0.330 A 
HETATM    5  O1  UNL     1      31.872  -1.779  38.119  1.00  0.00    -0.246 OA
HETATM    6  N3  UNL     1      32.459  -2.041  40.235  1.00  0.00    -0.277 N 
HETATM    7  C8  UNL     1      32.503  -1.469  41.469  1.00  0.00     0.144 A 
HETATM    8  C9  UNL     1      32.042  -0.204  41.706  1.00  0.00     0.175 A 
HETATM    9  F1  UNL     1      32.094   0.355  42.947  1.00  0.00    -0.201 F 
ENDROOT
BRANCH   6  10
HETATM   10  C3  UNL     1      32.966  -3.354  40.114  1.00  0.00     0.264 C 
HETATM   11  O2  UNL     1      33.032  -4.064  41.306  1.00  0.00    -0.353 OA
HETATM   12  C4  UNL     1      33.873  -5.134  41.112  1.00  0.00     0.179 C 
HETATM   13  C6  UNL     1      34.441  -5.036  39.710  1.00  0.00     0.182 C 
HETATM   14  C7  UNL     1      34.329  -3.506  39.556  1.00  0.00     0.198 C 
BRANCH  12  15
HETATM   15  C5  UNL     1      35.046  -5.002  42.092  1.00  0.00     0.198 C 
BRANCH  15  16
HETATM   16  O3  UNL     1      36.113  -5.757  41.611  1.00  0.00    -0.398 OA
ATOM     17  H3  UNL     1      36.568  -6.143  42.350  1.00  0.00     0.209 HD
ENDBRANCH  15  16
ENDBRANCH  12  15
BRANCH  13  18
HETATM   18  O4  UNL     1      33.538  -5.626  38.841  1.00  0.00    -0.390 OA
ATOM     19  H4  UNL     1      33.394  -5.028  38.117  1.00  0.00     0.210 HD
ENDBRANCH  13  18
BRANCH  14  20
HETATM   20  O5  UNL     1      34.456  -3.143  38.224  1.00  0.00    -0.388 OA
ATOM     21  H5  UNL     1      34.502  -3.871  37.615  1.00  0.00     0.210 HD
ENDBRANCH  14  20
ENDBRANCH   6  10
BRANCH   1  22
HETATM   22  N1  UNL     1      31.062   1.721  40.850  1.00  0.00    -0.383 N 
ATOM     23  H12 UNL     1      30.435   2.160  40.176  1.00  0.00     0.157 HD
ATOM     24  H11 UNL     1      31.329   2.255  41.677  1.00  0.00     0.157 HD
ENDBRANCH   1  22
TORSDOF 6
ENDMDL
