MODEL 2
REMARK VINA RESULT: -5.912664557      1.505      1.717
REMARK  6 active torsions:
REMARK  status: ('A' for Active; 'I' for Inactive)
REMARK    1  A    between atoms: N1_1  and  C1_4 
REMARK    2  A    between atoms: N3_9  and  C3_10 
REMARK    3  A    between atoms: C4_12  and  C5_13 
REMARK    4  A    between atoms: C5_13  and  O3_14 
REMARK    5  A    between atoms: C6_16  and  O4_17 
REMARK    6  A    between atoms: C7_19  and  O5_20 
ROOT
HETATM    1  C1  UNL     1      31.485   0.088  40.454  1.00  0.00     0.143 A 
HETATM    2  N2  UNL     1      31.537  -0.405  39.225  1.00  0.00    -0.292 N 
ATOM      3  H2  UNL     1      31.214   0.166  38.443  1.00  0.00     0.172 HD
HETATM    4  C2  UNL     1      32.011  -1.649  38.985  1.00  0.00     0.330 A 
HETATM    5  O1  UNL     1      32.043  -2.074  37.818  1.00  0.00    -0.246 OA
HETATM    6  N3  UNL     1      32.453  -2.459  39.957  1.00  0.00    -0.277 N 
HETATM    7  C8  UNL     1      32.400  -1.957  41.220  1.00  0.00     0.144 A 
HETATM    8  C9  UNL     1      31.927  -0.703  41.490  1.00  0.00     0.175 A 
HETATM    9  F1  UNL     1      31.880  -0.214  42.761  1.00  0.00    -0.201 F 
ENDROOT
BRANCH   6  10
HETATM   10  C3  UNL     1      32.963  -3.767  39.803  1.00  0.00     0.264 C 
HETATM   11  O2  UNL     1      32.098  -4.778  40.203  1.00  0.00    -0.353 OA
HETATM   12  C4  UNL     1      32.838  -5.926  40.361  1.00  0.00     0.179 C 
HETATM   13  C6  UNL     1      34.294  -5.583  40.119  1.00  0.00     0.182 C 
HETATM   14  C7  UNL     1      34.217  -4.096  40.519  1.00  0.00     0.198 C 
BRANCH  12  15
HETATM   15  C5  UNL     1      32.710  -6.379  41.821  1.00  0.00     0.198 C 
BRANCH  15  16
HETATM   16  O3  UNL     1      31.570  -5.794  42.368  1.00  0.00    -0.398 OA
ATOM     17  H3  UNL     1      30.837  -6.385  42.243  1.00  0.00     0.209 HD
ENDBRANCH  15  16
ENDBRANCH  12  15
BRANCH  13  18
HETATM   18  O4  UNL     1      34.529  -5.655  38.755  1.00  0.00    -0.390 OA
ATOM     19  H4  UNL     1      35.336  -6.138  38.622  1.00  0.00     0.210 HD
ENDBRANCH  13  18
BRANCH  14  20
HETATM   20  O5  UNL     1      35.339  -3.415  40.068  1.00  0.00    -0.388 OA
ATOM     21  H5  UNL     1      36.130  -3.939  40.019  1.00  0.00     0.210 HD
ENDBRANCH  14  20
ENDBRANCH   6  10
BRANCH   1  22
HETATM   22  N1  UNL     1      31.029   1.276  40.667  1.00  0.00    -0.383 N 
ATOM     23  H12 UNL     1      30.298   1.675  40.078  1.00  0.00     0.157 HD
ATOM     24  H11 UNL     1      31.394   1.843  41.432  1.00  0.00     0.157 HD
ENDBRANCH   1  22
TORSDOF 6
ENDMDL
