MODEL 1
REMARK VINA RESULT: -6.165731280      0.000      0.000
REMARK  6 active torsions:
REMARK  status: ('A' for Active; 'I' for Inactive)
REMARK    1  A    between atoms: N1_1  and  C1_4 
REMARK    2  A    between atoms: N3_9  and  C3_10 
REMARK    3  A    between atoms: C4_12  and  C5_13 
REMARK    4  A    between atoms: C5_13  and  O3_14 
REMARK    5  A    between atoms: C6_16  and  O4_17 
REMARK    6  A    between atoms: C7_19  and  O5_20 
ROOT
HETATM    1  C1  UNL     1      32.701   0.740  40.488  1.00  0.00     0.143 A 
HETATM    2  N2  UNL     1      33.864   0.396  39.955  1.00  0.00    -0.292 N 
ATOM      3  H2  UNL     1      34.574   1.112  39.800  1.00  0.00     0.172 HD
HETATM    4  C2  UNL     1      34.129  -0.886  39.611  1.00  0.00     0.330 A 
HETATM    5  O1  UNL     1      35.232  -1.166  39.113  1.00  0.00    -0.246 OA
HETATM    6  N3  UNL     1      33.249  -1.882  39.782  1.00  0.00    -0.277 N 
HETATM    7  C8  UNL     1      32.053  -1.533  40.329  1.00  0.00     0.144 A 
HETATM    8  C9  UNL     1      31.760  -0.245  40.686  1.00  0.00     0.175 A 
HETATM    9  F1  UNL     1      30.558   0.088  41.233  1.00  0.00    -0.201 F 
ENDROOT
BRANCH   6  10
HETATM   10  C3  UNL     1      33.436  -3.243  39.455  1.00  0.00     0.264 C 
HETATM   11  O2  UNL     1      32.266  -3.941  39.183  1.00  0.00    -0.353 OA
HETATM   12  C4  UNL     1      32.550  -5.284  39.262  1.00  0.00     0.179 C 
HETATM   13  C6  UNL     1      33.993  -5.433  39.700  1.00  0.00     0.182 C 
HETATM   14  C7  UNL     1      34.111  -4.097  40.459  1.00  0.00     0.198 C 
BRANCH  12  15
HETATM   15  C5  UNL     1      31.671  -5.892  40.363  1.00  0.00     0.198 C 
BRANCH  15  16
HETATM   16  O3  UNL     1      30.517  -6.404  39.777  1.00  0.00    -0.398 OA
ATOM     17  H3  UNL     1      29.868  -5.712  39.730  1.00  0.00     0.209 HD
ENDBRANCH  15  16
ENDBRANCH  12  15
BRANCH  13  18
HETATM   18  O4  UNL     1      34.792  -5.362  38.570  1.00  0.00    -0.390 OA
ATOM     19  H4  UNL     1      34.536  -4.591  38.078  1.00  0.00     0.210 HD
ENDBRANCH  13  18
BRANCH  14  20
HETATM   20  O5  UNL     1      35.443  -3.785  40.687  1.00  0.00    -0.388 OA
ATOM     21  H5  UNL     1      36.005  -3.858  39.924  1.00  0.00     0.210 HD
ENDBRANCH  14  20
ENDBRANCH   6  10
BRANCH   1  22
HETATM   22  N1  UNL     1      32.462   1.966  40.811  1.00  0.00    -0.383 N 
ATOM     23  H12 UNL     1      32.746   2.339  41.716  1.00  0.00     0.157 HD
ATOM     24  H11 UNL     1      31.981   2.590  40.162  1.00  0.00     0.157 HD
ENDBRANCH   1  22
TORSDOF 6
ENDMDL
