MODEL 5
REMARK VINA RESULT: -5.766339963      4.706      6.885
REMARK  6 active torsions:
REMARK  status: ('A' for Active; 'I' for Inactive)
REMARK    1  A    between atoms: N1_1  and  C1_4 
REMARK    2  A    between atoms: N3_9  and  C3_10 
REMARK    3  A    between atoms: C4_12  and  C5_13 
REMARK    4  A    between atoms: C5_13  and  O3_14 
REMARK    5  A    between atoms: C6_16  and  O4_17 
REMARK    6  A    between atoms: C7_19  and  O5_20 
ROOT
HETATM    1  C1  UNL     1      35.706   4.869  39.809  1.00  0.00     0.143 A 
HETATM    2  N2  UNL     1      34.909   5.538  40.629  1.00  0.00    -0.292 N 
ATOM      3  H2  UNL     1      35.102   6.520  40.823  1.00  0.00     0.172 HD
HETATM    4  C2  UNL     1      33.843   4.944  41.215  1.00  0.00     0.330 A 
HETATM    5  O1  UNL     1      33.120   5.607  41.978  1.00  0.00    -0.246 OA
HETATM    6  N3  UNL     1      33.523   3.659  41.010  1.00  0.00    -0.277 N 
HETATM    7  C8  UNL     1      34.339   2.968  40.170  1.00  0.00     0.144 A 
HETATM    8  C9  UNL     1      35.422   3.544  39.565  1.00  0.00     0.175 A 
HETATM    9  F1  UNL     1      36.230   2.839  38.724  1.00  0.00    -0.201 F 
ENDROOT
BRANCH   6  10
HETATM   10  C3  UNL     1      32.435   2.956  41.576  1.00  0.00     0.264 C 
HETATM   11  O2  UNL     1      32.624   1.584  41.683  1.00  0.00    -0.353 OA
HETATM   12  C4  UNL     1      31.391   1.005  41.875  1.00  0.00     0.179 C 
HETATM   13  C6  UNL     1      30.343   2.096  41.798  1.00  0.00     0.182 C 
HETATM   14  C7  UNL     1      31.127   3.063  40.889  1.00  0.00     0.198 C 
BRANCH  12  15
HETATM   15  C5  UNL     1      31.133   0.038  40.713  1.00  0.00     0.198 C 
BRANCH  15  16
HETATM   16  O3  UNL     1      32.275  -0.013  39.917  1.00  0.00    -0.398 OA
ATOM     17  H3  UNL     1      32.275  -0.835  39.440  1.00  0.00     0.209 HD
ENDBRANCH  15  16
ENDBRANCH  12  15
BRANCH  13  18
HETATM   18  O4  UNL     1      30.233   2.674  43.053  1.00  0.00    -0.390 OA
ATOM     19  H4  UNL     1      30.187   3.616  42.939  1.00  0.00     0.210 HD
ENDBRANCH  13  18
BRANCH  14  20
HETATM   20  O5  UNL     1      30.557   4.327  40.919  1.00  0.00    -0.388 OA
ATOM     21  H5  UNL     1      29.668   4.355  41.254  1.00  0.00     0.210 HD
ENDBRANCH  14  20
ENDBRANCH   6  10
BRANCH   1  22
HETATM   22  N1  UNL     1      36.719   5.448  39.259  1.00  0.00    -0.383 N 
ATOM     23  H12 UNL     1      37.142   6.278  39.673  1.00  0.00     0.157 HD
ATOM     24  H11 UNL     1      37.118   5.086  38.393  1.00  0.00     0.157 HD
ENDBRANCH   1  22
TORSDOF 6
ENDMDL
