MODEL 4
REMARK VINA RESULT: -7.885789718      2.483      9.246
REMARK  7 active torsions:
REMARK  status: ('A' for Active; 'I' for Inactive)
REMARK    1  A    between atoms: C1_2  and  C2_3 
REMARK       I    between atoms: C1_2  and  N4_33 
REMARK       I    between atoms: N1_7  and  C6_8 
REMARK    2  A    between atoms: C6_8  and  C7_10 
REMARK    3  A    between atoms: C7_10  and  C8_11 
REMARK    4  A    between atoms: C8_11  and  C9_12 
REMARK    5  A    between atoms: C9_12  and  N2_13 
REMARK    6  A    between atoms: C11_18  and  C12_19 
REMARK    7  A    between atoms: C11_18  and  C18_25 
ROOT
HETATM    1  N2  UNL     1       3.710  37.951  32.732  1.00  0.00    -0.267 N 
HETATM    2  C10 UNL     1       4.135  36.626  32.391  1.00  0.00     0.326 C 
HETATM    3  O3  UNL     1       4.281  35.650  33.184  1.00  0.00    -0.247 OA
HETATM    4  N3  UNL     1       4.359  36.636  30.989  1.00  0.00    -0.317 N 
ATOM      5  H3  UNL     1       4.337  35.829  30.366  1.00  0.00     0.166 HD
HETATM    6  C11 UNL     1       4.624  38.005  30.610  1.00  0.00     0.171 C 
HETATM    7  C24 UNL     1       3.688  38.727  31.533  1.00  0.00     0.266 C 
HETATM    8  O4  UNL     1       3.014  39.764  31.371  1.00  0.00    -0.269 OA
ENDROOT
BRANCH   1   9
HETATM    9  C9  UNL     1       3.356  38.408  34.048  1.00  0.00     0.137 C 
BRANCH   9  10
HETATM   10  C8  UNL     1       4.133  37.715  35.149  1.00  0.00     0.029 C 
BRANCH  10  11
HETATM   11  C7  UNL     1       5.373  38.506  35.438  1.00  0.00     0.105 C 
BRANCH  11  12
HETATM   12  C6  UNL     1       6.588  37.674  35.474  1.00  0.00     0.220 C 
HETATM   13  N1  UNL     1       7.846  38.258  35.715  1.00  0.00    -0.339 N 
HETATM   14  C2  UNL     1       9.149  37.600  35.775  1.00  0.00     0.179 C 
HETATM   15  C5  UNL     1       8.038  39.686  35.945  1.00  0.00     0.127 C 
HETATM   16  C3  UNL     1      10.053  38.684  35.234  1.00  0.00     0.037 C 
HETATM   17  C4  UNL     1       9.502  39.938  35.861  1.00  0.00     0.022 C 
HETATM   18  O2  UNL     1       6.498  36.446  35.290  1.00  0.00    -0.273 OA
BRANCH  14  19
HETATM   19  C1  UNL     1       9.478  37.200  37.147  1.00  0.00     0.242 C 
HETATM   20  O1  UNL     1       8.672  37.577  38.066  1.00  0.00    -0.271 OA
HETATM   21  N4  UNL     1      10.594  36.446  37.528  1.00  0.00    -0.350 N 
HETATM   22  C25 UNL     1      11.666  35.871  36.736  1.00  0.00     0.126 C 
HETATM   23  C28 UNL     1      10.941  36.059  38.884  1.00  0.00     0.126 C 
HETATM   24  C26 UNL     1      12.869  36.253  37.531  1.00  0.00     0.021 C 
HETATM   25  C27 UNL     1      12.388  36.565  38.951  1.00  0.00     0.021 C 
ENDBRANCH  14  19
ENDBRANCH  11  12
ENDBRANCH  10  11
ENDBRANCH   9  10
ENDBRANCH   1   9
BRANCH   6  26
HETATM   26  C12 UNL     1       6.037  38.284  30.974  1.00  0.00    -0.016 A 
HETATM   27  C13 UNL     1       6.363  39.114  32.000  1.00  0.00     0.010 A 
HETATM   28  C14 UNL     1       7.697  39.354  32.310  1.00  0.00     0.001 A 
HETATM   29  C15 UNL     1       8.728  38.784  31.619  1.00  0.00     0.000 A 
HETATM   30  C16 UNL     1       8.415  37.934  30.570  1.00  0.00     0.001 A 
HETATM   31  C17 UNL     1       7.092  37.699  30.264  1.00  0.00     0.010 A 
ENDBRANCH   6  26
BRANCH   6  32
HETATM   32  C18 UNL     1       4.316  38.290  29.193  1.00  0.00    -0.016 A 
HETATM   33  C19 UNL     1       3.789  37.333  28.372  1.00  0.00     0.010 A 
HETATM   34  C20 UNL     1       3.494  37.606  27.035  1.00  0.00     0.001 A 
HETATM   35  C21 UNL     1       3.720  38.843  26.489  1.00  0.00     0.000 A 
HETATM   36  C22 UNL     1       4.245  39.809  27.294  1.00  0.00     0.001 A 
HETATM   37  C23 UNL     1       4.541  39.541  28.634  1.00  0.00     0.010 A 
ENDBRANCH   6  32
TORSDOF 7
ENDMDL
