MODEL 5
REMARK VINA RESULT: -7.859119437      4.107      8.753
REMARK  7 active torsions:
REMARK  status: ('A' for Active; 'I' for Inactive)
REMARK    1  A    between atoms: C1_2  and  C2_3 
REMARK       I    between atoms: C1_2  and  N4_33 
REMARK       I    between atoms: N1_7  and  C6_8 
REMARK    2  A    between atoms: C6_8  and  C7_10 
REMARK    3  A    between atoms: C7_10  and  C8_11 
REMARK    4  A    between atoms: C8_11  and  C9_12 
REMARK    5  A    between atoms: C9_12  and  N2_13 
REMARK    6  A    between atoms: C11_18  and  C12_19 
REMARK    7  A    between atoms: C11_18  and  C18_25 
ROOT
HETATM    1  N2  UNL     1       3.840  38.165  32.818  1.00  0.00    -0.267 N 
HETATM    2  C10 UNL     1       4.231  36.822  32.508  1.00  0.00     0.326 C 
HETATM    3  O3  UNL     1       4.376  35.867  33.326  1.00  0.00    -0.247 OA
HETATM    4  N3  UNL     1       4.421  36.786  31.101  1.00  0.00    -0.317 N 
ATOM      5  H3  UNL     1       4.367  35.961  30.504  1.00  0.00     0.166 HD
HETATM    6  C11 UNL     1       4.703  38.137  30.675  1.00  0.00     0.171 C 
HETATM    7  C24 UNL     1       3.805  38.905  31.597  1.00  0.00     0.266 C 
HETATM    8  O4  UNL     1       3.148  39.950  31.420  1.00  0.00    -0.269 OA
ENDROOT
BRANCH   1   9
HETATM    9  C9  UNL     1       3.528  38.669  34.127  1.00  0.00     0.137 C 
BRANCH   9  10
HETATM   10  C8  UNL     1       4.200  39.992  34.434  1.00  0.00     0.029 C 
BRANCH  10  11
HETATM   11  C7  UNL     1       5.226  39.776  35.506  1.00  0.00     0.105 C 
BRANCH  11  12
HETATM   12  C6  UNL     1       5.805  41.035  36.007  1.00  0.00     0.220 C 
HETATM   13  N1  UNL     1       7.199  41.176  36.139  1.00  0.00    -0.339 N 
HETATM   14  C2  UNL     1       7.946  42.333  36.625  1.00  0.00     0.179 C 
HETATM   15  C5  UNL     1       8.149  40.122  35.798  1.00  0.00     0.127 C 
HETATM   16  C3  UNL     1       9.127  41.666  37.292  1.00  0.00     0.037 C 
HETATM   17  C4  UNL     1       9.466  40.542  36.349  1.00  0.00     0.022 C 
HETATM   18  O2  UNL     1       5.053  41.978  36.314  1.00  0.00    -0.273 OA
BRANCH  14  19
HETATM   19  C1  UNL     1       8.328  43.219  35.520  1.00  0.00     0.242 C 
HETATM   20  O1  UNL     1       7.961  42.867  34.346  1.00  0.00    -0.271 OA
HETATM   21  N4  UNL     1       9.056  44.407  35.645  1.00  0.00    -0.350 N 
HETATM   22  C25 UNL     1       9.596  45.070  36.819  1.00  0.00     0.126 C 
HETATM   23  C28 UNL     1       9.456  45.283  34.558  1.00  0.00     0.126 C 
HETATM   24  C26 UNL     1      10.975  45.415  36.365  1.00  0.00     0.021 C 
HETATM   25  C27 UNL     1      10.962  45.391  34.834  1.00  0.00     0.021 C 
ENDBRANCH  14  19
ENDBRANCH  11  12
ENDBRANCH  10  11
ENDBRANCH   9  10
ENDBRANCH   1   9
BRANCH   6  26
HETATM   26  C12 UNL     1       6.130  38.397  30.997  1.00  0.00    -0.016 A 
HETATM   27  C13 UNL     1       6.498  39.262  31.978  1.00  0.00     0.010 A 
HETATM   28  C14 UNL     1       7.844  39.483  32.250  1.00  0.00     0.001 A 
HETATM   29  C15 UNL     1       8.845  38.860  31.563  1.00  0.00     0.000 A 
HETATM   30  C16 UNL     1       8.490  37.973  30.558  1.00  0.00     0.001 A 
HETATM   31  C17 UNL     1       7.155  37.757  30.290  1.00  0.00     0.010 A 
ENDBRANCH   6  26
BRANCH   6  32
HETATM   32  C18 UNL     1       4.366  38.385  29.258  1.00  0.00    -0.016 A 
HETATM   33  C19 UNL     1       3.813  37.411  28.475  1.00  0.00     0.010 A 
HETATM   34  C20 UNL     1       3.491  37.650  27.138  1.00  0.00     0.001 A 
HETATM   35  C21 UNL     1       3.716  38.869  26.553  1.00  0.00     0.000 A 
HETATM   36  C22 UNL     1       4.268  39.851  27.318  1.00  0.00     0.001 A 
HETATM   37  C23 UNL     1       4.591  39.618  28.658  1.00  0.00     0.010 A 
ENDBRANCH   6  32
TORSDOF 7
ENDMDL
