MODEL 6
REMARK VINA RESULT: -7.803881976      2.101      9.692
REMARK  7 active torsions:
REMARK  status: ('A' for Active; 'I' for Inactive)
REMARK    1  A    between atoms: C1_2  and  C2_3 
REMARK       I    between atoms: C1_2  and  N4_33 
REMARK       I    between atoms: N1_7  and  C6_8 
REMARK    2  A    between atoms: C6_8  and  C7_10 
REMARK    3  A    between atoms: C7_10  and  C8_11 
REMARK    4  A    between atoms: C8_11  and  C9_12 
REMARK    5  A    between atoms: C9_12  and  N2_13 
REMARK    6  A    between atoms: C11_18  and  C12_19 
REMARK    7  A    between atoms: C11_18  and  C18_25 
ROOT
HETATM    1  N2  UNL     1       4.362  38.407  31.694  1.00  0.00    -0.267 N 
HETATM    2  C10 UNL     1       3.535  37.278  31.388  1.00  0.00     0.326 C 
HETATM    3  O3  UNL     1       3.877  36.059  31.417  1.00  0.00    -0.247 OA
HETATM    4  N3  UNL     1       2.263  37.806  31.045  1.00  0.00    -0.317 N 
ATOM      5  H3  UNL     1       1.369  37.318  31.101  1.00  0.00     0.166 HD
HETATM    6  C11 UNL     1       2.472  39.166  30.603  1.00  0.00     0.171 C 
HETATM    7  C24 UNL     1       3.572  39.586  31.529  1.00  0.00     0.266 C 
HETATM    8  O4  UNL     1       3.814  40.683  32.072  1.00  0.00    -0.269 OA
ENDROOT
BRANCH   1   9
HETATM    9  C9  UNL     1       5.737  38.355  32.107  1.00  0.00     0.137 C 
BRANCH   9  10
HETATM   10  C8  UNL     1       6.712  38.452  30.951  1.00  0.00     0.029 C 
BRANCH  10  11
HETATM   11  C7  UNL     1       7.976  39.096  31.435  1.00  0.00     0.105 C 
BRANCH  11  12
HETATM   12  C6  UNL     1       8.781  38.207  32.290  1.00  0.00     0.220 C 
HETATM   13  N1  UNL     1       8.970  38.505  33.652  1.00  0.00    -0.339 N 
HETATM   14  C2  UNL     1       9.740  37.754  34.641  1.00  0.00     0.179 C 
HETATM   15  C5  UNL     1       8.399  39.679  34.305  1.00  0.00     0.127 C 
HETATM   16  C3  UNL     1      10.245  38.867  35.531  1.00  0.00     0.037 C 
HETATM   17  C4  UNL     1       9.061  39.792  35.632  1.00  0.00     0.022 C 
HETATM   18  O2  UNL     1       9.296  37.184  31.800  1.00  0.00    -0.273 OA
BRANCH  14  19
HETATM   19  C1  UNL     1       8.893  36.785  35.346  1.00  0.00     0.242 C 
HETATM   20  O1  UNL     1       7.722  36.589  34.869  1.00  0.00    -0.271 OA
HETATM   21  N4  UNL     1       9.260  36.066  36.489  1.00  0.00    -0.350 N 
HETATM   22  C25 UNL     1      10.497  36.059  37.249  1.00  0.00     0.126 C 
HETATM   23  C28 UNL     1       8.426  35.119  37.207  1.00  0.00     0.126 C 
HETATM   24  C26 UNL     1       9.993  36.142  38.651  1.00  0.00     0.021 C 
HETATM   25  C27 UNL     1       8.532  35.684  38.630  1.00  0.00     0.021 C 
ENDBRANCH  14  19
ENDBRANCH  11  12
ENDBRANCH  10  11
ENDBRANCH   9  10
ENDBRANCH   1   9
BRANCH   6  26
HETATM   26  C12 UNL     1       2.967  39.088  29.204  1.00  0.00    -0.016 A 
HETATM   27  C13 UNL     1       3.804  40.025  28.686  1.00  0.00     0.010 A 
HETATM   28  C14 UNL     1       4.245  39.922  27.371  1.00  0.00     0.001 A 
HETATM   29  C15 UNL     1       3.869  38.900  26.548  1.00  0.00     0.000 A 
HETATM   30  C16 UNL     1       3.016  37.934  27.057  1.00  0.00     0.001 A 
HETATM   31  C17 UNL     1       2.580  38.039  28.361  1.00  0.00     0.010 A 
ENDBRANCH   6  26
BRANCH   6  32
HETATM   32  C18 UNL     1       1.276  40.021  30.756  1.00  0.00    -0.016 A 
HETATM   33  C19 UNL     1       0.377  39.814  31.764  1.00  0.00     0.010 A 
HETATM   34  C20 UNL     1      -0.749  40.627  31.910  1.00  0.00     0.001 A 
HETATM   35  C21 UNL     1      -1.001  41.664  31.050  1.00  0.00     0.000 A 
HETATM   36  C22 UNL     1      -0.114  41.884  30.039  1.00  0.00     0.001 A 
HETATM   37  C23 UNL     1       1.015  41.074  29.889  1.00  0.00     0.010 A 
ENDBRANCH   6  32
TORSDOF 7
ENDMDL
