MODEL 8
REMARK VINA RESULT: -7.413876576      4.762      7.548
REMARK  10 active torsions:
REMARK  status: ('A' for Active; 'I' for Inactive)
REMARK    1  A    between atoms: N4_10  and  C5_11 
REMARK    2  A    between atoms: C6_13  and  C7_14 
REMARK    3  A    between atoms: C7_14  and  O2_15 
REMARK    4  A    between atoms: O2_15  and  P1_16 
REMARK    5  A    between atoms: P1_16  and  O5_19 
REMARK    6  A    between atoms: O5_19  and  P2_20 
REMARK    7  A    between atoms: P2_20  and  O8_23 
REMARK    8  A    between atoms: O8_23  and  P3_24 
REMARK    9  A    between atoms: C8_28  and  O12_29 
REMARK   10  A    between atoms: C9_31  and  O13_32 
ROOT
HETATM    1  C5  UNL     1      27.096  27.806 -39.823  1.00  0.00     0.262 C 
HETATM    2  O1  UNL     1      26.572  26.989 -38.826  1.00  0.00    -0.353 OA
HETATM    3  C6  UNL     1      26.379  27.931 -37.794  1.00  0.00     0.180 C 
HETATM    4  C8  UNL     1      25.571  28.991 -38.495  1.00  0.00     0.182 C 
HETATM    5  C9  UNL     1      26.060  28.873 -39.945  1.00  0.00     0.198 C 
ENDROOT
BRANCH   1   6
HETATM    6  N4  UNL     1      27.342  27.106 -41.058  1.00  0.00    -0.297 N 
HETATM    7  C2  UNL     1      28.152  27.507 -42.043  1.00  0.00     0.146 A 
HETATM    8  N2  UNL     1      28.918  28.606 -42.155  1.00  0.00    -0.314 N 
HETATM    9  C3  UNL     1      28.150  26.593 -43.083  1.00  0.00     0.146 A 
HETATM   10  C1  UNL     1      29.656  28.788 -43.261  1.00  0.00     0.196 A 
ATOM     11  H2  UNL     1      28.937  29.296 -41.405  1.00  0.00     0.170 HD
HETATM   12  N1  UNL     1      30.456  29.985 -43.322  1.00  0.00    -0.063 NA
HETATM   13  N5  UNL     1      29.660  27.895 -44.286  1.00  0.00    -0.295 N 
HETATM   14  C10 UNL     1      28.910  26.790 -44.211  1.00  0.00     0.278 A 
ATOM     15  H5  UNL     1      30.233  28.068 -45.111  1.00  0.00     0.171 HD
HETATM   16  O14 UNL     1      28.920  25.975 -45.159  1.00  0.00    -0.265 OA
HETATM   17  N3  UNL     1      27.297  25.613 -42.682  1.00  0.00    -0.345 N 
HETATM   18  C4  UNL     1      26.811  25.935 -41.450  1.00  0.00     0.188 A 
ATOM     19  H3  UNL     1      27.060  24.775 -43.214  1.00  0.00     0.167 HD
ENDBRANCH   1   6
BRANCH   5  20
HETATM   20  O13 UNL     1      26.656  30.058 -40.317  1.00  0.00    -0.388 OA
ATOM     21  H13 UNL     1      26.884  30.559 -39.542  1.00  0.00     0.210 HD
ENDBRANCH   5  20
BRANCH   3  22
HETATM   22  C7  UNL     1      25.632  27.256 -36.692  1.00  0.00     0.216 C 
BRANCH  22  23
HETATM   23  O2  UNL     1      26.154  27.582 -35.482  1.00  0.00    -0.287 OA
BRANCH  23  24
HETATM   24  P1  UNL     1      25.320  28.688 -34.581  1.00  0.00     0.417 P 
HETATM   25  O3  UNL     1      24.022  28.411 -35.310  1.00  0.00    -0.624 OA
HETATM   26  O4  UNL     1      24.623  28.113 -33.127  1.00  0.00    -0.624 OA
BRANCH  24  27
HETATM   27  O5  UNL     1      25.390  30.254 -34.876  1.00  0.00    -0.180 OA
BRANCH  27  28
HETATM   28  P2  UNL     1      24.313  31.311 -34.953  1.00  0.00     0.428 P 
HETATM   29  O6  UNL     1      25.367  32.121 -35.964  1.00  0.00    -0.624 OA
HETATM   30  O7  UNL     1      24.387  31.713 -33.361  1.00  0.00    -0.624 OA
BRANCH  28  31
HETATM   31  O8  UNL     1      23.290  32.430 -35.329  1.00  0.00    -0.173 OA
BRANCH  31  32
HETATM   32  P3  UNL     1      21.691  31.794 -35.221  1.00  0.00     0.431 P 
HETATM   33  O9  UNL     1      21.371  32.562 -36.511  1.00  0.00    -0.616 OA
HETATM   34  O10 UNL     1      21.373  30.370 -35.960  1.00  0.00    -0.616 OA
HETATM   35  O11 UNL     1      20.638  32.541 -34.287  1.00  0.00    -0.616 OA
ENDBRANCH  31  32
ENDBRANCH  28  31
ENDBRANCH  27  28
ENDBRANCH  24  27
ENDBRANCH  23  24
ENDBRANCH  22  23
ENDBRANCH   3  22
BRANCH   4  36
HETATM   36  O12 UNL     1      25.908  30.229 -37.952  1.00  0.00    -0.390 OA
ATOM     37  H12 UNL     1      26.361  30.080 -37.130  1.00  0.00     0.210 HD
ENDBRANCH   4  36
TORSDOF 10
ENDMDL
