MODEL 9
REMARK VINA RESULT: -7.410599102      5.630      9.860
REMARK  10 active torsions:
REMARK  status: ('A' for Active; 'I' for Inactive)
REMARK    1  A    between atoms: N4_10  and  C5_11 
REMARK    2  A    between atoms: C6_13  and  C7_14 
REMARK    3  A    between atoms: C7_14  and  O2_15 
REMARK    4  A    between atoms: O2_15  and  P1_16 
REMARK    5  A    between atoms: P1_16  and  O5_19 
REMARK    6  A    between atoms: O5_19  and  P2_20 
REMARK    7  A    between atoms: P2_20  and  O8_23 
REMARK    8  A    between atoms: O8_23  and  P3_24 
REMARK    9  A    between atoms: C8_28  and  O12_29 
REMARK   10  A    between atoms: C9_31  and  O13_32 
ROOT
HETATM    1  C5  UNL     1      26.789  27.718 -41.297  1.00  0.00     0.262 C 
HETATM    2  O1  UNL     1      26.791  26.327 -41.360  1.00  0.00    -0.353 OA
HETATM    3  C6  UNL     1      27.704  26.117 -42.416  1.00  0.00     0.180 C 
HETATM    4  C8  UNL     1      28.892  26.920 -41.956  1.00  0.00     0.182 C 
HETATM    5  C9  UNL     1      28.237  28.037 -41.131  1.00  0.00     0.198 C 
ENDROOT
BRANCH   1   6
HETATM    6  N4  UNL     1      25.966  28.235 -40.235  1.00  0.00    -0.297 N 
HETATM    7  C2  UNL     1      25.816  27.698 -39.020  1.00  0.00     0.146 A 
HETATM    8  N2  UNL     1      26.358  26.592 -38.479  1.00  0.00    -0.314 N 
HETATM    9  C3  UNL     1      24.950  28.455 -38.251  1.00  0.00     0.146 A 
HETATM   10  C1  UNL     1      26.049  26.254 -37.218  1.00  0.00     0.196 A 
ATOM     11  H2  UNL     1      26.998  26.015 -39.024  1.00  0.00     0.170 HD
HETATM   12  N1  UNL     1      26.661  25.059 -36.694  1.00  0.00    -0.063 NA
HETATM   13  N5  UNL     1      25.200  26.993 -36.456  1.00  0.00    -0.295 N 
HETATM   14  C10 UNL     1      24.641  28.098 -36.960  1.00  0.00     0.278 A 
ATOM     15  H5  UNL     1      24.989  26.704 -35.501  1.00  0.00     0.171 HD
HETATM   16  O14 UNL     1      23.861  28.771 -36.251  1.00  0.00    -0.265 OA
HETATM   17  N3  UNL     1      24.578  29.484 -39.058  1.00  0.00    -0.345 N 
HETATM   18  C4  UNL     1      25.200  29.341 -40.262  1.00  0.00     0.188 A 
ATOM     19  H3  UNL     1      23.939  30.238 -38.805  1.00  0.00     0.167 HD
ENDBRANCH   1   6
BRANCH   5  20
HETATM   20  O13 UNL     1      28.515  29.251 -41.718  1.00  0.00    -0.388 OA
ATOM     21  H13 UNL     1      28.146  29.953 -41.194  1.00  0.00     0.210 HD
ENDBRANCH   5  20
BRANCH   3  22
HETATM   22  C7  UNL     1      27.980  24.653 -42.498  1.00  0.00     0.216 C 
BRANCH  22  23
HETATM   23  O2  UNL     1      27.620  24.159 -43.710  1.00  0.00    -0.287 OA
BRANCH  23  24
HETATM   24  P1  UNL     1      28.814  24.015 -44.843  1.00  0.00     0.417 P 
HETATM   25  O3  UNL     1      29.760  23.347 -43.867  1.00  0.00    -0.624 OA
HETATM   26  O4  UNL     1      28.792  22.591 -45.793  1.00  0.00    -0.624 OA
BRANCH  24  27
HETATM   27  O5  UNL     1      29.761  25.235 -45.242  1.00  0.00    -0.180 OA
BRANCH  27  28
HETATM   28  P2  UNL     1      30.047  25.893 -46.572  1.00  0.00     0.428 P 
HETATM   29  O6  UNL     1      31.189  24.690 -46.771  1.00  0.00    -0.624 OA
HETATM   30  O7  UNL     1      30.588  27.303 -45.925  1.00  0.00    -0.624 OA
BRANCH  28  31
HETATM   31  O8  UNL     1      30.381  26.282 -48.047  1.00  0.00    -0.173 OA
BRANCH  31  32
HETATM   32  P3  UNL     1      29.834  25.031 -49.101  1.00  0.00     0.431 P 
HETATM   33  O9  UNL     1      29.392  26.135 -50.071  1.00  0.00    -0.616 OA
HETATM   34  O10 UNL     1      30.880  24.440 -50.209  1.00  0.00    -0.616 OA
HETATM   35  O11 UNL     1      28.390  24.406 -48.850  1.00  0.00    -0.616 OA
ENDBRANCH  31  32
ENDBRANCH  28  31
ENDBRANCH  27  28
ENDBRANCH  24  27
ENDBRANCH  23  24
ENDBRANCH  22  23
ENDBRANCH   3  22
BRANCH   4  36
HETATM   36  O12 UNL     1      29.533  27.437 -43.079  1.00  0.00    -0.390 OA
ATOM     37  H12 UNL     1      29.741  28.348 -42.911  1.00  0.00     0.210 HD
ENDBRANCH   4  36
TORSDOF 10
ENDMDL
