MODEL 12
REMARK VINA RESULT: -7.273446711      4.039      5.649
REMARK  10 active torsions:
REMARK  status: ('A' for Active; 'I' for Inactive)
REMARK    1  A    between atoms: N4_10  and  C5_11 
REMARK    2  A    between atoms: C6_13  and  C7_14 
REMARK    3  A    between atoms: C7_14  and  O2_15 
REMARK    4  A    between atoms: O2_15  and  P1_16 
REMARK    5  A    between atoms: P1_16  and  O5_19 
REMARK    6  A    between atoms: O5_19  and  P2_20 
REMARK    7  A    between atoms: P2_20  and  O8_23 
REMARK    8  A    between atoms: O8_23  and  P3_24 
REMARK    9  A    between atoms: C8_28  and  O12_29 
REMARK   10  A    between atoms: C9_31  and  O13_32 
ROOT
HETATM    1  C5  UNL     1      30.633  24.876 -43.586  1.00  0.00     0.262 C 
HETATM    2  O1  UNL     1      30.008  25.942 -42.945  1.00  0.00    -0.353 OA
HETATM    3  C6  UNL     1      28.688  25.791 -43.419  1.00  0.00     0.180 C 
HETATM    4  C8  UNL     1      28.406  24.350 -43.081  1.00  0.00     0.182 C 
HETATM    5  C9  UNL     1      29.799  23.712 -43.167  1.00  0.00     0.198 C 
ENDROOT
BRANCH   1   6
HETATM    6  N4  UNL     1      32.022  24.738 -43.233  1.00  0.00    -0.297 N 
HETATM    7  C2  UNL     1      32.580  25.096 -42.072  1.00  0.00     0.146 A 
HETATM    8  N2  UNL     1      32.037  25.652 -40.974  1.00  0.00    -0.314 N 
HETATM    9  C3  UNL     1      33.936  24.823 -42.073  1.00  0.00     0.146 A 
HETATM   10  C1  UNL     1      32.815  25.923 -39.916  1.00  0.00     0.196 A 
ATOM     11  H2  UNL     1      31.040  25.865 -40.946  1.00  0.00     0.170 HD
HETATM   12  N1  UNL     1      32.176  26.517 -38.769  1.00  0.00    -0.063 NA
HETATM   13  N5  UNL     1      34.149  25.657 -39.909  1.00  0.00    -0.295 N 
HETATM   14  C10 UNL     1      34.725  25.105 -40.983  1.00  0.00     0.278 A 
ATOM     15  H5  UNL     1      34.709  25.877 -39.086  1.00  0.00     0.171 HD
HETATM   16  O14 UNL     1      35.952  24.865 -40.967  1.00  0.00    -0.265 OA
HETATM   17  N3  UNL     1      34.180  24.278 -43.295  1.00  0.00    -0.345 N 
HETATM   18  C4  UNL     1      33.010  24.232 -43.992  1.00  0.00     0.188 A 
ATOM     19  H3  UNL     1      35.087  23.957 -43.633  1.00  0.00     0.167 HD
ENDBRANCH   1   6
BRANCH   5  20
HETATM   20  O13 UNL     1      29.796  22.760 -44.162  1.00  0.00    -0.388 OA
ATOM     21  H13 UNL     1      28.945  22.740 -44.585  1.00  0.00     0.210 HD
ENDBRANCH   5  20
BRANCH   3  22
HETATM   22  C7  UNL     1      27.822  26.750 -42.673  1.00  0.00     0.216 C 
BRANCH  22  23
HETATM   23  O2  UNL     1      27.187  26.132 -41.645  1.00  0.00    -0.287 OA
BRANCH  23  24
HETATM   24  P1  UNL     1      26.619  27.096 -40.428  1.00  0.00     0.417 P 
HETATM   25  O3  UNL     1      28.014  27.393 -39.915  1.00  0.00    -0.624 OA
HETATM   26  O4  UNL     1      26.410  28.752 -40.807  1.00  0.00    -0.624 OA
BRANCH  24  27
HETATM   27  O5  UNL     1      26.027  26.499 -39.073  1.00  0.00    -0.180 OA
BRANCH  27  28
HETATM   28  P2  UNL     1      26.218  26.900 -37.629  1.00  0.00     0.428 P 
HETATM   29  O6  UNL     1      25.957  25.287 -37.285  1.00  0.00    -0.624 OA
HETATM   30  O7  UNL     1      24.896  27.874 -37.571  1.00  0.00    -0.624 OA
BRANCH  28  31
HETATM   31  O8  UNL     1      26.558  27.040 -36.111  1.00  0.00    -0.173 OA
BRANCH  31  32
HETATM   32  P3  UNL     1      28.270  27.065 -35.914  1.00  0.00     0.431 P 
HETATM   33  O9  UNL     1      28.286  28.317 -36.802  1.00  0.00    -0.616 OA
HETATM   34  O10 UNL     1      28.893  27.913 -34.663  1.00  0.00    -0.616 OA
HETATM   35  O11 UNL     1      29.157  26.145 -36.865  1.00  0.00    -0.616 OA
ENDBRANCH  31  32
ENDBRANCH  28  31
ENDBRANCH  27  28
ENDBRANCH  24  27
ENDBRANCH  23  24
ENDBRANCH  22  23
ENDBRANCH   3  22
BRANCH   4  36
HETATM   36  O12 UNL     1      27.555  23.831 -44.054  1.00  0.00    -0.390 OA
ATOM     37  H12 UNL     1      27.816  22.935 -44.230  1.00  0.00     0.210 HD
ENDBRANCH   4  36
TORSDOF 10
ENDMDL
