MODEL 4
REMARK VINA RESULT: -5.718095992      2.606      6.344
REMARK  6 active torsions:
REMARK  status: ('A' for Active; 'I' for Inactive)
REMARK    1  A    between atoms: S1_2  and  C2_3 
REMARK    2  A    between atoms: C2_3  and  C3_4 
REMARK    3  A    between atoms: C4_6  and  N1_7 
REMARK    4  A    between atoms: C10_19  and  O2_20 
REMARK    5  A    between atoms: C11_22  and  O3_23 
REMARK    6  A    between atoms: C12_25  and  O4_26 
ROOT
HETATM    1  N1  UNL     1      -4.353  22.862 -10.497  1.00  0.00    -0.297 N 
HETATM    2  C5  UNL     1      -3.624  22.324 -11.476  1.00  0.00     0.187 A 
HETATM    3  N2  UNL     1      -2.409  22.002 -10.988  1.00  0.00    -0.350 N 
ATOM      4  H2  UNL     1      -1.650  21.574 -11.516  1.00  0.00     0.166 HD
HETATM    5  C6  UNL     1      -2.367  22.340  -9.689  1.00  0.00     0.085 A 
HETATM    6  C7  UNL     1      -3.588  22.876  -9.396  1.00  0.00     0.137 A 
HETATM    7  N3  UNL     1      -4.033  23.379  -8.149  1.00  0.00    -0.337 N 
ATOM      8  H3  UNL     1      -4.877  23.951  -8.176  1.00  0.00     0.168 HD
HETATM    9  C8  UNL     1      -3.513  23.208  -6.992  1.00  0.00     0.177 C 
HETATM   10  N4  UNL     1      -2.344  22.457  -6.691  1.00  0.00    -0.383 N 
ATOM     11  H4  UNL     1      -2.074  22.513  -5.709  1.00  0.00     0.160 HD
HETATM   12  C9  UNL     1      -1.466  21.642  -7.469  1.00  0.00     0.158 C 
HETATM   13  C10 UNL     1      -1.183  22.131  -8.849  1.00  0.00     0.189 C 
ENDROOT
BRANCH   1  14
HETATM   14  C4  UNL     1      -5.709  23.360 -10.547  1.00  0.00     0.262 C 
HETATM   15  O1  UNL     1      -6.671  22.395 -10.549  1.00  0.00    -0.355 OA
HETATM   16  C3  UNL     1      -7.601  22.667 -11.524  1.00  0.00     0.165 C 
HETATM   17  C12 UNL     1      -7.312  24.010 -12.124  1.00  0.00     0.180 C 
HETATM   18  C11 UNL     1      -5.845  24.185 -11.806  1.00  0.00     0.198 C 
BRANCH  16  19
HETATM   19  C2  UNL     1      -7.564  21.573 -12.555  1.00  0.00     0.108 C 
BRANCH  19  20
HETATM   20  S1  UNL     1      -8.448  20.093 -12.095  1.00  0.00    -0.171 SA
HETATM   21  C1  UNL     1      -9.678  19.569 -13.284  1.00  0.00     0.089 C 
ENDBRANCH  19  20
ENDBRANCH  16  19
BRANCH  17  22
HETATM   22  O4  UNL     1      -7.994  25.041 -11.455  1.00  0.00    -0.390 OA
ATOM     23  H4  UNL     1      -8.923  24.861 -11.378  1.00  0.00     0.210 HD
ENDBRANCH  17  22
BRANCH  18  24
HETATM   24  O3  UNL     1      -5.496  25.491 -11.524  1.00  0.00    -0.388 OA
ATOM     25  H3  UNL     1      -4.633  25.663 -11.882  1.00  0.00     0.210 HD
ENDBRANCH  18  24
ENDBRANCH   1  14
BRANCH  13  26
HETATM   26  O2  UNL     1      -0.369  21.152  -9.459  1.00  0.00    -0.388 OA
ATOM     27  H2  UNL     1       0.366  20.972  -8.884  1.00  0.00     0.210 HD
ENDBRANCH  13  26
TORSDOF 6
ENDMDL
