MODEL 3
REMARK VINA RESULT: -5.922690636      2.780      5.935
REMARK  6 active torsions:
REMARK  status: ('A' for Active; 'I' for Inactive)
REMARK    1  A    between atoms: S1_2  and  C2_3 
REMARK    2  A    between atoms: C2_3  and  C3_4 
REMARK    3  A    between atoms: C4_6  and  N1_7 
REMARK    4  A    between atoms: C10_19  and  O2_20 
REMARK    5  A    between atoms: C11_22  and  O3_23 
REMARK    6  A    between atoms: C12_25  and  O4_26 
ROOT
HETATM    1  N1  UNL     1      -4.503  22.702  -8.558  1.00  0.00    -0.297 N 
HETATM    2  C5  UNL     1      -4.371  22.374  -7.272  1.00  0.00     0.187 A 
HETATM    3  N2  UNL     1      -3.261  21.623  -7.127  1.00  0.00    -0.350 N 
ATOM      4  H2  UNL     1      -2.917  21.234  -6.249  1.00  0.00     0.166 HD
HETATM    5  C6  UNL     1      -2.685  21.473  -8.330  1.00  0.00     0.085 A 
HETATM    6  C7  UNL     1      -3.472  22.152  -9.215  1.00  0.00     0.137 A 
HETATM    7  N3  UNL     1      -3.278  22.291 -10.611  1.00  0.00    -0.337 N 
ATOM      8  H3  UNL     1      -4.083  22.626 -11.140  1.00  0.00     0.168 HD
HETATM    9  C8  UNL     1      -2.224  22.052 -11.295  1.00  0.00     0.177 C 
HETATM   10  N4  UNL     1      -0.979  21.580 -10.795  1.00  0.00    -0.383 N 
ATOM     11  H4  UNL     1      -0.297  21.394 -11.531  1.00  0.00     0.160 HD
HETATM   12  C9  UNL     1      -0.479  21.310  -9.485  1.00  0.00     0.158 C 
HETATM   13  C10 UNL     1      -1.454  20.702  -8.534  1.00  0.00     0.189 C 
ENDROOT
BRANCH   1  14
HETATM   14  C4  UNL     1      -5.538  23.490  -9.190  1.00  0.00     0.262 C 
HETATM   15  O1  UNL     1      -6.537  22.765  -9.764  1.00  0.00    -0.355 OA
HETATM   16  C3  UNL     1      -6.798  23.246 -11.024  1.00  0.00     0.165 C 
HETATM   17  C12 UNL     1      -6.003  24.497 -11.250  1.00  0.00     0.180 C 
HETATM   18  C11 UNL     1      -4.879  24.337 -10.253  1.00  0.00     0.198 C 
BRANCH  16  19
HETATM   19  C2  UNL     1      -6.467  22.182 -12.034  1.00  0.00     0.108 C 
BRANCH  19  20
HETATM   20  S1  UNL     1      -7.887  21.442 -12.821  1.00  0.00    -0.171 SA
HETATM   21  C1  UNL     1      -8.549  20.020 -11.960  1.00  0.00     0.089 C 
ENDBRANCH  19  20
ENDBRANCH  16  19
BRANCH  17  22
HETATM   22  O4  UNL     1      -6.716  25.648 -10.871  1.00  0.00    -0.390 OA
ATOM     23  H4  UNL     1      -6.512  25.915  -9.983  1.00  0.00     0.210 HD
ENDBRANCH  17  22
BRANCH  18  24
HETATM   24  O3  UNL     1      -4.473  25.530  -9.687  1.00  0.00    -0.388 OA
ATOM     25  H3  UNL     1      -4.545  26.219 -10.337  1.00  0.00     0.210 HD
ENDBRANCH  18  24
ENDBRANCH   1  14
BRANCH  13  26
HETATM   26  O2  UNL     1      -0.785  20.592  -7.295  1.00  0.00    -0.388 OA
ATOM     27  H2  UNL     1       0.116  20.338  -7.462  1.00  0.00     0.210 HD
ENDBRANCH  13  26
TORSDOF 6
ENDMDL
