MODEL 5
REMARK VINA RESULT: -5.179513339      1.978      2.920
REMARK  6 active torsions:
REMARK  status: ('A' for Active; 'I' for Inactive)
REMARK    1  A    between atoms: S1_2  and  C2_3 
REMARK    2  A    between atoms: C2_3  and  C3_4 
REMARK    3  A    between atoms: C4_6  and  N1_7 
REMARK    4  A    between atoms: C10_19  and  O2_20 
REMARK    5  A    between atoms: C11_22  and  O3_23 
REMARK    6  A    between atoms: C12_25  and  O4_26 
ROOT
HETATM    1  N1  UNL     1      -4.161  24.526  -9.740  1.00  0.00    -0.297 N 
HETATM    2  C5  UNL     1      -4.654  25.764  -9.699  1.00  0.00     0.187 A 
HETATM    3  N2  UNL     1      -5.591  25.891 -10.660  1.00  0.00    -0.350 N 
ATOM      4  H2  UNL     1      -6.133  26.733 -10.855  1.00  0.00     0.166 HD
HETATM    5  C6  UNL     1      -5.692  24.725 -11.316  1.00  0.00     0.085 A 
HETATM    6  C7  UNL     1      -4.792  23.880 -10.731  1.00  0.00     0.137 A 
HETATM    7  N3  UNL     1      -4.528  22.531 -11.070  1.00  0.00    -0.337 N 
ATOM      8  H3  UNL     1      -3.668  22.138 -10.689  1.00  0.00     0.168 HD
HETATM    9  C8  UNL     1      -5.229  21.741 -11.793  1.00  0.00     0.177 C 
HETATM   10  N4  UNL     1      -6.460  22.048 -12.434  1.00  0.00    -0.383 N 
ATOM     11  H4  UNL     1      -6.810  21.287 -13.015  1.00  0.00     0.160 HD
HETATM   12  C9  UNL     1      -7.313  23.194 -12.438  1.00  0.00     0.158 C 
HETATM   13  C10 UNL     1      -6.620  24.515 -12.432  1.00  0.00     0.189 C 
ENDROOT
BRANCH   1  14
HETATM   14  C4  UNL     1      -3.137  23.931  -8.910  1.00  0.00     0.262 C 
HETATM   15  O1  UNL     1      -2.031  23.508  -9.583  1.00  0.00    -0.355 OA
HETATM   16  C3  UNL     1      -1.690  22.243  -9.169  1.00  0.00     0.165 C 
HETATM   17  C12 UNL     1      -2.557  21.849  -8.011  1.00  0.00     0.180 C 
HETATM   18  C11 UNL     1      -3.756  22.750  -8.200  1.00  0.00     0.198 C 
BRANCH  16  19
HETATM   19  C2  UNL     1      -1.834  21.293 -10.326  1.00  0.00     0.108 C 
BRANCH  19  20
HETATM   20  S1  UNL     1      -1.166  19.665 -10.033  1.00  0.00    -0.171 SA
HETATM   21  C1  UNL     1       0.545  19.654  -9.508  1.00  0.00     0.089 C 
ENDBRANCH  19  20
ENDBRANCH  16  19
BRANCH  17  22
HETATM   22  O4  UNL     1      -1.980  22.201  -6.779  1.00  0.00    -0.390 OA
ATOM     23  H4  UNL     1      -1.081  22.489  -6.878  1.00  0.00     0.210 HD
ENDBRANCH  17  22
BRANCH  18  24
HETATM   24  O3  UNL     1      -4.311  23.183  -7.011  1.00  0.00    -0.388 OA
ATOM     25  H3  UNL     1      -4.666  22.434  -6.548  1.00  0.00     0.210 HD
ENDBRANCH  18  24
ENDBRANCH   1  14
BRANCH  13  26
HETATM   26  O2  UNL     1      -7.634  25.495 -12.361  1.00  0.00    -0.388 OA
ATOM     27  H2  UNL     1      -8.310  25.274 -12.991  1.00  0.00     0.210 HD
ENDBRANCH  13  26
TORSDOF 6
ENDMDL
