MODEL 7
REMARK VINA RESULT: -5.030112226      2.841      5.947
REMARK  6 active torsions:
REMARK  status: ('A' for Active; 'I' for Inactive)
REMARK    1  A    between atoms: S1_2  and  C2_3 
REMARK    2  A    between atoms: C2_3  and  C3_4 
REMARK    3  A    between atoms: C4_6  and  N1_7 
REMARK    4  A    between atoms: C10_19  and  O2_20 
REMARK    5  A    between atoms: C11_22  and  O3_23 
REMARK    6  A    between atoms: C12_25  and  O4_26 
ROOT
HETATM    1  N1  UNL     1      -4.276  22.733  -8.492  1.00  0.00    -0.297 N 
HETATM    2  C5  UNL     1      -4.167  22.329  -7.225  1.00  0.00     0.187 A 
HETATM    3  N2  UNL     1      -3.104  21.506  -7.121  1.00  0.00    -0.350 N 
ATOM      4  H2  UNL     1      -2.786  21.050  -6.266  1.00  0.00     0.166 HD
HETATM    5  C6  UNL     1      -2.535  21.386  -8.331  1.00  0.00     0.085 A 
HETATM    6  C7  UNL     1      -3.277  22.158  -9.178  1.00  0.00     0.137 A 
HETATM    7  N3  UNL     1      -3.072  22.360 -10.565  1.00  0.00    -0.337 N 
ATOM      8  H3  UNL     1      -3.854  22.770 -11.074  1.00  0.00     0.168 HD
HETATM    9  C8  UNL     1      -2.032  22.095 -11.261  1.00  0.00     0.177 C 
HETATM   10  N4  UNL     1      -0.819  21.524 -10.788  1.00  0.00    -0.383 N 
ATOM     11  H4  UNL     1      -0.147  21.337 -11.532  1.00  0.00     0.160 HD
HETATM   12  C9  UNL     1      -0.339  21.154  -9.495  1.00  0.00     0.158 C 
HETATM   13  C10 UNL     1      -1.352  20.556  -8.576  1.00  0.00     0.189 C 
ENDROOT
BRANCH   1  14
HETATM   14  C4  UNL     1      -5.260  23.614  -9.079  1.00  0.00     0.262 C 
HETATM   15  O1  UNL     1      -6.206  22.990  -9.835  1.00  0.00    -0.355 OA
HETATM   16  C3  UNL     1      -6.366  23.657 -11.026  1.00  0.00     0.165 C 
HETATM   17  C12 UNL     1      -5.562  24.922 -10.997  1.00  0.00     0.180 C 
HETATM   18  C11 UNL     1      -4.521  24.606  -9.947  1.00  0.00     0.198 C 
BRANCH  16  19
HETATM   19  C2  UNL     1      -5.949  22.754 -12.153  1.00  0.00     0.108 C 
BRANCH  19  20
HETATM   20  S1  UNL     1      -6.331  23.379 -13.781  1.00  0.00    -0.171 SA
HETATM   21  C1  UNL     1      -6.410  25.163 -13.885  1.00  0.00     0.089 C 
ENDBRANCH  19  20
ENDBRANCH  16  19
BRANCH  17  22
HETATM   22  O4  UNL     1      -6.309  26.008 -10.508  1.00  0.00    -0.390 OA
ATOM     23  H4  UNL     1      -6.166  26.795 -11.018  1.00  0.00     0.210 HD
ENDBRANCH  17  22
BRANCH  18  24
HETATM   24  O3  UNL     1      -4.168  25.698  -9.177  1.00  0.00    -0.388 OA
ATOM     25  H3  UNL     1      -4.761  25.756  -8.438  1.00  0.00     0.210 HD
ENDBRANCH  18  24
ENDBRANCH   1  14
BRANCH  13  26
HETATM   26  O2  UNL     1      -0.693  20.339  -7.346  1.00  0.00    -0.388 OA
ATOM     27  H2  UNL     1      -1.331  20.417  -6.646  1.00  0.00     0.210 HD
ENDBRANCH  13  26
TORSDOF 6
ENDMDL
