MODEL 9
REMARK VINA RESULT: -12.248735124      1.834      4.847
REMARK  6 active torsions:
REMARK  status: ('A' for Active; 'I' for Inactive)
REMARK    1  A    between atoms: C1_2  and  C2_4 
REMARK    2  A    between atoms: C6_8  and  C7_9 
REMARK    3  A    between atoms: C10_12  and  O3_13 
REMARK    4  A    between atoms: O3_13  and  C11_14 
REMARK    5  A    between atoms: C11_14  and  C12_15 
REMARK    6  A    between atoms: C14_17  and  C15_18 
ROOT
HETATM    1  O3  UNL     1      48.497  31.538  46.321  1.00  0.00    -0.347 OA
ENDROOT
BRANCH   1   2
HETATM    2  C10 UNL     1      48.503  31.759  44.991  1.00  0.00     0.069 A 
HETATM    3  C9  UNL     1      49.484  31.386  44.080  1.00  0.00     0.037 A 
HETATM    4  C8  UNL     1      49.404  31.700  42.737  1.00  0.00     0.012 A 
HETATM    5  C7  UNL     1      48.323  32.411  42.248  1.00  0.00    -0.035 A 
HETATM    6  C28 UNL     1      47.331  32.792  43.117  1.00  0.00     0.012 A 
HETATM    7  C27 UNL     1      47.412  32.481  44.440  1.00  0.00     0.037 A 
BRANCH   5   8
HETATM    8  C6  UNL     1      48.264  32.730  40.801  1.00  0.00     0.119 C 
HETATM    9  C5  UNL     1      47.659  31.608  40.012  1.00  0.00     0.050 C 
HETATM   10  C4  UNL     1      48.288  31.778  38.676  1.00  0.00     0.057 A 
HETATM   11  C2  UNL     1      48.147  30.822  37.534  1.00  0.00     0.106 A 
HETATM   12  C3  UNL     1      47.579  32.211  37.482  1.00  0.00     0.036 A 
HETATM   13  C29 UNL     1      49.681  32.131  39.036  1.00  0.00     0.228 C 
HETATM   14  N2  UNL     1      49.550  32.983  40.234  1.00  0.00    -0.352 N 
HETATM   15  O4  UNL     1      50.754  31.874  38.563  1.00  0.00    -0.273 OA
ATOM     16  H2  UNL     1      50.250  33.634  40.591  1.00  0.00     0.163 HD
BRANCH  11  17
HETATM   17  C1  UNL     1      47.321  29.639  37.568  1.00  0.00     0.178 C 
HETATM   18  O1  UNL     1      46.280  29.303  37.278  1.00  0.00    -0.648 OA
HETATM   19  O2  UNL     1      48.148  28.523  38.226  1.00  0.00    -0.648 OA
ENDBRANCH  11  17
ENDBRANCH   5   8
ENDBRANCH   1   2
BRANCH   1  20
HETATM   20  C11 UNL     1      47.520  30.828  47.036  1.00  0.00     0.215 C 
BRANCH  20  21
HETATM   21  C12 UNL     1      47.976  29.432  47.241  1.00  0.00    -0.019 A 
HETATM   22  C13 UNL     1      49.289  29.053  47.448  1.00  0.00     0.040 A 
HETATM   23  C14 UNL     1      49.659  27.738  47.737  1.00  0.00     0.043 A 
HETATM   24  N1  UNL     1      48.650  26.878  47.790  1.00  0.00    -0.355 N 
HETATM   25  C21 UNL     1      47.356  27.158  47.590  1.00  0.00     0.043 A 
ATOM     26  H1  UNL     1      48.882  25.908  48.004  1.00  0.00     0.166 HD
HETATM   27  C22 UNL     1      46.400  26.188  47.484  1.00  0.00     0.030 A 
HETATM   28  C26 UNL     1      47.005  28.450  47.317  1.00  0.00    -0.001 A 
HETATM   29  C23 UNL     1      45.097  26.462  47.119  1.00  0.00     0.002 A 
HETATM   30  C24 UNL     1      44.693  27.757  46.845  1.00  0.00     0.001 A 
HETATM   31  C25 UNL     1      45.713  28.751  46.958  1.00  0.00     0.014 A 
BRANCH  23  32
HETATM   32  C15 UNL     1      51.045  27.313  47.903  1.00  0.00    -0.009 A 
HETATM   33  C16 UNL     1      51.458  26.165  47.276  1.00  0.00     0.013 A 
HETATM   34  C17 UNL     1      52.821  25.763  47.304  1.00  0.00     0.001 A 
HETATM   35  C18 UNL     1      53.752  26.536  47.974  1.00  0.00     0.000 A 
HETATM   36  C19 UNL     1      53.349  27.686  48.614  1.00  0.00     0.001 A 
HETATM   37  C20 UNL     1      51.978  28.073  48.572  1.00  0.00     0.013 A 
ENDBRANCH  23  32
ENDBRANCH  20  21
ENDBRANCH   1  20
TORSDOF 6
ENDMDL
