MODEL 7
REMARK VINA RESULT: -12.265646388      1.339      1.592
REMARK  6 active torsions:
REMARK  status: ('A' for Active; 'I' for Inactive)
REMARK    1  A    between atoms: C1_2  and  C2_4 
REMARK    2  A    between atoms: C6_8  and  C7_9 
REMARK    3  A    between atoms: C10_12  and  O3_13 
REMARK    4  A    between atoms: O3_13  and  C11_14 
REMARK    5  A    between atoms: C11_14  and  C12_15 
REMARK    6  A    between atoms: C14_17  and  C15_18 
ROOT
HETATM    1  O3  UNL     1      48.738  31.911  46.344  1.00  0.00    -0.347 OA
ENDROOT
BRANCH   1   2
HETATM    2  C10 UNL     1      48.949  31.697  45.030  1.00  0.00     0.069 A 
HETATM    3  C9  UNL     1      49.984  30.973  44.449  1.00  0.00     0.037 A 
HETATM    4  C8  UNL     1      50.125  30.850  43.080  1.00  0.00     0.012 A 
HETATM    5  C7  UNL     1      49.221  31.458  42.227  1.00  0.00    -0.035 A 
HETATM    6  C28 UNL     1      48.182  32.177  42.764  1.00  0.00     0.012 A 
HETATM    7  C27 UNL     1      48.045  32.297  44.112  1.00  0.00     0.037 A 
BRANCH   5   8
HETATM    8  C6  UNL     1      49.397  31.306  40.763  1.00  0.00     0.119 C 
HETATM    9  C5  UNL     1      49.127  32.590  40.038  1.00  0.00     0.050 C 
HETATM   10  C4  UNL     1      48.680  32.119  38.701  1.00  0.00     0.057 A 
HETATM   11  C2  UNL     1      48.137  32.998  37.620  1.00  0.00     0.106 A 
HETATM   12  C3  UNL     1      49.446  32.276  37.474  1.00  0.00     0.036 A 
HETATM   13  C29 UNL     1      47.833  30.955  39.055  1.00  0.00     0.228 C 
HETATM   14  N2  UNL     1      48.526  30.326  40.196  1.00  0.00    -0.352 N 
HETATM   15  O4  UNL     1      46.815  30.502  38.611  1.00  0.00    -0.273 OA
ATOM     16  H2  UNL     1      48.405  29.366  40.520  1.00  0.00     0.163 HD
BRANCH  11  17
HETATM   17  C1  UNL     1      48.042  34.435  37.718  1.00  0.00     0.178 C 
HETATM   18  O1  UNL     1      48.496  35.293  38.298  1.00  0.00    -0.648 OA
HETATM   19  O2  UNL     1      46.966  34.891  36.719  1.00  0.00    -0.648 OA
ENDBRANCH  11  17
ENDBRANCH   5   8
ENDBRANCH   1   2
BRANCH   1  20
HETATM   20  C11 UNL     1      49.405  31.273  47.402  1.00  0.00     0.215 C 
BRANCH  20  21
HETATM   21  C12 UNL     1      48.937  29.870  47.505  1.00  0.00    -0.019 A 
HETATM   22  C13 UNL     1      47.642  29.450  47.265  1.00  0.00     0.040 A 
HETATM   23  C14 UNL     1      47.270  28.105  47.276  1.00  0.00     0.043 A 
HETATM   24  N1  UNL     1      48.258  27.259  47.542  1.00  0.00    -0.355 N 
HETATM   25  C21 UNL     1      49.533  27.582  47.798  1.00  0.00     0.043 A 
ATOM     26  H1  UNL     1      48.024  26.266  47.554  1.00  0.00     0.166 HD
HETATM   27  C22 UNL     1      50.449  26.670  48.239  1.00  0.00     0.030 A 
HETATM   28  C26 UNL     1      49.886  28.901  47.775  1.00  0.00    -0.001 A 
HETATM   29  C23 UNL     1      51.716  27.028  48.655  1.00  0.00     0.002 A 
HETATM   30  C24 UNL     1      52.122  28.351  48.638  1.00  0.00     0.001 A 
HETATM   31  C25 UNL     1      51.143  29.284  48.178  1.00  0.00     0.014 A 
BRANCH  23  32
HETATM   32  C15 UNL     1      45.898  27.650  47.080  1.00  0.00    -0.009 A 
HETATM   33  C16 UNL     1      44.891  28.582  47.093  1.00  0.00     0.013 A 
HETATM   34  C17 UNL     1      43.550  28.218  46.792  1.00  0.00     0.001 A 
HETATM   35  C18 UNL     1      43.247  26.904  46.483  1.00  0.00     0.000 A 
HETATM   36  C19 UNL     1      44.247  25.959  46.474  1.00  0.00     0.001 A 
HETATM   37  C20 UNL     1      45.585  26.345  46.776  1.00  0.00     0.013 A 
ENDBRANCH  23  32
ENDBRANCH  20  21
ENDBRANCH   1  20
TORSDOF 6
ENDMDL
