MODEL 13
REMARK VINA RESULT: -11.894303643      2.449      5.042
REMARK  6 active torsions:
REMARK  status: ('A' for Active; 'I' for Inactive)
REMARK    1  A    between atoms: C1_2  and  C2_4 
REMARK    2  A    between atoms: C6_8  and  C7_9 
REMARK    3  A    between atoms: C10_12  and  O3_13 
REMARK    4  A    between atoms: O3_13  and  C11_14 
REMARK    5  A    between atoms: C11_14  and  C12_15 
REMARK    6  A    between atoms: C14_17  and  C15_18 
ROOT
HETATM    1  O3  UNL     1      50.161  31.309  46.315  1.00  0.00    -0.347 OA
ENDROOT
BRANCH   1   2
HETATM    2  C10 UNL     1      49.594  31.366  45.093  1.00  0.00     0.069 A 
HETATM    3  C9  UNL     1      48.345  31.880  44.767  1.00  0.00     0.037 A 
HETATM    4  C8  UNL     1      47.846  31.853  43.479  1.00  0.00     0.012 A 
HETATM    5  C7  UNL     1      48.591  31.300  42.452  1.00  0.00    -0.035 A 
HETATM    6  C28 UNL     1      49.832  30.787  42.735  1.00  0.00     0.012 A 
HETATM    7  C27 UNL     1      50.321  30.815  44.004  1.00  0.00     0.037 A 
BRANCH   5   8
HETATM    8  C6  UNL     1      48.029  31.287  41.080  1.00  0.00     0.119 C 
HETATM    9  C5  UNL     1      47.759  29.890  40.606  1.00  0.00     0.050 C 
HETATM   10  C4  UNL     1      47.888  30.019  39.131  1.00  0.00     0.057 A 
HETATM   11  C2  UNL     1      47.861  28.877  38.166  1.00  0.00     0.106 A 
HETATM   12  C3  UNL     1      46.778  29.917  38.196  1.00  0.00     0.036 A 
HETATM   13  C29 UNL     1      49.051  30.928  39.004  1.00  0.00     0.228 C 
HETATM   14  N2  UNL     1      48.898  31.885  40.117  1.00  0.00    -0.352 N 
HETATM   15  O4  UNL     1      49.969  31.002  38.234  1.00  0.00    -0.273 OA
ATOM     16  H2  UNL     1      49.333  32.805  40.185  1.00  0.00     0.163 HD
BRANCH  11  17
HETATM   17  C1  UNL     1      47.638  27.502  38.546  1.00  0.00     0.178 C 
HETATM   18  O1  UNL     1      46.814  26.729  38.544  1.00  0.00    -0.648 OA
HETATM   19  O2  UNL     1      48.950  26.978  39.152  1.00  0.00    -0.648 OA
ENDBRANCH  11  17
ENDBRANCH   5   8
ENDBRANCH   1   2
BRANCH   1  20
HETATM   20  C11 UNL     1      49.546  30.850  47.489  1.00  0.00     0.215 C 
BRANCH  20  21
HETATM   21  C12 UNL     1      49.456  29.370  47.453  1.00  0.00    -0.019 A 
HETATM   22  C13 UNL     1      50.541  28.514  47.421  1.00  0.00     0.040 A 
HETATM   23  C14 UNL     1      50.410  27.126  47.490  1.00  0.00     0.043 A 
HETATM   24  N1  UNL     1      49.159  26.692  47.582  1.00  0.00    -0.355 N 
HETATM   25  C21 UNL     1      48.055  27.450  47.606  1.00  0.00     0.043 A 
ATOM     26  H1  UNL     1      49.025  25.682  47.639  1.00  0.00     0.166 HD
HETATM   27  C22 UNL     1      46.798  26.922  47.522  1.00  0.00     0.030 A 
HETATM   28  C26 UNL     1      48.197  28.807  47.548  1.00  0.00    -0.001 A 
HETATM   29  C23 UNL     1      45.669  27.705  47.385  1.00  0.00     0.002 A 
HETATM   30  C24 UNL     1      45.763  29.085  47.333  1.00  0.00     0.001 A 
HETATM   31  C25 UNL     1      47.089  29.610  47.418  1.00  0.00     0.014 A 
BRANCH  23  32
HETATM   32  C15 UNL     1      51.540  26.208  47.401  1.00  0.00    -0.009 A 
HETATM   33  C16 UNL     1      51.985  25.603  48.549  1.00  0.00     0.013 A 
HETATM   34  C17 UNL     1      53.004  24.613  48.509  1.00  0.00     0.001 A 
HETATM   35  C18 UNL     1      53.563  24.249  47.297  1.00  0.00     0.000 A 
HETATM   36  C19 UNL     1      53.131  24.855  46.139  1.00  0.00     0.001 A 
HETATM   37  C20 UNL     1      52.106  25.843  46.201  1.00  0.00     0.013 A 
ENDBRANCH  23  32
ENDBRANCH  20  21
ENDBRANCH   1  20
TORSDOF 6
ENDMDL
