MODEL 11
REMARK VINA RESULT: -12.172291267      1.416      2.068
REMARK  6 active torsions:
REMARK  status: ('A' for Active; 'I' for Inactive)
REMARK    1  A    between atoms: C1_2  and  C2_4 
REMARK    2  A    between atoms: C6_8  and  C7_9 
REMARK    3  A    between atoms: C10_12  and  O3_13 
REMARK    4  A    between atoms: O3_13  and  C11_14 
REMARK    5  A    between atoms: C11_14  and  C12_15 
REMARK    6  A    between atoms: C14_17  and  C15_18 
ROOT
HETATM    1  O3  UNL     1      48.274  32.123  45.935  1.00  0.00    -0.347 OA
ENDROOT
BRANCH   1   2
HETATM    2  C10 UNL     1      48.583  32.009  44.627  1.00  0.00     0.069 A 
HETATM    3  C9  UNL     1      49.602  31.249  44.066  1.00  0.00     0.037 A 
HETATM    4  C8  UNL     1      49.854  31.236  42.707  1.00  0.00     0.012 A 
HETATM    5  C7  UNL     1      49.082  31.995  41.846  1.00  0.00    -0.035 A 
HETATM    6  C28 UNL     1      48.062  32.754  42.363  1.00  0.00     0.012 A 
HETATM    7  C27 UNL     1      47.816  32.766  43.701  1.00  0.00     0.037 A 
BRANCH   5   8
HETATM    8  C6  UNL     1      49.374  31.958  40.393  1.00  0.00     0.119 C 
HETATM    9  C5  UNL     1      50.075  33.204  39.939  1.00  0.00     0.050 C 
HETATM   10  C4  UNL     1      49.669  33.300  38.512  1.00  0.00     0.057 A 
HETATM   11  C2  UNL     1      49.970  34.456  37.612  1.00  0.00     0.106 A 
HETATM   12  C3  UNL     1      50.565  33.095  37.385  1.00  0.00     0.036 A 
HETATM   13  C29 UNL     1      48.243  32.902  38.572  1.00  0.00     0.228 C 
HETATM   14  N2  UNL     1      48.199  31.834  39.591  1.00  0.00    -0.352 N 
HETATM   15  O4  UNL     1      47.254  33.257  37.993  1.00  0.00    -0.273 OA
ATOM     16  H2  UNL     1      47.464  31.136  39.701  1.00  0.00     0.163 HD
BRANCH  11  17
HETATM   17  C1  UNL     1      50.759  35.600  38.002  1.00  0.00     0.178 C 
HETATM   18  O1  UNL     1      51.289  36.015  38.911  1.00  0.00    -0.648 OA
HETATM   19  O2  UNL     1      50.869  36.519  36.774  1.00  0.00    -0.648 OA
ENDBRANCH  11  17
ENDBRANCH   5   8
ENDBRANCH   1   2
BRANCH   1  20
HETATM   20  C11 UNL     1      48.979  31.548  47.003  1.00  0.00     0.215 C 
BRANCH  20  21
HETATM   21  C12 UNL     1      48.512  30.156  47.209  1.00  0.00    -0.019 A 
HETATM   22  C13 UNL     1      47.244  29.695  46.906  1.00  0.00     0.040 A 
HETATM   23  C14 UNL     1      46.881  28.352  47.023  1.00  0.00     0.043 A 
HETATM   24  N1  UNL     1      47.848  27.552  47.455  1.00  0.00    -0.355 N 
HETATM   25  C21 UNL     1      49.095  27.918  47.782  1.00  0.00     0.043 A 
ATOM     26  H1  UNL     1      47.620  26.563  47.548  1.00  0.00     0.166 HD
HETATM   27  C22 UNL     1      49.976  27.068  48.388  1.00  0.00     0.030 A 
HETATM   28  C26 UNL     1      49.441  29.233  47.654  1.00  0.00    -0.001 A 
HETATM   29  C23 UNL     1      51.201  27.485  48.869  1.00  0.00     0.002 A 
HETATM   30  C24 UNL     1      51.599  28.805  48.753  1.00  0.00     0.001 A 
HETATM   31  C25 UNL     1      50.657  29.672  48.120  1.00  0.00     0.014 A 
BRANCH  23  32
HETATM   32  C15 UNL     1      45.533  27.861  46.760  1.00  0.00    -0.009 A 
HETATM   33  C16 UNL     1      45.369  26.535  46.447  1.00  0.00     0.013 A 
HETATM   34  C17 UNL     1      44.072  25.972  46.296  1.00  0.00     0.001 A 
HETATM   35  C18 UNL     1      42.953  26.768  46.464  1.00  0.00     0.000 A 
HETATM   36  C19 UNL     1      43.105  28.101  46.770  1.00  0.00     0.001 A 
HETATM   37  C20 UNL     1      44.413  28.645  46.920  1.00  0.00     0.013 A 
ENDBRANCH  23  32
ENDBRANCH  20  21
ENDBRANCH   1  20
TORSDOF 6
ENDMDL
