MODEL 1
REMARK VINA RESULT: -13.224028874      0.000      0.000
REMARK  6 active torsions:
REMARK  status: ('A' for Active; 'I' for Inactive)
REMARK    1  A    between atoms: C1_2  and  C2_4 
REMARK    2  A    between atoms: C6_8  and  C7_9 
REMARK    3  A    between atoms: C10_12  and  O3_13 
REMARK    4  A    between atoms: O3_13  and  C11_14 
REMARK    5  A    between atoms: C11_14  and  C12_15 
REMARK    6  A    between atoms: C14_17  and  C15_18 
ROOT
HETATM    1  O3  UNL     1      49.717  31.528  47.493  1.00  0.00    -0.347 OA
ENDROOT
BRANCH   1   2
HETATM    2  C10 UNL     1      49.553  31.427  46.159  1.00  0.00     0.069 A 
HETATM    3  C9  UNL     1      50.416  30.834  45.246  1.00  0.00     0.037 A 
HETATM    4  C8  UNL     1      50.164  30.822  43.887  1.00  0.00     0.012 A 
HETATM    5  C7  UNL     1      49.019  31.414  43.384  1.00  0.00    -0.035 A 
HETATM    6  C28 UNL     1      48.140  32.006  44.255  1.00  0.00     0.012 A 
HETATM    7  C27 UNL     1      48.390  32.016  45.593  1.00  0.00     0.037 A 
BRANCH   5   8
HETATM    8  C6  UNL     1      48.775  31.382  41.921  1.00  0.00     0.119 C 
HETATM    9  C5  UNL     1      49.381  32.569  41.235  1.00  0.00     0.050 C 
HETATM   10  C4  UNL     1      48.508  32.733  40.043  1.00  0.00     0.057 A 
HETATM   11  C2  UNL     1      48.576  33.876  39.081  1.00  0.00     0.106 A 
HETATM   12  C3  UNL     1      48.926  32.473  38.674  1.00  0.00     0.036 A 
HETATM   13  C29 UNL     1      47.165  32.463  40.608  1.00  0.00     0.228 C 
HETATM   14  N2  UNL     1      47.386  31.382  41.588  1.00  0.00    -0.352 N 
HETATM   15  O4  UNL     1      46.072  32.918  40.412  1.00  0.00    -0.273 OA
ATOM     16  H2  UNL     1      46.677  30.750  41.960  1.00  0.00     0.163 HD
BRANCH  11  17
HETATM   17  C1  UNL     1      49.553  34.937  39.154  1.00  0.00     0.178 C 
HETATM   18  O1  UNL     1      50.675  35.081  39.133  1.00  0.00    -0.648 OA
HETATM   19  O2  UNL     1      48.783  36.255  39.335  1.00  0.00    -0.648 OA
ENDBRANCH  11  17
ENDBRANCH   5   8
ENDBRANCH   1   2
BRANCH   1  20
HETATM   20  C11 UNL     1      50.444  30.644  48.304  1.00  0.00     0.215 C 
BRANCH  20  21
HETATM   21  C12 UNL     1      49.959  29.260  48.084  1.00  0.00    -0.019 A 
HETATM   22  C13 UNL     1      48.640  28.911  47.863  1.00  0.00     0.040 A 
HETATM   23  C14 UNL     1      48.244  27.608  47.560  1.00  0.00     0.043 A 
HETATM   24  N1  UNL     1      49.235  26.726  47.507  1.00  0.00    -0.355 N 
HETATM   25  C21 UNL     1      50.533  26.976  47.719  1.00  0.00     0.043 A 
ATOM     26  H1  UNL     1      48.983  25.763  47.282  1.00  0.00     0.166 HD
HETATM   27  C22 UNL     1      51.467  25.984  47.823  1.00  0.00     0.030 A 
HETATM   28  C26 UNL     1      50.909  28.258  48.006  1.00  0.00    -0.001 A 
HETATM   29  C23 UNL     1      52.773  26.227  48.200  1.00  0.00     0.002 A 
HETATM   30  C24 UNL     1      53.202  27.511  48.489  1.00  0.00     0.001 A 
HETATM   31  C25 UNL     1      52.205  28.527  48.377  1.00  0.00     0.014 A 
BRANCH  23  32
HETATM   32  C15 UNL     1      46.851  27.214  47.380  1.00  0.00    -0.009 A 
HETATM   33  C16 UNL     1      45.920  28.193  47.138  1.00  0.00     0.013 A 
HETATM   34  C17 UNL     1      44.569  27.863  46.838  1.00  0.00     0.001 A 
HETATM   35  C18 UNL     1      44.180  26.537  46.790  1.00  0.00     0.000 A 
HETATM   36  C19 UNL     1      45.103  25.546  47.038  1.00  0.00     0.001 A 
HETATM   37  C20 UNL     1      46.452  25.898  47.334  1.00  0.00     0.013 A 
ENDBRANCH  23  32
ENDBRANCH  20  21
ENDBRANCH   1  20
TORSDOF 6
ENDMDL
