MODEL 14
REMARK VINA RESULT: -11.818381857      2.647     10.515
REMARK  6 active torsions:
REMARK  status: ('A' for Active; 'I' for Inactive)
REMARK    1  A    between atoms: C1_2  and  C2_4 
REMARK    2  A    between atoms: C6_8  and  C7_9 
REMARK    3  A    between atoms: C10_12  and  O3_13 
REMARK    4  A    between atoms: O3_13  and  C11_14 
REMARK    5  A    between atoms: C11_14  and  C12_15 
REMARK    6  A    between atoms: C14_17  and  C15_18 
ROOT
HETATM    1  O3  UNL     1      48.725  32.820  42.479  1.00  0.00    -0.347 OA
ENDROOT
BRANCH   1   2
HETATM    2  C10 UNL     1      48.800  32.128  43.633  1.00  0.00     0.069 A 
HETATM    3  C9  UNL     1      47.951  32.223  44.729  1.00  0.00     0.037 A 
HETATM    4  C8  UNL     1      48.146  31.488  45.883  1.00  0.00     0.012 A 
HETATM    5  C7  UNL     1      49.216  30.617  45.984  1.00  0.00    -0.035 A 
HETATM    6  C28 UNL     1      50.074  30.493  44.920  1.00  0.00     0.012 A 
HETATM    7  C27 UNL     1      49.880  31.218  43.785  1.00  0.00     0.037 A 
BRANCH   5   8
HETATM    8  C6  UNL     1      49.398  29.840  47.234  1.00  0.00     0.119 C 
HETATM    9  C5  UNL     1      50.646  29.011  47.193  1.00  0.00     0.050 C 
HETATM   10  C4  UNL     1      50.313  27.881  48.100  1.00  0.00     0.057 A 
HETATM   11  C2  UNL     1      51.164  26.668  48.306  1.00  0.00     0.106 A 
HETATM   12  C3  UNL     1      50.922  27.665  49.403  1.00  0.00     0.036 A 
HETATM   13  C29 UNL     1      48.901  27.609  47.744  1.00  0.00     0.228 C 
HETATM   14  N2  UNL     1      48.318  28.942  47.494  1.00  0.00    -0.352 N 
HETATM   15  O4  UNL     1      48.244  26.609  47.649  1.00  0.00    -0.273 OA
ATOM     16  H2  UNL     1      47.326  29.178  47.505  1.00  0.00     0.163 HD
BRANCH  11  17
HETATM   17  C1  UNL     1      52.458  26.475  47.695  1.00  0.00     0.178 C 
HETATM   18  O1  UNL     1      53.089  26.897  46.857  1.00  0.00    -0.648 OA
HETATM   19  O2  UNL     1      53.143  25.315  48.435  1.00  0.00    -0.648 OA
ENDBRANCH  11  17
ENDBRANCH   5   8
ENDBRANCH   1   2
BRANCH   1  20
HETATM   20  C11 UNL     1      47.754  32.656  41.480  1.00  0.00     0.215 C 
BRANCH  20  21
HETATM   21  C12 UNL     1      48.302  33.112  40.179  1.00  0.00    -0.019 A 
HETATM   22  C13 UNL     1      48.946  34.317  39.973  1.00  0.00     0.040 A 
HETATM   23  C14 UNL     1      49.535  34.660  38.755  1.00  0.00     0.043 A 
HETATM   24  N1  UNL     1      49.421  33.738  37.806  1.00  0.00    -0.355 N 
HETATM   25  C21 UNL     1      48.805  32.555  37.918  1.00  0.00     0.043 A 
ATOM     26  H1  UNL     1      49.844  33.953  36.903  1.00  0.00     0.166 HD
HETATM   27  C22 UNL     1      48.576  31.740  36.846  1.00  0.00     0.030 A 
HETATM   28  C26 UNL     1      48.241  32.227  39.119  1.00  0.00    -0.001 A 
HETATM   29  C23 UNL     1      47.803  30.598  36.930  1.00  0.00     0.002 A 
HETATM   30  C24 UNL     1      47.220  30.220  38.128  1.00  0.00     0.001 A 
HETATM   31  C25 UNL     1      47.472  31.093  39.230  1.00  0.00     0.014 A 
BRANCH  23  32
HETATM   32  C15 UNL     1      50.168  35.950  38.505  1.00  0.00    -0.009 A 
HETATM   33  C16 UNL     1      49.609  37.073  39.059  1.00  0.00     0.013 A 
HETATM   34  C17 UNL     1      50.244  38.340  38.950  1.00  0.00     0.001 A 
HETATM   35  C18 UNL     1      51.445  38.451  38.273  1.00  0.00     0.000 A 
HETATM   36  C19 UNL     1      52.013  37.333  37.706  1.00  0.00     0.001 A 
HETATM   37  C20 UNL     1      51.361  36.071  37.829  1.00  0.00     0.013 A 
ENDBRANCH  23  32
ENDBRANCH  20  21
ENDBRANCH   1  20
TORSDOF 6
ENDMDL
