MODEL 2
REMARK VINA RESULT: -12.869763898      1.035      1.181
REMARK  6 active torsions:
REMARK  status: ('A' for Active; 'I' for Inactive)
REMARK    1  A    between atoms: C1_2  and  C2_4 
REMARK    2  A    between atoms: C6_8  and  C7_9 
REMARK    3  A    between atoms: C10_12  and  O3_13 
REMARK    4  A    between atoms: O3_13  and  C11_14 
REMARK    5  A    between atoms: C11_14  and  C12_15 
REMARK    6  A    between atoms: C14_17  and  C15_18 
ROOT
HETATM    1  O3  UNL     1      48.889  31.772  46.529  1.00  0.00    -0.347 OA
ENDROOT
BRANCH   1   2
HETATM    2  C10 UNL     1      49.074  31.652  45.199  1.00  0.00     0.069 A 
HETATM    3  C9  UNL     1      50.062  30.924  44.548  1.00  0.00     0.037 A 
HETATM    4  C8  UNL     1      50.180  30.902  43.172  1.00  0.00     0.012 A 
HETATM    5  C7  UNL     1      49.300  31.621  42.383  1.00  0.00    -0.035 A 
HETATM    6  C28 UNL     1      48.307  32.348  42.990  1.00  0.00     0.012 A 
HETATM    7  C27 UNL     1      48.192  32.368  44.345  1.00  0.00     0.037 A 
BRANCH   5   8
HETATM    8  C6  UNL     1      49.451  31.575  40.908  1.00  0.00     0.119 C 
HETATM    9  C5  UNL     1      50.032  32.850  40.373  1.00  0.00     0.050 C 
HETATM   10  C4  UNL     1      49.483  32.899  38.993  1.00  0.00     0.057 A 
HETATM   11  C2  UNL     1      49.629  34.054  38.054  1.00  0.00     0.106 A 
HETATM   12  C3  UNL     1      50.277  32.726  37.786  1.00  0.00     0.036 A 
HETATM   13  C29 UNL     1      48.096  32.422  39.197  1.00  0.00     0.228 C 
HETATM   14  N2  UNL     1      48.213  31.372  40.227  1.00  0.00    -0.352 N 
HETATM   15  O4  UNL     1      47.036  32.712  38.714  1.00  0.00    -0.273 OA
ATOM     16  H2  UNL     1      47.534  30.635  40.417  1.00  0.00     0.163 HD
BRANCH  11  17
HETATM   17  C1  UNL     1      50.385  35.248  38.351  1.00  0.00     0.178 C 
HETATM   18  O1  UNL     1      50.890  35.754  39.227  1.00  0.00    -0.648 OA
HETATM   19  O2  UNL     1      50.493  36.056  37.048  1.00  0.00    -0.648 OA
ENDBRANCH  11  17
ENDBRANCH   5   8
ENDBRANCH   1   2
BRANCH   1  20
HETATM   20  C11 UNL     1      49.643  31.138  47.528  1.00  0.00     0.215 C 
BRANCH  20  21
HETATM   21  C12 UNL     1      49.254  29.709  47.607  1.00  0.00    -0.019 A 
HETATM   22  C13 UNL     1      47.980  29.224  47.379  1.00  0.00     0.040 A 
HETATM   23  C14 UNL     1      47.682  27.860  47.364  1.00  0.00     0.043 A 
HETATM   24  N1  UNL     1      48.720  27.064  47.594  1.00  0.00    -0.355 N 
HETATM   25  C21 UNL     1      49.979  27.451  47.836  1.00  0.00     0.043 A 
ATOM     26  H1  UNL     1      48.541  26.060  47.586  1.00  0.00     0.166 HD
HETATM   27  C22 UNL     1      50.952  26.581  48.240  1.00  0.00     0.030 A 
HETATM   28  C26 UNL     1      50.260  28.788  47.838  1.00  0.00    -0.001 A 
HETATM   29  C23 UNL     1      52.204  26.999  48.644  1.00  0.00     0.002 A 
HETATM   30  C24 UNL     1      52.537  28.342  48.651  1.00  0.00     0.001 A 
HETATM   31  C25 UNL     1      51.501  29.230  48.229  1.00  0.00     0.014 A 
BRANCH  23  32
HETATM   32  C15 UNL     1      46.334  27.335  47.180  1.00  0.00    -0.009 A 
HETATM   33  C16 UNL     1      45.300  28.225  47.030  1.00  0.00     0.013 A 
HETATM   34  C17 UNL     1      43.984  27.776  46.732  1.00  0.00     0.001 A 
HETATM   35  C18 UNL     1      43.734  26.423  46.591  1.00  0.00     0.000 A 
HETATM   36  C19 UNL     1      44.762  25.520  46.746  1.00  0.00     0.001 A 
HETATM   37  C20 UNL     1      46.074  25.991  47.043  1.00  0.00     0.013 A 
ENDBRANCH  23  32
ENDBRANCH  20  21
ENDBRANCH   1  20
TORSDOF 6
ENDMDL
