MODEL 10
REMARK VINA RESULT: -6.402913493      1.187      1.920
REMARK  8 active torsions:
REMARK  status: ('A' for Active; 'I' for Inactive)
REMARK    1  A    between atoms: C3_3  and  C4_4 
REMARK    2  A    between atoms: C4_4  and  C5_5 
REMARK    3  A    between atoms: C5_5  and  O1_6 
REMARK    4  A    between atoms: O1_6  and  P1_7 
REMARK    5  A    between atoms: P1_7  and  O4_10 
REMARK    6  A    between atoms: O4_10  and  P2_11 
REMARK    7  A    between atoms: N1_17  and  C7_18 
REMARK    8  A    between atoms: C7_18  and  C8_19 
ROOT
HETATM    1  C1  UNL     1       8.080  -5.328  54.673  1.00  0.00     0.069 C 
HETATM    2  C2  UNL     1       8.007  -6.484  53.721  1.00  0.00     0.017 C 
HETATM    3  C3  UNL     1       6.879  -6.917  53.238  1.00  0.00     0.004 C 
HETATM    4  S1  UNL     1       7.305  -8.267  52.127  1.00  0.00    -0.112 SA
HETATM    5  C6  UNL     1       9.064  -7.663  51.921  1.00  0.00     0.202 C 
HETATM    6  N1  UNL     1       9.167  -7.187  53.316  1.00  0.00    -0.370 N 
ENDROOT
BRANCH   3   7
HETATM    7  C4  UNL     1       5.512  -6.449  53.466  1.00  0.00     0.075 C 
BRANCH   7   8
HETATM    8  C5  UNL     1       5.264  -5.087  52.816  1.00  0.00     0.186 C 
BRANCH   8   9
HETATM    9  O1  UNL     1       4.207  -5.137  51.946  1.00  0.00    -0.289 OA
BRANCH   9  10
HETATM   10  P1  UNL     1       3.958  -3.697  51.242  1.00  0.00     0.418 P 
HETATM   11  O2  UNL     1       2.468  -2.937  51.366  1.00  0.00    -0.624 OA
HETATM   12  O3  UNL     1       5.189  -2.894  50.502  1.00  0.00    -0.624 OA
BRANCH  10  13
HETATM   13  O4  UNL     1       3.497  -4.328  49.930  1.00  0.00    -0.173 OA
BRANCH  13  14
HETATM   14  P2  UNL     1       2.205  -5.176  49.812  1.00  0.00     0.431 P 
HETATM   15  O5  UNL     1       1.374  -4.034  49.006  1.00  0.00    -0.616 OA
HETATM   16  O6  UNL     1       3.133  -6.225  48.910  1.00  0.00    -0.616 OA
HETATM   17  O7  UNL     1       1.082  -6.232  49.812  1.00  0.00    -0.616 OA
ENDBRANCH  13  14
ENDBRANCH  10  13
ENDBRANCH   9  10
ENDBRANCH   8   9
ENDBRANCH   7   8
ENDBRANCH   3   7
BRANCH   6  18
HETATM   18  C7  UNL     1      10.345  -7.465  54.107  1.00  0.00     0.167 C 
BRANCH  18  19
HETATM   19  C8  UNL     1      11.367  -6.398  54.075  1.00  0.00     0.016 A 
HETATM   20  C9  UNL     1      12.141  -6.066  52.993  1.00  0.00     0.101 A 
HETATM   21  N2  UNL     1      13.036  -5.069  53.049  1.00  0.00    -0.355 N 
HETATM   22  C10 UNL     1      13.210  -4.352  54.168  1.00  0.00     0.078 A 
ATOM     23  H2  UNL     1      13.595  -4.851  52.224  1.00  0.00     0.166 HD
HETATM   24  C11 UNL     1      14.199  -3.263  54.204  1.00  0.00     0.089 C 
HETATM   25  N3  UNL     1      12.455  -4.668  55.238  1.00  0.00    -0.334 N 
HETATM   26  C12 UNL     1      11.551  -5.648  55.244  1.00  0.00     0.126 A 
ATOM     27  H3  UNL     1      12.582  -4.126  56.092  1.00  0.00     0.168 HD
HETATM   28  N4  UNL     1      10.761  -5.961  56.395  1.00  0.00    -0.082 NA
ENDBRANCH  18  19
ENDBRANCH   6  18
TORSDOF 8
ENDMDL
