MODEL 4
REMARK VINA RESULT: -8.219912143      0.857      1.754
REMARK  8 active torsions:
REMARK  status: ('A' for Active; 'I' for Inactive)
REMARK    1  A    between atoms: C3_3  and  C4_4 
REMARK    2  A    between atoms: C4_4  and  C5_5 
REMARK    3  A    between atoms: C5_5  and  O1_6 
REMARK    4  A    between atoms: O1_6  and  P1_7 
REMARK    5  A    between atoms: P1_7  and  O4_10 
REMARK    6  A    between atoms: O4_10  and  P2_11 
REMARK    7  A    between atoms: N1_17  and  C7_18 
REMARK    8  A    between atoms: C7_18  and  C8_19 
ROOT
HETATM    1  C1  UNL     1       8.185  -7.822  51.792  1.00  0.00     0.069 C 
HETATM    2  C2  UNL     1       7.835  -7.272  53.143  1.00  0.00     0.017 C 
HETATM    3  C3  UNL     1       6.917  -6.365  53.308  1.00  0.00     0.004 C 
HETATM    4  S1  UNL     1       6.833  -6.065  55.081  1.00  0.00    -0.112 SA
HETATM    5  C6  UNL     1       7.611  -7.718  55.487  1.00  0.00     0.202 C 
HETATM    6  N1  UNL     1       8.509  -7.695  54.314  1.00  0.00    -0.370 N 
ENDROOT
BRANCH   3   7
HETATM    7  C4  UNL     1       6.062  -5.696  52.327  1.00  0.00     0.075 C 
BRANCH   7   8
HETATM    8  C5  UNL     1       4.752  -5.217  52.952  1.00  0.00     0.186 C 
BRANCH   8   9
HETATM    9  O1  UNL     1       3.715  -5.308  52.062  1.00  0.00    -0.289 OA
BRANCH   9  10
HETATM   10  P1  UNL     1       3.598  -3.968  51.157  1.00  0.00     0.418 P 
HETATM   11  O2  UNL     1       2.459  -2.791  51.522  1.00  0.00    -0.624 OA
HETATM   12  O3  UNL     1       4.670  -3.671  49.944  1.00  0.00    -0.624 OA
BRANCH  10  13
HETATM   13  O4  UNL     1       2.594  -4.605  50.199  1.00  0.00    -0.173 OA
BRANCH  13  14
HETATM   14  P2  UNL     1       2.774  -4.591  48.660  1.00  0.00     0.431 P 
HETATM   15  O5  UNL     1       2.871  -6.209  48.526  1.00  0.00    -0.616 OA
HETATM   16  O6  UNL     1       1.254  -3.911  48.620  1.00  0.00    -0.616 OA
HETATM   17  O7  UNL     1       2.905  -4.291  47.154  1.00  0.00    -0.616 OA
ENDBRANCH  13  14
ENDBRANCH  10  13
ENDBRANCH   9  10
ENDBRANCH   8   9
ENDBRANCH   7   8
ENDBRANCH   3   7
BRANCH   6  18
HETATM   18  C7  UNL     1       9.901  -8.062  54.441  1.00  0.00     0.167 C 
BRANCH  18  19
HETATM   19  C8  UNL     1      10.846  -6.940  54.266  1.00  0.00     0.016 A 
HETATM   20  C9  UNL     1      11.518  -6.634  53.111  1.00  0.00     0.101 A 
HETATM   21  N2  UNL     1      12.347  -5.582  53.038  1.00  0.00    -0.355 N 
HETATM   22  C10 UNL     1      12.552  -4.783  54.095  1.00  0.00     0.078 A 
ATOM     23  H2  UNL     1      12.830  -5.386  52.161  1.00  0.00     0.166 HD
HETATM   24  C11 UNL     1      13.468  -3.636  53.989  1.00  0.00     0.089 C 
HETATM   25  N3  UNL     1      11.898  -5.073  55.235  1.00  0.00    -0.334 N 
HETATM   26  C12 UNL     1      11.063  -6.104  55.369  1.00  0.00     0.126 A 
ATOM     27  H3  UNL     1      12.050  -4.469  56.043  1.00  0.00     0.168 HD
HETATM   28  N4  UNL     1      10.379  -6.388  56.595  1.00  0.00    -0.082 NA
ENDBRANCH  18  19
ENDBRANCH   6  18
TORSDOF 8
ENDMDL
