MODEL 9
REMARK VINA RESULT: -6.522521247      2.824      4.759
REMARK  8 active torsions:
REMARK  status: ('A' for Active; 'I' for Inactive)
REMARK    1  A    between atoms: C3_3  and  C4_4 
REMARK    2  A    between atoms: C4_4  and  C5_5 
REMARK    3  A    between atoms: C5_5  and  O1_6 
REMARK    4  A    between atoms: O1_6  and  P1_7 
REMARK    5  A    between atoms: P1_7  and  O4_10 
REMARK    6  A    between atoms: O4_10  and  P2_11 
REMARK    7  A    between atoms: N1_17  and  C7_18 
REMARK    8  A    between atoms: C7_18  and  C8_19 
ROOT
HETATM    1  C1  UNL     1       8.425  -7.571  55.739  1.00  0.00     0.069 C 
HETATM    2  C2  UNL     1       8.410  -7.691  54.244  1.00  0.00     0.017 C 
HETATM    3  C3  UNL     1       7.485  -7.142  53.512  1.00  0.00     0.004 C 
HETATM    4  S1  UNL     1       7.915  -7.523  51.806  1.00  0.00    -0.112 SA
HETATM    5  C6  UNL     1       9.709  -7.837  52.235  1.00  0.00     0.202 C 
HETATM    6  N1  UNL     1       9.393  -8.435  53.549  1.00  0.00    -0.370 N 
ENDROOT
BRANCH   3   7
HETATM    7  C4  UNL     1       6.323  -6.342  53.900  1.00  0.00     0.075 C 
BRANCH   7   8
HETATM    8  C5  UNL     1       5.959  -5.316  52.826  1.00  0.00     0.186 C 
BRANCH   8   9
HETATM    9  O1  UNL     1       4.601  -5.212  52.678  1.00  0.00    -0.289 OA
BRANCH   9  10
HETATM   10  P1  UNL     1       4.212  -4.064  51.601  1.00  0.00     0.418 P 
HETATM   11  O2  UNL     1       2.783  -3.201  51.755  1.00  0.00    -0.624 OA
HETATM   12  O3  UNL     1       5.264  -3.633  50.410  1.00  0.00    -0.624 OA
BRANCH  10  13
HETATM   13  O4  UNL     1       3.487  -5.051  50.689  1.00  0.00    -0.173 OA
BRANCH  13  14
HETATM   14  P2  UNL     1       2.520  -4.604  49.565  1.00  0.00     0.431 P 
HETATM   15  O5  UNL     1       3.411  -5.244  48.364  1.00  0.00    -0.616 OA
HETATM   16  O6  UNL     1       1.408  -5.599  50.305  1.00  0.00    -0.616 OA
HETATM   17  O7  UNL     1       1.386  -4.073  48.666  1.00  0.00    -0.616 OA
ENDBRANCH  13  14
ENDBRANCH  10  13
ENDBRANCH   9  10
ENDBRANCH   8   9
ENDBRANCH   7   8
ENDBRANCH   3   7
BRANCH   6  18
HETATM   18  C7  UNL     1      10.046  -9.648  53.986  1.00  0.00     0.167 C 
BRANCH  18  19
HETATM   19  C8  UNL     1       9.122 -10.746  54.338  1.00  0.00     0.016 A 
HETATM   20  C9  UNL     1       8.960 -11.283  55.589  1.00  0.00     0.101 A 
HETATM   21  N2  UNL     1       8.083 -12.271  55.821  1.00  0.00    -0.355 N 
HETATM   22  C10 UNL     1       7.324 -12.773  54.836  1.00  0.00     0.078 A 
ATOM     23  H2  UNL     1       7.991 -12.646  56.765  1.00  0.00     0.166 HD
HETATM   24  C11 UNL     1       6.369 -13.858  55.118  1.00  0.00     0.089 C 
HETATM   25  N3  UNL     1       7.473 -12.253  53.603  1.00  0.00    -0.334 N 
HETATM   26  C12 UNL     1       8.328 -11.273  53.311  1.00  0.00     0.126 A 
ATOM     27  H3  UNL     1       6.899 -12.631  52.850  1.00  0.00     0.168 HD
HETATM   28  N4  UNL     1       8.465 -10.738  51.990  1.00  0.00    -0.082 NA
ENDBRANCH  18  19
ENDBRANCH   6  18
TORSDOF 8
ENDMDL
