MODEL 1
REMARK VINA RESULT: -9.162941497      0.000      0.000
REMARK  8 active torsions:
REMARK  status: ('A' for Active; 'I' for Inactive)
REMARK    1  A    between atoms: C3_3  and  C4_4 
REMARK    2  A    between atoms: C4_4  and  C5_5 
REMARK    3  A    between atoms: C5_5  and  O1_6 
REMARK    4  A    between atoms: O1_6  and  P1_7 
REMARK    5  A    between atoms: P1_7  and  O4_10 
REMARK    6  A    between atoms: O4_10  and  P2_11 
REMARK    7  A    between atoms: N1_17  and  C7_18 
REMARK    8  A    between atoms: C7_18  and  C8_19 
ROOT
HETATM    1  C1  UNL     1       8.201  -8.053  52.095  1.00  0.00     0.069 C 
HETATM    2  C2  UNL     1       7.867  -7.323  53.362  1.00  0.00     0.017 C 
HETATM    3  C3  UNL     1       6.916  -6.438  53.424  1.00  0.00     0.004 C 
HETATM    4  S1  UNL     1       6.870  -5.882  55.136  1.00  0.00    -0.112 SA
HETATM    5  C6  UNL     1       7.730  -7.426  55.753  1.00  0.00     0.202 C 
HETATM    6  N1  UNL     1       8.591  -7.542  54.558  1.00  0.00    -0.370 N 
ENDROOT
BRANCH   3   7
HETATM    7  C4  UNL     1       6.005  -5.954  52.386  1.00  0.00     0.075 C 
BRANCH   7   8
HETATM    8  C5  UNL     1       4.801  -5.225  52.985  1.00  0.00     0.186 C 
BRANCH   8   9
HETATM    9  O1  UNL     1       3.770  -5.148  52.086  1.00  0.00    -0.289 OA
BRANCH   9  10
HETATM   10  P1  UNL     1       3.837  -3.771  51.233  1.00  0.00     0.418 P 
HETATM   11  O2  UNL     1       2.503  -2.757  51.150  1.00  0.00    -0.624 OA
HETATM   12  O3  UNL     1       5.244  -3.274  50.537  1.00  0.00    -0.624 OA
BRANCH  10  13
HETATM   13  O4  UNL     1       3.368  -4.449  49.948  1.00  0.00    -0.173 OA
BRANCH  13  14
HETATM   14  P2  UNL     1       2.082  -5.311  49.873  1.00  0.00     0.431 P 
HETATM   15  O5  UNL     1       1.285  -4.271  48.910  1.00  0.00    -0.616 OA
HETATM   16  O6  UNL     1       3.047  -6.450  49.133  1.00  0.00    -0.616 OA
HETATM   17  O7  UNL     1       0.960  -6.366  49.944  1.00  0.00    -0.616 OA
ENDBRANCH  13  14
ENDBRANCH  10  13
ENDBRANCH   9  10
ENDBRANCH   8   9
ENDBRANCH   7   8
ENDBRANCH   3   7
BRANCH   6  18
HETATM   18  C7  UNL     1      10.002  -7.833  54.689  1.00  0.00     0.167 C 
BRANCH  18  19
HETATM   19  C8  UNL     1      10.881  -6.651  54.572  1.00  0.00     0.016 A 
HETATM   20  C9  UNL     1      11.067  -5.696  55.538  1.00  0.00     0.101 A 
HETATM   21  N2  UNL     1      11.901  -4.662  55.351  1.00  0.00    -0.355 N 
HETATM   22  C10 UNL     1      12.590  -4.520  54.210  1.00  0.00     0.078 A 
ATOM     23  H2  UNL     1      12.013  -3.970  56.092  1.00  0.00     0.166 HD
HETATM   24  C11 UNL     1      13.498  -3.376  54.031  1.00  0.00     0.089 C 
HETATM   25  N3  UNL     1      12.416  -5.453  53.254  1.00  0.00    -0.334 N 
HETATM   26  C12 UNL     1      11.602  -6.501  53.380  1.00  0.00     0.126 A 
ATOM     27  H3  UNL     1      12.938  -5.351  52.384  1.00  0.00     0.168 HD
HETATM   28  N4  UNL     1      11.438  -7.479  52.347  1.00  0.00    -0.082 NA
ENDBRANCH  18  19
ENDBRANCH   6  18
TORSDOF 8
ENDMDL
