MODEL 5
REMARK VINA RESULT: -8.040541088      3.021      4.811
REMARK  8 active torsions:
REMARK  status: ('A' for Active; 'I' for Inactive)
REMARK    1  A    between atoms: C3_3  and  C4_4 
REMARK    2  A    between atoms: C4_4  and  C5_5 
REMARK    3  A    between atoms: C5_5  and  O1_6 
REMARK    4  A    between atoms: O1_6  and  P1_7 
REMARK    5  A    between atoms: P1_7  and  O4_10 
REMARK    6  A    between atoms: O4_10  and  P2_11 
REMARK    7  A    between atoms: N1_17  and  C7_18 
REMARK    8  A    between atoms: C7_18  and  C8_19 
ROOT
HETATM    1  C1  UNL     1       9.056  -7.149  55.753  1.00  0.00     0.069 C 
HETATM    2  C2  UNL     1       8.776  -7.617  54.356  1.00  0.00     0.017 C 
HETATM    3  C3  UNL     1       7.739  -7.212  53.682  1.00  0.00     0.004 C 
HETATM    4  S1  UNL     1       7.860  -8.005  52.070  1.00  0.00    -0.112 SA
HETATM    5  C6  UNL     1       9.700  -8.294  52.250  1.00  0.00     0.202 C 
HETATM    6  N1  UNL     1       9.617  -8.550  53.703  1.00  0.00    -0.370 N 
ENDROOT
BRANCH   3   7
HETATM    7  C4  UNL     1       6.669  -6.289  54.058  1.00  0.00     0.075 C 
BRANCH   7   8
HETATM    8  C5  UNL     1       6.126  -5.529  52.847  1.00  0.00     0.186 C 
BRANCH   8   9
HETATM    9  O1  UNL     1       4.840  -5.108  53.061  1.00  0.00    -0.289 OA
BRANCH   9  10
HETATM   10  P1  UNL     1       4.459  -3.866  52.090  1.00  0.00     0.418 P 
HETATM   11  O2  UNL     1       2.870  -3.346  51.957  1.00  0.00    -0.624 OA
HETATM   12  O3  UNL     1       5.632  -3.008  51.317  1.00  0.00    -0.624 OA
BRANCH  10  13
HETATM   13  O4  UNL     1       4.237  -4.772  50.882  1.00  0.00    -0.173 OA
BRANCH  13  14
HETATM   14  P2  UNL     1       2.913  -4.793  50.078  1.00  0.00     0.431 P 
HETATM   15  O5  UNL     1       3.625  -4.493  48.647  1.00  0.00    -0.616 OA
HETATM   16  O6  UNL     1       2.801  -6.385  50.557  1.00  0.00    -0.616 OA
HETATM   17  O7  UNL     1       1.476  -4.898  49.531  1.00  0.00    -0.616 OA
ENDBRANCH  13  14
ENDBRANCH  10  13
ENDBRANCH   9  10
ENDBRANCH   8   9
ENDBRANCH   7   8
ENDBRANCH   3   7
BRANCH   6  18
HETATM   18  C7  UNL     1      10.330  -9.656  54.301  1.00  0.00     0.167 C 
BRANCH  18  19
HETATM   19  C8  UNL     1       9.479 -10.809  54.660  1.00  0.00     0.016 A 
HETATM   20  C9  UNL     1       8.157 -10.959  54.329  1.00  0.00     0.101 A 
HETATM   21  N2  UNL     1       7.464 -12.051  54.684  1.00  0.00    -0.355 N 
HETATM   22  C10 UNL     1       8.037 -13.045  55.377  1.00  0.00     0.078 A 
ATOM     23  H2  UNL     1       6.481 -12.127  54.421  1.00  0.00     0.166 HD
HETATM   24  C11 UNL     1       7.254 -14.232  55.755  1.00  0.00     0.089 C 
HETATM   25  N3  UNL     1       9.336 -12.909  55.707  1.00  0.00    -0.334 N 
HETATM   26  C12 UNL     1      10.076 -11.849  55.385  1.00  0.00     0.126 A 
ATOM     27  H3  UNL     1       9.778 -13.662  56.235  1.00  0.00     0.168 HD
HETATM   28  N4  UNL     1      11.456 -11.732  55.748  1.00  0.00    -0.082 NA
ENDBRANCH  18  19
ENDBRANCH   6  18
TORSDOF 8
ENDMDL
