MODEL 6
REMARK VINA RESULT: -7.709498333      3.169      5.063
REMARK  8 active torsions:
REMARK  status: ('A' for Active; 'I' for Inactive)
REMARK    1  A    between atoms: C3_3  and  C4_4 
REMARK    2  A    between atoms: C4_4  and  C5_5 
REMARK    3  A    between atoms: C5_5  and  O1_6 
REMARK    4  A    between atoms: O1_6  and  P1_7 
REMARK    5  A    between atoms: P1_7  and  O4_10 
REMARK    6  A    between atoms: O4_10  and  P2_11 
REMARK    7  A    between atoms: N1_17  and  C7_18 
REMARK    8  A    between atoms: C7_18  and  C8_19 
ROOT
HETATM    1  C1  UNL     1      10.018  -7.318  55.385  1.00  0.00     0.069 C 
HETATM    2  C2  UNL     1       9.514  -7.841  54.073  1.00  0.00     0.017 C 
HETATM    3  C3  UNL     1       8.495  -7.315  53.459  1.00  0.00     0.004 C 
HETATM    4  S1  UNL     1       8.305  -8.245  51.930  1.00  0.00    -0.112 SA
HETATM    5  C6  UNL     1      10.078  -8.843  51.970  1.00  0.00     0.202 C 
HETATM    6  N1  UNL     1      10.109  -8.960  53.443  1.00  0.00    -0.370 N 
ENDROOT
BRANCH   3   7
HETATM    7  C4  UNL     1       7.643  -6.187  53.838  1.00  0.00     0.075 C 
BRANCH   7   8
HETATM    8  C5  UNL     1       6.214  -6.359  53.322  1.00  0.00     0.186 C 
BRANCH   8   9
HETATM    9  O1  UNL     1       5.937  -5.466  52.320  1.00  0.00    -0.289 OA
BRANCH   9  10
HETATM   10  P1  UNL     1       4.433  -4.875  52.460  1.00  0.00     0.418 P 
HETATM   11  O2  UNL     1       3.103  -5.851  52.161  1.00  0.00    -0.624 OA
HETATM   12  O3  UNL     1       4.175  -3.348  53.020  1.00  0.00    -0.624 OA
BRANCH  10  13
HETATM   13  O4  UNL     1       4.391  -4.416  51.005  1.00  0.00    -0.173 OA
BRANCH  13  14
HETATM   14  P2  UNL     1       3.074  -4.294  50.199  1.00  0.00     0.431 P 
HETATM   15  O5  UNL     1       2.619  -2.900  50.902  1.00  0.00    -0.616 OA
HETATM   16  O6  UNL     1       4.058  -4.188  48.859  1.00  0.00    -0.616 OA
HETATM   17  O7  UNL     1       1.863  -4.406  49.251  1.00  0.00    -0.616 OA
ENDBRANCH  13  14
ENDBRANCH  10  13
ENDBRANCH   9  10
ENDBRANCH   8   9
ENDBRANCH   7   8
ENDBRANCH   3   7
BRANCH   6  18
HETATM   18  C7  UNL     1      10.684 -10.123  54.080  1.00  0.00     0.167 C 
BRANCH  18  19
HETATM   19  C8  UNL     1       9.694 -11.113  54.551  1.00  0.00     0.016 A 
HETATM   20  C9  UNL     1       8.374 -11.160  54.183  1.00  0.00     0.101 A 
HETATM   21  N2  UNL     1       7.548 -12.108  54.649  1.00  0.00    -0.355 N 
HETATM   22  C10 UNL     1       7.981 -13.054  55.495  1.00  0.00     0.078 A 
ATOM     23  H2  UNL     1       6.572 -12.110  54.353  1.00  0.00     0.166 HD
HETATM   24  C11 UNL     1       7.053 -14.083  55.992  1.00  0.00     0.089 C 
HETATM   25  N3  UNL     1       9.276 -13.019  55.863  1.00  0.00    -0.334 N 
HETATM   26  C12 UNL     1      10.144 -12.102  55.436  1.00  0.00     0.126 A 
ATOM     27  H3  UNL     1       9.611 -13.736  56.507  1.00  0.00     0.168 HD
HETATM   28  N4  UNL     1      11.516 -12.090  55.843  1.00  0.00    -0.082 NA
ENDBRANCH  18  19
ENDBRANCH   6  18
TORSDOF 8
ENDMDL
