MODEL 2
REMARK VINA RESULT: -9.140345856      0.647      1.188
REMARK  8 active torsions:
REMARK  status: ('A' for Active; 'I' for Inactive)
REMARK    1  A    between atoms: C3_3  and  C4_4 
REMARK    2  A    between atoms: C4_4  and  C5_5 
REMARK    3  A    between atoms: C5_5  and  O1_6 
REMARK    4  A    between atoms: O1_6  and  P1_7 
REMARK    5  A    between atoms: P1_7  and  O4_10 
REMARK    6  A    between atoms: O4_10  and  P2_11 
REMARK    7  A    between atoms: N1_17  and  C7_18 
REMARK    8  A    between atoms: C7_18  and  C8_19 
ROOT
HETATM    1  C1  UNL     1       8.183  -7.930  52.044  1.00  0.00     0.069 C 
HETATM    2  C2  UNL     1       7.824  -7.235  53.324  1.00  0.00     0.017 C 
HETATM    3  C3  UNL     1       6.886  -6.334  53.386  1.00  0.00     0.004 C 
HETATM    4  S1  UNL     1       6.800  -5.832  55.113  1.00  0.00    -0.112 SA
HETATM    5  C6  UNL     1       7.614  -7.409  55.705  1.00  0.00     0.202 C 
HETATM    6  N1  UNL     1       8.509  -7.503  54.533  1.00  0.00    -0.370 N 
ENDROOT
BRANCH   3   7
HETATM    7  C4  UNL     1       6.015  -5.803  52.338  1.00  0.00     0.075 C 
BRANCH   7   8
HETATM    8  C5  UNL     1       4.766  -5.142  52.923  1.00  0.00     0.186 C 
BRANCH   8   9
HETATM    9  O1  UNL     1       3.703  -5.242  52.064  1.00  0.00    -0.289 OA
BRANCH   9  10
HETATM   10  P1  UNL     1       3.577  -3.922  51.129  1.00  0.00     0.418 P 
HETATM   11  O2  UNL     1       2.423  -2.751  51.461  1.00  0.00    -0.624 OA
HETATM   12  O3  UNL     1       4.655  -3.639  49.917  1.00  0.00    -0.624 OA
BRANCH  10  13
HETATM   13  O4  UNL     1       2.588  -4.591  50.178  1.00  0.00    -0.173 OA
BRANCH  13  14
HETATM   14  P2  UNL     1       2.772  -4.597  48.640  1.00  0.00     0.431 P 
HETATM   15  O5  UNL     1       2.907  -6.214  48.531  1.00  0.00    -0.616 OA
HETATM   16  O6  UNL     1       1.236  -3.954  48.586  1.00  0.00    -0.616 OA
HETATM   17  O7  UNL     1       2.899  -4.317  47.130  1.00  0.00    -0.616 OA
ENDBRANCH  13  14
ENDBRANCH  10  13
ENDBRANCH   9  10
ENDBRANCH   8   9
ENDBRANCH   7   8
ENDBRANCH   3   7
BRANCH   6  18
HETATM   18  C7  UNL     1       9.909  -7.823  54.695  1.00  0.00     0.167 C 
BRANCH  18  19
HETATM   19  C8  UNL     1      10.816  -6.662  54.586  1.00  0.00     0.016 A 
HETATM   20  C9  UNL     1      11.011  -5.708  55.551  1.00  0.00     0.101 A 
HETATM   21  N2  UNL     1      11.870  -4.693  55.372  1.00  0.00    -0.355 N 
HETATM   22  C10 UNL     1      12.577  -4.571  54.240  1.00  0.00     0.078 A 
ATOM     23  H2  UNL     1      11.988  -4.002  56.113  1.00  0.00     0.166 HD
HETATM   24  C11 UNL     1      13.513  -3.447  54.069  1.00  0.00     0.089 C 
HETATM   25  N3  UNL     1      12.394  -5.502  53.284  1.00  0.00    -0.334 N 
HETATM   26  C12 UNL     1      11.556  -6.531  53.403  1.00  0.00     0.126 A 
ATOM     27  H3  UNL     1      12.929  -5.415  52.420  1.00  0.00     0.168 HD
HETATM   28  N4  UNL     1      11.383  -7.508  52.371  1.00  0.00    -0.082 NA
ENDBRANCH  18  19
ENDBRANCH   6  18
TORSDOF 8
ENDMDL
