MODEL 3
REMARK VINA RESULT: -8.703110946      0.591      1.019
REMARK  8 active torsions:
REMARK  status: ('A' for Active; 'I' for Inactive)
REMARK    1  A    between atoms: C3_3  and  C4_4 
REMARK    2  A    between atoms: C4_4  and  C5_5 
REMARK    3  A    between atoms: C5_5  and  O1_6 
REMARK    4  A    between atoms: O1_6  and  P1_7 
REMARK    5  A    between atoms: P1_7  and  O4_10 
REMARK    6  A    between atoms: O4_10  and  P2_11 
REMARK    7  A    between atoms: N1_17  and  C7_18 
REMARK    8  A    between atoms: C7_18  and  C8_19 
ROOT
HETATM    1  C1  UNL     1       8.061  -7.993  52.107  1.00  0.00     0.069 C 
HETATM    2  C2  UNL     1       7.781  -7.283  53.398  1.00  0.00     0.017 C 
HETATM    3  C3  UNL     1       6.838  -6.395  53.512  1.00  0.00     0.004 C 
HETATM    4  S1  UNL     1       6.863  -5.867  55.233  1.00  0.00    -0.112 SA
HETATM    5  C6  UNL     1       7.739  -7.424  55.790  1.00  0.00     0.202 C 
HETATM    6  N1  UNL     1       8.552  -7.524  54.560  1.00  0.00    -0.370 N 
ENDROOT
BRANCH   3   7
HETATM    7  C4  UNL     1       5.888  -5.891  52.519  1.00  0.00     0.075 C 
BRANCH   7   8
HETATM    8  C5  UNL     1       5.821  -4.363  52.525  1.00  0.00     0.186 C 
BRANCH   8   9
HETATM    9  O1  UNL     1       5.233  -3.889  51.383  1.00  0.00    -0.289 OA
BRANCH   9  10
HETATM   10  P1  UNL     1       3.618  -4.024  51.454  1.00  0.00     0.418 P 
HETATM   11  O2  UNL     1       2.900  -5.521  51.689  1.00  0.00    -0.624 OA
HETATM   12  O3  UNL     1       2.656  -2.689  51.427  1.00  0.00    -0.624 OA
BRANCH  10  13
HETATM   13  O4  UNL     1       3.488  -4.227  49.946  1.00  0.00    -0.173 OA
BRANCH  13  14
HETATM   14  P2  UNL     1       2.353  -5.065  49.305  1.00  0.00     0.431 P 
HETATM   15  O5  UNL     1       1.428  -3.777  48.945  1.00  0.00    -0.616 OA
HETATM   16  O6  UNL     1       3.500  -5.518  48.185  1.00  0.00    -0.616 OA
HETATM   17  O7  UNL     1       1.407  -6.124  48.706  1.00  0.00    -0.616 OA
ENDBRANCH  13  14
ENDBRANCH  10  13
ENDBRANCH   9  10
ENDBRANCH   8   9
ENDBRANCH   7   8
ENDBRANCH   3   7
BRANCH   6  18
HETATM   18  C7  UNL     1       9.965  -7.822  54.629  1.00  0.00     0.167 C 
BRANCH  18  19
HETATM   19  C8  UNL     1      10.843  -6.638  54.544  1.00  0.00     0.016 A 
HETATM   20  C9  UNL     1      11.007  -5.692  55.523  1.00  0.00     0.101 A 
HETATM   21  N2  UNL     1      11.841  -4.654  55.366  1.00  0.00    -0.355 N 
HETATM   22  C10 UNL     1      12.553  -4.499  54.240  1.00  0.00     0.078 A 
ATOM     23  H2  UNL     1      11.936  -3.970  56.116  1.00  0.00     0.166 HD
HETATM   24  C11 UNL     1      13.462  -3.350  54.092  1.00  0.00     0.089 C 
HETATM   25  N3  UNL     1      12.402  -5.421  53.271  1.00  0.00    -0.334 N 
HETATM   26  C12 UNL     1      11.589  -6.473  53.369  1.00  0.00     0.126 A 
ATOM     27  H3  UNL     1      12.941  -5.309  52.413  1.00  0.00     0.168 HD
HETATM   28  N4  UNL     1      11.448  -7.439  52.322  1.00  0.00    -0.082 NA
ENDBRANCH  18  19
ENDBRANCH   6  18
TORSDOF 8
ENDMDL
