MODEL 11
REMARK VINA RESULT: -6.864192288      2.003      3.875
REMARK  11 active torsions:
REMARK  status: ('A' for Active; 'I' for Inactive)
REMARK    1  A    between atoms: O1_2  and  C2_3 
REMARK    2  A    between atoms: C5_6  and  S1_7 
REMARK    3  A    between atoms: S1_7  and  N1_10 
REMARK    4  A    between atoms: N1_10  and  C6_11 
REMARK    5  A    between atoms: N1_10  and  C8_18 
REMARK    6  A    between atoms: C6_11  and  C7_12 
REMARK       I    between atoms: C7_12  and  N2_14 
REMARK    7  A    between atoms: N2_14  and  O5_16 
REMARK    8  A    between atoms: C8_18  and  C9_19 
REMARK    9  A    between atoms: C9_19  and  O6_20 
REMARK   10  A    between atoms: C9_19  and  C10_22 
REMARK   11  A    between atoms: C10_22  and  O7_23 
ROOT
HETATM    1  N1  UNL     1      -1.924  -5.147  -3.968  1.00  0.00    -0.195 NA
ENDROOT
BRANCH   1   2
HETATM    2  S1  UNL     1      -1.683  -6.137  -5.315  1.00  0.00     0.244 S 
HETATM    3  O2  UNL     1      -0.607  -5.524  -6.199  1.00  0.00    -0.206 OA
HETATM    4  O3  UNL     1      -1.288  -7.554  -4.941  1.00  0.00    -0.206 OA
BRANCH   2   5
HETATM    5  C5  UNL     1      -3.128  -6.203  -6.298  1.00  0.00     0.074 A 
HETATM    6  C4  UNL     1      -3.116  -5.898  -7.649  1.00  0.00     0.027 A 
HETATM    7  C3  UNL     1      -4.243  -5.944  -8.443  1.00  0.00     0.038 A 
HETATM    8  C2  UNL     1      -5.462  -6.307  -7.907  1.00  0.00     0.068 A 
HETATM    9  C12 UNL     1      -5.484  -6.613  -6.563  1.00  0.00     0.038 A 
HETATM   10  C11 UNL     1      -4.361  -6.568  -5.765  1.00  0.00     0.027 A 
BRANCH   8  11
HETATM   11  O1  UNL     1      -6.621  -6.361  -8.692  1.00  0.00    -0.356 OA
HETATM   12  C1  UNL     1      -7.589  -7.336  -8.357  1.00  0.00     0.210 C 
ENDBRANCH   8  11
ENDBRANCH   2   5
ENDBRANCH   1   2
BRANCH   1  13
HETATM   13  C6  UNL     1      -2.842  -4.080  -4.327  1.00  0.00     0.212 C 
BRANCH  13  14
HETATM   14  C7  UNL     1      -2.144  -2.792  -4.409  1.00  0.00     0.255 C 
HETATM   15  O4  UNL     1      -1.659  -2.295  -3.358  1.00  0.00    -0.270 OA
HETATM   16  N2  UNL     1      -2.027  -2.139  -5.652  1.00  0.00    -0.236 N 
ATOM     17  H2  UNL     1      -2.413  -2.535  -6.509  1.00  0.00     0.197 HD
BRANCH  16  18
HETATM   18  O5  UNL     1      -1.363  -0.943  -5.639  1.00  0.00    -0.287 OA
ATOM     19  H5  UNL     1      -0.438  -0.979  -5.852  1.00  0.00     0.244 HD
ENDBRANCH  16  18
ENDBRANCH  13  14
ENDBRANCH   1  13
BRANCH   1  20
HETATM   20  C8  UNL     1      -2.398  -5.773  -2.793  1.00  0.00     0.142 C 
BRANCH  20  21
HETATM   21  C9  UNL     1      -1.616  -5.514  -1.544  1.00  0.00     0.155 C 
BRANCH  21  22
HETATM   22  O6  UNL     1      -1.552  -4.216  -1.131  1.00  0.00    -0.392 OA
ATOM     23  H6  UNL     1      -1.043  -4.050  -0.346  1.00  0.00     0.210 HD
ENDBRANCH  21  22
BRANCH  21  24
HETATM   24  C10 UNL     1      -0.178  -5.979  -1.806  1.00  0.00     0.197 C 
BRANCH  24  25
HETATM   25  O7  UNL     1      -0.151  -7.263  -2.308  1.00  0.00    -0.398 OA
ATOM     26  H7  UNL     1      -0.723  -7.838  -1.813  1.00  0.00     0.209 HD
ENDBRANCH  24  25
ENDBRANCH  21  24
ENDBRANCH  20  21
ENDBRANCH   1  20
TORSDOF 11
ENDMDL
