MODEL 5
REMARK VINA RESULT: -6.950577875      1.943      2.483
REMARK  11 active torsions:
REMARK  status: ('A' for Active; 'I' for Inactive)
REMARK    1  A    between atoms: O1_2  and  C2_3 
REMARK    2  A    between atoms: C5_6  and  S1_7 
REMARK    3  A    between atoms: S1_7  and  N1_10 
REMARK    4  A    between atoms: N1_10  and  C6_11 
REMARK    5  A    between atoms: N1_10  and  C8_18 
REMARK    6  A    between atoms: C6_11  and  C7_12 
REMARK       I    between atoms: C7_12  and  N2_14 
REMARK    7  A    between atoms: N2_14  and  O5_16 
REMARK    8  A    between atoms: C8_18  and  C9_19 
REMARK    9  A    between atoms: C9_19  and  O6_20 
REMARK   10  A    between atoms: C9_19  and  C10_22 
REMARK   11  A    between atoms: C10_22  and  O7_23 
ROOT
HETATM    1  N1  UNL     1      -3.151  -5.727  -6.514  1.00  0.00    -0.195 NA
ENDROOT
BRANCH   1   2
HETATM    2  S1  UNL     1      -3.474  -6.047  -8.140  1.00  0.00     0.244 S 
HETATM    3  O2  UNL     1      -3.325  -4.761  -8.940  1.00  0.00    -0.206 OA
HETATM    4  O3  UNL     1      -2.567  -7.115  -8.722  1.00  0.00    -0.206 OA
BRANCH   2   5
HETATM    5  C5  UNL     1      -5.136  -6.550  -8.352  1.00  0.00     0.074 A 
HETATM    6  C4  UNL     1      -5.664  -6.848  -9.597  1.00  0.00     0.027 A 
HETATM    7  C3  UNL     1      -6.971  -7.247  -9.785  1.00  0.00     0.038 A 
HETATM    8  C2  UNL     1      -7.827  -7.371  -8.711  1.00  0.00     0.068 A 
HETATM    9  C12 UNL     1      -7.310  -7.078  -7.466  1.00  0.00     0.038 A 
HETATM   10  C11 UNL     1      -6.005  -6.678  -7.272  1.00  0.00     0.027 A 
BRANCH   8  11
HETATM   11  O1  UNL     1      -9.158  -7.774  -8.876  1.00  0.00    -0.356 OA
HETATM   12  C1  UNL     1      -9.872  -8.154  -7.716  1.00  0.00     0.210 C 
ENDBRANCH   8  11
ENDBRANCH   2   5
ENDBRANCH   1   2
BRANCH   1  13
HETATM   13  C6  UNL     1      -1.920  -6.399  -6.138  1.00  0.00     0.212 C 
BRANCH  13  14
HETATM   14  C7  UNL     1      -2.174  -7.434  -5.129  1.00  0.00     0.255 C 
HETATM   15  O4  UNL     1      -3.361  -7.798  -4.916  1.00  0.00    -0.270 OA
HETATM   16  N2  UNL     1      -1.094  -8.002  -4.424  1.00  0.00    -0.236 N 
ATOM     17  H2  UNL     1      -0.129  -7.716  -4.592  1.00  0.00     0.197 HD
BRANCH  16  18
HETATM   18  O5  UNL     1      -1.418  -8.958  -3.502  1.00  0.00    -0.287 OA
ATOM     19  H5  UNL     1      -1.188  -8.761  -2.601  1.00  0.00     0.244 HD
ENDBRANCH  16  18
ENDBRANCH  13  14
ENDBRANCH   1  13
BRANCH   1  20
HETATM   20  C8  UNL     1      -3.056  -4.367  -6.139  1.00  0.00     0.142 C 
BRANCH  20  21
HETATM   21  C9  UNL     1      -2.937  -4.092  -4.673  1.00  0.00     0.155 C 
BRANCH  21  22
HETATM   22  O6  UNL     1      -4.080  -3.708  -4.037  1.00  0.00    -0.392 OA
ATOM     23  H6  UNL     1      -3.969  -3.219  -3.230  1.00  0.00     0.210 HD
ENDBRANCH  21  22
BRANCH  21  24
HETATM   24  C10 UNL     1      -1.921  -2.954  -4.507  1.00  0.00     0.197 C 
BRANCH  24  25
HETATM   25  O7  UNL     1      -2.061  -2.011  -5.503  1.00  0.00    -0.398 OA
ATOM     26  H7  UNL     1      -1.240  -1.565  -5.673  1.00  0.00     0.209 HD
ENDBRANCH  24  25
ENDBRANCH  21  24
ENDBRANCH  20  21
ENDBRANCH   1  20
TORSDOF 11
ENDMDL
