MODEL 8
REMARK VINA RESULT: -6.925115214      1.961      3.714
REMARK  11 active torsions:
REMARK  status: ('A' for Active; 'I' for Inactive)
REMARK    1  A    between atoms: O1_2  and  C2_3 
REMARK    2  A    between atoms: C5_6  and  S1_7 
REMARK    3  A    between atoms: S1_7  and  N1_10 
REMARK    4  A    between atoms: N1_10  and  C6_11 
REMARK    5  A    between atoms: N1_10  and  C8_18 
REMARK    6  A    between atoms: C6_11  and  C7_12 
REMARK       I    between atoms: C7_12  and  N2_14 
REMARK    7  A    between atoms: N2_14  and  O5_16 
REMARK    8  A    between atoms: C8_18  and  C9_19 
REMARK    9  A    between atoms: C9_19  and  O6_20 
REMARK   10  A    between atoms: C9_19  and  C10_22 
REMARK   11  A    between atoms: C10_22  and  O7_23 
ROOT
HETATM    1  N1  UNL     1      -1.934  -5.196  -3.942  1.00  0.00    -0.195 NA
ENDROOT
BRANCH   1   2
HETATM    2  S1  UNL     1      -1.650  -6.158  -5.301  1.00  0.00     0.244 S 
HETATM    3  O2  UNL     1      -0.551  -5.523  -6.140  1.00  0.00    -0.206 OA
HETATM    4  O3  UNL     1      -1.260  -7.580  -4.944  1.00  0.00    -0.206 OA
BRANCH   2   5
HETATM    5  C5  UNL     1      -3.065  -6.208  -6.327  1.00  0.00     0.074 A 
HETATM    6  C4  UNL     1      -4.305  -6.609  -5.857  1.00  0.00     0.027 A 
HETATM    7  C3  UNL     1      -5.433  -6.655  -6.649  1.00  0.00     0.038 A 
HETATM    8  C2  UNL     1      -5.370  -6.293  -7.978  1.00  0.00     0.068 A 
HETATM    9  C12 UNL     1      -4.141  -5.892  -8.456  1.00  0.00     0.038 A 
HETATM   10  C11 UNL     1      -3.010  -5.844  -7.670  1.00  0.00     0.027 A 
BRANCH   8  11
HETATM   11  O1  UNL     1      -6.502  -6.331  -8.803  1.00  0.00    -0.356 OA
HETATM   12  C1  UNL     1      -6.516  -7.289  -9.844  1.00  0.00     0.210 C 
ENDBRANCH   8  11
ENDBRANCH   2   5
ENDBRANCH   1   2
BRANCH   1  13
HETATM   13  C6  UNL     1      -2.861  -4.138  -4.300  1.00  0.00     0.212 C 
BRANCH  13  14
HETATM   14  C7  UNL     1      -2.174  -2.843  -4.381  1.00  0.00     0.255 C 
HETATM   15  O4  UNL     1      -1.704  -2.337  -3.328  1.00  0.00    -0.270 OA
HETATM   16  N2  UNL     1      -2.052  -2.195  -5.626  1.00  0.00    -0.236 N 
ATOM     17  H2  UNL     1      -2.426  -2.598  -6.485  1.00  0.00     0.197 HD
BRANCH  16  18
HETATM   18  O5  UNL     1      -1.399  -0.992  -5.612  1.00  0.00    -0.287 OA
ATOM     19  H5  UNL     1      -0.840  -0.815  -6.359  1.00  0.00     0.244 HD
ENDBRANCH  16  18
ENDBRANCH  13  14
ENDBRANCH   1  13
BRANCH   1  20
HETATM   20  C8  UNL     1      -2.422  -5.852  -2.788  1.00  0.00     0.142 C 
BRANCH  20  21
HETATM   21  C9  UNL     1      -1.675  -5.598  -1.517  1.00  0.00     0.155 C 
BRANCH  21  22
HETATM   22  O6  UNL     1      -1.666  -4.310  -1.071  1.00  0.00    -0.392 OA
ATOM     23  H6  UNL     1      -1.583  -3.635  -1.735  1.00  0.00     0.210 HD
ENDBRANCH  21  22
BRANCH  21  24
HETATM   24  C10 UNL     1      -0.216  -6.004  -1.761  1.00  0.00     0.197 C 
BRANCH  24  25
HETATM   25  O7  UNL     1      -0.134  -7.273  -2.295  1.00  0.00    -0.398 OA
ATOM     26  H7  UNL     1       0.465  -7.817  -1.798  1.00  0.00     0.209 HD
ENDBRANCH  24  25
ENDBRANCH  21  24
ENDBRANCH  20  21
ENDBRANCH   1  20
TORSDOF 11
ENDMDL
