MODEL 9
REMARK VINA RESULT: -6.895206118      2.028      3.847
REMARK  11 active torsions:
REMARK  status: ('A' for Active; 'I' for Inactive)
REMARK    1  A    between atoms: O1_2  and  C2_3 
REMARK    2  A    between atoms: C5_6  and  S1_7 
REMARK    3  A    between atoms: S1_7  and  N1_10 
REMARK    4  A    between atoms: N1_10  and  C6_11 
REMARK    5  A    between atoms: N1_10  and  C8_18 
REMARK    6  A    between atoms: C6_11  and  C7_12 
REMARK       I    between atoms: C7_12  and  N2_14 
REMARK    7  A    between atoms: N2_14  and  O5_16 
REMARK    8  A    between atoms: C8_18  and  C9_19 
REMARK    9  A    between atoms: C9_19  and  O6_20 
REMARK   10  A    between atoms: C9_19  and  C10_22 
REMARK   11  A    between atoms: C10_22  and  O7_23 
ROOT
HETATM    1  N1  UNL     1      -2.057  -4.794  -4.294  1.00  0.00    -0.195 NA
ENDROOT
BRANCH   1   2
HETATM    2  S1  UNL     1      -1.780  -5.944  -5.500  1.00  0.00     0.244 S 
HETATM    3  O2  UNL     1      -0.674  -5.447  -6.419  1.00  0.00    -0.206 OA
HETATM    4  O3  UNL     1      -1.404  -7.304  -4.941  1.00  0.00    -0.206 OA
BRANCH   2   5
HETATM    5  C5  UNL     1      -3.195  -6.129  -6.512  1.00  0.00     0.074 A 
HETATM    6  C4  UNL     1      -3.167  -5.872  -7.873  1.00  0.00     0.027 A 
HETATM    7  C3  UNL     1      -4.270  -6.011  -8.689  1.00  0.00     0.038 A 
HETATM    8  C2  UNL     1      -5.478  -6.426  -8.168  1.00  0.00     0.068 A 
HETATM    9  C12 UNL     1      -5.516  -6.685  -6.814  1.00  0.00     0.038 A 
HETATM   10  C11 UNL     1      -4.417  -6.546  -5.994  1.00  0.00     0.027 A 
BRANCH   8  11
HETATM   11  O1  UNL     1      -6.613  -6.576  -8.976  1.00  0.00    -0.356 OA
HETATM   12  C1  UNL     1      -7.649  -7.410  -8.496  1.00  0.00     0.210 C 
ENDBRANCH   8  11
ENDBRANCH   2   5
ENDBRANCH   1   2
BRANCH   1  13
HETATM   13  C6  UNL     1      -2.601  -3.594  -4.905  1.00  0.00     0.212 C 
BRANCH  13  14
HETATM   14  C7  UNL     1      -1.780  -2.422  -4.581  1.00  0.00     0.255 C 
HETATM   15  O4  UNL     1      -2.231  -1.274  -4.832  1.00  0.00    -0.270 OA
HETATM   16  N2  UNL     1      -0.510  -2.600  -3.995  1.00  0.00    -0.236 N 
ATOM     17  H2  UNL     1      -0.136  -3.526  -3.785  1.00  0.00     0.197 HD
BRANCH  16  18
HETATM   18  O5  UNL     1       0.190  -1.456  -3.727  1.00  0.00    -0.287 OA
ATOM     19  H5  UNL     1       0.575  -1.398  -2.860  1.00  0.00     0.244 HD
ENDBRANCH  16  18
ENDBRANCH  13  14
ENDBRANCH   1  13
BRANCH   1  20
HETATM   20  C8  UNL     1      -2.902  -5.180  -3.228  1.00  0.00     0.142 C 
BRANCH  20  21
HETATM   21  C9  UNL     1      -2.289  -5.175  -1.863  1.00  0.00     0.155 C 
BRANCH  21  22
HETATM   22  O6  UNL     1      -1.162  -4.424  -1.712  1.00  0.00    -0.392 OA
ATOM     23  H6  UNL     1      -0.704  -4.186  -2.510  1.00  0.00     0.210 HD
ENDBRANCH  21  22
BRANCH  21  24
HETATM   24  C10 UNL     1      -1.916  -6.626  -1.530  1.00  0.00     0.197 C 
BRANCH  24  25
HETATM   25  O7  UNL     1      -2.594  -7.514  -2.338  1.00  0.00    -0.398 OA
ATOM     26  H7  UNL     1      -2.837  -7.112  -3.164  1.00  0.00     0.209 HD
ENDBRANCH  24  25
ENDBRANCH  21  24
ENDBRANCH  20  21
ENDBRANCH   1  20
TORSDOF 11
ENDMDL
