MODEL 15
REMARK VINA RESULT: -6.731486077      1.975      3.529
REMARK  11 active torsions:
REMARK  status: ('A' for Active; 'I' for Inactive)
REMARK    1  A    between atoms: O1_2  and  C2_3 
REMARK    2  A    between atoms: C5_6  and  S1_7 
REMARK    3  A    between atoms: S1_7  and  N1_10 
REMARK    4  A    between atoms: N1_10  and  C6_11 
REMARK    5  A    between atoms: N1_10  and  C8_18 
REMARK    6  A    between atoms: C6_11  and  C7_12 
REMARK       I    between atoms: C7_12  and  N2_14 
REMARK    7  A    between atoms: N2_14  and  O5_16 
REMARK    8  A    between atoms: C8_18  and  C9_19 
REMARK    9  A    between atoms: C9_19  and  O6_20 
REMARK   10  A    between atoms: C9_19  and  C10_22 
REMARK   11  A    between atoms: C10_22  and  O7_23 
ROOT
HETATM    1  N1  UNL     1      -2.078  -4.808  -4.272  1.00  0.00    -0.195 NA
ENDROOT
BRANCH   1   2
HETATM    2  S1  UNL     1      -1.808  -5.972  -5.464  1.00  0.00     0.244 S 
HETATM    3  O2  UNL     1      -0.682  -5.503  -6.374  1.00  0.00    -0.206 OA
HETATM    4  O3  UNL     1      -1.462  -7.334  -4.890  1.00  0.00    -0.206 OA
BRANCH   2   5
HETATM    5  C5  UNL     1      -3.213  -6.140  -6.492  1.00  0.00     0.074 A 
HETATM    6  C4  UNL     1      -4.445  -6.534  -5.999  1.00  0.00     0.027 A 
HETATM    7  C3  UNL     1      -5.566  -6.672  -6.791  1.00  0.00     0.038 A 
HETATM    8  C2  UNL     1      -5.502  -6.415  -8.145  1.00  0.00     0.068 A 
HETATM    9  C12 UNL     1      -4.279  -6.021  -8.646  1.00  0.00     0.038 A 
HETATM   10  C11 UNL     1      -3.155  -5.882  -7.859  1.00  0.00     0.027 A 
BRANCH   8  11
HETATM   11  O1  UNL     1      -6.625  -6.548  -8.971  1.00  0.00    -0.356 OA
HETATM   12  C1  UNL     1      -6.525  -7.434 -10.068  1.00  0.00     0.210 C 
ENDBRANCH   8  11
ENDBRANCH   2   5
ENDBRANCH   1   2
BRANCH   1  13
HETATM   13  C6  UNL     1      -2.669  -3.633  -4.887  1.00  0.00     0.212 C 
BRANCH  13  14
HETATM   14  C7  UNL     1      -1.834  -2.447  -4.663  1.00  0.00     0.255 C 
HETATM   15  O4  UNL     1      -2.232  -1.333  -5.095  1.00  0.00    -0.270 OA
HETATM   16  N2  UNL     1      -0.612  -2.574  -3.972  1.00  0.00    -0.236 N 
ATOM     17  H2  UNL     1      -0.283  -3.471  -3.616  1.00  0.00     0.197 HD
BRANCH  16  18
HETATM   18  O5  UNL     1       0.104  -1.420  -3.808  1.00  0.00    -0.287 OA
ATOM     19  H5  UNL     1       0.149  -1.082  -2.922  1.00  0.00     0.244 HD
ENDBRANCH  16  18
ENDBRANCH  13  14
ENDBRANCH   1  13
BRANCH   1  20
HETATM   20  C8  UNL     1      -2.881  -5.194  -3.174  1.00  0.00     0.142 C 
BRANCH  20  21
HETATM   21  C9  UNL     1      -2.156  -5.515  -1.905  1.00  0.00     0.155 C 
BRANCH  21  22
HETATM   22  O6  UNL     1      -2.500  -6.685  -1.295  1.00  0.00    -0.392 OA
ATOM     23  H6  UNL     1      -3.427  -6.821  -1.138  1.00  0.00     0.210 HD
ENDBRANCH  21  22
BRANCH  21  24
HETATM   24  C10 UNL     1      -2.455  -4.382  -0.915  1.00  0.00     0.197 C 
BRANCH  24  25
HETATM   25  O7  UNL     1      -1.868  -3.200  -1.317  1.00  0.00    -0.398 OA
ATOM     26  H7  UNL     1      -1.324  -2.835  -0.630  1.00  0.00     0.209 HD
ENDBRANCH  24  25
ENDBRANCH  21  24
ENDBRANCH  20  21
ENDBRANCH   1  20
TORSDOF 11
ENDMDL
