MODEL 20
REMARK VINA RESULT: -6.391810654      2.522      5.920
REMARK  11 active torsions:
REMARK  status: ('A' for Active; 'I' for Inactive)
REMARK    1  A    between atoms: O1_2  and  C2_3 
REMARK    2  A    between atoms: C5_6  and  S1_7 
REMARK    3  A    between atoms: S1_7  and  N1_10 
REMARK    4  A    between atoms: N1_10  and  C6_11 
REMARK    5  A    between atoms: N1_10  and  C8_18 
REMARK    6  A    between atoms: C6_11  and  C7_12 
REMARK       I    between atoms: C7_12  and  N2_14 
REMARK    7  A    between atoms: N2_14  and  O5_16 
REMARK    8  A    between atoms: C8_18  and  C9_19 
REMARK    9  A    between atoms: C9_19  and  O6_20 
REMARK   10  A    between atoms: C9_19  and  C10_22 
REMARK   11  A    between atoms: C10_22  and  O7_23 
ROOT
HETATM    1  N1  UNL     1      -2.960  -5.989  -5.018  1.00  0.00    -0.195 NA
ENDROOT
BRANCH   1   2
HETATM    2  S1  UNL     1      -1.717  -6.651  -4.086  1.00  0.00     0.244 S 
HETATM    3  O2  UNL     1      -0.446  -6.711  -4.919  1.00  0.00    -0.206 OA
HETATM    4  O3  UNL     1      -1.454  -5.867  -2.813  1.00  0.00    -0.206 OA
BRANCH   2   5
HETATM    5  C5  UNL     1      -2.084  -8.306  -3.656  1.00  0.00     0.074 A 
HETATM    6  C4  UNL     1      -2.719  -8.638  -2.471  1.00  0.00     0.027 A 
HETATM    7  C3  UNL     1      -3.018  -9.936  -2.113  1.00  0.00     0.038 A 
HETATM    8  C2  UNL     1      -2.689 -10.985  -2.946  1.00  0.00     0.068 A 
HETATM    9  C12 UNL     1      -2.057 -10.665  -4.129  1.00  0.00     0.038 A 
HETATM   10  C11 UNL     1      -1.755  -9.370  -4.491  1.00  0.00     0.027 A 
BRANCH   8  11
HETATM   11  O1  UNL     1      -2.982 -12.312  -2.605  1.00  0.00    -0.356 OA
HETATM   12  C1  UNL     1      -2.982 -13.267  -3.648  1.00  0.00     0.210 C 
ENDBRANCH   8  11
ENDBRANCH   2   5
ENDBRANCH   1   2
BRANCH   1  13
HETATM   13  C6  UNL     1      -2.408  -4.945  -5.863  1.00  0.00     0.212 C 
BRANCH  13  14
HETATM   14  C7  UNL     1      -2.677  -3.617  -5.300  1.00  0.00     0.255 C 
HETATM   15  O4  UNL     1      -3.584  -3.495  -4.434  1.00  0.00    -0.270 OA
HETATM   16  N2  UNL     1      -1.919  -2.509  -5.732  1.00  0.00    -0.236 N 
ATOM     17  H2  UNL     1      -1.181  -2.598  -6.430  1.00  0.00     0.197 HD
BRANCH  16  18
HETATM   18  O5  UNL     1      -2.236  -1.308  -5.158  1.00  0.00    -0.287 OA
ATOM     19  H5  UNL     1      -2.272  -0.564  -5.746  1.00  0.00     0.244 HD
ENDBRANCH  16  18
ENDBRANCH  13  14
ENDBRANCH   1  13
BRANCH   1  20
HETATM   20  C8  UNL     1      -3.694  -6.884  -5.829  1.00  0.00     0.142 C 
BRANCH  20  21
HETATM   21  C9  UNL     1      -4.904  -6.322  -6.506  1.00  0.00     0.155 C 
BRANCH  21  22
HETATM   22  O6  UNL     1      -6.111  -6.723  -6.015  1.00  0.00    -0.392 OA
ATOM     23  H6  UNL     1      -6.282  -6.519  -5.103  1.00  0.00     0.210 HD
ENDBRANCH  21  22
BRANCH  21  24
HETATM   24  C10 UNL     1      -4.844  -6.761  -7.975  1.00  0.00     0.197 C 
BRANCH  24  25
HETATM   25  O7  UNL     1      -4.283  -5.781  -8.767  1.00  0.00    -0.398 OA
ATOM     26  H7  UNL     1      -3.436  -5.512  -8.432  1.00  0.00     0.209 HD
ENDBRANCH  24  25
ENDBRANCH  21  24
ENDBRANCH  20  21
ENDBRANCH   1  20
TORSDOF 11
ENDMDL
