MODEL 7
REMARK VINA RESULT: -8.135657791      2.264      3.589
REMARK  8 active torsions:
REMARK  status: ('A' for Active; 'I' for Inactive)
REMARK    1  A    between atoms: O1_2  and  C2_3 
REMARK    2  A    between atoms: C5_6  and  S1_7 
REMARK    3  A    between atoms: S1_7  and  N1_10 
REMARK    4  A    between atoms: N1_10  and  C6_12 
REMARK    5  A    between atoms: C6_12  and  C7_13 
REMARK    6  A    between atoms: C6_12  and  C8_16 
REMARK    7  A    between atoms: C7_13  and  O4_14 
REMARK       I    between atoms: C8_16  and  N2_18 
REMARK    8  A    between atoms: N2_18  and  O6_20 
ROOT
HETATM    1  N1  UNL     1      -2.545  -5.774  -4.060  1.00  0.00    -0.299 N 
ATOM      2  H1  UNL     1      -3.237  -6.103  -3.387  1.00  0.00     0.173 HD
ENDROOT
BRANCH   1   3
HETATM    3  S1  UNL     1      -2.084  -6.586  -5.493  1.00  0.00     0.259 S 
HETATM    4  O2  UNL     1      -0.817  -5.930  -5.993  1.00  0.00    -0.201 OA
HETATM    5  O3  UNL     1      -1.672  -7.995  -5.090  1.00  0.00    -0.201 OA
BRANCH   3   6
HETATM    6  C5  UNL     1      -3.318  -6.612  -6.707  1.00  0.00     0.079 A 
HETATM    7  C4  UNL     1      -3.012  -6.660  -8.048  1.00  0.00     0.028 A 
HETATM    8  C3  UNL     1      -4.005  -6.686  -9.029  1.00  0.00     0.038 A 
HETATM    9  C2  UNL     1      -5.336  -6.664  -8.681  1.00  0.00     0.068 A 
HETATM   10  C10 UNL     1      -5.653  -6.616  -7.344  1.00  0.00     0.038 A 
HETATM   11  C9  UNL     1      -4.669  -6.591  -6.378  1.00  0.00     0.028 A 
BRANCH   9  12
HETATM   12  O1  UNL     1      -6.341  -6.690  -9.653  1.00  0.00    -0.356 OA
HETATM   13  C1  UNL     1      -7.623  -7.192  -9.363  1.00  0.00     0.210 C 
ENDBRANCH   9  12
ENDBRANCH   3   6
ENDBRANCH   1   3
BRANCH   1  14
HETATM   14  C6  UNL     1      -1.795  -4.546  -3.957  1.00  0.00     0.210 C 
BRANCH  14  15
HETATM   15  C7  UNL     1      -1.492  -4.189  -2.512  1.00  0.00     0.199 C 
BRANCH  15  16
HETATM   16  O4  UNL     1      -2.112  -2.963  -2.268  1.00  0.00    -0.398 OA
ATOM     17  H4  UNL     1      -1.820  -2.678  -1.410  1.00  0.00     0.209 HD
ENDBRANCH  15  16
ENDBRANCH  14  15
BRANCH  14  18
HETATM   18  C8  UNL     1      -2.610  -3.467  -4.606  1.00  0.00     0.266 C 
HETATM   19  O5  UNL     1      -3.870  -3.498  -4.612  1.00  0.00    -0.269 OA
HETATM   20  N2  UNL     1      -1.951  -2.373  -5.234  1.00  0.00    -0.236 N 
ATOM     21  H2  UNL     1      -0.930  -2.349  -5.228  1.00  0.00     0.197 HD
BRANCH  20  22
HETATM   22  O6  UNL     1      -2.621  -1.362  -5.840  1.00  0.00    -0.287 OA
ATOM     23  H6  UNL     1      -2.497  -0.449  -5.606  1.00  0.00     0.244 HD
ENDBRANCH  20  22
ENDBRANCH  14  18
ENDBRANCH   1  14
TORSDOF 8
ENDMDL
