MODEL 9
REMARK VINA RESULT: -7.955760843      2.303      3.308
REMARK  8 active torsions:
REMARK  status: ('A' for Active; 'I' for Inactive)
REMARK    1  A    between atoms: O1_2  and  C2_3 
REMARK    2  A    between atoms: C5_6  and  S1_7 
REMARK    3  A    between atoms: S1_7  and  N1_10 
REMARK    4  A    between atoms: N1_10  and  C6_12 
REMARK    5  A    between atoms: C6_12  and  C7_13 
REMARK    6  A    between atoms: C6_12  and  C8_16 
REMARK    7  A    between atoms: C7_13  and  O4_14 
REMARK       I    between atoms: C8_16  and  N2_18 
REMARK    8  A    between atoms: N2_18  and  O6_20 
ROOT
HETATM    1  N1  UNL     1      -2.976  -5.225  -4.560  1.00  0.00    -0.299 N 
ATOM      2  H1  UNL     1      -3.939  -5.097  -4.249  1.00  0.00     0.173 HD
ENDROOT
BRANCH   1   3
HETATM    3  S1  UNL     1      -2.469  -6.250  -5.832  1.00  0.00     0.259 S 
HETATM    4  O2  UNL     1      -1.232  -5.629  -6.443  1.00  0.00    -0.201 OA
HETATM    5  O3  UNL     1      -1.993  -7.546  -5.193  1.00  0.00    -0.201 OA
BRANCH   3   6
HETATM    6  C5  UNL     1      -3.694  -6.544  -7.020  1.00  0.00     0.079 A 
HETATM    7  C4  UNL     1      -5.023  -6.647  -6.679  1.00  0.00     0.028 A 
HETATM    8  C3  UNL     1      -6.013  -6.879  -7.635  1.00  0.00     0.038 A 
HETATM    9  C2  UNL     1      -5.686  -7.015  -8.964  1.00  0.00     0.068 A 
HETATM   10  C10 UNL     1      -4.361  -6.914  -9.317  1.00  0.00     0.038 A 
HETATM   11  C9  UNL     1      -3.387  -6.684  -8.369  1.00  0.00     0.028 A 
BRANCH   9  12
HETATM   12  O1  UNL     1      -6.669  -7.247  -9.933  1.00  0.00    -0.356 OA
HETATM   13  C1  UNL     1      -7.922  -7.783  -9.585  1.00  0.00     0.210 C 
ENDBRANCH   9  12
ENDBRANCH   3   6
ENDBRANCH   1   3
BRANCH   1  14
HETATM   14  C6  UNL     1      -1.820  -4.571  -3.998  1.00  0.00     0.210 C 
BRANCH  14  15
HETATM   15  C7  UNL     1      -1.651  -4.893  -2.523  1.00  0.00     0.199 C 
BRANCH  15  16
HETATM   16  O4  UNL     1      -2.183  -6.169  -2.331  1.00  0.00    -0.398 OA
ATOM     17  H4  UNL     1      -1.685  -6.566  -1.626  1.00  0.00     0.209 HD
ENDBRANCH  15  16
ENDBRANCH  14  15
BRANCH  14  18
HETATM   18  C8  UNL     1      -1.999  -3.095  -4.198  1.00  0.00     0.266 C 
HETATM   19  O5  UNL     1      -2.038  -2.292  -3.227  1.00  0.00    -0.269 OA
HETATM   20  N2  UNL     1      -2.128  -2.577  -5.518  1.00  0.00    -0.236 N 
ATOM     21  H2  UNL     1      -2.094  -3.228  -6.303  1.00  0.00     0.197 HD
BRANCH  20  22
HETATM   22  O6  UNL     1      -2.292  -1.256  -5.775  1.00  0.00    -0.287 OA
ATOM     23  H6  UNL     1      -2.429  -0.916  -6.652  1.00  0.00     0.244 HD
ENDBRANCH  20  22
ENDBRANCH  14  18
ENDBRANCH   1  14
TORSDOF 8
ENDMDL
