MODEL 6
REMARK VINA RESULT: -8.204547248      3.331      7.349
REMARK  8 active torsions:
REMARK  status: ('A' for Active; 'I' for Inactive)
REMARK    1  A    between atoms: O1_2  and  C2_3 
REMARK    2  A    between atoms: C5_6  and  S1_7 
REMARK    3  A    between atoms: S1_7  and  N1_10 
REMARK    4  A    between atoms: N1_10  and  C6_12 
REMARK    5  A    between atoms: C6_12  and  C7_13 
REMARK    6  A    between atoms: C6_12  and  C8_16 
REMARK    7  A    between atoms: C7_13  and  O4_14 
REMARK       I    between atoms: C8_16  and  N2_18 
REMARK    8  A    between atoms: N2_18  and  O6_20 
ROOT
HETATM    1  N1  UNL     1      -9.547  -7.928  -8.818  1.00  0.00    -0.299 N 
ATOM      2  H1  UNL     1      -9.744  -7.188  -8.145  1.00  0.00     0.173 HD
ENDROOT
BRANCH   1   3
HETATM    3  S1  UNL     1      -8.075  -8.137  -9.664  1.00  0.00     0.259 S 
HETATM    4  O2  UNL     1      -7.823  -9.624  -9.766  1.00  0.00    -0.201 OA
HETATM    5  O3  UNL     1      -8.317  -7.673 -11.093  1.00  0.00    -0.201 OA
BRANCH   3   6
HETATM    6  C5  UNL     1      -6.736  -7.304  -8.949  1.00  0.00     0.079 A 
HETATM    7  C4  UNL     1      -5.707  -6.800  -9.711  1.00  0.00     0.028 A 
HETATM    8  C3  UNL     1      -4.628  -6.125  -9.137  1.00  0.00     0.038 A 
HETATM    9  C2  UNL     1      -4.560  -5.940  -7.776  1.00  0.00     0.068 A 
HETATM   10  C10 UNL     1      -5.583  -6.439  -7.005  1.00  0.00     0.038 A 
HETATM   11  C9  UNL     1      -6.647  -7.106  -7.576  1.00  0.00     0.028 A 
BRANCH   9  12
HETATM   12  O1  UNL     1      -3.486  -5.264  -7.188  1.00  0.00    -0.356 OA
HETATM   13  C1  UNL     1      -2.159  -5.532  -7.572  1.00  0.00     0.210 C 
ENDBRANCH   9  12
ENDBRANCH   3   6
ENDBRANCH   1   3
BRANCH   1  14
HETATM   14  C6  UNL     1     -10.463  -8.970  -9.211  1.00  0.00     0.210 C 
BRANCH  14  15
HETATM   15  C7  UNL     1     -11.725  -8.404  -9.839  1.00  0.00     0.199 C 
BRANCH  15  16
HETATM   16  O4  UNL     1     -12.717  -8.459  -8.858  1.00  0.00    -0.398 OA
ATOM     17  H4  UNL     1     -13.435  -8.958  -9.227  1.00  0.00     0.209 HD
ENDBRANCH  15  16
ENDBRANCH  14  15
BRANCH  14  18
HETATM   18  C8  UNL     1     -10.797  -9.761  -7.981  1.00  0.00     0.266 C 
HETATM   19  O5  UNL     1     -11.280 -10.923  -8.048  1.00  0.00    -0.269 OA
HETATM   20  N2  UNL     1     -10.562  -9.192  -6.697  1.00  0.00    -0.236 N 
ATOM     21  H2  UNL     1     -10.169  -8.252  -6.644  1.00  0.00     0.197 HD
BRANCH  20  22
HETATM   22  O6  UNL     1     -10.838  -9.847  -5.542  1.00  0.00    -0.287 OA
ATOM     23  H6  UNL     1     -11.208  -9.414  -4.781  1.00  0.00     0.244 HD
ENDBRANCH  20  22
ENDBRANCH  14  18
ENDBRANCH   1  14
TORSDOF 8
ENDMDL
