MODEL 5
REMARK VINA RESULT: -9.592774611      1.292      2.077
REMARK  6 active torsions:
REMARK  status: ('A' for Active; 'I' for Inactive)
REMARK    1  A    between atoms: O1_1  and  N1_3 
REMARK       I    between atoms: N1_3  and  C1_5 
REMARK    2  A    between atoms: C1_5  and  C2_7 
REMARK    3  A    between atoms: C2_7  and  N2_8 
REMARK    4  A    between atoms: N2_8  and  S1_10 
REMARK    5  A    between atoms: S1_10  and  C3_13 
REMARK    6  A    between atoms: C6_16  and  C7_17 
ROOT
HETATM    1  C3  UNL     1       5.114  -7.165   8.835  1.00  0.00     0.079 A 
HETATM    2  C4  UNL     1       6.100  -7.188   7.876  1.00  0.00     0.026 A 
HETATM    3  C5  UNL     1       7.409  -7.568   8.202  1.00  0.00     0.014 A 
HETATM    4  C6  UNL     1       7.699  -7.920   9.500  1.00  0.00    -0.026 A 
HETATM    5  C13 UNL     1       6.728  -7.901  10.456  1.00  0.00     0.014 A 
HETATM    6  C14 UNL     1       5.425  -7.521  10.121  1.00  0.00     0.026 A 
ENDROOT
BRANCH   1   7
HETATM    7  S1  UNL     1       3.509  -6.693   8.409  1.00  0.00     0.259 S 
HETATM    8  O3  UNL     1       2.461  -7.507   9.132  1.00  0.00    -0.201 OA
HETATM    9  O4  UNL     1       3.230  -5.241   8.762  1.00  0.00    -0.201 OA
BRANCH   7  10
HETATM   10  N2  UNL     1       3.187  -6.845   6.715  1.00  0.00    -0.307 N 
ATOM     11  H2  UNL     1       2.836  -7.672   6.233  1.00  0.00     0.172 HD
BRANCH  10  12
HETATM   12  C2  UNL     1       3.516  -5.562   6.113  1.00  0.00     0.237 C 
BRANCH  12  13
HETATM   13  C1  UNL     1       2.323  -4.829   5.675  1.00  0.00     0.259 C 
HETATM   14  N1  UNL     1       1.168  -4.762   6.487  1.00  0.00    -0.236 N 
ATOM     15  H1  UNL     1       1.255  -4.348   7.416  1.00  0.00     0.197 HD
HETATM   16  O2  UNL     1       2.320  -4.252   4.565  1.00  0.00    -0.270 OA
BRANCH  14  17
HETATM   17  O1  UNL     1       0.044  -5.183   6.129  1.00  0.00    -0.287 OA
ATOM     18  H1  UNL     1      -0.716  -5.206   6.700  1.00  0.00     0.244 HD
ENDBRANCH  14  17
ENDBRANCH  12  13
ENDBRANCH  10  12
ENDBRANCH   7  10
ENDBRANCH   1   7
BRANCH   4  19
HETATM   19  C7  UNL     1       9.054  -8.317   9.857  1.00  0.00    -0.026 A 
HETATM   20  C8  UNL     1      10.081  -8.359   8.936  1.00  0.00     0.012 A 
HETATM   21  C9  UNL     1      11.350  -8.738   9.310  1.00  0.00     0.001 A 
HETATM   22  C10 UNL     1      11.664  -9.092  10.605  1.00  0.00     0.000 A 
HETATM   23  C11 UNL     1      10.642  -9.052  11.531  1.00  0.00     0.001 A 
HETATM   24  C12 UNL     1       9.369  -8.674  11.166  1.00  0.00     0.012 A 
ENDBRANCH   4  19
TORSDOF 6
ENDMDL
