MODEL 4
REMARK VINA RESULT: -9.596219254      1.290      1.804
REMARK  6 active torsions:
REMARK  status: ('A' for Active; 'I' for Inactive)
REMARK    1  A    between atoms: O1_1  and  N1_3 
REMARK       I    between atoms: N1_3  and  C1_5 
REMARK    2  A    between atoms: C1_5  and  C2_7 
REMARK    3  A    between atoms: C2_7  and  N2_8 
REMARK    4  A    between atoms: N2_8  and  S1_10 
REMARK    5  A    between atoms: S1_10  and  C3_13 
REMARK    6  A    between atoms: C6_16  and  C7_17 
ROOT
HETATM    1  C3  UNL     1       5.125  -7.172   8.812  1.00  0.00     0.079 A 
HETATM    2  C4  UNL     1       5.425  -7.526  10.107  1.00  0.00     0.026 A 
HETATM    3  C5  UNL     1       6.723  -7.915  10.462  1.00  0.00     0.014 A 
HETATM    4  C6  UNL     1       7.702  -7.938   9.495  1.00  0.00    -0.026 A 
HETATM    5  C13 UNL     1       7.413  -7.587   8.210  1.00  0.00     0.014 A 
HETATM    6  C14 UNL     1       6.115  -7.201   7.866  1.00  0.00     0.026 A 
ENDROOT
BRANCH   1   7
HETATM    7  S1  UNL     1       3.517  -6.698   8.400  1.00  0.00     0.259 S 
HETATM    8  O3  UNL     1       2.474  -7.508   9.135  1.00  0.00    -0.201 OA
HETATM    9  O4  UNL     1       3.244  -5.245   8.753  1.00  0.00    -0.201 OA
BRANCH   7  10
HETATM   10  N2  UNL     1       3.179  -6.852   6.710  1.00  0.00    -0.307 N 
ATOM     11  H2  UNL     1       2.820  -7.679   6.233  1.00  0.00     0.172 HD
BRANCH  10  12
HETATM   12  C2  UNL     1       3.506  -5.572   6.103  1.00  0.00     0.237 C 
BRANCH  12  13
HETATM   13  C1  UNL     1       2.313  -4.845   5.655  1.00  0.00     0.259 C 
HETATM   14  N1  UNL     1       1.163  -4.754   6.473  1.00  0.00    -0.236 N 
ATOM     15  H1  UNL     1       1.258  -4.318   7.391  1.00  0.00     0.197 HD
HETATM   16  O2  UNL     1       2.304  -4.294   4.531  1.00  0.00    -0.270 OA
BRANCH  14  17
HETATM   17  O1  UNL     1       0.035  -5.179   6.133  1.00  0.00    -0.287 OA
ATOM     18  H1  UNL     1      -0.595  -5.545   6.743  1.00  0.00     0.244 HD
ENDBRANCH  14  17
ENDBRANCH  12  13
ENDBRANCH  10  12
ENDBRANCH   7  10
ENDBRANCH   1   7
BRANCH   4  19
HETATM   19  C7  UNL     1       9.057  -8.339   9.846  1.00  0.00    -0.026 A 
HETATM   20  C8  UNL     1      10.080  -8.385   8.921  1.00  0.00     0.012 A 
HETATM   21  C9  UNL     1      11.349  -8.768   9.289  1.00  0.00     0.001 A 
HETATM   22  C10 UNL     1      11.668  -9.122  10.584  1.00  0.00     0.000 A 
HETATM   23  C11 UNL     1      10.650  -9.078  11.514  1.00  0.00     0.001 A 
HETATM   24  C12 UNL     1       9.376  -8.696  11.154  1.00  0.00     0.012 A 
ENDBRANCH   4  19
TORSDOF 6
ENDMDL
