MODEL 3
REMARK VINA RESULT: -9.596279479      2.194      3.690
REMARK  6 active torsions:
REMARK  status: ('A' for Active; 'I' for Inactive)
REMARK    1  A    between atoms: O1_1  and  N1_3 
REMARK       I    between atoms: N1_3  and  C1_5 
REMARK    2  A    between atoms: C1_5  and  C2_7 
REMARK    3  A    between atoms: C2_7  and  N2_8 
REMARK    4  A    between atoms: N2_8  and  S1_10 
REMARK    5  A    between atoms: S1_10  and  C3_13 
REMARK    6  A    between atoms: C6_16  and  C7_17 
ROOT
HETATM    1  C3  UNL     1       2.121  -6.423   5.842  1.00  0.00     0.079 A 
HETATM    2  C4  UNL     1       2.028  -6.249   7.204  1.00  0.00     0.026 A 
HETATM    3  C5  UNL     1       3.136  -6.471   8.033  1.00  0.00     0.014 A 
HETATM    4  C6  UNL     1       4.326  -6.867   7.466  1.00  0.00    -0.026 A 
HETATM    5  C13 UNL     1       4.426  -7.041   6.119  1.00  0.00     0.014 A 
HETATM    6  C14 UNL     1       3.316  -6.817   5.300  1.00  0.00     0.026 A 
ENDROOT
BRANCH   1   7
HETATM    7  S1  UNL     1       0.742  -6.143   4.843  1.00  0.00     0.259 S 
HETATM    8  O3  UNL     1       0.048  -7.428   4.451  1.00  0.00    -0.201 OA
HETATM    9  O4  UNL     1      -0.308  -5.297   5.544  1.00  0.00    -0.201 OA
BRANCH   7  10
HETATM   10  N2  UNL     1       1.128  -5.309   3.376  1.00  0.00    -0.307 N 
ATOM     11  H2  UNL     1       1.484  -5.723   2.515  1.00  0.00     0.172 HD
BRANCH  10  12
HETATM   12  C2  UNL     1       0.844  -3.902   3.612  1.00  0.00     0.237 C 
BRANCH  12  13
HETATM   13  C1  UNL     1       1.850  -3.266   4.469  1.00  0.00     0.259 C 
HETATM   14  N1  UNL     1       1.470  -2.512   5.604  1.00  0.00    -0.236 N 
ATOM     15  H1  UNL     1       0.936  -2.981   6.337  1.00  0.00     0.197 HD
HETATM   16  O2  UNL     1       3.066  -3.385   4.198  1.00  0.00    -0.270 OA
BRANCH  14  17
HETATM   17  O1  UNL     1       1.754  -1.302   5.760  1.00  0.00    -0.287 OA
ATOM     18  H1  UNL     1       1.988  -0.920   6.597  1.00  0.00     0.244 HD
ENDBRANCH  14  17
ENDBRANCH  12  13
ENDBRANCH  10  12
ENDBRANCH   7  10
ENDBRANCH   1   7
BRANCH   4  19
HETATM   19  C7  UNL     1       5.487  -7.103   8.313  1.00  0.00    -0.026 A 
HETATM   20  C8  UNL     1       5.395  -7.210   9.685  1.00  0.00     0.012 A 
HETATM   21  C9  UNL     1       6.514  -7.434  10.453  1.00  0.00     0.001 A 
HETATM   22  C10 UNL     1       7.773  -7.564   9.904  1.00  0.00     0.000 A 
HETATM   23  C11 UNL     1       7.873  -7.458   8.533  1.00  0.00     0.001 A 
HETATM   24  C12 UNL     1       6.758  -7.233   7.756  1.00  0.00     0.012 A 
ENDBRANCH   4  19
TORSDOF 6
ENDMDL
