MODEL 11
REMARK VINA RESULT: -9.350372832      1.490      1.686
REMARK  6 active torsions:
REMARK  status: ('A' for Active; 'I' for Inactive)
REMARK    1  A    between atoms: O1_1  and  N1_3 
REMARK       I    between atoms: N1_3  and  C1_5 
REMARK    2  A    between atoms: C1_5  and  C2_7 
REMARK    3  A    between atoms: C2_7  and  N2_8 
REMARK    4  A    between atoms: N2_8  and  S1_10 
REMARK    5  A    between atoms: S1_10  and  C3_13 
REMARK    6  A    between atoms: C6_16  and  C7_17 
ROOT
HETATM    1  C3  UNL     1       5.396  -7.014   8.792  1.00  0.00     0.079 A 
HETATM    2  C4  UNL     1       5.651  -7.385  10.092  1.00  0.00     0.026 A 
HETATM    3  C5  UNL     1       6.921  -7.837  10.474  1.00  0.00     0.014 A 
HETATM    4  C6  UNL     1       7.918  -7.906   9.528  1.00  0.00    -0.026 A 
HETATM    5  C13 UNL     1       7.674  -7.540   8.239  1.00  0.00     0.014 A 
HETATM    6  C14 UNL     1       6.404  -7.090   7.868  1.00  0.00     0.026 A 
ENDROOT
BRANCH   1   7
HETATM    7  S1  UNL     1       3.823  -6.461   8.347  1.00  0.00     0.259 S 
HETATM    8  O3  UNL     1       2.754  -7.492   8.624  1.00  0.00    -0.201 OA
HETATM    9  O4  UNL     1       3.417  -5.217   9.121  1.00  0.00    -0.201 OA
BRANCH   7  10
HETATM   10  N2  UNL     1       3.702  -6.043   6.672  1.00  0.00    -0.307 N 
ATOM     11  H2  UNL     1       4.451  -5.696   6.074  1.00  0.00     0.172 HD
BRANCH  10  12
HETATM   12  C2  UNL     1       2.322  -6.286   6.283  1.00  0.00     0.237 C 
BRANCH  12  13
HETATM   13  C1  UNL     1       1.494  -5.078   6.376  1.00  0.00     0.259 C 
HETATM   14  N1  UNL     1       1.655  -4.011   5.462  1.00  0.00    -0.236 N 
ATOM     15  H1  UNL     1       1.516  -4.201   4.469  1.00  0.00     0.197 HD
HETATM   16  O2  UNL     1       0.631  -4.982   7.276  1.00  0.00    -0.270 OA
BRANCH  14  17
HETATM   17  O1  UNL     1       1.959  -2.845   5.805  1.00  0.00    -0.287 OA
ATOM     18  H1  UNL     1       1.655  -2.067   5.352  1.00  0.00     0.244 HD
ENDBRANCH  14  17
ENDBRANCH  12  13
ENDBRANCH  10  12
ENDBRANCH   7  10
ENDBRANCH   1   7
BRANCH   4  19
HETATM   19  C7  UNL     1       9.244  -8.374   9.907  1.00  0.00    -0.026 A 
HETATM   20  C8  UNL     1       9.562  -8.734  11.200  1.00  0.00     0.012 A 
HETATM   21  C9  UNL     1      10.826  -9.173  11.521  1.00  0.00     0.001 A 
HETATM   22  C10 UNL     1      11.832  -9.278  10.584  1.00  0.00     0.000 A 
HETATM   23  C11 UNL     1      11.521  -8.920   9.288  1.00  0.00     0.001 A 
HETATM   24  C12 UNL     1      10.259  -8.479   8.958  1.00  0.00     0.012 A 
ENDBRANCH   4  19
TORSDOF 6
ENDMDL
