MODEL 3
REMARK VINA RESULT: -7.054392514      1.850      2.325
REMARK  8 active torsions:
REMARK  status: ('A' for Active; 'I' for Inactive)
REMARK    1  A    between atoms: C1_2  and  C2_3 
REMARK       I    between atoms: C1_2  and  N2_19 
REMARK    2  A    between atoms: C2_3  and  N1_4 
REMARK    3  A    between atoms: N1_4  and  C3_5 
REMARK    4  A    between atoms: N1_4  and  S1_9 
REMARK    5  A    between atoms: C3_5  and  C4_6 
REMARK    6  A    between atoms: C4_6  and  O2_7 
REMARK    7  A    between atoms: S1_9  and  C5_12 
REMARK    8  A    between atoms: N2_19  and  O5_21 
ROOT
HETATM    1  N1  UNL     1     -11.141  -6.479 -18.145  1.00  0.00    -0.196 NA
ENDROOT
BRANCH   1   2
HETATM    2  C2  UNL     1     -12.498  -6.809 -18.494  1.00  0.00     0.212 C 
BRANCH   2   3
HETATM    3  C1  UNL     1     -12.490  -7.868 -19.534  1.00  0.00     0.255 C 
HETATM    4  O1  UNL     1     -11.542  -8.686 -19.624  1.00  0.00    -0.270 OA
HETATM    5  N2  UNL     1     -13.562  -7.988 -20.464  1.00  0.00    -0.236 N 
ATOM      6  H2  UNL     1     -14.342  -7.333 -20.407  1.00  0.00     0.197 HD
BRANCH   5   7
HETATM    7  O5  UNL     1     -13.576  -8.950 -21.423  1.00  0.00    -0.287 OA
ATOM      8  H5  UNL     1     -14.374  -9.196 -21.876  1.00  0.00     0.244 HD
ENDBRANCH   5   7
ENDBRANCH   2   3
ENDBRANCH   1   2
BRANCH   1   9
HETATM    9  C3  UNL     1     -10.750  -5.287 -18.833  1.00  0.00     0.134 C 
BRANCH   9  10
HETATM   10  C4  UNL     1     -11.861  -4.378 -19.240  1.00  0.00     0.179 C 
BRANCH  10  11
HETATM   11  O2  UNL     1     -11.850  -3.169 -18.566  1.00  0.00    -0.400 OA
ATOM     12  H2  UNL     1     -11.398  -3.210 -17.731  1.00  0.00     0.209 HD
ENDBRANCH  10  11
ENDBRANCH   9  10
ENDBRANCH   1   9
BRANCH   1  13
HETATM   13  S1  UNL     1     -10.882  -6.358 -16.468  1.00  0.00     0.244 S 
HETATM   14  O3  UNL     1     -11.823  -7.284 -15.703  1.00  0.00    -0.206 OA
HETATM   15  O4  UNL     1     -11.219  -4.973 -16.008  1.00  0.00    -0.206 OA
BRANCH  13  16
HETATM   16  C5  UNL     1      -9.225  -6.756 -16.032  1.00  0.00     0.074 A 
HETATM   17  C6  UNL     1      -8.889  -6.944 -14.712  1.00  0.00     0.028 A 
HETATM   18  C7  UNL     1      -7.583  -7.261 -14.330  1.00  0.00     0.044 A 
HETATM   19  C8  UNL     1      -6.608  -7.389 -15.286  1.00  0.00     0.116 A 
HETATM   20  F1  UNL     1      -5.339  -7.698 -14.905  1.00  0.00    -0.206 F 
HETATM   21  C9  UNL     1      -6.954  -7.200 -16.603  1.00  0.00     0.044 A 
HETATM   22  C10 UNL     1      -8.256  -6.883 -17.004  1.00  0.00     0.028 A 
ENDBRANCH  13  16
ENDBRANCH   1  13
TORSDOF 8
ENDMDL
