MODEL 10
REMARK VINA RESULT: -6.780216878      3.528      6.041
REMARK  8 active torsions:
REMARK  status: ('A' for Active; 'I' for Inactive)
REMARK    1  A    between atoms: C1_2  and  C2_3 
REMARK       I    between atoms: C1_2  and  N2_19 
REMARK    2  A    between atoms: C2_3  and  N1_4 
REMARK    3  A    between atoms: N1_4  and  C3_5 
REMARK    4  A    between atoms: N1_4  and  S1_9 
REMARK    5  A    between atoms: C3_5  and  C4_6 
REMARK    6  A    between atoms: C4_6  and  O2_7 
REMARK    7  A    between atoms: S1_9  and  C5_12 
REMARK    8  A    between atoms: N2_19  and  O5_21 
ROOT
HETATM    1  N1  UNL     1     -11.669  -5.781 -18.937  1.00  0.00    -0.196 NA
ENDROOT
BRANCH   1   2
HETATM    2  C2  UNL     1     -11.471  -5.601 -17.522  1.00  0.00     0.212 C 
BRANCH   2   3
HETATM    3  C1  UNL     1     -10.115  -6.080 -17.155  1.00  0.00     0.255 C 
HETATM    4  O1  UNL     1      -9.771  -6.206 -15.954  1.00  0.00    -0.270 OA
HETATM    5  N2  UNL     1      -9.161  -6.414 -18.158  1.00  0.00    -0.236 N 
ATOM      6  H2  UNL     1      -9.421  -6.320 -19.139  1.00  0.00     0.197 HD
BRANCH   5   7
HETATM    7  O5  UNL     1      -7.914  -6.855 -17.845  1.00  0.00    -0.287 OA
ATOM      8  H5  UNL     1      -7.771  -7.550 -17.213  1.00  0.00     0.244 HD
ENDBRANCH   5   7
ENDBRANCH   2   3
ENDBRANCH   1   2
BRANCH   1   9
HETATM    9  C3  UNL     1     -12.880  -6.510 -19.157  1.00  0.00     0.134 C 
BRANCH   9  10
HETATM   10  C4  UNL     1     -12.717  -7.899 -19.678  1.00  0.00     0.179 C 
BRANCH  10  11
HETATM   11  O2  UNL     1     -11.396  -8.309 -19.731  1.00  0.00    -0.400 OA
ATOM     12  H2  UNL     1     -11.235  -8.968 -20.397  1.00  0.00     0.209 HD
ENDBRANCH  10  11
ENDBRANCH   9  10
ENDBRANCH   1   9
BRANCH   1  13
HETATM   13  S1  UNL     1     -11.634  -4.327 -19.818  1.00  0.00     0.244 S 
HETATM   14  O3  UNL     1     -10.235  -4.053 -20.362  1.00  0.00    -0.206 OA
HETATM   15  O4  UNL     1     -11.941  -3.181 -18.904  1.00  0.00    -0.206 OA
BRANCH  13  16
HETATM   16  C5  UNL     1     -12.766  -4.350 -21.164  1.00  0.00     0.074 A 
HETATM   17  C6  UNL     1     -13.952  -3.659 -21.074  1.00  0.00     0.028 A 
HETATM   18  C7  UNL     1     -14.874  -3.656 -22.125  1.00  0.00     0.044 A 
HETATM   19  C8  UNL     1     -14.599  -4.354 -23.273  1.00  0.00     0.116 A 
HETATM   20  F1  UNL     1     -15.502  -4.345 -24.290  1.00  0.00    -0.206 F 
HETATM   21  C9  UNL     1     -13.410  -5.040 -23.352  1.00  0.00     0.044 A 
HETATM   22  C10 UNL     1     -12.475  -5.055 -22.312  1.00  0.00     0.028 A 
ENDBRANCH  13  16
ENDBRANCH   1  13
TORSDOF 8
ENDMDL
