MODEL 17
REMARK VINA RESULT: -6.469549366      2.328      4.202
REMARK  8 active torsions:
REMARK  status: ('A' for Active; 'I' for Inactive)
REMARK    1  A    between atoms: C1_2  and  C2_3 
REMARK       I    between atoms: C1_2  and  N2_19 
REMARK    2  A    between atoms: C2_3  and  N1_4 
REMARK    3  A    between atoms: N1_4  and  C3_5 
REMARK    4  A    between atoms: N1_4  and  S1_9 
REMARK    5  A    between atoms: C3_5  and  C4_6 
REMARK    6  A    between atoms: C4_6  and  O2_7 
REMARK    7  A    between atoms: S1_9  and  C5_12 
REMARK    8  A    between atoms: N2_19  and  O5_21 
ROOT
HETATM    1  N1  UNL     1     -12.492  -4.350 -20.113  1.00  0.00    -0.196 NA
ENDROOT
BRANCH   1   2
HETATM    2  C2  UNL     1     -12.325  -3.220 -19.237  1.00  0.00     0.212 C 
BRANCH   2   3
HETATM    3  C1  UNL     1     -12.860  -2.005 -19.900  1.00  0.00     0.255 C 
HETATM    4  O1  UNL     1     -12.243  -0.912 -19.855  1.00  0.00    -0.270 OA
HETATM    5  N2  UNL     1     -14.093  -2.042 -20.610  1.00  0.00    -0.236 N 
ATOM      6  H2  UNL     1     -14.610  -2.920 -20.659  1.00  0.00     0.197 HD
BRANCH   5   7
HETATM    7  O5  UNL     1     -14.602  -0.942 -21.225  1.00  0.00    -0.287 OA
ATOM      8  H5  UNL     1     -14.631  -0.865 -22.171  1.00  0.00     0.244 HD
ENDBRANCH   5   7
ENDBRANCH   2   3
ENDBRANCH   1   2
BRANCH   1   9
HETATM    9  C3  UNL     1     -11.363  -4.442 -20.987  1.00  0.00     0.134 C 
BRANCH   9  10
HETATM   10  C4  UNL     1     -11.675  -4.560 -22.441  1.00  0.00     0.179 C 
BRANCH  10  11
HETATM   11  O2  UNL     1     -11.694  -5.869 -22.890  1.00  0.00    -0.400 OA
ATOM     12  H2  UNL     1     -11.676  -5.940 -23.838  1.00  0.00     0.209 HD
ENDBRANCH  10  11
ENDBRANCH   9  10
ENDBRANCH   1   9
BRANCH   1  13
HETATM   13  S1  UNL     1     -12.781  -5.810 -19.292  1.00  0.00     0.244 S 
HETATM   14  O3  UNL     1     -12.789  -6.989 -20.261  1.00  0.00    -0.206 OA
HETATM   15  O4  UNL     1     -14.150  -5.781 -18.684  1.00  0.00    -0.206 OA
BRANCH  13  16
HETATM   16  C5  UNL     1     -11.573  -6.112 -18.049  1.00  0.00     0.074 A 
HETATM   17  C6  UNL     1     -11.947  -6.161 -16.726  1.00  0.00     0.028 A 
HETATM   18  C7  UNL     1     -11.014  -6.398 -15.713  1.00  0.00     0.044 A 
HETATM   19  C8  UNL     1      -9.695  -6.587 -16.036  1.00  0.00     0.116 A 
HETATM   20  F1  UNL     1      -8.792  -6.818 -15.044  1.00  0.00    -0.206 F 
HETATM   21  C9  UNL     1      -9.331  -6.537 -17.362  1.00  0.00     0.044 A 
HETATM   22  C10 UNL     1     -10.251  -6.301 -18.388  1.00  0.00     0.028 A 
ENDBRANCH  13  16
ENDBRANCH   1  13
TORSDOF 8
ENDMDL
