MODEL 15
REMARK VINA RESULT: -6.660463403      2.064      3.854
REMARK  8 active torsions:
REMARK  status: ('A' for Active; 'I' for Inactive)
REMARK    1  A    between atoms: C1_2  and  C2_3 
REMARK       I    between atoms: C1_2  and  N2_19 
REMARK    2  A    between atoms: C2_3  and  N1_4 
REMARK    3  A    between atoms: N1_4  and  C3_5 
REMARK    4  A    between atoms: N1_4  and  S1_9 
REMARK    5  A    between atoms: C3_5  and  C4_6 
REMARK    6  A    between atoms: C4_6  and  O2_7 
REMARK    7  A    between atoms: S1_9  and  C5_12 
REMARK    8  A    between atoms: N2_19  and  O5_21 
ROOT
HETATM    1  N1  UNL     1     -12.754  -5.268 -20.396  1.00  0.00    -0.196 NA
ENDROOT
BRANCH   1   2
HETATM    2  C2  UNL     1     -11.622  -4.385 -20.287  1.00  0.00     0.212 C 
BRANCH   2   3
HETATM    3  C1  UNL     1     -12.104  -2.997 -20.082  1.00  0.00     0.255 C 
HETATM    4  O1  UNL     1     -12.136  -2.172 -21.028  1.00  0.00    -0.270 OA
HETATM    5  N2  UNL     1     -12.547  -2.558 -18.803  1.00  0.00    -0.236 N 
ATOM      6  H2  UNL     1     -12.530  -3.213 -18.021  1.00  0.00     0.197 HD
BRANCH   5   7
HETATM    7  O5  UNL     1     -12.993  -1.292 -18.592  1.00  0.00    -0.287 OA
ATOM      8  H5  UNL     1     -13.311  -1.006 -17.744  1.00  0.00     0.244 HD
ENDBRANCH   5   7
ENDBRANCH   2   3
ENDBRANCH   1   2
BRANCH   1   9
HETATM    9  C3  UNL     1     -12.558  -6.156 -21.501  1.00  0.00     0.134 C 
BRANCH   9  10
HETATM   10  C4  UNL     1     -13.721  -6.313 -22.421  1.00  0.00     0.179 C 
BRANCH  10  11
HETATM   11  O2  UNL     1     -14.501  -7.419 -22.132  1.00  0.00    -0.400 OA
ATOM     12  H2  UNL     1     -14.815  -7.869 -22.908  1.00  0.00     0.209 HD
ENDBRANCH  10  11
ENDBRANCH   9  10
ENDBRANCH   1   9
BRANCH   1  13
HETATM   13  S1  UNL     1     -13.100  -6.109 -18.959  1.00  0.00     0.244 S 
HETATM   14  O3  UNL     1     -13.655  -7.498 -19.260  1.00  0.00    -0.206 OA
HETATM   15  O4  UNL     1     -14.185  -5.397 -18.211  1.00  0.00    -0.206 OA
BRANCH  13  16
HETATM   16  C5  UNL     1     -11.674  -6.281 -17.942  1.00  0.00     0.074 A 
HETATM   17  C6  UNL     1     -11.788  -6.162 -16.576  1.00  0.00     0.028 A 
HETATM   18  C7  UNL     1     -10.676  -6.293 -15.739  1.00  0.00     0.044 A 
HETATM   19  C8  UNL     1      -9.443  -6.545 -16.282  1.00  0.00     0.116 A 
HETATM   20  F1  UNL     1      -8.366  -6.671 -15.459  1.00  0.00    -0.206 F 
HETATM   21  C9  UNL     1      -9.341  -6.663 -17.649  1.00  0.00     0.044 A 
HETATM   22  C10 UNL     1     -10.441  -6.535 -18.502  1.00  0.00     0.028 A 
ENDBRANCH  13  16
ENDBRANCH   1  13
TORSDOF 8
ENDMDL
