MODEL 5
REMARK VINA RESULT: -7.015675568      1.855      2.575
REMARK  8 active torsions:
REMARK  status: ('A' for Active; 'I' for Inactive)
REMARK    1  A    between atoms: C1_2  and  C2_3 
REMARK       I    between atoms: C1_2  and  N2_19 
REMARK    2  A    between atoms: C2_3  and  N1_4 
REMARK    3  A    between atoms: N1_4  and  C3_5 
REMARK    4  A    between atoms: N1_4  and  S1_9 
REMARK    5  A    between atoms: C3_5  and  C4_6 
REMARK    6  A    between atoms: C4_6  and  O2_7 
REMARK    7  A    between atoms: S1_9  and  C5_12 
REMARK    8  A    between atoms: N2_19  and  O5_21 
ROOT
HETATM    1  N1  UNL     1     -11.131  -6.511 -18.096  1.00  0.00    -0.196 NA
ENDROOT
BRANCH   1   2
HETATM    2  C2  UNL     1     -12.486  -6.845 -18.449  1.00  0.00     0.212 C 
BRANCH   2   3
HETATM    3  C1  UNL     1     -12.473  -7.871 -19.521  1.00  0.00     0.255 C 
HETATM    4  O1  UNL     1     -11.518  -8.677 -19.640  1.00  0.00    -0.270 OA
HETATM    5  N2  UNL     1     -13.549  -7.973 -20.448  1.00  0.00    -0.236 N 
ATOM      6  H2  UNL     1     -14.335  -7.328 -20.368  1.00  0.00     0.197 HD
BRANCH   5   7
HETATM    7  O5  UNL     1     -13.558  -8.905 -21.437  1.00  0.00    -0.287 OA
ATOM      8  H5  UNL     1     -14.270  -8.966 -22.063  1.00  0.00     0.244 HD
ENDBRANCH   5   7
ENDBRANCH   2   3
ENDBRANCH   1   2
BRANCH   1   9
HETATM    9  C3  UNL     1     -10.738  -5.325 -18.792  1.00  0.00     0.134 C 
BRANCH   9  10
HETATM   10  C4  UNL     1     -11.848  -4.428 -19.224  1.00  0.00     0.179 C 
BRANCH  10  11
HETATM   11  O2  UNL     1     -11.855  -3.212 -18.563  1.00  0.00    -0.400 OA
ATOM     12  H2  UNL     1     -12.680  -3.028 -18.128  1.00  0.00     0.209 HD
ENDBRANCH  10  11
ENDBRANCH   9  10
ENDBRANCH   1   9
BRANCH   1  13
HETATM   13  S1  UNL     1     -10.879  -6.378 -16.419  1.00  0.00     0.244 S 
HETATM   14  O3  UNL     1     -11.825  -7.295 -15.651  1.00  0.00    -0.206 OA
HETATM   15  O4  UNL     1     -11.215  -4.988 -15.972  1.00  0.00    -0.206 OA
BRANCH  13  16
HETATM   16  C5  UNL     1      -9.224  -6.775 -15.973  1.00  0.00     0.074 A 
HETATM   17  C6  UNL     1      -8.260  -6.892 -16.947  1.00  0.00     0.028 A 
HETATM   18  C7  UNL     1      -6.937  -7.206 -16.628  1.00  0.00     0.044 A 
HETATM   19  C8  UNL     1      -6.582  -7.404 -15.318  1.00  0.00     0.116 A 
HETATM   20  F1  UNL     1      -5.291  -7.709 -15.016  1.00  0.00    -0.206 F 
HETATM   21  C9  UNL     1      -7.554  -7.284 -14.352  1.00  0.00     0.044 A 
HETATM   22  C10 UNL     1      -8.883  -6.970 -14.652  1.00  0.00     0.028 A 
ENDBRANCH  13  16
ENDBRANCH   1  13
TORSDOF 8
ENDMDL
