MODEL 11
REMARK VINA RESULT: -7.721348768      5.202      7.191
REMARK  5 active torsions:
REMARK  status: ('A' for Active; 'I' for Inactive)
REMARK    1  A    between atoms: C1_2  and  C2_3 
REMARK       I    between atoms: C1_2  and  N2_16 
REMARK    2  A    between atoms: C2_3  and  N1_4 
REMARK    3  A    between atoms: N1_4  and  S1_6 
REMARK    4  A    between atoms: S1_6  and  C3_9 
REMARK    5  A    between atoms: N2_16  and  O4_18 
ROOT
HETATM    1  S1  UNL     1      -6.895  -7.649 -15.886  1.00  0.00     0.259 S 
HETATM    2  O2  UNL     1      -6.412  -6.958 -14.669  1.00  0.00    -0.201 OA
HETATM    3  O3  UNL     1      -7.060  -9.114 -15.539  1.00  0.00    -0.201 OA
ENDROOT
BRANCH   1   4
HETATM    4  N1  UNL     1      -5.698  -7.584 -17.125  1.00  0.00    -0.307 N 
ATOM      5  H1  UNL     1      -5.887  -7.297 -18.085  1.00  0.00     0.172 HD
BRANCH   4   6
HETATM    6  C2  UNL     1      -4.397  -7.984 -16.643  1.00  0.00     0.237 C 
BRANCH   6   7
HETATM    7  C1  UNL     1      -4.038  -9.272 -17.263  1.00  0.00     0.259 C 
HETATM    8  O1  UNL     1      -4.089 -10.300 -16.528  1.00  0.00    -0.270 OA
HETATM    9  N2  UNL     1      -3.651  -9.410 -18.605  1.00  0.00    -0.236 N 
ATOM     10  H2  UNL     1      -3.613  -8.580 -19.197  1.00  0.00     0.197 HD
BRANCH   9  11
HETATM   11  O4  UNL     1      -3.321 -10.634 -19.148  1.00  0.00    -0.287 OA
ATOM     12  H4  UNL     1      -3.293 -10.777 -20.087  1.00  0.00     0.244 HD
ENDBRANCH   9  11
ENDBRANCH   6   7
ENDBRANCH   4   6
ENDBRANCH   1   4
BRANCH   1  13
HETATM   13  C3  UNL     1      -8.428  -7.025 -16.398  1.00  0.00     0.079 A 
HETATM   14  C4  UNL     1      -9.460  -6.876 -15.490  1.00  0.00     0.028 A 
HETATM   15  C5  UNL     1     -10.688  -6.381 -15.871  1.00  0.00     0.044 A 
HETATM   16  C6  UNL     1     -10.851  -6.036 -17.208  1.00  0.00     0.116 A 
HETATM   17  F1  UNL     1     -12.067  -5.548 -17.581  1.00  0.00    -0.206 F 
HETATM   18  C7  UNL     1      -9.838  -6.175 -18.134  1.00  0.00     0.044 A 
HETATM   19  C8  UNL     1      -8.605  -6.676 -17.727  1.00  0.00     0.028 A 
ENDBRANCH   1  13
TORSDOF 5
ENDMDL
