MODEL 9
REMARK VINA RESULT: -7.750090355      5.150      6.626
REMARK  5 active torsions:
REMARK  status: ('A' for Active; 'I' for Inactive)
REMARK    1  A    between atoms: C1_2  and  C2_3 
REMARK       I    between atoms: C1_2  and  N2_16 
REMARK    2  A    between atoms: C2_3  and  N1_4 
REMARK    3  A    between atoms: N1_4  and  S1_6 
REMARK    4  A    between atoms: S1_6  and  C3_9 
REMARK    5  A    between atoms: N2_16  and  O4_18 
ROOT
HETATM    1  S1  UNL     1      -7.661  -7.624 -15.192  1.00  0.00     0.259 S 
HETATM    2  O2  UNL     1      -8.183  -7.823 -13.820  1.00  0.00    -0.201 OA
HETATM    3  O3  UNL     1      -7.369  -8.994 -15.767  1.00  0.00    -0.201 OA
ENDROOT
BRANCH   1   4
HETATM    4  N1  UNL     1      -6.150  -6.797 -15.141  1.00  0.00    -0.307 N 
ATOM      5  H1  UNL     1      -6.043  -5.795 -15.305  1.00  0.00     0.172 HD
BRANCH   4   6
HETATM    6  C2  UNL     1      -5.053  -7.687 -14.839  1.00  0.00     0.237 C 
BRANCH   6   7
HETATM    7  C1  UNL     1      -4.389  -8.064 -16.100  1.00  0.00     0.259 C 
HETATM    8  O1  UNL     1      -3.341  -8.767 -16.012  1.00  0.00    -0.270 OA
HETATM    9  N2  UNL     1      -4.856  -7.689 -17.369  1.00  0.00    -0.236 N 
ATOM     10  H2  UNL     1      -5.703  -7.125 -17.438  1.00  0.00     0.197 HD
BRANCH   9  11
HETATM   11  O4  UNL     1      -4.204  -8.062 -18.526  1.00  0.00    -0.287 OA
ATOM     12  H4  UNL     1      -4.526  -7.817 -19.386  1.00  0.00     0.244 HD
ENDBRANCH   9  11
ENDBRANCH   6   7
ENDBRANCH   4   6
ENDBRANCH   1   4
BRANCH   1  13
HETATM   13  C3  UNL     1      -8.827  -6.836 -16.200  1.00  0.00     0.079 A 
HETATM   14  C4  UNL     1      -8.639  -6.773 -17.569  1.00  0.00     0.028 A 
HETATM   15  C5  UNL     1      -9.552  -6.152 -18.393  1.00  0.00     0.044 A 
HETATM   16  C6  UNL     1     -10.673  -5.588 -17.795  1.00  0.00     0.116 A 
HETATM   17  F1  UNL     1     -11.573  -4.974 -18.613  1.00  0.00    -0.206 F 
HETATM   18  C7  UNL     1     -10.885  -5.636 -16.433  1.00  0.00     0.044 A 
HETATM   19  C8  UNL     1      -9.950  -6.269 -15.619  1.00  0.00     0.028 A 
ENDBRANCH   1  13
TORSDOF 5
ENDMDL
