MODEL 15
REMARK VINA RESULT: -7.429310700      1.696      2.400
REMARK  5 active torsions:
REMARK  status: ('A' for Active; 'I' for Inactive)
REMARK    1  A    between atoms: C1_2  and  C2_3 
REMARK       I    between atoms: C1_2  and  N2_16 
REMARK    2  A    between atoms: C2_3  and  N1_4 
REMARK    3  A    between atoms: N1_4  and  S1_6 
REMARK    4  A    between atoms: S1_6  and  C3_9 
REMARK    5  A    between atoms: N2_16  and  O4_18 
ROOT
HETATM    1  S1  UNL     1     -11.077  -5.219 -19.667  1.00  0.00     0.259 S 
HETATM    2  O2  UNL     1     -10.330  -4.076 -20.242  1.00  0.00    -0.201 OA
HETATM    3  O3  UNL     1     -11.008  -6.353 -20.668  1.00  0.00    -0.201 OA
ENDROOT
BRANCH   1   4
HETATM    4  N1  UNL     1     -12.747  -4.822 -19.511  1.00  0.00    -0.307 N 
ATOM      5  H1  UNL     1     -13.327  -5.102 -18.720  1.00  0.00     0.172 HD
BRANCH   4   6
HETATM    6  C2  UNL     1     -13.228  -4.048 -20.632  1.00  0.00     0.237 C 
BRANCH   6   7
HETATM    7  C1  UNL     1     -13.207  -2.621 -20.265  1.00  0.00     0.259 C 
HETATM    8  O1  UNL     1     -13.739  -1.809 -21.076  1.00  0.00    -0.270 OA
HETATM    9  N2  UNL     1     -12.637  -2.129 -19.080  1.00  0.00    -0.236 N 
ATOM     10  H2  UNL     1     -12.211  -2.786 -18.426  1.00  0.00     0.197 HD
BRANCH   9  11
HETATM   11  O4  UNL     1     -12.637  -0.784 -18.773  1.00  0.00    -0.287 OA
ATOM     12  H4  UNL     1     -11.944  -0.386 -18.259  1.00  0.00     0.244 HD
ENDBRANCH   9  11
ENDBRANCH   6   7
ENDBRANCH   4   6
ENDBRANCH   1   4
BRANCH   1  13
HETATM   13  C3  UNL     1     -10.369  -5.747 -18.178  1.00  0.00     0.079 A 
HETATM   14  C4  UNL     1     -10.996  -5.486 -16.974  1.00  0.00     0.028 A 
HETATM   15  C5  UNL     1     -10.454  -5.897 -15.776  1.00  0.00     0.044 A 
HETATM   16  C6  UNL     1      -9.247  -6.585 -15.823  1.00  0.00     0.116 A 
HETATM   17  F1  UNL     1      -8.714  -6.989 -14.636  1.00  0.00    -0.206 F 
HETATM   18  C7  UNL     1      -8.600  -6.859 -17.010  1.00  0.00     0.044 A 
HETATM   19  C8  UNL     1      -9.167  -6.436 -18.209  1.00  0.00     0.028 A 
ENDBRANCH   1  13
TORSDOF 5
ENDMDL
