MODEL 5
REMARK VINA RESULT: -7.927438135      1.774      2.099
REMARK  5 active torsions:
REMARK  status: ('A' for Active; 'I' for Inactive)
REMARK    1  A    between atoms: C1_2  and  C2_3 
REMARK       I    between atoms: C1_2  and  N2_16 
REMARK    2  A    between atoms: C2_3  and  N1_4 
REMARK    3  A    between atoms: N1_4  and  S1_6 
REMARK    4  A    between atoms: S1_6  and  C3_9 
REMARK    5  A    between atoms: N2_16  and  O4_18 
ROOT
HETATM    1  S1  UNL     1     -11.938  -7.127 -19.467  1.00  0.00     0.259 S 
HETATM    2  O2  UNL     1     -11.867  -8.504 -20.006  1.00  0.00    -0.201 OA
HETATM    3  O3  UNL     1     -13.367  -6.886 -19.027  1.00  0.00    -0.201 OA
ENDROOT
BRANCH   1   4
HETATM    4  N1  UNL     1     -11.623  -5.979 -20.714  1.00  0.00    -0.307 N 
ATOM      5  H1  UNL     1     -10.852  -6.056 -21.377  1.00  0.00     0.172 HD
BRANCH   4   6
HETATM    6  C2  UNL     1     -12.580  -4.897 -20.710  1.00  0.00     0.237 C 
BRANCH   6   7
HETATM    7  C1  UNL     1     -11.964  -3.723 -20.067  1.00  0.00     0.259 C 
HETATM    8  O1  UNL     1     -10.716  -3.574 -20.213  1.00  0.00    -0.270 OA
HETATM    9  N2  UNL     1     -12.682  -2.780 -19.316  1.00  0.00    -0.236 N 
ATOM     10  H2  UNL     1     -13.688  -2.900 -19.202  1.00  0.00     0.197 HD
BRANCH   9  11
HETATM   11  O4  UNL     1     -12.067  -1.694 -18.728  1.00  0.00    -0.287 OA
ATOM     12  H4  UNL     1     -11.431  -1.794 -18.029  1.00  0.00     0.244 HD
ENDBRANCH   9  11
ENDBRANCH   6   7
ENDBRANCH   4   6
ENDBRANCH   1   4
BRANCH   1  13
HETATM   13  C3  UNL     1     -10.896  -6.934 -18.097  1.00  0.00     0.079 A 
HETATM   14  C4  UNL     1      -9.539  -6.733 -18.273  1.00  0.00     0.028 A 
HETATM   15  C5  UNL     1      -8.689  -6.576 -17.200  1.00  0.00     0.044 A 
HETATM   16  C6  UNL     1      -9.249  -6.628 -15.929  1.00  0.00     0.116 A 
HETATM   17  F1  UNL     1      -8.405  -6.473 -14.870  1.00  0.00    -0.206 F 
HETATM   18  C7  UNL     1     -10.598  -6.827 -15.724  1.00  0.00     0.044 A 
HETATM   19  C8  UNL     1     -11.439  -6.982 -16.823  1.00  0.00     0.028 A 
ENDBRANCH   1  13
TORSDOF 5
ENDMDL
