MODEL 10
REMARK VINA RESULT: -7.727270033      5.207      7.113
REMARK  5 active torsions:
REMARK  status: ('A' for Active; 'I' for Inactive)
REMARK    1  A    between atoms: C1_2  and  C2_3 
REMARK       I    between atoms: C1_2  and  N2_16 
REMARK    2  A    between atoms: C2_3  and  N1_4 
REMARK    3  A    between atoms: N1_4  and  S1_6 
REMARK    4  A    between atoms: S1_6  and  C3_9 
REMARK    5  A    between atoms: N2_16  and  O4_18 
ROOT
HETATM    1  S1  UNL     1      -6.878  -7.662 -15.908  1.00  0.00     0.259 S 
HETATM    2  O2  UNL     1      -6.381  -6.969 -14.698  1.00  0.00    -0.201 OA
HETATM    3  O3  UNL     1      -7.054  -9.123 -15.553  1.00  0.00    -0.201 OA
ENDROOT
BRANCH   1   4
HETATM    4  N1  UNL     1      -5.687  -7.615 -17.154  1.00  0.00    -0.307 N 
ATOM      5  H1  UNL     1      -5.880  -7.333 -18.116  1.00  0.00     0.172 HD
BRANCH   4   6
HETATM    6  C2  UNL     1      -4.386  -8.022 -16.677  1.00  0.00     0.237 C 
BRANCH   6   7
HETATM    7  C1  UNL     1      -4.034  -9.309 -17.301  1.00  0.00     0.259 C 
HETATM    8  O1  UNL     1      -4.106 -10.342 -16.574  1.00  0.00    -0.270 OA
HETATM    9  N2  UNL     1      -3.632  -9.442 -18.640  1.00  0.00    -0.236 N 
ATOM     10  H2  UNL     1      -3.577  -8.609 -19.225  1.00  0.00     0.197 HD
BRANCH   9  11
HETATM   11  O4  UNL     1      -3.309 -10.667 -19.186  1.00  0.00    -0.287 OA
ATOM     12  H4  UNL     1      -3.589 -10.917 -20.059  1.00  0.00     0.244 HD
ENDBRANCH   9  11
ENDBRANCH   6   7
ENDBRANCH   4   6
ENDBRANCH   1   4
BRANCH   1  13
HETATM   13  C3  UNL     1      -8.407  -7.026 -16.414  1.00  0.00     0.079 A 
HETATM   14  C4  UNL     1      -8.618  -6.684 -17.737  1.00  0.00     0.028 A 
HETATM   15  C5  UNL     1      -9.826  -6.177 -18.165  1.00  0.00     0.044 A 
HETATM   16  C6  UNL     1     -10.827  -6.021 -17.213  1.00  0.00     0.116 A 
HETATM   17  F1  UNL     1     -12.019  -5.518 -17.640  1.00  0.00    -0.206 F 
HETATM   18  C7  UNL     1     -10.643  -6.354 -15.888  1.00  0.00     0.044 A 
HETATM   19  C8  UNL     1      -9.415  -6.866 -15.477  1.00  0.00     0.028 A 
ENDBRANCH   1  13
TORSDOF 5
ENDMDL
