MODEL 3
REMARK VINA RESULT: -7.940894973      1.782      2.422
REMARK  5 active torsions:
REMARK  status: ('A' for Active; 'I' for Inactive)
REMARK    1  A    between atoms: C1_2  and  C2_3 
REMARK       I    between atoms: C1_2  and  N2_16 
REMARK    2  A    between atoms: C2_3  and  N1_4 
REMARK    3  A    between atoms: N1_4  and  S1_6 
REMARK    4  A    between atoms: S1_6  and  C3_9 
REMARK    5  A    between atoms: N2_16  and  O4_18 
ROOT
HETATM    1  S1  UNL     1     -11.943  -7.125 -19.481  1.00  0.00     0.259 S 
HETATM    2  O2  UNL     1     -11.859  -8.497 -20.033  1.00  0.00    -0.201 OA
HETATM    3  O3  UNL     1     -13.374  -6.902 -19.038  1.00  0.00    -0.201 OA
ENDROOT
BRANCH   1   4
HETATM    4  N1  UNL     1     -11.642  -5.964 -20.719  1.00  0.00    -0.307 N 
ATOM      5  H1  UNL     1     -10.876  -6.032 -21.389  1.00  0.00     0.172 HD
BRANCH   4   6
HETATM    6  C2  UNL     1     -12.600  -4.884 -20.695  1.00  0.00     0.237 C 
BRANCH   6   7
HETATM    7  C1  UNL     1     -11.977  -3.712 -20.053  1.00  0.00     0.259 C 
HETATM    8  O1  UNL     1     -10.728  -3.573 -20.197  1.00  0.00    -0.270 OA
HETATM    9  N2  UNL     1     -12.689  -2.762 -19.305  1.00  0.00    -0.236 N 
ATOM     10  H2  UNL     1     -13.697  -2.875 -19.193  1.00  0.00     0.197 HD
BRANCH   9  11
HETATM   11  O4  UNL     1     -12.068  -1.679 -18.719  1.00  0.00    -0.287 OA
ATOM     12  H4  UNL     1     -12.535  -1.078 -18.151  1.00  0.00     0.244 HD
ENDBRANCH   9  11
ENDBRANCH   6   7
ENDBRANCH   4   6
ENDBRANCH   1   4
BRANCH   1  13
HETATM   13  C3  UNL     1     -10.901  -6.934 -18.111  1.00  0.00     0.079 A 
HETATM   14  C4  UNL     1     -11.414  -7.000 -16.828  1.00  0.00     0.028 A 
HETATM   15  C5  UNL     1     -10.606  -6.853 -15.722  1.00  0.00     0.044 A 
HETATM   16  C6  UNL     1      -9.252  -6.633 -15.944  1.00  0.00     0.116 A 
HETATM   17  F1  UNL     1      -8.456  -6.486 -14.848  1.00  0.00    -0.206 F 
HETATM   18  C7  UNL     1      -8.714  -6.562 -17.212  1.00  0.00     0.044 A 
HETATM   19  C8  UNL     1      -9.549  -6.715 -18.316  1.00  0.00     0.028 A 
ENDBRANCH   1  13
TORSDOF 5
ENDMDL
