MODEL 3
REMARK VINA RESULT: -7.579254426      0.108      1.225
REMARK  5 active torsions:
REMARK  status: ('A' for Active; 'I' for Inactive)
REMARK    1  A    between atoms: C1_2  and  C2_3 
REMARK       I    between atoms: C1_2  and  N2_15 
REMARK    2  A    between atoms: C2_3  and  N1_4 
REMARK    3  A    between atoms: N1_4  and  S1_6 
REMARK    4  A    between atoms: S1_6  and  C3_9 
REMARK    5  A    between atoms: N2_15  and  O4_17 
ROOT
HETATM    1  N1  UNL     1      -2.140  -5.808  -3.913  1.00  0.00    -0.307 N 
ATOM      2  H1  UNL     1      -2.822  -6.176  -3.250  1.00  0.00     0.172 HD
ENDROOT
BRANCH   1   3
HETATM    3  C2  UNL     1      -1.488  -4.522  -3.761  1.00  0.00     0.237 C 
BRANCH   3   4
HETATM    4  C1  UNL     1      -2.200  -3.457  -4.513  1.00  0.00     0.259 C 
HETATM    5  O1  UNL     1      -3.449  -3.449  -4.619  1.00  0.00    -0.270 OA
HETATM    6  N2  UNL     1      -1.479  -2.417  -5.134  1.00  0.00    -0.236 N 
ATOM      7  H2  UNL     1      -0.463  -2.416  -5.053  1.00  0.00     0.197 HD
BRANCH   6   8
HETATM    8  O4  UNL     1      -2.069  -1.422  -5.833  1.00  0.00    -0.287 OA
ATOM      9  H4  UNL     1      -2.089  -1.393  -6.782  1.00  0.00     0.244 HD
ENDBRANCH   6   8
ENDBRANCH   3   4
ENDBRANCH   1   3
BRANCH   1  10
HETATM   10  S1  UNL     1      -1.645  -6.639  -5.315  1.00  0.00     0.259 S 
HETATM   11  O2  UNL     1      -0.460  -5.922  -5.894  1.00  0.00    -0.201 OA
HETATM   12  O3  UNL     1      -1.255  -8.037  -5.005  1.00  0.00    -0.201 OA
BRANCH  10  13
HETATM   13  C3  UNL     1      -2.931  -6.577  -6.520  1.00  0.00     0.079 A 
HETATM   14  C4  UNL     1      -2.609  -6.604  -7.857  1.00  0.00     0.025 A 
HETATM   15  C5  UNL     1      -3.613  -6.556  -8.803  1.00  0.00     0.002 A 
HETATM   16  C6  UNL     1      -4.937  -6.481  -8.440  1.00  0.00     0.000 A 
HETATM   17  C7  UNL     1      -5.259  -6.455  -7.109  1.00  0.00     0.002 A 
HETATM   18  C8  UNL     1      -4.260  -6.502  -6.172  1.00  0.00     0.025 A 
ENDBRANCH  10  13
ENDBRANCH   1  10
TORSDOF 5
ENDMDL
