MODEL 11
REMARK VINA RESULT: -7.224747799      6.081      7.579
REMARK  5 active torsions:
REMARK  status: ('A' for Active; 'I' for Inactive)
REMARK    1  A    between atoms: C1_2  and  C2_3 
REMARK       I    between atoms: C1_2  and  N2_15 
REMARK    2  A    between atoms: C2_3  and  N1_4 
REMARK    3  A    between atoms: N1_4  and  S1_6 
REMARK    4  A    between atoms: S1_6  and  C3_9 
REMARK    5  A    between atoms: N2_15  and  O4_17 
ROOT
HETATM    1  N1  UNL     1      -8.589  -7.319  -7.781  1.00  0.00    -0.307 N 
ATOM      2  H1  UNL     1      -8.406  -6.998  -6.831  1.00  0.00     0.172 HD
ENDROOT
BRANCH   1   3
HETATM    3  C2  UNL     1      -9.887  -7.777  -8.237  1.00  0.00     0.237 C 
BRANCH   3   4
HETATM    4  C1  UNL     1     -10.230  -9.103  -7.664  1.00  0.00     0.259 C 
HETATM    5  O1  UNL     1     -10.172 -10.152  -8.349  1.00  0.00    -0.270 OA
HETATM    6  N2  UNL     1     -10.636  -9.217  -6.319  1.00  0.00    -0.236 N 
ATOM      7  H2  UNL     1     -10.687  -8.370  -5.754  1.00  0.00     0.197 HD
BRANCH   6   8
HETATM    8  O4  UNL     1     -10.962 -10.394  -5.741  1.00  0.00    -0.287 OA
ATOM      9  H4  UNL     1     -11.698 -10.498  -5.149  1.00  0.00     0.244 HD
ENDBRANCH   6   8
ENDBRANCH   3   4
ENDBRANCH   1   3
BRANCH   1  10
HETATM   10  S1  UNL     1      -7.402  -7.374  -9.002  1.00  0.00     0.259 S 
HETATM   11  O2  UNL     1      -7.244  -8.801  -9.441  1.00  0.00    -0.201 OA
HETATM   12  O3  UNL     1      -7.793  -6.552 -10.174  1.00  0.00    -0.201 OA
BRANCH  10  13
HETATM   13  C3  UNL     1      -5.852  -6.860  -8.338  1.00  0.00     0.079 A 
HETATM   14  C4  UNL     1      -5.745  -6.594  -6.991  1.00  0.00     0.025 A 
HETATM   15  C5  UNL     1      -4.533  -6.192  -6.468  1.00  0.00     0.002 A 
HETATM   16  C6  UNL     1      -3.421  -6.048  -7.264  1.00  0.00     0.000 A 
HETATM   17  C7  UNL     1      -3.526  -6.312  -8.604  1.00  0.00     0.002 A 
HETATM   18  C8  UNL     1      -4.731  -6.712  -9.121  1.00  0.00     0.025 A 
ENDBRANCH  10  13
ENDBRANCH   1  10
TORSDOF 5
ENDMDL
