MODEL 1
REMARK VINA RESULT: -7.589002811      0.000      0.000
REMARK  5 active torsions:
REMARK  status: ('A' for Active; 'I' for Inactive)
REMARK    1  A    between atoms: C1_2  and  C2_3 
REMARK       I    between atoms: C1_2  and  N2_15 
REMARK    2  A    between atoms: C2_3  and  N1_4 
REMARK    3  A    between atoms: N1_4  and  S1_6 
REMARK    4  A    between atoms: S1_6  and  C3_9 
REMARK    5  A    between atoms: N2_15  and  O4_17 
ROOT
HETATM    1  N1  UNL     1      -2.235  -5.874  -3.883  1.00  0.00    -0.307 N 
ATOM      2  H1  UNL     1      -2.938  -6.214  -3.228  1.00  0.00     0.172 HD
ENDROOT
BRANCH   1   3
HETATM    3  C2  UNL     1      -1.556  -4.600  -3.743  1.00  0.00     0.237 C 
BRANCH   3   4
HETATM    4  C1  UNL     1      -2.250  -3.526  -4.498  1.00  0.00     0.259 C 
HETATM    5  O1  UNL     1      -3.500  -3.497  -4.604  1.00  0.00    -0.270 OA
HETATM    6  N2  UNL     1      -1.512  -2.502  -5.124  1.00  0.00    -0.236 N 
ATOM      7  H2  UNL     1      -0.496  -2.518  -5.043  1.00  0.00     0.197 HD
BRANCH   6   8
HETATM    8  O4  UNL     1      -2.085  -1.499  -5.826  1.00  0.00    -0.287 OA
ATOM      9  H4  UNL     1      -2.825  -0.996  -5.506  1.00  0.00     0.244 HD
ENDBRANCH   6   8
ENDBRANCH   3   4
ENDBRANCH   1   3
BRANCH   1  10
HETATM   10  S1  UNL     1      -1.731  -6.744  -5.259  1.00  0.00     0.259 S 
HETATM   11  O2  UNL     1      -0.497  -6.086  -5.806  1.00  0.00    -0.201 OA
HETATM   12  O3  UNL     1      -1.414  -8.154  -4.921  1.00  0.00    -0.201 OA
BRANCH  10  13
HETATM   13  C3  UNL     1      -2.973  -6.640  -6.507  1.00  0.00     0.079 A 
HETATM   14  C4  UNL     1      -4.294  -6.522  -6.141  1.00  0.00     0.025 A 
HETATM   15  C5  UNL     1      -5.268  -6.440  -7.116  1.00  0.00     0.002 A 
HETATM   16  C6  UNL     1      -4.949  -6.474  -8.453  1.00  0.00     0.000 A 
HETATM   17  C7  UNL     1      -3.635  -6.591  -8.818  1.00  0.00     0.002 A 
HETATM   18  C8  UNL     1      -2.670  -6.672  -7.848  1.00  0.00     0.025 A 
ENDBRANCH  10  13
ENDBRANCH   1  10
TORSDOF 5
ENDMDL
