MODEL 12
REMARK VINA RESULT: -7.217608370      4.245      5.743
REMARK  5 active torsions:
REMARK  status: ('A' for Active; 'I' for Inactive)
REMARK    1  A    between atoms: C1_2  and  C2_3 
REMARK       I    between atoms: C1_2  and  N2_15 
REMARK    2  A    between atoms: C2_3  and  N1_4 
REMARK    3  A    between atoms: N1_4  and  S1_6 
REMARK    4  A    between atoms: S1_6  and  C3_9 
REMARK    5  A    between atoms: N2_15  and  O4_17 
ROOT
HETATM    1  N1  UNL     1      -5.237  -6.589  -7.893  1.00  0.00    -0.307 N 
ATOM      2  H1  UNL     1      -5.585  -6.514  -6.937  1.00  0.00     0.172 HD
ENDROOT
BRANCH   1   3
HETATM    3  C2  UNL     1      -6.053  -7.025  -9.010  1.00  0.00     0.237 C 
BRANCH   3   4
HETATM    4  C1  UNL     1      -7.397  -7.472  -8.563  1.00  0.00     0.259 C 
HETATM    5  O1  UNL     1      -8.041  -8.348  -9.188  1.00  0.00    -0.270 OA
HETATM    6  N2  UNL     1      -7.989  -6.914  -7.413  1.00  0.00    -0.236 N 
ATOM      7  H2  UNL     1      -7.472  -6.200  -6.899  1.00  0.00     0.197 HD
BRANCH   6   8
HETATM    8  O4  UNL     1      -9.208  -7.277  -6.957  1.00  0.00    -0.287 OA
ATOM      9  H4  UNL     1      -9.837  -7.759  -7.480  1.00  0.00     0.244 HD
ENDBRANCH   6   8
ENDBRANCH   3   4
ENDBRANCH   1   3
BRANCH   1  10
HETATM   10  S1  UNL     1      -3.639  -6.216  -8.346  1.00  0.00     0.259 S 
HETATM   11  O2  UNL     1      -3.177  -7.247  -9.336  1.00  0.00    -0.201 OA
HETATM   12  O3  UNL     1      -3.554  -4.875  -8.976  1.00  0.00    -0.201 OA
BRANCH  10  13
HETATM   13  C3  UNL     1      -2.585  -6.338  -6.938  1.00  0.00     0.079 A 
HETATM   14  C4  UNL     1      -2.844  -7.288  -5.977  1.00  0.00     0.025 A 
HETATM   15  C5  UNL     1      -2.021  -7.386  -4.873  1.00  0.00     0.002 A 
HETATM   16  C6  UNL     1      -0.940  -6.553  -4.708  1.00  0.00     0.000 A 
HETATM   17  C7  UNL     1      -0.681  -5.606  -5.664  1.00  0.00     0.002 A 
HETATM   18  C8  UNL     1      -1.500  -5.511  -6.759  1.00  0.00     0.025 A 
ENDBRANCH  10  13
ENDBRANCH   1  10
TORSDOF 5
ENDMDL
