MODEL 4
REMARK VINA RESULT: -6.603421177      1.978      3.167
REMARK  3 active torsions:
REMARK  status: ('A' for Active; 'I' for Inactive)
REMARK    1  A    between atoms: C2_2  and  C4_4 
REMARK    2  A    between atoms: C8_8  and  C9_9 
REMARK    3  A    between atoms: C12_12  and  O1_13 
ROOT
HETATM    1  C4  UNL     1      33.233  -0.666  36.151  1.00  0.00    -0.021 A 
HETATM    2  C5  UNL     1      33.576  -0.408  37.454  1.00  0.00     0.010 A 
HETATM    3  C6  UNL     1      34.838   0.079  37.797  1.00  0.00     0.001 A 
HETATM    4  C7  UNL     1      35.774   0.310  36.816  1.00  0.00     0.010 A 
HETATM    5  C8  UNL     1      35.462   0.057  35.492  1.00  0.00    -0.021 A 
HETATM    6  C12 UNL     1      34.198  -0.424  35.182  1.00  0.00     0.079 A 
ENDROOT
BRANCH   1   7
HETATM    7  C2  UNL     1      31.913  -1.166  35.799  1.00  0.00     0.013 C 
HETATM    8  C1  UNL     1      30.821  -0.520  36.620  1.00  0.00     0.015 C 
HETATM    9  C3  UNL     1      31.755  -2.662  35.852  1.00  0.00     0.015 C 
ENDBRANCH   1   7
BRANCH   6  10
HETATM   10  O1  UNL     1      33.850  -0.684  33.881  1.00  0.00    -0.360 OA
ATOM     11  H1  UNL     1      33.619  -1.581  33.669  1.00  0.00     0.217 HD
ENDBRANCH   6  10
BRANCH   5  12
HETATM   12  C9  UNL     1      36.477   0.306  34.430  1.00  0.00     0.013 C 
HETATM   13  C10 UNL     1      37.276  -0.947  34.145  1.00  0.00     0.015 C 
HETATM   14  C11 UNL     1      37.400   1.439  34.826  1.00  0.00     0.015 C 
ENDBRANCH   5  12
TORSDOF 3
ENDMDL
