MODEL 3
REMARK VINA RESULT: -6.616282045      2.012      4.830
REMARK  3 active torsions:
REMARK  status: ('A' for Active; 'I' for Inactive)
REMARK    1  A    between atoms: C2_2  and  C4_4 
REMARK    2  A    between atoms: C8_8  and  C9_9 
REMARK    3  A    between atoms: C12_12  and  O1_13 
ROOT
HETATM    1  C4  UNL     1      35.409  -0.277  35.543  1.00  0.00    -0.021 A 
HETATM    2  C5  UNL     1      35.782  -0.473  36.849  1.00  0.00     0.010 A 
HETATM    3  C6  UNL     1      34.886  -0.959  37.803  1.00  0.00     0.001 A 
HETATM    4  C7  UNL     1      33.592  -1.253  37.440  1.00  0.00     0.010 A 
HETATM    5  C8  UNL     1      33.182  -1.065  36.132  1.00  0.00    -0.021 A 
HETATM    6  C12 UNL     1      34.097  -0.582  35.206  1.00  0.00     0.079 A 
ENDROOT
BRANCH   1   7
HETATM    7  C2  UNL     1      36.350   0.223  34.553  1.00  0.00     0.013 C 
HETATM    8  C1  UNL     1      37.236  -0.872  34.004  1.00  0.00     0.015 C 
HETATM    9  C3  UNL     1      37.206   1.376  35.002  1.00  0.00     0.015 C 
ENDBRANCH   1   7
BRANCH   6  10
HETATM   10  O1  UNL     1      33.729  -0.385  33.901  1.00  0.00    -0.360 OA
ATOM     11  H1  UNL     1      32.813  -0.191  33.736  1.00  0.00     0.217 HD
ENDBRANCH   6  10
BRANCH   5  12
HETATM   12  C9  UNL     1      31.780  -1.382  35.741  1.00  0.00     0.013 C 
HETATM   13  C10 UNL     1      30.796  -0.577  36.562  1.00  0.00     0.015 C 
HETATM   14  C11 UNL     1      31.503  -2.863  35.894  1.00  0.00     0.015 C 
ENDBRANCH   5  12
TORSDOF 3
ENDMDL
