MODEL 10
REMARK VINA RESULT: -6.256064101      1.829      4.759
REMARK  3 active torsions:
REMARK  status: ('A' for Active; 'I' for Inactive)
REMARK    1  A    between atoms: C2_2  and  C4_4 
REMARK    2  A    between atoms: C8_8  and  C9_9 
REMARK    3  A    between atoms: C12_12  and  O1_13 
ROOT
HETATM    1  C4  UNL     1      35.327   0.483  35.204  1.00  0.00    -0.021 A 
HETATM    2  C5  UNL     1      35.539   0.990  36.461  1.00  0.00     0.010 A 
HETATM    3  C6  UNL     1      34.595   0.843  37.480  1.00  0.00     0.001 A 
HETATM    4  C7  UNL     1      33.419   0.175  37.233  1.00  0.00     0.010 A 
HETATM    5  C8  UNL     1      33.173  -0.348  35.975  1.00  0.00    -0.021 A 
HETATM    6  C12 UNL     1      34.130  -0.187  34.984  1.00  0.00     0.079 A 
ENDROOT
BRANCH   1   7
HETATM    7  C2  UNL     1      36.317   0.633  34.150  1.00  0.00     0.013 C 
HETATM    8  C1  UNL     1      37.698   0.909  34.698  1.00  0.00     0.015 C 
HETATM    9  C3  UNL     1      35.987   1.657  33.097  1.00  0.00     0.015 C 
ENDBRANCH   1   7
BRANCH   6  10
HETATM   10  O1  UNL     1      33.924  -0.693  33.727  1.00  0.00    -0.360 OA
ATOM     11  H1  UNL     1      33.934  -1.639  33.637  1.00  0.00     0.217 HD
ENDBRANCH   6  10
BRANCH   5  12
HETATM   12  C9  UNL     1      31.897  -1.069  35.709  1.00  0.00     0.013 C 
HETATM   13  C10 UNL     1      30.764  -0.480  36.520  1.00  0.00     0.015 C 
HETATM   14  C11 UNL     1      32.044  -2.547  36.009  1.00  0.00     0.015 C 
ENDBRANCH   5  12
TORSDOF 3
ENDMDL
