MODEL 5
REMARK VINA RESULT: -6.095731985      1.490      4.211
REMARK  3 active torsions:
REMARK  status: ('A' for Active; 'I' for Inactive)
REMARK    1  A    between atoms: C2_2  and  C3_3 
REMARK    2  A    between atoms: C7_7  and  C8_8 
REMARK    3  A    between atoms: C10_10  and  O1_11 
ROOT
HETATM    1  C3  UNL     1      35.555  -0.314  35.308  1.00  0.00    -0.025 A 
HETATM    2  C4  UNL     1      35.615   0.317  36.532  1.00  0.00     0.010 A 
HETATM    3  C5  UNL     1      34.575   0.332  37.432  1.00  0.00     0.001 A 
HETATM    4  C6  UNL     1      33.404  -0.325  37.081  1.00  0.00     0.010 A 
HETATM    5  C7  UNL     1      33.292  -0.965  35.883  1.00  0.00    -0.025 A 
HETATM    6  C10 UNL     1      34.366  -0.952  35.011  1.00  0.00     0.078 A 
ENDROOT
BRANCH   1   7
HETATM    7  C2  UNL     1      36.666  -0.336  34.331  1.00  0.00     0.037 C 
HETATM    8  C1  UNL     1      37.131   1.059  33.968  1.00  0.00     0.010 C 
ENDBRANCH   1   7
BRANCH   6   9
HETATM    9  O1  UNL     1      34.245  -1.601  33.796  1.00  0.00    -0.360 OA
ATOM     10  H1  UNL     1      34.289  -1.089  32.998  1.00  0.00     0.217 HD
ENDBRANCH   6   9
BRANCH   5  11
HETATM   11  C8  UNL     1      32.062  -1.687  35.454  1.00  0.00     0.037 C 
HETATM   12  C9  UNL     1      30.795  -1.071  35.932  1.00  0.00     0.010 C 
ENDBRANCH   5  11
TORSDOF 3
ENDMDL
