MODEL 20
REMARK VINA RESULT: -5.269439229      3.506      5.306
REMARK  3 active torsions:
REMARK  status: ('A' for Active; 'I' for Inactive)
REMARK    1  A    between atoms: C2_2  and  C3_3 
REMARK    2  A    between atoms: C7_7  and  C8_8 
REMARK    3  A    between atoms: C10_10  and  O1_11 
ROOT
HETATM    1  C3  UNL     1      34.860   0.248  31.001  1.00  0.00    -0.025 A 
HETATM    2  C4  UNL     1      35.372   1.482  30.663  1.00  0.00     0.010 A 
HETATM    3  C5  UNL     1      36.068   2.283  31.539  1.00  0.00     0.001 A 
HETATM    4  C6  UNL     1      36.260   1.816  32.831  1.00  0.00     0.010 A 
HETATM    5  C7  UNL     1      35.775   0.602  33.218  1.00  0.00    -0.025 A 
HETATM    6  C10 UNL     1      35.082  -0.167  32.301  1.00  0.00     0.078 A 
ENDROOT
BRANCH   1   7
HETATM    7  C2  UNL     1      34.109  -0.622  30.069  1.00  0.00     0.037 C 
HETATM    8  C1  UNL     1      33.882   0.045  28.729  1.00  0.00     0.010 C 
ENDBRANCH   1   7
BRANCH   6   9
HETATM    9  O1  UNL     1      34.591  -1.396  32.699  1.00  0.00    -0.360 OA
ATOM     10  H1  UNL     1      34.930  -2.179  32.283  1.00  0.00     0.217 HD
ENDBRANCH   6   9
BRANCH   5  11
HETATM   11  C8  UNL     1      35.953   0.051  34.590  1.00  0.00     0.037 C 
HETATM   12  C9  UNL     1      37.329  -0.434  34.880  1.00  0.00     0.010 C 
ENDBRANCH   5  11
TORSDOF 3
ENDMDL
