MODEL 6
REMARK VINA RESULT: -6.078485299      1.475      1.588
REMARK  3 active torsions:
REMARK  status: ('A' for Active; 'I' for Inactive)
REMARK    1  A    between atoms: C2_2  and  C3_3 
REMARK    2  A    between atoms: C7_7  and  C8_8 
REMARK    3  A    between atoms: C10_10  and  O1_11 
ROOT
HETATM    1  C3  UNL     1      33.255  -0.982  35.881  1.00  0.00    -0.025 A 
HETATM    2  C4  UNL     1      33.424  -0.330  37.083  1.00  0.00     0.010 A 
HETATM    3  C5  UNL     1      34.570   0.349  37.426  1.00  0.00     0.001 A 
HETATM    4  C6  UNL     1      35.609   0.373  36.506  1.00  0.00     0.010 A 
HETATM    5  C7  UNL     1      35.494  -0.256  35.303  1.00  0.00    -0.025 A 
HETATM    6  C10 UNL     1      34.322  -0.926  35.004  1.00  0.00     0.078 A 
ENDROOT
BRANCH   1   7
HETATM    7  C2  UNL     1      32.028  -1.716  35.501  1.00  0.00     0.037 C 
HETATM    8  C1  UNL     1      30.773  -0.995  35.949  1.00  0.00     0.010 C 
ENDBRANCH   1   7
BRANCH   6   9
HETATM    9  O1  UNL     1      34.211  -1.563  33.782  1.00  0.00    -0.360 OA
ATOM     10  H1  UNL     1      34.875  -1.403  33.122  1.00  0.00     0.217 HD
ENDBRANCH   6   9
BRANCH   5  11
HETATM   11  C8  UNL     1      36.575  -0.263  34.278  1.00  0.00     0.037 C 
HETATM   12  C9  UNL     1      37.160   1.076  33.998  1.00  0.00     0.010 C 
ENDBRANCH   5  11
TORSDOF 3
ENDMDL
