MODEL 1
REMARK VINA RESULT: -6.160283917      0.000      0.000
REMARK  3 active torsions:
REMARK  status: ('A' for Active; 'I' for Inactive)
REMARK    1  A    between atoms: C2_2  and  C3_3 
REMARK    2  A    between atoms: C7_7  and  C8_8 
REMARK    3  A    between atoms: C10_10  and  O1_11 
ROOT
HETATM    1  C3  UNL     1      32.555  -0.441  36.460  1.00  0.00    -0.025 A 
HETATM    2  C4  UNL     1      33.269  -1.248  37.319  1.00  0.00     0.010 A 
HETATM    3  C5  UNL     1      34.639  -1.368  37.288  1.00  0.00     0.001 A 
HETATM    4  C6  UNL     1      35.333  -0.634  36.337  1.00  0.00     0.010 A 
HETATM    5  C7  UNL     1      34.675   0.180  35.463  1.00  0.00    -0.025 A 
HETATM    6  C10 UNL     1      33.297   0.267  35.533  1.00  0.00     0.078 A 
ENDROOT
BRANCH   1   7
HETATM    7  C2  UNL     1      31.082  -0.304  36.483  1.00  0.00     0.037 C 
HETATM    8  C1  UNL     1      30.399  -1.377  35.661  1.00  0.00     0.010 C 
ENDBRANCH   1   7
BRANCH   6   9
HETATM    9  O1  UNL     1      32.636   1.093  34.644  1.00  0.00    -0.360 OA
ATOM     10  H1  UNL     1      32.871   2.012  34.613  1.00  0.00     0.217 HD
ENDBRANCH   6   9
BRANCH   5  11
HETATM   11  C8  UNL     1      35.368   0.991  34.423  1.00  0.00     0.037 C 
HETATM   12  C9  UNL     1      36.850   1.000  34.543  1.00  0.00     0.010 C 
ENDBRANCH   5  11
TORSDOF 3
ENDMDL
