MODEL 4
REMARK VINA RESULT: -6.138563170      0.119      3.920
REMARK  3 active torsions:
REMARK  status: ('A' for Active; 'I' for Inactive)
REMARK    1  A    between atoms: C2_2  and  C3_3 
REMARK    2  A    between atoms: C7_7  and  C8_8 
REMARK    3  A    between atoms: C10_10  and  O1_11 
ROOT
HETATM    1  C3  UNL     1      34.664   0.154  35.316  1.00  0.00    -0.025 A 
HETATM    2  C4  UNL     1      35.290  -0.646  36.246  1.00  0.00     0.010 A 
HETATM    3  C5  UNL     1      34.620  -1.342  37.225  1.00  0.00     0.001 A 
HETATM    4  C6  UNL     1      33.238  -1.226  37.273  1.00  0.00     0.010 A 
HETATM    5  C7  UNL     1      32.569  -0.448  36.375  1.00  0.00    -0.025 A 
HETATM    6  C10 UNL     1      33.287   0.232  35.409  1.00  0.00     0.078 A 
ENDROOT
BRANCH   1   7
HETATM    7  C2  UNL     1      35.374   0.908  34.259  1.00  0.00     0.037 C 
HETATM    8  C1  UNL     1      36.873   0.907  34.470  1.00  0.00     0.010 C 
ENDBRANCH   1   7
BRANCH   6   9
HETATM    9  O1  UNL     1      32.603   1.021  34.503  1.00  0.00    -0.360 OA
ATOM     10  H1  UNL     1      32.693   1.965  34.560  1.00  0.00     0.217 HD
ENDBRANCH   6   9
BRANCH   5  11
HETATM   11  C8  UNL     1      31.088  -0.288  36.378  1.00  0.00     0.037 C 
HETATM   12  C9  UNL     1      30.358  -1.345  35.628  1.00  0.00     0.010 C 
ENDBRANCH   5  11
TORSDOF 3
ENDMDL
