MODEL 9
REMARK VINA RESULT: -5.227595395      1.955      3.158
REMARK  1 active torsions:
REMARK  status: ('A' for Active; 'I' for Inactive)
REMARK    1  A    between atoms: C8_8  and  O1_9 
ROOT
HETATM    1  C1  UNL     1      36.379  -0.546  34.237  1.00  0.00     0.051 C 
HETATM    2  C2  UNL     1      35.254  -0.493  35.229  1.00  0.00    -0.028 A 
HETATM    3  C3  UNL     1      35.371   0.173  36.433  1.00  0.00     0.009 A 
HETATM    4  C4  UNL     1      34.308   0.191  37.307  1.00  0.00     0.001 A 
HETATM    5  C5  UNL     1      33.126  -0.452  36.990  1.00  0.00     0.009 A 
HETATM    6  C6  UNL     1      32.988  -1.122  35.793  1.00  0.00    -0.028 A 
HETATM    7  C7  UNL     1      31.747  -1.831  35.393  1.00  0.00     0.051 C 
HETATM    8  C8  UNL     1      34.084  -1.123  34.926  1.00  0.00     0.077 A 
ENDROOT
BRANCH   8   9
HETATM    9  O1  UNL     1      33.949  -1.795  33.724  1.00  0.00    -0.360 OA
ATOM     10  H1  UNL     1      34.387  -1.473  32.946  1.00  0.00     0.217 HD
ENDBRANCH   8   9
TORSDOF 1
ENDMDL
