MODEL 8
REMARK VINA RESULT: -5.247656741      2.546      3.637
REMARK  1 active torsions:
REMARK  status: ('A' for Active; 'I' for Inactive)
REMARK    1  A    between atoms: C8_8  and  O1_9 
ROOT
HETATM    1  C1  UNL     1      36.109  -1.451  34.683  1.00  0.00     0.051 C 
HETATM    2  C2  UNL     1      34.819  -1.068  35.349  1.00  0.00    -0.028 A 
HETATM    3  C3  UNL     1      34.650  -1.153  36.716  1.00  0.00     0.009 A 
HETATM    4  C4  UNL     1      33.446  -0.789  37.277  1.00  0.00     0.001 A 
HETATM    5  C5  UNL     1      32.408  -0.339  36.481  1.00  0.00     0.009 A 
HETATM    6  C6  UNL     1      32.557  -0.247  35.114  1.00  0.00    -0.028 A 
HETATM    7  C7  UNL     1      31.482   0.227  34.205  1.00  0.00     0.051 C 
HETATM    8  C8  UNL     1      33.790  -0.624  34.575  1.00  0.00     0.077 A 
ENDROOT
BRANCH   8   9
HETATM    9  O1  UNL     1      33.943  -0.533  33.203  1.00  0.00    -0.360 OA
ATOM     10  H1  UNL     1      33.356   0.013  32.693  1.00  0.00     0.217 HD
ENDBRANCH   8   9
TORSDOF 1
ENDMDL
