MODEL 2
REMARK VINA RESULT: -5.615196296      2.302      3.598
REMARK  1 active torsions:
REMARK  status: ('A' for Active; 'I' for Inactive)
REMARK    1  A    between atoms: C8_8  and  O1_9 
ROOT
HETATM    1  C1  UNL     1      34.928   1.108  34.047  1.00  0.00     0.051 C 
HETATM    2  C2  UNL     1      34.349   0.277  35.155  1.00  0.00    -0.028 A 
HETATM    3  C3  UNL     1      35.148  -0.381  36.068  1.00  0.00     0.009 A 
HETATM    4  C4  UNL     1      34.566  -1.130  37.066  1.00  0.00     0.001 A 
HETATM    5  C5  UNL     1      33.190  -1.226  37.160  1.00  0.00     0.009 A 
HETATM    6  C6  UNL     1      32.374  -0.577  36.259  1.00  0.00    -0.028 A 
HETATM    7  C7  UNL     1      30.892  -0.640  36.305  1.00  0.00     0.051 C 
HETATM    8  C8  UNL     1      32.995   0.175  35.257  1.00  0.00     0.077 A 
ENDROOT
BRANCH   8   9
HETATM    9  O1  UNL     1      32.179   0.829  34.350  1.00  0.00    -0.360 OA
ATOM     10  H1  UNL     1      31.258   0.959  34.544  1.00  0.00     0.217 HD
ENDBRANCH   8   9
TORSDOF 1
ENDMDL
