MODEL 3
REMARK VINA RESULT: -5.581682806      2.309      4.467
REMARK  1 active torsions:
REMARK  status: ('A' for Active; 'I' for Inactive)
REMARK    1  A    between atoms: C8_8  and  O1_9 
ROOT
HETATM    1  C1  UNL     1      30.844  -0.631  36.309  1.00  0.00     0.051 C 
HETATM    2  C2  UNL     1      32.341  -0.569  36.219  1.00  0.00    -0.028 A 
HETATM    3  C3  UNL     1      33.155  -1.230  37.116  1.00  0.00     0.009 A 
HETATM    4  C4  UNL     1      34.523  -1.140  36.989  1.00  0.00     0.001 A 
HETATM    5  C5  UNL     1      35.086  -0.393  35.971  1.00  0.00     0.009 A 
HETATM    6  C6  UNL     1      34.291   0.276  35.064  1.00  0.00    -0.028 A 
HETATM    7  C7  UNL     1      34.832   1.094  33.950  1.00  0.00     0.051 C 
HETATM    8  C8  UNL     1      32.906   0.165  35.220  1.00  0.00     0.077 A 
ENDROOT
BRANCH   8   9
HETATM    9  O1  UNL     1      32.105   0.835  34.312  1.00  0.00    -0.360 OA
ATOM     10  H1  UNL     1      31.715   1.669  34.545  1.00  0.00     0.217 HD
ENDBRANCH   8   9
TORSDOF 1
ENDMDL
