MODEL 7
REMARK VINA RESULT: -5.258404678      2.618      3.952
REMARK  1 active torsions:
REMARK  status: ('A' for Active; 'I' for Inactive)
REMARK    1  A    between atoms: C8_8  and  O1_9 
ROOT
HETATM    1  C1  UNL     1      31.454   0.149  34.243  1.00  0.00     0.051 C 
HETATM    2  C2  UNL     1      32.534  -0.314  35.178  1.00  0.00    -0.028 A 
HETATM    3  C3  UNL     1      32.334  -0.395  36.541  1.00  0.00     0.009 A 
HETATM    4  C4  UNL     1      33.358  -0.826  37.354  1.00  0.00     0.001 A 
HETATM    5  C5  UNL     1      34.582  -1.178  36.816  1.00  0.00     0.009 A 
HETATM    6  C6  UNL     1      34.802  -1.105  35.457  1.00  0.00    -0.028 A 
HETATM    7  C7  UNL     1      36.091  -1.468  34.817  1.00  0.00     0.051 C 
HETATM    8  C8  UNL     1      33.743  -0.664  34.658  1.00  0.00     0.077 A 
ENDROOT
BRANCH   8   9
HETATM    9  O1  UNL     1      33.961  -0.589  33.293  1.00  0.00    -0.360 OA
ATOM     10  H1  UNL     1      34.342  -1.325  32.830  1.00  0.00     0.217 HD
ENDBRANCH   8   9
TORSDOF 1
ENDMDL
