MODEL 3
REMARK VINA RESULT: -7.903450828      1.244      1.620
REMARK  4 active torsions:
REMARK  status: ('A' for Active; 'I' for Inactive)
REMARK    1  A    between atoms: N1_1  and  C1_5 
REMARK    2  A    between atoms: C1_5  and  C2_6 
REMARK    3  A    between atoms: C1_5  and  C9_14 
REMARK    4  A    between atoms: C2_6  and  C3_7 
ROOT
HETATM    1  C1  UNL     1      27.158  31.598  19.160  1.00  0.00     0.287 C 
ENDROOT
BRANCH   1   2
HETATM    2  N1  UNL     1      25.827  32.135  19.071  1.00  0.00    -0.065 N 
ATOM      3  H13 UNL     1      25.170  31.424  18.749  1.00  0.00     0.275 HD
ATOM      4  H12 UNL     1      25.443  32.311  19.999  1.00  0.00     0.275 HD
ATOM      5  H11 UNL     1      25.767  32.972  18.490  1.00  0.00     0.275 HD
ENDBRANCH   1   2
BRANCH   1   6
HETATM    6  C2  UNL     1      27.662  31.496  20.566  1.00  0.00     0.082 C 
BRANCH   6   7
HETATM    7  C3  UNL     1      27.988  32.781  21.185  1.00  0.00    -0.056 A 
HETATM    8  C4  UNL     1      27.537  33.123  22.433  1.00  0.00     0.010 A 
HETATM    9  C5  UNL     1      27.844  34.335  23.014  1.00  0.00     0.043 A 
HETATM   10  C6  UNL     1      28.632  35.220  22.306  1.00  0.00     0.116 A 
HETATM   11  F1  UNL     1      28.937  36.416  22.874  1.00  0.00    -0.206 F 
HETATM   12  C7  UNL     1      29.096  34.885  21.039  1.00  0.00     0.043 A 
HETATM   13  C8  UNL     1      28.774  33.665  20.477  1.00  0.00     0.010 A 
ENDBRANCH   6   7
ENDBRANCH   1   6
BRANCH   1  14
HETATM   14  C9  UNL     1      27.119  30.209  18.599  1.00  0.00     0.204 C 
HETATM   15  O1  UNL     1      28.128  29.501  18.455  1.00  0.00    -0.646 OA
HETATM   16  O2  UNL     1      25.889  29.709  18.230  1.00  0.00    -0.646 OA
ENDBRANCH   1  14
TORSDOF 4
ENDMDL
