MODEL 4
REMARK VINA RESULT: -7.864006915      0.686      1.120
REMARK  4 active torsions:
REMARK  status: ('A' for Active; 'I' for Inactive)
REMARK    1  A    between atoms: N1_1  and  C1_5 
REMARK    2  A    between atoms: C1_5  and  C2_6 
REMARK    3  A    between atoms: C1_5  and  C9_14 
REMARK    4  A    between atoms: C2_6  and  C3_7 
ROOT
HETATM    1  C1  UNL     1      27.661  31.514  19.515  1.00  0.00     0.287 C 
ENDROOT
BRANCH   1   2
HETATM    2  N1  UNL     1      27.357  32.673  18.718  1.00  0.00    -0.065 N 
ATOM      3  H13 UNL     1      26.793  33.339  19.247  1.00  0.00     0.275 HD
ATOM      4  H12 UNL     1      28.192  33.240  18.569  1.00  0.00     0.275 HD
ATOM      5  H11 UNL     1      26.910  32.446  17.829  1.00  0.00     0.275 HD
ENDBRANCH   1   2
BRANCH   1   6
HETATM    6  C2  UNL     1      26.950  31.498  20.832  1.00  0.00     0.082 C 
BRANCH   6   7
HETATM    7  C3  UNL     1      27.702  32.103  21.931  1.00  0.00    -0.056 A 
HETATM    8  C4  UNL     1      27.522  33.410  22.304  1.00  0.00     0.010 A 
HETATM    9  C5  UNL     1      28.232  33.978  23.340  1.00  0.00     0.043 A 
HETATM   10  C6  UNL     1      29.148  33.196  24.013  1.00  0.00     0.116 A 
HETATM   11  F1  UNL     1      29.851  33.752  25.035  1.00  0.00    -0.206 F 
HETATM   12  C7  UNL     1      29.340  31.870  23.645  1.00  0.00     0.043 A 
HETATM   13  C8  UNL     1      28.617  31.321  22.603  1.00  0.00     0.010 A 
ENDBRANCH   6   7
ENDBRANCH   1   6
BRANCH   1  14
HETATM   14  C9  UNL     1      27.206  30.310  18.748  1.00  0.00     0.204 C 
HETATM   15  O1  UNL     1      26.029  30.127  18.399  1.00  0.00    -0.646 OA
HETATM   16  O2  UNL     1      28.158  29.369  18.422  1.00  0.00    -0.646 OA
ENDBRANCH   1  14
TORSDOF 4
ENDMDL
