MODEL 15
REMARK VINA RESULT: -4.597878802      4.425      5.702
REMARK  4 active torsions:
REMARK  status: ('A' for Active; 'I' for Inactive)
REMARK    1  A    between atoms: N1_1  and  C1_5 
REMARK    2  A    between atoms: C1_5  and  C2_6 
REMARK    3  A    between atoms: C1_5  and  C9_14 
REMARK    4  A    between atoms: C2_6  and  C3_7 
ROOT
HETATM    1  C1  UNL     1      28.460  34.201  23.762  1.00  0.00     0.287 C 
ENDROOT
BRANCH   1   2
HETATM    2  N1  UNL     1      28.328  35.209  22.743  1.00  0.00    -0.065 N 
ATOM      3  H13 UNL     1      27.422  35.674  22.809  1.00  0.00     0.275 HD
ATOM      4  H12 UNL     1      28.939  36.002  22.936  1.00  0.00     0.275 HD
ATOM      5  H11 UNL     1      28.484  34.852  21.800  1.00  0.00     0.275 HD
ENDBRANCH   1   2
BRANCH   1   6
HETATM    6  C2  UNL     1      29.142  32.958  23.281  1.00  0.00     0.082 C 
BRANCH   6   7
HETATM    7  C3  UNL     1      28.552  32.374  22.077  1.00  0.00    -0.056 A 
HETATM    8  C4  UNL     1      29.168  32.446  20.855  1.00  0.00     0.010 A 
HETATM    9  C5  UNL     1      28.609  31.895  19.721  1.00  0.00     0.043 A 
HETATM   10  C6  UNL     1      27.392  31.254  19.836  1.00  0.00     0.116 A 
HETATM   11  F1  UNL     1      26.837  30.710  18.722  1.00  0.00    -0.206 F 
HETATM   12  C7  UNL     1      26.757  31.174  21.069  1.00  0.00     0.043 A 
HETATM   13  C8  UNL     1      27.336  31.734  22.192  1.00  0.00     0.010 A 
ENDBRANCH   6   7
ENDBRANCH   1   6
BRANCH   1  14
HETATM   14  C9  UNL     1      29.306  34.778  24.856  1.00  0.00     0.204 C 
HETATM   15  O1  UNL     1      29.393  35.995  25.083  1.00  0.00    -0.646 OA
HETATM   16  O2  UNL     1      30.016  33.895  25.640  1.00  0.00    -0.646 OA
ENDBRANCH   1  14
TORSDOF 4
ENDMDL
