MODEL 1
REMARK VINA RESULT: -8.142453393      0.000      0.000
REMARK  4 active torsions:
REMARK  status: ('A' for Active; 'I' for Inactive)
REMARK    1  A    between atoms: N1_1  and  C1_5 
REMARK    2  A    between atoms: C1_5  and  C2_6 
REMARK    3  A    between atoms: C1_5  and  C9_14 
REMARK    4  A    between atoms: C2_6  and  C3_7 
ROOT
HETATM    1  C1  UNL     1      27.252  31.524  19.568  1.00  0.00     0.287 C 
ENDROOT
BRANCH   1   2
HETATM    2  N1  UNL     1      26.111  32.358  19.296  1.00  0.00    -0.065 N 
ATOM      3  H13 UNL     1      26.040  32.561  18.299  1.00  0.00     0.275 HD
ATOM      4  H12 UNL     1      25.243  31.838  19.424  1.00  0.00     0.275 HD
ATOM      5  H11 UNL     1      26.101  33.220  19.842  1.00  0.00     0.275 HD
ENDBRANCH   1   2
BRANCH   1   6
HETATM    6  C2  UNL     1      27.312  31.047  20.986  1.00  0.00     0.082 C 
BRANCH   6   7
HETATM    7  C3  UNL     1      27.813  32.041  21.935  1.00  0.00    -0.056 A 
HETATM    8  C4  UNL     1      27.324  33.321  21.977  1.00  0.00     0.010 A 
HETATM    9  C5  UNL     1      27.798  34.256  22.872  1.00  0.00     0.043 A 
HETATM   10  C6  UNL     1      28.796  33.877  23.747  1.00  0.00     0.116 A 
HETATM   11  F1  UNL     1      29.267  34.795  24.631  1.00  0.00    -0.206 F 
HETATM   12  C7  UNL     1      29.301  32.583  23.716  1.00  0.00     0.043 A 
HETATM   13  C8  UNL     1      28.810  31.663  22.809  1.00  0.00     0.010 A 
ENDBRANCH   6   7
ENDBRANCH   1   6
BRANCH   1  14
HETATM   14  C9  UNL     1      27.138  30.311  18.695  1.00  0.00     0.204 C 
HETATM   15  O1  UNL     1      28.110  29.619  18.356  1.00  0.00    -0.646 OA
HETATM   16  O2  UNL     1      25.879  29.963  18.256  1.00  0.00    -0.646 OA
ENDBRANCH   1  14
TORSDOF 4
ENDMDL
