MODEL 14
REMARK VINA RESULT: -4.743651834      4.067      5.434
REMARK  4 active torsions:
REMARK  status: ('A' for Active; 'I' for Inactive)
REMARK    1  A    between atoms: N1_1  and  C1_5 
REMARK    2  A    between atoms: C1_5  and  C2_6 
REMARK    3  A    between atoms: C1_5  and  C9_14 
REMARK    4  A    between atoms: C2_6  and  C3_7 
ROOT
HETATM    1  C1  UNL     1      28.347  34.190  20.998  1.00  0.00     0.287 C 
ENDROOT
BRANCH   1   2
HETATM    2  N1  UNL     1      29.275  35.216  20.600  1.00  0.00    -0.065 N 
ATOM      3  H13 UNL     1      29.403  35.898  21.348  1.00  0.00     0.275 HD
ATOM      4  H12 UNL     1      30.223  34.845  20.545  1.00  0.00     0.275 HD
ATOM      5  H11 UNL     1      29.016  35.678  19.728  1.00  0.00     0.275 HD
ENDBRANCH   1   2
BRANCH   1   6
HETATM    6  C2  UNL     1      28.856  32.804  20.750  1.00  0.00     0.082 C 
BRANCH   6   7
HETATM    7  C3  UNL     1      27.957  31.964  19.958  1.00  0.00    -0.056 A 
HETATM    8  C4  UNL     1      26.705  32.384  19.589  1.00  0.00     0.010 A 
HETATM    9  C5  UNL     1      25.860  31.591  18.843  1.00  0.00     0.043 A 
HETATM   10  C6  UNL     1      26.301  30.339  18.463  1.00  0.00     0.116 A 
HETATM   11  F1  UNL     1      25.471  29.554  17.728  1.00  0.00    -0.206 F 
HETATM   12  C7  UNL     1      27.568  29.902  18.830  1.00  0.00     0.043 A 
HETATM   13  C8  UNL     1      28.398  30.714  19.579  1.00  0.00     0.010 A 
ENDBRANCH   6   7
ENDBRANCH   1   6
BRANCH   1  14
HETATM   14  C9  UNL     1      28.132  34.329  22.474  1.00  0.00     0.204 C 
HETATM   15  O1  UNL     1      27.733  35.373  23.013  1.00  0.00    -0.646 OA
HETATM   16  O2  UNL     1      28.398  33.227  23.259  1.00  0.00    -0.646 OA
ENDBRANCH   1  14
TORSDOF 4
ENDMDL
