MODEL 12
REMARK VINA RESULT: -4.838349699      4.053      5.567
REMARK  4 active torsions:
REMARK  status: ('A' for Active; 'I' for Inactive)
REMARK    1  A    between atoms: N1_1  and  C1_5 
REMARK    2  A    between atoms: C1_5  and  C2_6 
REMARK    3  A    between atoms: C1_5  and  C9_14 
REMARK    4  A    between atoms: C2_6  and  C3_7 
ROOT
HETATM    1  C1  UNL     1      28.338  34.175  20.991  1.00  0.00     0.287 C 
ENDROOT
BRANCH   1   2
HETATM    2  N1  UNL     1      29.239  35.230  20.611  1.00  0.00    -0.065 N 
ATOM      3  H13 UNL     1      28.953  35.651  19.727  1.00  0.00     0.275 HD
ATOM      4  H12 UNL     1      29.131  36.038  21.225  1.00  0.00     0.275 HD
ATOM      5  H11 UNL     1      30.215  34.934  20.572  1.00  0.00     0.275 HD
ENDBRANCH   1   2
BRANCH   1   6
HETATM    6  C2  UNL     1      28.883  32.806  20.723  1.00  0.00     0.082 C 
BRANCH   6   7
HETATM    7  C3  UNL     1      27.994  31.946  19.942  1.00  0.00    -0.056 A 
HETATM    8  C4  UNL     1      28.370  30.695  19.528  1.00  0.00     0.010 A 
HETATM    9  C5  UNL     1      27.530  29.887  18.791  1.00  0.00     0.043 A 
HETATM   10  C6  UNL     1      26.276  30.365  18.468  1.00  0.00     0.116 A 
HETATM   11  F1  UNL     1      25.446  29.572  17.742  1.00  0.00    -0.206 F 
HETATM   12  C7  UNL     1      25.883  31.632  18.882  1.00  0.00     0.043 A 
HETATM   13  C8  UNL     1      26.742  32.425  19.619  1.00  0.00     0.010 A 
ENDBRANCH   6   7
ENDBRANCH   1   6
BRANCH   1  14
HETATM   14  C9  UNL     1      28.118  34.284  22.470  1.00  0.00     0.204 C 
HETATM   15  O1  UNL     1      27.741  35.325  23.030  1.00  0.00    -0.646 OA
HETATM   16  O2  UNL     1      28.352  33.159  23.230  1.00  0.00    -0.646 OA
ENDBRANCH   1  14
TORSDOF 4
ENDMDL
