MODEL 2
REMARK VINA RESULT: -8.043955646      0.053      1.326
REMARK  4 active torsions:
REMARK  status: ('A' for Active; 'I' for Inactive)
REMARK    1  A    between atoms: N1_1  and  C1_5 
REMARK    2  A    between atoms: C1_5  and  C2_6 
REMARK    3  A    between atoms: C1_5  and  C9_14 
REMARK    4  A    between atoms: C2_6  and  C3_7 
ROOT
HETATM    1  C1  UNL     1      27.274  31.529  19.562  1.00  0.00     0.287 C 
ENDROOT
BRANCH   1   2
HETATM    2  N1  UNL     1      26.150  32.388  19.300  1.00  0.00    -0.065 N 
ATOM      3  H13 UNL     1      25.324  31.841  19.058  1.00  0.00     0.275 HD
ATOM      4  H12 UNL     1      25.818  32.824  20.160  1.00  0.00     0.275 HD
ATOM      5  H11 UNL     1      26.339  33.093  18.587  1.00  0.00     0.275 HD
ENDBRANCH   1   2
BRANCH   1   6
HETATM    6  C2  UNL     1      27.316  31.024  20.971  1.00  0.00     0.082 C 
BRANCH   6   7
HETATM    7  C3  UNL     1      27.843  31.984  21.940  1.00  0.00    -0.056 A 
HETATM    8  C4  UNL     1      28.839  31.657  22.823  1.00  0.00     0.010 A 
HETATM    9  C5  UNL     1      29.333  32.564  23.736  1.00  0.00     0.043 A 
HETATM   10  C6  UNL     1      28.800  33.837  23.750  1.00  0.00     0.116 A 
HETATM   11  F1  UNL     1      29.284  34.734  24.648  1.00  0.00    -0.206 F 
HETATM   12  C7  UNL     1      27.790  34.182  22.860  1.00  0.00     0.043 A 
HETATM   13  C8  UNL     1      27.310  33.256  21.954  1.00  0.00     0.010 A 
ENDBRANCH   6   7
ENDBRANCH   1   6
BRANCH   1  14
HETATM   14  C9  UNL     1      27.144  30.335  18.665  1.00  0.00     0.204 C 
HETATM   15  O1  UNL     1      28.111  29.654  18.288  1.00  0.00    -0.646 OA
HETATM   16  O2  UNL     1      25.877  29.992  18.247  1.00  0.00    -0.646 OA
ENDBRANCH   1  14
TORSDOF 4
ENDMDL
