MODEL 5
REMARK VINA RESULT: -7.857489858      1.251      1.551
REMARK  4 active torsions:
REMARK  status: ('A' for Active; 'I' for Inactive)
REMARK    1  A    between atoms: N1_1  and  C1_5 
REMARK    2  A    between atoms: C1_5  and  C2_6 
REMARK    3  A    between atoms: C1_5  and  C9_14 
REMARK    4  A    between atoms: C2_6  and  C3_7 
ROOT
HETATM    1  C1  UNL     1      27.164  31.606  19.143  1.00  0.00     0.287 C 
ENDROOT
BRANCH   1   2
HETATM    2  N1  UNL     1      25.830  32.140  19.073  1.00  0.00    -0.065 N 
ATOM      3  H13 UNL     1      25.732  32.951  19.685  1.00  0.00     0.275 HD
ATOM      4  H12 UNL     1      25.666  32.589  18.172  1.00  0.00     0.275 HD
ATOM      5  H11 UNL     1      25.107  31.448  19.270  1.00  0.00     0.275 HD
ENDBRANCH   1   2
BRANCH   1   6
HETATM    6  C2  UNL     1      27.695  31.519  20.540  1.00  0.00     0.082 C 
BRANCH   6   7
HETATM    7  C3  UNL     1      28.021  32.812  21.142  1.00  0.00    -0.056 A 
HETATM    8  C4  UNL     1      28.769  33.753  20.485  1.00  0.00     0.010 A 
HETATM    9  C5  UNL     1      29.076  34.971  21.055  1.00  0.00     0.043 A 
HETATM   10  C6  UNL     1      28.607  35.236  22.326  1.00  0.00     0.116 A 
HETATM   11  F1  UNL     1      28.906  36.435  22.892  1.00  0.00    -0.206 F 
HETATM   12  C7  UNL     1      27.847  34.290  23.003  1.00  0.00     0.043 A 
HETATM   13  C8  UNL     1      27.553  33.076  22.412  1.00  0.00     0.010 A 
ENDBRANCH   6   7
ENDBRANCH   1   6
BRANCH   1  14
HETATM   14  C9  UNL     1      27.116  30.210  18.598  1.00  0.00     0.204 C 
HETATM   15  O1  UNL     1      28.122  29.497  18.454  1.00  0.00    -0.646 OA
HETATM   16  O2  UNL     1      25.882  29.711  18.244  1.00  0.00    -0.646 OA
ENDBRANCH   1  14
TORSDOF 4
ENDMDL
