MODEL 1
REMARK VINA RESULT: -7.966639429      0.000      0.000
REMARK  12 active torsions:
REMARK  status: ('A' for Active; 'I' for Inactive)
REMARK    1  A    between atoms: O1_1  and  C1_3 
REMARK    2  A    between atoms: C1_3  and  C2_4 
REMARK    3  A    between atoms: C3_6  and  O3_7 
REMARK    4  A    between atoms: O3_7  and  C4_8 
REMARK    5  A    between atoms: C5_9  and  O4_10 
REMARK    6  A    between atoms: C6_12  and  O5_13 
REMARK    7  A    between atoms: C7_16  and  C8_17 
REMARK    8  A    between atoms: C8_17  and  O7_18 
REMARK    9  A    between atoms: C9_20  and  O8_21 
REMARK   10  A    between atoms: C10_23  and  O9_24 
REMARK   11  A    between atoms: C11_26  and  O10_27 
REMARK   12  A    between atoms: C12_29  and  O11_30 
ROOT
HETATM    1  O3  UNL     1       2.668  -0.210  38.919  1.00  0.00    -0.348 OA
ENDROOT
BRANCH   1   2
HETATM    2  C3  UNL     1       1.582  -0.425  38.103  1.00  0.00     0.292 C 
HETATM    3  O2  UNL     1       0.530   0.334  38.628  1.00  0.00    -0.348 OA
HETATM    4  C2  UNL     1      -0.637   0.206  37.897  1.00  0.00     0.179 C 
HETATM    5  C12 UNL     1      -1.143  -1.189  37.791  1.00  0.00     0.180 C 
HETATM    6  C11 UNL     1      -0.095  -2.232  37.627  1.00  0.00     0.183 C 
HETATM    7  C10 UNL     1       1.188  -1.878  38.292  1.00  0.00     0.204 C 
BRANCH   4   8
HETATM    8  C1  UNL     1      -1.697   1.022  38.616  1.00  0.00     0.198 C 
BRANCH   8   9
HETATM    9  O1  UNL     1      -1.832   2.289  38.080  1.00  0.00    -0.398 OA
ATOM     10  H1  UNL     1      -2.512   2.328  37.418  1.00  0.00     0.209 HD
ENDBRANCH   8   9
ENDBRANCH   4   8
BRANCH   5  11
HETATM   11  O11 UNL     1      -1.988  -1.263  36.660  1.00  0.00    -0.390 OA
ATOM     12  H11 UNL     1      -1.478  -1.606  35.935  1.00  0.00     0.210 HD
ENDBRANCH   5  11
BRANCH   6  13
HETATM   13  O10 UNL     1      -0.576  -3.409  38.250  1.00  0.00    -0.390 OA
ATOM     14  H10 UNL     1       0.022  -4.111  38.021  1.00  0.00     0.210 HD
ENDBRANCH   6  13
BRANCH   7  15
HETATM   15  O9  UNL     1       2.172  -2.757  37.876  1.00  0.00    -0.388 OA
ATOM     16  H9  UNL     1       2.648  -3.144  38.602  1.00  0.00     0.210 HD
ENDBRANCH   7  15
ENDBRANCH   1   2
BRANCH   1  17
HETATM   17  C4  UNL     1       3.759   0.370  38.354  1.00  0.00     0.189 C 
HETATM   18  C5  UNL     1       3.893   1.816  38.711  1.00  0.00     0.204 C 
HETATM   19  C6  UNL     1       3.836   2.757  37.554  1.00  0.00     0.288 C 
HETATM   20  O6  UNL     1       4.626   2.419  36.484  1.00  0.00    -0.349 OA
HETATM   21  C7  UNL     1       5.063   1.110  36.487  1.00  0.00     0.179 C 
HETATM   22  C9  UNL     1       3.880   0.238  36.866  1.00  0.00     0.181 C 
BRANCH  18  23
HETATM   23  O4  UNL     1       5.059   2.090  39.446  1.00  0.00    -0.388 OA
ATOM     24  H4  UNL     1       5.851   1.842  38.985  1.00  0.00     0.210 HD
ENDBRANCH  18  23
BRANCH  19  25
HETATM   25  O5  UNL     1       2.509   2.905  37.148  1.00  0.00    -0.369 OA
ATOM     26  H5  UNL     1       2.419   3.719  36.666  1.00  0.00     0.212 HD
ENDBRANCH  19  25
BRANCH  21  27
HETATM   27  C8  UNL     1       5.619   0.746  35.132  1.00  0.00     0.198 C 
BRANCH  27  28
HETATM   28  O7  UNL     1       6.846   0.095  35.250  1.00  0.00    -0.398 OA
ATOM     29  H7  UNL     1       7.384   0.235  34.480  1.00  0.00     0.209 HD
ENDBRANCH  27  28
ENDBRANCH  21  27
BRANCH  22  30
HETATM   30  O8  UNL     1       4.179  -1.046  36.446  1.00  0.00    -0.390 OA
ATOM     31  H8  UNL     1       4.078  -1.173  35.510  1.00  0.00     0.210 HD
ENDBRANCH  22  30
ENDBRANCH   1  17
TORSDOF 12
ENDMDL
