MODEL 3
REMARK VINA RESULT: -7.513580484      3.005      4.787
REMARK  12 active torsions:
REMARK  status: ('A' for Active; 'I' for Inactive)
REMARK    1  A    between atoms: O1_1  and  C1_3 
REMARK    2  A    between atoms: C1_3  and  C2_4 
REMARK    3  A    between atoms: C3_6  and  O3_7 
REMARK    4  A    between atoms: O3_7  and  C4_8 
REMARK    5  A    between atoms: C5_9  and  O4_10 
REMARK    6  A    between atoms: C6_12  and  O5_13 
REMARK    7  A    between atoms: C7_16  and  C8_17 
REMARK    8  A    between atoms: C8_17  and  O7_18 
REMARK    9  A    between atoms: C9_20  and  O8_21 
REMARK   10  A    between atoms: C10_23  and  O9_24 
REMARK   11  A    between atoms: C11_26  and  O10_27 
REMARK   12  A    between atoms: C12_29  and  O11_30 
ROOT
HETATM    1  O3  UNL     1       2.565   0.481  39.517  1.00  0.00    -0.348 OA
ENDROOT
BRANCH   1   2
HETATM    2  C3  UNL     1       2.609   1.097  40.746  1.00  0.00     0.292 C 
HETATM    3  O2  UNL     1       3.888   0.862  41.264  1.00  0.00    -0.348 OA
HETATM    4  C2  UNL     1       4.071   1.430  42.512  1.00  0.00     0.179 C 
HETATM    5  C12 UNL     1       3.110   0.957  43.546  1.00  0.00     0.180 C 
HETATM    6  C11 UNL     1       1.717   0.748  43.067  1.00  0.00     0.183 C 
HETATM    7  C10 UNL     1       1.648   0.335  41.640  1.00  0.00     0.204 C 
BRANCH   4   8
HETATM    8  C1  UNL     1       5.464   1.041  42.974  1.00  0.00     0.198 C 
BRANCH   8   9
HETATM    9  O1  UNL     1       5.487   0.668  44.304  1.00  0.00    -0.398 OA
ATOM     10  H1  UNL     1       5.021  -0.147  44.456  1.00  0.00     0.209 HD
ENDBRANCH   8   9
ENDBRANCH   4   8
BRANCH   5  11
HETATM   11  O11 UNL     1       3.058   1.928  44.572  1.00  0.00    -0.390 OA
ATOM     12  H11 UNL     1       2.319   1.723  45.133  1.00  0.00     0.210 HD
ENDBRANCH   5  11
BRANCH   6  13
HETATM   13  O10 UNL     1       1.167  -0.309  43.832  1.00  0.00    -0.390 OA
ATOM     14  H10 UNL     1       0.351   0.009  44.201  1.00  0.00     0.210 HD
ENDBRANCH   6  13
BRANCH   7  15
HETATM   15  O9  UNL     1       0.337   0.418  41.206  1.00  0.00    -0.388 OA
ATOM     16  H9  UNL     1      -0.231   0.848  41.835  1.00  0.00     0.210 HD
ENDBRANCH   7  15
ENDBRANCH   1   2
BRANCH   1  17
HETATM   17  C4  UNL     1       3.647   0.635  38.711  1.00  0.00     0.189 C 
HETATM   18  C5  UNL     1       4.106   2.055  38.626  1.00  0.00     0.204 C 
HETATM   19  C6  UNL     1       4.054   2.652  37.259  1.00  0.00     0.288 C 
HETATM   20  O6  UNL     1       4.594   1.880  36.261  1.00  0.00    -0.349 OA
HETATM   21  C7  UNL     1       4.769   0.553  36.597  1.00  0.00     0.179 C 
HETATM   22  C9  UNL     1       3.514   0.098  37.318  1.00  0.00     0.181 C 
BRANCH  18  23
HETATM   23  O4  UNL     1       5.401   2.241  39.140  1.00  0.00    -0.388 OA
ATOM     24  H4  UNL     1       5.930   1.453  39.100  1.00  0.00     0.210 HD
ENDBRANCH  18  23
BRANCH  19  25
HETATM   25  O5  UNL     1       2.734   2.984  36.953  1.00  0.00    -0.369 OA
ATOM     26  H5  UNL     1       2.713   3.845  36.552  1.00  0.00     0.212 HD
ENDBRANCH  19  25
BRANCH  21  27
HETATM   27  C8  UNL     1       5.034  -0.265  35.357  1.00  0.00     0.198 C 
BRANCH  27  28
HETATM   28  O7  UNL     1       6.099  -1.143  35.551  1.00  0.00    -0.398 OA
ATOM     29  H7  UNL     1       6.933  -0.691  35.483  1.00  0.00     0.209 HD
ENDBRANCH  27  28
ENDBRANCH  21  27
BRANCH  22  30
HETATM   30  O8  UNL     1       3.496  -1.285  37.256  1.00  0.00    -0.390 OA
ATOM     31  H8  UNL     1       4.334  -1.665  37.023  1.00  0.00     0.210 HD
ENDBRANCH  22  30
ENDBRANCH   1  17
TORSDOF 12
ENDMDL
