MODEL 2
REMARK VINA RESULT: -7.541572047      2.849      5.626
REMARK  12 active torsions:
REMARK  status: ('A' for Active; 'I' for Inactive)
REMARK    1  A    between atoms: O1_1  and  C1_3 
REMARK    2  A    between atoms: C1_3  and  C2_4 
REMARK    3  A    between atoms: C3_6  and  O3_7 
REMARK    4  A    between atoms: O3_7  and  C4_8 
REMARK    5  A    between atoms: C5_9  and  O4_10 
REMARK    6  A    between atoms: C6_12  and  O5_13 
REMARK    7  A    between atoms: C7_16  and  C8_17 
REMARK    8  A    between atoms: C8_17  and  O7_18 
REMARK    9  A    between atoms: C9_20  and  O8_21 
REMARK   10  A    between atoms: C10_23  and  O9_24 
REMARK   11  A    between atoms: C11_26  and  O10_27 
REMARK   12  A    between atoms: C12_29  and  O11_30 
ROOT
HETATM    1  O3  UNL     1       3.448   2.234  39.386  1.00  0.00    -0.348 OA
ENDROOT
BRANCH   1   2
HETATM    2  C3  UNL     1       3.942   1.551  40.473  1.00  0.00     0.292 C 
HETATM    3  O2  UNL     1       3.017   1.725  41.508  1.00  0.00    -0.348 OA
HETATM    4  C2  UNL     1       3.396   1.085  42.675  1.00  0.00     0.179 C 
HETATM    5  C12 UNL     1       4.711   1.525  43.214  1.00  0.00     0.180 C 
HETATM    6  C11 UNL     1       5.757   1.795  42.191  1.00  0.00     0.183 C 
HETATM    7  C10 UNL     1       5.198   2.287  40.903  1.00  0.00     0.204 C 
BRANCH   4   8
HETATM    8  C1  UNL     1       2.343   1.414  43.719  1.00  0.00     0.198 C 
BRANCH   8   9
HETATM    9  O1  UNL     1       2.780   2.371  44.615  1.00  0.00    -0.398 OA
ATOM     10  H1  UNL     1       2.493   2.189  45.502  1.00  0.00     0.209 HD
ENDBRANCH   8   9
ENDBRANCH   4   8
BRANCH   5  11
HETATM   11  O11 UNL     1       5.204   0.501  44.055  1.00  0.00    -0.390 OA
ATOM     12  H11 UNL     1       6.037   0.787  44.410  1.00  0.00     0.210 HD
ENDBRANCH   5  11
BRANCH   6  13
HETATM   13  O10 UNL     1       6.587   2.821  42.703  1.00  0.00    -0.390 OA
ATOM     14  H10 UNL     1       6.262   3.643  42.354  1.00  0.00     0.210 HD
ENDBRANCH   6  13
BRANCH   7  15
HETATM   15  O9  UNL     1       6.189   2.260  39.938  1.00  0.00    -0.388 OA
ATOM     16  H9  UNL     1       7.060   2.192  40.310  1.00  0.00     0.210 HD
ENDBRANCH   7  15
ENDBRANCH   1   2
BRANCH   1  17
HETATM   17  C4  UNL     1       3.316   1.537  38.227  1.00  0.00     0.189 C 
HETATM   18  C5  UNL     1       2.453   0.326  38.377  1.00  0.00     0.204 C 
HETATM   19  C6  UNL     1       3.136  -0.971  38.099  1.00  0.00     0.288 C 
HETATM   20  O6  UNL     1       3.874  -1.009  36.942  1.00  0.00    -0.349 OA
HETATM   21  C7  UNL     1       4.165   0.231  36.409  1.00  0.00     0.179 C 
HETATM   22  C9  UNL     1       4.593   1.127  37.556  1.00  0.00     0.181 C 
BRANCH  18  23
HETATM   23  O4  UNL     1       1.287   0.388  37.595  1.00  0.00    -0.388 OA
ATOM     24  H4  UNL     1       0.522   0.052  38.047  1.00  0.00     0.210 HD
ENDBRANCH  18  23
BRANCH  19  25
HETATM   25  O5  UNL     1       3.933  -1.315  39.192  1.00  0.00    -0.369 OA
ATOM     26  H5  UNL     1       4.355  -2.148  39.021  1.00  0.00     0.212 HD
ENDBRANCH  19  25
BRANCH  21  27
HETATM   27  C8  UNL     1       5.243   0.103  35.361  1.00  0.00     0.198 C 
BRANCH  27  28
HETATM   28  O7  UNL     1       6.068  -0.990  35.619  1.00  0.00    -0.398 OA
ATOM     29  H7  UNL     1       6.105  -1.181  36.549  1.00  0.00     0.209 HD
ENDBRANCH  27  28
ENDBRANCH  21  27
BRANCH  22  30
HETATM   30  O8  UNL     1       5.290   2.185  36.998  1.00  0.00    -0.390 OA
ATOM     31  H8  UNL     1       5.934   2.565  37.583  1.00  0.00     0.210 HD
ENDBRANCH  22  30
ENDBRANCH   1  17
TORSDOF 12
ENDMDL
