MODEL 5
REMARK VINA RESULT: -8.755513148      3.285      8.002
REMARK  9 active torsions:
REMARK  status: ('A' for Active; 'I' for Inactive)
REMARK       I    between atoms: C2_2  and  N1_4 
REMARK    1  A    between atoms: N1_4  and  C3_6 
REMARK    2  A    between atoms: C3_6  and  C4_7 
REMARK    3  A    between atoms: C3_6  and  C11_14 
REMARK    4  A    between atoms: C4_7  and  C5_8 
REMARK    5  A    between atoms: C11_14  and  O2_15 
REMARK    6  A    between atoms: C11_14  and  N2_17 
REMARK    7  A    between atoms: C15_21  and  C16_22 
REMARK       I    between atoms: C16_22  and  N3_24 
REMARK    8  A    between atoms: N3_24  and  C17_26 
REMARK    9  A    between atoms: C17_26  and  C18_27 
ROOT
HETATM    1  N2  UNL     1      17.665 -12.338  20.880  1.00  0.00    -0.350 N 
HETATM    2  C12 UNL     1      18.712 -11.401  21.148  1.00  0.00     0.126 C 
HETATM    3  C13 UNL     1      19.925 -11.875  20.297  1.00  0.00     0.022 C 
HETATM    4  C14 UNL     1      19.196 -12.668  19.236  1.00  0.00     0.037 C 
HETATM    5  C15 UNL     1      18.261 -13.471  20.121  1.00  0.00     0.178 C 
ENDROOT
BRANCH   1   6
HETATM    6  C11 UNL     1      16.314 -12.304  21.214  1.00  0.00     0.137 C 
BRANCH   6   7
HETATM    7  C3  UNL     1      15.179 -11.731  20.470  1.00  0.00     0.159 C 
BRANCH   7   8
HETATM    8  N1  UNL     1      14.179 -11.376  21.490  1.00  0.00    -0.349 N 
HETATM    9  C2  UNL     1      13.676 -10.068  21.650  1.00  0.00     0.214 C 
HETATM   10  C1  UNL     1      12.665  -9.745  22.692  1.00  0.00     0.117 C 
HETATM   11  O1  UNL     1      14.085  -9.138  20.895  1.00  0.00    -0.274 OA
ATOM     12  H1  UNL     1      13.833 -12.109  22.108  1.00  0.00     0.163 HD
ENDBRANCH   7   8
BRANCH   7  13
HETATM   13  C4  UNL     1      14.654 -12.536  19.353  1.00  0.00     0.038 C 
BRANCH  13  14
HETATM   14  C5  UNL     1      14.343 -13.985  19.652  1.00  0.00    -0.012 C 
HETATM   15  C6  UNL     1      15.123 -14.920  18.818  1.00  0.00     0.005 C 
HETATM   16  C7  UNL     1      14.155 -16.031  18.325  1.00  0.00     0.000 C 
HETATM   17  C8  UNL     1      13.478 -16.557  19.571  1.00  0.00     0.000 C 
HETATM   18  C9  UNL     1      12.396 -15.534  19.914  1.00  0.00     0.000 C 
HETATM   19  C10 UNL     1      12.837 -14.141  19.532  1.00  0.00     0.005 C 
ENDBRANCH  13  14
ENDBRANCH   7  13
ENDBRANCH   6   7
BRANCH   6  20
HETATM   20  O2  UNL     1      15.947 -12.851  22.350  1.00  0.00    -0.348 OA
ATOM     21  H2  UNL     1      15.723 -12.205  23.010  1.00  0.00     0.219 HD
ENDBRANCH   6  20
ENDBRANCH   1   6
BRANCH   5  22
HETATM   22  C16 UNL     1      18.954 -14.341  21.067  1.00  0.00     0.240 C 
HETATM   23  O3  UNL     1      19.949 -15.006  20.697  1.00  0.00    -0.271 OA
HETATM   24  N3  UNL     1      18.569 -14.500  22.433  1.00  0.00    -0.355 N 
ATOM     25  H3  UNL     1      17.764 -13.981  22.784  1.00  0.00     0.162 HD
BRANCH  24  26
HETATM   26  C17 UNL     1      19.286 -15.375  23.334  1.00  0.00     0.161 C 
BRANCH  26  27
HETATM   27  C18 UNL     1      20.182 -14.550  24.187  1.00  0.00    -0.039 A 
HETATM   28  C19 UNL     1      19.644 -13.966  25.319  1.00  0.00     0.009 A 
HETATM   29  C20 UNL     1      20.456 -13.179  26.142  1.00  0.00     0.002 A 
HETATM   30  C21 UNL     1      21.785 -12.966  25.856  1.00  0.00     0.024 A 
HETATM   31  C22 UNL     1      22.315 -13.552  24.721  1.00  0.00     0.034 A 
HETATM   32 CL1  UNL     1      24.002 -13.291  24.342  1.00  0.00    -0.084 Cl
HETATM   33  C23 UNL     1      21.506 -14.318  23.930  1.00  0.00     0.032 A 
ENDBRANCH  26  27
ENDBRANCH  24  26
ENDBRANCH   5  22
TORSDOF 9
ENDMDL
