MODEL 6
REMARK VINA RESULT: -8.698609655      1.184      1.331
REMARK  9 active torsions:
REMARK  status: ('A' for Active; 'I' for Inactive)
REMARK       I    between atoms: C2_2  and  N1_4 
REMARK    1  A    between atoms: N1_4  and  C3_6 
REMARK    2  A    between atoms: C3_6  and  C4_7 
REMARK    3  A    between atoms: C3_6  and  C11_14 
REMARK    4  A    between atoms: C4_7  and  C5_8 
REMARK    5  A    between atoms: C11_14  and  O2_15 
REMARK    6  A    between atoms: C11_14  and  N2_17 
REMARK    7  A    between atoms: C15_21  and  C16_22 
REMARK       I    between atoms: C16_22  and  N3_24 
REMARK    8  A    between atoms: N3_24  and  C17_26 
REMARK    9  A    between atoms: C17_26  and  C18_27 
ROOT
HETATM    1  N2  UNL     1      16.508 -13.250  20.504  1.00  0.00    -0.350 N 
HETATM    2  C12 UNL     1      16.183 -14.178  19.464  1.00  0.00     0.126 C 
HETATM    3  C13 UNL     1      16.198 -13.351  18.147  1.00  0.00     0.022 C 
HETATM    4  C14 UNL     1      17.097 -12.212  18.572  1.00  0.00     0.037 C 
HETATM    5  C15 UNL     1      16.469 -11.885  19.915  1.00  0.00     0.178 C 
ENDROOT
BRANCH   1   6
HETATM    6  C11 UNL     1      16.820 -13.467  21.843  1.00  0.00     0.137 C 
BRANCH   6   7
HETATM    7  C3  UNL     1      17.973 -14.164  22.437  1.00  0.00     0.159 C 
BRANCH   7   8
HETATM    8  N1  UNL     1      17.838 -15.571  22.025  1.00  0.00    -0.349 N 
HETATM    9  C2  UNL     1      18.814 -16.246  21.264  1.00  0.00     0.214 C 
HETATM   10  C1  UNL     1      18.644 -17.669  20.865  1.00  0.00     0.117 C 
HETATM   11  O1  UNL     1      19.866 -15.639  20.904  1.00  0.00    -0.274 OA
ATOM     12  H1  UNL     1      17.000 -16.080  22.304  1.00  0.00     0.163 HD
ENDBRANCH   7   8
BRANCH   7  13
HETATM   13  C4  UNL     1      18.187 -13.967  23.881  1.00  0.00     0.038 C 
BRANCH  13  14
HETATM   14  C5  UNL     1      19.497 -13.332  24.290  1.00  0.00    -0.012 C 
HETATM   15  C6  UNL     1      20.570 -13.552  23.301  1.00  0.00     0.005 C 
HETATM   16  C7  UNL     1      21.859 -13.934  24.081  1.00  0.00     0.000 C 
HETATM   17  C8  UNL     1      22.036 -12.850  25.121  1.00  0.00     0.000 C 
HETATM   18  C9  UNL     1      21.055 -13.191  26.242  1.00  0.00     0.000 C 
HETATM   19  C10 UNL     1      19.812 -13.844  25.685  1.00  0.00     0.005 C 
ENDBRANCH  13  14
ENDBRANCH   7  13
ENDBRANCH   6   7
BRANCH   6  20
HETATM   20  O2  UNL     1      15.995 -12.997  22.751  1.00  0.00    -0.348 OA
ATOM     21  H2  UNL     1      15.095 -12.972  22.447  1.00  0.00     0.219 HD
ENDBRANCH   6  20
ENDBRANCH   1   6
BRANCH   5  22
HETATM   22  C16 UNL     1      15.072 -11.467  19.821  1.00  0.00     0.240 C 
HETATM   23  O3  UNL     1      14.622 -11.016  18.743  1.00  0.00    -0.271 OA
HETATM   24  N3  UNL     1      14.146 -11.534  20.906  1.00  0.00    -0.355 N 
ATOM     25  H3  UNL     1      14.464 -11.894  21.806  1.00  0.00     0.162 HD
BRANCH  24  26
HETATM   26  C17 UNL     1      12.772 -11.108  20.767  1.00  0.00     0.161 C 
BRANCH  26  27
HETATM   27  C18 UNL     1      12.246 -10.751  22.111  1.00  0.00    -0.039 A 
HETATM   28  C19 UNL     1      11.536 -11.711  22.807  1.00  0.00     0.009 A 
HETATM   29  C20 UNL     1      11.021 -11.408  24.072  1.00  0.00     0.002 A 
HETATM   30  C21 UNL     1      11.201 -10.172  24.648  1.00  0.00     0.024 A 
HETATM   31  C22 UNL     1      11.912  -9.217  23.945  1.00  0.00     0.034 A 
HETATM   32 CL1  UNL     1      12.149  -7.639  24.663  1.00  0.00    -0.084 Cl
HETATM   33  C23 UNL     1      12.407  -9.531  22.711  1.00  0.00     0.032 A 
ENDBRANCH  26  27
ENDBRANCH  24  26
ENDBRANCH   5  22
TORSDOF 9
ENDMDL
