MODEL 1
REMARK VINA RESULT: -9.336624547      0.000      0.000
REMARK  9 active torsions:
REMARK  status: ('A' for Active; 'I' for Inactive)
REMARK       I    between atoms: C2_2  and  N1_4 
REMARK    1  A    between atoms: N1_4  and  C3_6 
REMARK    2  A    between atoms: C3_6  and  C4_7 
REMARK    3  A    between atoms: C3_6  and  C11_14 
REMARK    4  A    between atoms: C4_7  and  C5_8 
REMARK    5  A    between atoms: C11_14  and  O2_15 
REMARK    6  A    between atoms: C11_14  and  N2_17 
REMARK    7  A    between atoms: C15_21  and  C16_22 
REMARK       I    between atoms: C16_22  and  N3_24 
REMARK    8  A    between atoms: N3_24  and  C17_26 
REMARK    9  A    between atoms: C17_26  and  C18_27 
ROOT
HETATM    1  N2  UNL     1      17.163 -13.688  21.168  1.00  0.00    -0.350 N 
HETATM    2  C12 UNL     1      17.369 -13.678  19.752  1.00  0.00     0.126 C 
HETATM    3  C13 UNL     1      17.376 -12.177  19.343  1.00  0.00     0.022 C 
HETATM    4  C14 UNL     1      17.755 -11.554  20.667  1.00  0.00     0.037 C 
HETATM    5  C15 UNL     1      16.801 -12.305  21.578  1.00  0.00     0.178 C 
ENDROOT
BRANCH   1   6
HETATM    6  C11 UNL     1      17.255 -14.729  22.087  1.00  0.00     0.137 C 
BRANCH   6   7
HETATM    7  C3  UNL     1      18.424 -15.216  22.839  1.00  0.00     0.159 C 
BRANCH   7   8
HETATM    8  N1  UNL     1      18.676 -16.577  22.340  1.00  0.00    -0.349 N 
HETATM    9  C2  UNL     1      19.640 -16.869  21.353  1.00  0.00     0.214 C 
HETATM   10  C1  UNL     1      19.867 -18.258  20.872  1.00  0.00     0.117 C 
HETATM   11  O1  UNL     1      20.337 -15.936  20.856  1.00  0.00    -0.274 OA
ATOM     12  H1  UNL     1      18.127 -17.346  22.726  1.00  0.00     0.163 HD
ENDBRANCH   7   8
BRANCH   7  13
HETATM   13  C4  UNL     1      18.353 -15.106  24.306  1.00  0.00     0.038 C 
BRANCH  13  14
HETATM   14  C5  UNL     1      19.156 -13.991  24.939  1.00  0.00    -0.012 C 
HETATM   15  C6  UNL     1      20.102 -13.363  23.997  1.00  0.00     0.005 C 
HETATM   16  C7  UNL     1      21.453 -13.176  24.742  1.00  0.00     0.000 C 
HETATM   17  C8  UNL     1      21.110 -12.448  26.022  1.00  0.00     0.000 C 
HETATM   18  C9  UNL     1      20.548 -13.514  26.963  1.00  0.00     0.000 C 
HETATM   19  C10 UNL     1      19.800 -14.573  26.186  1.00  0.00     0.005 C 
ENDBRANCH  13  14
ENDBRANCH   7  13
ENDBRANCH   6   7
BRANCH   6  20
HETATM   20  O2  UNL     1      16.164 -15.408  22.360  1.00  0.00    -0.348 OA
ATOM     21  H2  UNL     1      15.428 -15.147  21.819  1.00  0.00     0.219 HD
ENDBRANCH   6  20
ENDBRANCH   1   6
BRANCH   5  22
HETATM   22  C16 UNL     1      15.393 -12.085  21.259  1.00  0.00     0.240 C 
HETATM   23  O3  UNL     1      14.607 -13.056  21.182  1.00  0.00    -0.271 OA
HETATM   24  N3  UNL     1      14.822 -10.799  21.017  1.00  0.00    -0.355 N 
ATOM     25  H3  UNL     1      15.421  -9.974  21.067  1.00  0.00     0.162 HD
BRANCH  24  26
HETATM   26  C17 UNL     1      13.421 -10.629  20.703  1.00  0.00     0.161 C 
BRANCH  26  27
HETATM   27  C18 UNL     1      12.675 -10.392  21.967  1.00  0.00    -0.039 A 
HETATM   28  C19 UNL     1      11.873 -11.410  22.450  1.00  0.00     0.009 A 
HETATM   29  C20 UNL     1      11.152 -11.221  23.632  1.00  0.00     0.002 A 
HETATM   30  C21 UNL     1      11.217 -10.040  24.337  1.00  0.00     0.024 A 
HETATM   31  C22 UNL     1      12.020  -9.027  23.848  1.00  0.00     0.034 A 
HETATM   32 CL1  UNL     1      12.113  -7.519  24.731  1.00  0.00    -0.084 Cl
HETATM   33  C23 UNL     1      12.717  -9.231  22.691  1.00  0.00     0.032 A 
ENDBRANCH  26  27
ENDBRANCH  24  26
ENDBRANCH   5  22
TORSDOF 9
ENDMDL
