MODEL 10
REMARK VINA RESULT: -8.492587748      1.900      2.340
REMARK  9 active torsions:
REMARK  status: ('A' for Active; 'I' for Inactive)
REMARK       I    between atoms: C2_2  and  N1_4 
REMARK    1  A    between atoms: N1_4  and  C3_6 
REMARK    2  A    between atoms: C3_6  and  C4_7 
REMARK    3  A    between atoms: C3_6  and  C11_14 
REMARK    4  A    between atoms: C4_7  and  C5_8 
REMARK    5  A    between atoms: C11_14  and  O2_15 
REMARK    6  A    between atoms: C11_14  and  N2_17 
REMARK    7  A    between atoms: C15_21  and  C16_22 
REMARK       I    between atoms: C16_22  and  N3_24 
REMARK    8  A    between atoms: N3_24  and  C17_26 
REMARK    9  A    between atoms: C17_26  and  C18_27 
ROOT
HETATM    1  N2  UNL     1      18.105 -13.437  21.408  1.00  0.00    -0.350 N 
HETATM    2  C12 UNL     1      18.690 -13.819  20.160  1.00  0.00     0.126 C 
HETATM    3  C13 UNL     1      19.008 -12.486  19.423  1.00  0.00     0.022 C 
HETATM    4  C14 UNL     1      19.089 -11.553  20.609  1.00  0.00     0.037 C 
HETATM    5  C15 UNL     1      17.832 -11.976  21.347  1.00  0.00     0.178 C 
ENDROOT
BRANCH   1   6
HETATM    6  C11 UNL     1      17.804 -14.197  22.536  1.00  0.00     0.137 C 
BRANCH   6   7
HETATM    7  C3  UNL     1      18.350 -15.495  22.965  1.00  0.00     0.159 C 
BRANCH   7   8
HETATM    8  N1  UNL     1      17.288 -16.125  23.765  1.00  0.00    -0.349 N 
HETATM    9  C2  UNL     1      16.804 -17.425  23.513  1.00  0.00     0.214 C 
HETATM   10  C1  UNL     1      15.728 -18.031  24.343  1.00  0.00     0.117 C 
HETATM   11  O1  UNL     1      17.287 -18.105  22.560  1.00  0.00    -0.274 OA
ATOM     12  H1  UNL     1      16.884 -15.597  24.538  1.00  0.00     0.163 HD
ENDBRANCH   7   8
BRANCH   7  13
HETATM   13  C4  UNL     1      19.672 -15.468  23.615  1.00  0.00     0.038 C 
BRANCH  13  14
HETATM   14  C5  UNL     1      19.989 -14.246  24.449  1.00  0.00    -0.012 C 
HETATM   15  C6  UNL     1      21.107 -13.456  23.899  1.00  0.00     0.005 C 
HETATM   16  C7  UNL     1      22.031 -13.060  25.084  1.00  0.00     0.000 C 
HETATM   17  C8  UNL     1      21.121 -12.419  26.108  1.00  0.00     0.000 C 
HETATM   18  C9  UNL     1      20.424 -13.579  26.820  1.00  0.00     0.000 C 
HETATM   19  C10 UNL     1      20.202 -14.733  25.872  1.00  0.00     0.005 C 
ENDBRANCH  13  14
ENDBRANCH   7  13
ENDBRANCH   6   7
BRANCH   6  20
HETATM   20  O2  UNL     1      16.906 -13.728  23.371  1.00  0.00    -0.348 OA
ATOM     21  H2  UNL     1      16.096 -13.485  22.938  1.00  0.00     0.219 HD
ENDBRANCH   6  20
ENDBRANCH   1   6
BRANCH   5  22
HETATM   22  C16 UNL     1      16.606 -11.771  20.579  1.00  0.00     0.240 C 
HETATM   23  O3  UNL     1      16.526 -10.824  19.765  1.00  0.00    -0.271 OA
HETATM   24  N3  UNL     1      15.448 -12.599  20.692  1.00  0.00    -0.355 N 
ATOM     25  H3  UNL     1      15.463 -13.384  21.343  1.00  0.00     0.162 HD
BRANCH  24  26
HETATM   26  C17 UNL     1      14.256 -12.358  19.912  1.00  0.00     0.161 C 
BRANCH  26  27
HETATM   27  C18 UNL     1      13.332 -11.505  20.705  1.00  0.00    -0.039 A 
HETATM   28  C19 UNL     1      13.140 -10.198  20.296  1.00  0.00     0.009 A 
HETATM   29  C20 UNL     1      12.283  -9.365  21.022  1.00  0.00     0.002 A 
HETATM   30  C21 UNL     1      11.618  -9.812  22.141  1.00  0.00     0.024 A 
HETATM   31  C22 UNL     1      11.815 -11.119  22.544  1.00  0.00     0.034 A 
HETATM   32 CL1  UNL     1      10.978 -11.703  23.966  1.00  0.00    -0.084 Cl
HETATM   33  C23 UNL     1      12.657 -11.918  21.823  1.00  0.00     0.032 A 
ENDBRANCH  26  27
ENDBRANCH  24  26
ENDBRANCH   5  22
TORSDOF 9
ENDMDL
