MODEL 3
REMARK VINA RESULT: -8.880157715      1.505      1.877
REMARK  9 active torsions:
REMARK  status: ('A' for Active; 'I' for Inactive)
REMARK       I    between atoms: C2_2  and  N1_4 
REMARK    1  A    between atoms: N1_4  and  C3_6 
REMARK    2  A    between atoms: C3_6  and  C4_7 
REMARK    3  A    between atoms: C3_6  and  C11_14 
REMARK    4  A    between atoms: C4_7  and  C5_8 
REMARK    5  A    between atoms: C11_14  and  O2_15 
REMARK    6  A    between atoms: C11_14  and  N2_17 
REMARK    7  A    between atoms: C15_21  and  C16_22 
REMARK       I    between atoms: C16_22  and  N3_24 
REMARK    8  A    between atoms: N3_24  and  C17_26 
REMARK    9  A    between atoms: C17_26  and  C18_27 
ROOT
HETATM    1  N2  UNL     1      17.261 -13.568  21.226  1.00  0.00    -0.350 N 
HETATM    2  C12 UNL     1      17.556 -13.759  19.839  1.00  0.00     0.126 C 
HETATM    3  C13 UNL     1      18.053 -12.378  19.324  1.00  0.00     0.022 C 
HETATM    4  C14 UNL     1      18.514 -11.771  20.629  1.00  0.00     0.037 C 
HETATM    5  C15 UNL     1      17.316 -12.107  21.498  1.00  0.00     0.178 C 
ENDROOT
BRANCH   1   6
HETATM    6  C11 UNL     1      16.966 -14.494  22.223  1.00  0.00     0.137 C 
BRANCH   6   7
HETATM    7  C3  UNL     1      17.798 -14.962  23.344  1.00  0.00     0.159 C 
BRANCH   7   8
HETATM    8  N1  UNL     1      17.051 -16.074  23.953  1.00  0.00    -0.349 N 
HETATM    9  C2  UNL     1      17.658 -17.285  24.343  1.00  0.00     0.214 C 
HETATM   10  C1  UNL     1      16.870 -18.388  24.957  1.00  0.00     0.117 C 
HETATM   11  O1  UNL     1      18.901 -17.452  24.174  1.00  0.00    -0.274 OA
ATOM     12  H1  UNL     1      16.048 -15.962  24.100  1.00  0.00     0.163 HD
ENDBRANCH   7   8
BRANCH   7  13
HETATM   13  C4  UNL     1      18.252 -13.934  24.298  1.00  0.00     0.038 C 
BRANCH  13  14
HETATM   14  C5  UNL     1      19.627 -14.130  24.897  1.00  0.00    -0.012 C 
HETATM   15  C6  UNL     1      19.589 -14.326  26.359  1.00  0.00     0.005 C 
HETATM   16  C7  UNL     1      20.725 -13.465  26.979  1.00  0.00     0.000 C 
HETATM   17  C8  UNL     1      21.978 -13.849  26.225  1.00  0.00     0.000 C 
HETATM   18  C9  UNL     1      21.905 -13.096  24.897  1.00  0.00     0.000 C 
HETATM   19  C10 UNL     1      20.472 -12.953  24.441  1.00  0.00     0.005 C 
ENDBRANCH  13  14
ENDBRANCH   7  13
ENDBRANCH   6   7
BRANCH   6  20
HETATM   20  O2  UNL     1      15.781 -15.060  22.205  1.00  0.00    -0.348 OA
ATOM     21  H2  UNL     1      15.825 -16.000  22.338  1.00  0.00     0.219 HD
ENDBRANCH   6  20
ENDBRANCH   1   6
BRANCH   5  22
HETATM   22  C16 UNL     1      16.068 -11.507  21.032  1.00  0.00     0.240 C 
HETATM   23  O3  UNL     1      16.091 -10.447  20.366  1.00  0.00    -0.271 OA
HETATM   24  N3  UNL     1      14.775 -12.056  21.290  1.00  0.00    -0.355 N 
ATOM     25  H3  UNL     1      14.703 -12.919  21.830  1.00  0.00     0.162 HD
BRANCH  24  26
HETATM   26  C17 UNL     1      13.567 -11.427  20.809  1.00  0.00     0.161 C 
BRANCH  26  27
HETATM   27  C18 UNL     1      12.761 -10.986  21.978  1.00  0.00    -0.039 A 
HETATM   28  C19 UNL     1      11.854 -11.879  22.517  1.00  0.00     0.009 A 
HETATM   29  C20 UNL     1      11.075 -11.497  23.614  1.00  0.00     0.002 A 
HETATM   30  C21 UNL     1      11.186 -10.246  24.177  1.00  0.00     0.024 A 
HETATM   31  C22 UNL     1      12.094  -9.358  23.632  1.00  0.00     0.034 A 
HETATM   32 CL1  UNL     1      12.247  -7.763  24.336  1.00  0.00    -0.084 Cl
HETATM   33  C23 UNL     1      12.846  -9.750  22.561  1.00  0.00     0.032 A 
ENDBRANCH  26  27
ENDBRANCH  24  26
ENDBRANCH   5  22
TORSDOF 9
ENDMDL
