MODEL 7
REMARK VINA RESULT: -8.687504108      2.850      7.677
REMARK  9 active torsions:
REMARK  status: ('A' for Active; 'I' for Inactive)
REMARK       I    between atoms: C2_2  and  N1_4 
REMARK    1  A    between atoms: N1_4  and  C3_6 
REMARK    2  A    between atoms: C3_6  and  C4_7 
REMARK    3  A    between atoms: C3_6  and  C11_14 
REMARK    4  A    between atoms: C4_7  and  C5_8 
REMARK    5  A    between atoms: C11_14  and  O2_15 
REMARK    6  A    between atoms: C11_14  and  N2_17 
REMARK    7  A    between atoms: C15_21  and  C16_22 
REMARK       I    between atoms: C16_22  and  N3_24 
REMARK    8  A    between atoms: N3_24  and  C17_26 
REMARK    9  A    between atoms: C17_26  and  C18_27 
ROOT
HETATM    1  N2  UNL     1      17.820 -12.363  20.850  1.00  0.00    -0.350 N 
HETATM    2  C12 UNL     1      18.869 -11.435  21.142  1.00  0.00     0.126 C 
HETATM    3  C13 UNL     1      20.096 -11.918  20.315  1.00  0.00     0.022 C 
HETATM    4  C14 UNL     1      19.383 -12.702  19.238  1.00  0.00     0.037 C 
HETATM    5  C15 UNL     1      18.422 -13.499  20.101  1.00  0.00     0.178 C 
ENDROOT
BRANCH   1   6
HETATM    6  C11 UNL     1      16.462 -12.318  21.155  1.00  0.00     0.137 C 
BRANCH   6   7
HETATM    7  C3  UNL     1      15.351 -11.721  20.396  1.00  0.00     0.159 C 
BRANCH   7   8
HETATM    8  N1  UNL     1      15.902 -11.406  19.069  1.00  0.00    -0.349 N 
HETATM    9  C2  UNL     1      15.775 -12.266  17.960  1.00  0.00     0.214 C 
HETATM   10  C1  UNL     1      16.346 -11.915  16.632  1.00  0.00     0.117 C 
HETATM   11  O1  UNL     1      15.161 -13.367  18.082  1.00  0.00    -0.274 OA
ATOM     12  H1  UNL     1      16.400 -10.524  18.946  1.00  0.00     0.163 HD
ENDBRANCH   7   8
BRANCH   7  13
HETATM   13  C4  UNL     1      14.640 -10.604  21.044  1.00  0.00     0.038 C 
BRANCH  13  14
HETATM   14  C5  UNL     1      13.591 -10.975  22.069  1.00  0.00    -0.012 C 
HETATM   15  C6  UNL     1      12.789 -12.146  21.667  1.00  0.00     0.005 C 
HETATM   16  C7  UNL     1      11.301 -11.829  21.980  1.00  0.00     0.000 C 
HETATM   17  C8  UNL     1      11.279 -11.393  23.428  1.00  0.00     0.000 C 
HETATM   18  C9  UNL     1      11.762  -9.943  23.429  1.00  0.00     0.000 C 
HETATM   19  C10 UNL     1      12.780  -9.718  22.336  1.00  0.00     0.005 C 
ENDBRANCH  13  14
ENDBRANCH   7  13
ENDBRANCH   6   7
BRANCH   6  20
HETATM   20  O2  UNL     1      16.064 -12.878  22.274  1.00  0.00    -0.348 OA
ATOM     21  H2  UNL     1      16.752 -13.380  22.695  1.00  0.00     0.219 HD
ENDBRANCH   6  20
ENDBRANCH   1   6
BRANCH   5  22
HETATM   22  C16 UNL     1      19.088 -14.377  21.060  1.00  0.00     0.240 C 
HETATM   23  O3  UNL     1      20.072 -15.064  20.704  1.00  0.00    -0.271 OA
HETATM   24  N3  UNL     1      18.686 -14.519  22.423  1.00  0.00    -0.355 N 
ATOM     25  H3  UNL     1      17.888 -13.981  22.762  1.00  0.00     0.162 HD
BRANCH  24  26
HETATM   26  C17 UNL     1      19.375 -15.402  23.336  1.00  0.00     0.161 C 
BRANCH  26  27
HETATM   27  C18 UNL     1      20.229 -14.583  24.237  1.00  0.00    -0.039 A 
HETATM   28  C19 UNL     1      19.668 -14.103  25.406  1.00  0.00     0.009 A 
HETATM   29  C20 UNL     1      20.440 -13.324  26.274  1.00  0.00     0.002 A 
HETATM   30  C21 UNL     1      21.753 -13.020  25.998  1.00  0.00     0.024 A 
HETATM   31  C22 UNL     1      22.307 -13.504  24.827  1.00  0.00     0.034 A 
HETATM   32 CL1  UNL     1      23.975 -13.124  24.459  1.00  0.00    -0.084 Cl
HETATM   33  C23 UNL     1      21.537 -14.262  23.991  1.00  0.00     0.032 A 
ENDBRANCH  26  27
ENDBRANCH  24  26
ENDBRANCH   5  22
TORSDOF 9
ENDMDL
