MODEL 4
REMARK VINA RESULT: -8.788627473      3.199      8.236
REMARK  9 active torsions:
REMARK  status: ('A' for Active; 'I' for Inactive)
REMARK       I    between atoms: C2_2  and  N1_4 
REMARK    1  A    between atoms: N1_4  and  C3_6 
REMARK    2  A    between atoms: C3_6  and  C4_7 
REMARK    3  A    between atoms: C3_6  and  C11_14 
REMARK    4  A    between atoms: C4_7  and  C5_8 
REMARK    5  A    between atoms: C11_14  and  O2_15 
REMARK    6  A    between atoms: C11_14  and  N2_17 
REMARK    7  A    between atoms: C15_21  and  C16_22 
REMARK       I    between atoms: C16_22  and  N3_24 
REMARK    8  A    between atoms: N3_24  and  C17_26 
REMARK    9  A    between atoms: C17_26  and  C18_27 
ROOT
HETATM    1  N2  UNL     1      17.920 -12.383  20.902  1.00  0.00    -0.350 N 
HETATM    2  C12 UNL     1      18.998 -11.503  21.235  1.00  0.00     0.126 C 
HETATM    3  C13 UNL     1      20.237 -12.055  20.473  1.00  0.00     0.022 C 
HETATM    4  C14 UNL     1      19.539 -12.817  19.370  1.00  0.00     0.037 C 
HETATM    5  C15 UNL     1      18.500 -13.556  20.194  1.00  0.00     0.178 C 
ENDROOT
BRANCH   1   6
HETATM    6  C11 UNL     1      16.553 -12.268  21.141  1.00  0.00     0.137 C 
BRANCH   6   7
HETATM    7  C3  UNL     1      15.517 -11.584  20.350  1.00  0.00     0.159 C 
BRANCH   7   8
HETATM    8  N1  UNL     1      14.351 -11.468  21.241  1.00  0.00    -0.349 N 
HETATM    9  C2  UNL     1      13.757 -10.234  21.573  1.00  0.00     0.214 C 
HETATM   10  C1  UNL     1      12.579 -10.155  22.477  1.00  0.00     0.117 C 
HETATM   11  O1  UNL     1      14.226  -9.159  21.096  1.00  0.00    -0.274 OA
ATOM     12  H1  UNL     1      13.955 -12.321  21.636  1.00  0.00     0.163 HD
ENDBRANCH   7   8
BRANCH   7  13
HETATM   13  C4  UNL     1      15.219 -12.155  19.024  1.00  0.00     0.038 C 
BRANCH  13  14
HETATM   14  C5  UNL     1      15.610 -11.319  17.826  1.00  0.00    -0.012 C 
HETATM   15  C6  UNL     1      14.500 -11.140  16.870  1.00  0.00     0.005 C 
HETATM   16  C7  UNL     1      15.072 -11.346  15.440  1.00  0.00     0.000 C 
HETATM   17  C8  UNL     1      16.268 -10.426  15.348  1.00  0.00     0.000 C 
HETATM   18  C9  UNL     1      17.398 -11.145  16.085  1.00  0.00     0.000 C 
HETATM   19  C10 UNL     1      16.853 -11.960  17.234  1.00  0.00     0.005 C 
ENDBRANCH  13  14
ENDBRANCH   7  13
ENDBRANCH   6   7
BRANCH   6  20
HETATM   20  O2  UNL     1      16.067 -12.839  22.219  1.00  0.00    -0.348 OA
ATOM     21  H2  UNL     1      15.929 -13.772  22.107  1.00  0.00     0.219 HD
ENDBRANCH   6  20
ENDBRANCH   1   6
BRANCH   5  22
HETATM   22  C16 UNL     1      19.076 -14.454  21.192  1.00  0.00     0.240 C 
HETATM   23  O3  UNL     1      20.021 -15.214  20.883  1.00  0.00    -0.271 OA
HETATM   24  N3  UNL     1      18.625 -14.536  22.545  1.00  0.00    -0.355 N 
ATOM     25  H3  UNL     1      17.856 -13.937  22.847  1.00  0.00     0.162 HD
BRANCH  24  26
HETATM   26  C17 UNL     1      19.225 -15.441  23.498  1.00  0.00     0.161 C 
BRANCH  26  27
HETATM   27  C18 UNL     1      20.105 -14.660  24.408  1.00  0.00    -0.039 A 
HETATM   28  C19 UNL     1      19.594 -14.275  25.634  1.00  0.00     0.009 A 
HETATM   29  C20 UNL     1      20.391 -13.535  26.513  1.00  0.00     0.002 A 
HETATM   30  C21 UNL     1      21.680 -13.175  26.191  1.00  0.00     0.024 A 
HETATM   31  C22 UNL     1      22.183 -13.563  24.963  1.00  0.00     0.034 A 
HETATM   32 CL1  UNL     1      23.818 -13.112  24.537  1.00  0.00    -0.084 Cl
HETATM   33  C23 UNL     1      21.389 -14.285  24.118  1.00  0.00     0.032 A 
ENDBRANCH  26  27
ENDBRANCH  24  26
ENDBRANCH   5  22
TORSDOF 9
ENDMDL
