MODEL 3
REMARK VINA RESULT: -4.314214435      3.158      5.604
REMARK  7 active torsions:
REMARK  status: ('A' for Active; 'I' for Inactive)
REMARK    1  A    between atoms: N1_2  and  C2_5 
REMARK    2  A    between atoms: C2_5  and  C3_6 
REMARK    3  A    between atoms: C3_6  and  C4_7 
REMARK    4  A    between atoms: C4_7  and  C5_8 
REMARK    5  A    between atoms: C5_8  and  C6_9 
REMARK    6  A    between atoms: C6_9  and  N2_10 
REMARK    7  A    between atoms: C6_9  and  C7_14 
ROOT
HETATM    1  C5  UNL     1      28.148  16.210 -56.830  1.00  0.00     0.044 C 
ENDROOT
BRANCH   1   2
HETATM    2  C4  UNL     1      28.149  16.391 -55.369  1.00  0.00     0.004 C 
BRANCH   2   3
HETATM    3  C3  UNL     1      28.488  17.790 -54.908  1.00  0.00     0.027 C 
BRANCH   3   4
HETATM    4  C2  UNL     1      27.870  18.863 -55.726  1.00  0.00     0.231 C 
BRANCH   4   5
HETATM    5  N1  UNL     1      26.512  19.062 -55.288  1.00  0.00    -0.079 N 
HETATM    6  C1  UNL     1      26.394  19.405 -53.897  1.00  0.00     0.266 C 
ATOM      7  H12 UNL     1      25.940  18.246 -55.507  1.00  0.00     0.276 HD
ATOM      8  H11 UNL     1      26.045  19.758 -55.871  1.00  0.00     0.276 HD
ENDBRANCH   4   5
ENDBRANCH   3   4
ENDBRANCH   2   3
ENDBRANCH   1   2
BRANCH   1   9
HETATM    9  C6  UNL     1      27.574  14.875 -57.227  1.00  0.00     0.283 C 
BRANCH   9  10
HETATM   10  N2  UNL     1      27.458  14.018 -56.036  1.00  0.00    -0.065 N 
ATOM     11  H23 UNL     1      27.328  13.036 -56.278  1.00  0.00     0.275 HD
ATOM     12  H22 UNL     1      28.343  13.929 -55.537  1.00  0.00     0.275 HD
ATOM     13  H21 UNL     1      26.711  14.369 -55.436  1.00  0.00     0.275 HD
ENDBRANCH   9  10
BRANCH   9  14
HETATM   14  C7  UNL     1      28.428  14.164 -58.197  1.00  0.00     0.204 C 
HETATM   15  O1  UNL     1      28.791  12.988 -58.064  1.00  0.00    -0.646 OA
HETATM   16  O2  UNL     1      28.875  14.830 -59.356  1.00  0.00    -0.646 OA
ENDBRANCH   9  14
ENDBRANCH   1   9
TORSDOF 7
ENDMDL
