MODEL 14
REMARK VINA RESULT: -3.969444097      4.763      5.962
REMARK  7 active torsions:
REMARK  status: ('A' for Active; 'I' for Inactive)
REMARK    1  A    between atoms: N1_2  and  C2_5 
REMARK    2  A    between atoms: C2_5  and  C3_6 
REMARK    3  A    between atoms: C3_6  and  C4_7 
REMARK    4  A    between atoms: C4_7  and  C5_8 
REMARK    5  A    between atoms: C5_8  and  C6_9 
REMARK    6  A    between atoms: C6_9  and  N2_10 
REMARK    7  A    between atoms: C6_9  and  C7_14 
ROOT
HETATM    1  C5  UNL     1      27.986  18.700 -55.321  1.00  0.00     0.044 C 
ENDROOT
BRANCH   1   2
HETATM    2  C4  UNL     1      28.384  17.509 -56.090  1.00  0.00     0.004 C 
BRANCH   2   3
HETATM    3  C3  UNL     1      28.089  16.192 -55.408  1.00  0.00     0.027 C 
BRANCH   3   4
HETATM    4  C2  UNL     1      27.663  15.113 -56.333  1.00  0.00     0.231 C 
BRANCH   4   5
HETATM    5  N1  UNL     1      27.005  14.079 -55.576  1.00  0.00    -0.079 N 
HETATM    6  C1  UNL     1      27.325  14.092 -54.175  1.00  0.00     0.266 C 
ATOM      7  H12 UNL     1      27.196  13.162 -55.979  1.00  0.00     0.276 HD
ATOM      8  H11 UNL     1      25.995  14.120 -55.715  1.00  0.00     0.276 HD
ENDBRANCH   4   5
ENDBRANCH   3   4
ENDBRANCH   2   3
ENDBRANCH   1   2
BRANCH   1   9
HETATM    9  C6  UNL     1      28.835  19.895 -55.665  1.00  0.00     0.283 C 
BRANCH   9  10
HETATM   10  N2  UNL     1      28.821  20.104 -57.122  1.00  0.00    -0.065 N 
ATOM     11  H23 UNL     1      28.449  19.298 -57.624  1.00  0.00     0.275 HD
ATOM     12  H22 UNL     1      28.121  20.789 -57.407  1.00  0.00     0.275 HD
ATOM     13  H21 UNL     1      29.757  20.356 -57.439  1.00  0.00     0.275 HD
ENDBRANCH   9  10
BRANCH   9  14
HETATM   14  C7  UNL     1      30.243  19.716 -55.263  1.00  0.00     0.204 C 
HETATM   15  O1  UNL     1      31.195  19.735 -56.054  1.00  0.00    -0.646 OA
HETATM   16  O2  UNL     1      30.562  19.509 -53.905  1.00  0.00    -0.646 OA
ENDBRANCH   9  14
ENDBRANCH   1   9
TORSDOF 7
ENDMDL
