MODEL 1
REMARK VINA RESULT: -4.884606208      0.000      0.000
REMARK  7 active torsions:
REMARK  status: ('A' for Active; 'I' for Inactive)
REMARK    1  A    between atoms: N1_2  and  C2_5 
REMARK    2  A    between atoms: C2_5  and  C3_6 
REMARK    3  A    between atoms: C3_6  and  C4_7 
REMARK    4  A    between atoms: C4_7  and  C5_8 
REMARK    5  A    between atoms: C5_8  and  C6_9 
REMARK    6  A    between atoms: C6_9  and  N2_10 
REMARK    7  A    between atoms: C6_9  and  C7_14 
ROOT
HETATM    1  C5  UNL     1      28.306  14.430 -58.172  1.00  0.00     0.044 C 
ENDROOT
BRANCH   1   2
HETATM    2  C4  UNL     1      28.969  15.532 -58.889  1.00  0.00     0.004 C 
BRANCH   2   3
HETATM    3  C3  UNL     1      29.887  15.092 -60.007  1.00  0.00     0.027 C 
BRANCH   3   4
HETATM    4  C2  UNL     1      30.498  13.756 -59.799  1.00  0.00     0.231 C 
BRANCH   4   5
HETATM    5  N1  UNL     1      31.924  13.861 -59.974  1.00  0.00    -0.079 N 
HETATM    6  C1  UNL     1      32.335  13.954 -61.349  1.00  0.00     0.266 C 
ATOM      7  H12 UNL     1      32.401  13.089 -59.508  1.00  0.00     0.276 HD
ATOM      8  H11 UNL     1      32.296  14.642 -59.434  1.00  0.00     0.276 HD
ENDBRANCH   4   5
ENDBRANCH   3   4
ENDBRANCH   2   3
ENDBRANCH   1   2
BRANCH   1   9
HETATM    9  C6  UNL     1      27.449  14.937 -57.042  1.00  0.00     0.283 C 
BRANCH   9  10
HETATM   10  N2  UNL     1      28.002  16.204 -56.537  1.00  0.00    -0.065 N 
ATOM     11  H23 UNL     1      27.551  16.505 -55.673  1.00  0.00     0.275 HD
ATOM     12  H22 UNL     1      28.950  16.095 -56.177  1.00  0.00     0.275 HD
ATOM     13  H21 UNL     1      27.946  16.914 -57.267  1.00  0.00     0.275 HD
ENDBRANCH   9  10
BRANCH   9  14
HETATM   14  C7  UNL     1      27.404  13.996 -55.907  1.00  0.00     0.204 C 
HETATM   15  O1  UNL     1      27.601  12.778 -56.012  1.00  0.00    -0.646 OA
HETATM   16  O2  UNL     1      27.124  14.475 -54.611  1.00  0.00    -0.646 OA
ENDBRANCH   9  14
ENDBRANCH   1   9
TORSDOF 7
ENDMDL
