MODEL 2
REMARK VINA RESULT: -4.344731710      3.608      5.797
REMARK  7 active torsions:
REMARK  status: ('A' for Active; 'I' for Inactive)
REMARK    1  A    between atoms: N1_2  and  C2_5 
REMARK    2  A    between atoms: C2_5  and  C3_6 
REMARK    3  A    between atoms: C3_6  and  C4_7 
REMARK    4  A    between atoms: C4_7  and  C5_8 
REMARK    5  A    between atoms: C5_8  and  C6_9 
REMARK    6  A    between atoms: C6_9  and  N2_10 
REMARK    7  A    between atoms: C6_9  and  C7_14 
ROOT
HETATM    1  C5  UNL     1      30.496  15.223 -60.186  1.00  0.00     0.044 C 
ENDROOT
BRANCH   1   2
HETATM    2  C4  UNL     1      29.066  15.320 -59.849  1.00  0.00     0.004 C 
BRANCH   2   3
HETATM    3  C3  UNL     1      28.780  15.546 -58.382  1.00  0.00     0.027 C 
BRANCH   3   4
HETATM    4  C2  UNL     1      28.042  14.435 -57.732  1.00  0.00     0.231 C 
BRANCH   4   5
HETATM    5  N1  UNL     1      27.495  14.903 -56.483  1.00  0.00    -0.079 N 
HETATM    6  C1  UNL     1      27.159  13.850 -55.564  1.00  0.00     0.266 C 
ATOM      7  H12 UNL     1      26.689  15.507 -56.647  1.00  0.00     0.276 HD
ATOM      8  H11 UNL     1      28.125  15.576 -56.045  1.00  0.00     0.276 HD
ENDBRANCH   4   5
ENDBRANCH   3   4
ENDBRANCH   2   3
ENDBRANCH   1   2
BRANCH   1   9
HETATM    9  C6  UNL     1      30.887  13.816 -60.559  1.00  0.00     0.283 C 
BRANCH   9  10
HETATM   10  N2  UNL     1      31.218  13.061 -59.340  1.00  0.00    -0.065 N 
ATOM     11  H23 UNL     1      31.718  13.630 -58.657  1.00  0.00     0.275 HD
ATOM     12  H22 UNL     1      30.393  12.851 -58.779  1.00  0.00     0.275 HD
ATOM     13  H21 UNL     1      31.737  12.219 -59.592  1.00  0.00     0.275 HD
ENDBRANCH   9  10
BRANCH   9  14
HETATM   14  C7  UNL     1      32.074  13.778 -61.434  1.00  0.00     0.204 C 
HETATM   15  O1  UNL     1      32.095  14.225 -62.589  1.00  0.00    -0.646 OA
HETATM   16  O2  UNL     1      33.274  13.207 -60.962  1.00  0.00    -0.646 OA
ENDBRANCH   9  14
ENDBRANCH   1   9
TORSDOF 7
ENDMDL
