MODEL 5
REMARK VINA RESULT: -5.837408882      1.395      1.587
REMARK  3 active torsions:
REMARK  status: ('A' for Active; 'I' for Inactive)
REMARK    1  A    between atoms: C1_2  and  O1_4 
REMARK    2  A    between atoms: O1_4  and  C2_5 
REMARK    3  A    between atoms: C2_5  and  C3_7 
ROOT
HETATM    1  C2  UNL     1      27.278  17.694   5.080  1.00  0.00     0.330 C 
HETATM    2 CL1  UNL     1      27.753  17.966   3.407  1.00  0.00    -0.086 Cl
ENDROOT
BRANCH   1   3
HETATM    3  O1  UNL     1      27.982  18.589   5.880  1.00  0.00    -0.302 OA
BRANCH   3   4
HETATM    4  C1  UNL     1      27.170  19.333   6.714  1.00  0.00     0.501 C 
HETATM    5  F1  UNL     1      27.917  20.452   7.098  1.00  0.00    -0.184 F 
HETATM    6  F2  UNL     1      26.802  18.685   7.846  1.00  0.00    -0.184 F 
ENDBRANCH   3   4
ENDBRANCH   1   3
BRANCH   1   7
HETATM    7  C3  UNL     1      27.582  16.275   5.503  1.00  0.00     0.427 C 
HETATM    8  F3  UNL     1      27.018  15.953   6.703  1.00  0.00    -0.167 F 
HETATM    9  F4  UNL     1      28.931  16.074   5.559  1.00  0.00    -0.167 F 
HETATM   10  F5  UNL     1      27.053  15.444   4.531  1.00  0.00    -0.167 F 
ENDBRANCH   1   7
TORSDOF 3
ENDMDL
