MODEL 2
REMARK VINA RESULT: -5.880683847      1.772      2.400
REMARK  3 active torsions:
REMARK  status: ('A' for Active; 'I' for Inactive)
REMARK    1  A    between atoms: C1_2  and  O1_4 
REMARK    2  A    between atoms: O1_4  and  C2_5 
REMARK    3  A    between atoms: C2_5  and  C3_7 
ROOT
HETATM    1  C2  UNL     1      27.258  16.827   5.484  1.00  0.00     0.330 C 
HETATM    2 CL1  UNL     1      26.081  15.568   5.126  1.00  0.00    -0.086 Cl
ENDROOT
BRANCH   1   3
HETATM    3  O1  UNL     1      26.563  18.001   5.760  1.00  0.00    -0.302 OA
BRANCH   3   4
HETATM    4  C1  UNL     1      27.016  18.652   6.891  1.00  0.00     0.501 C 
HETATM    5  F1  UNL     1      25.924  19.363   7.401  1.00  0.00    -0.184 F 
HETATM    6  F2  UNL     1      28.006  19.546   6.653  1.00  0.00    -0.184 F 
ENDBRANCH   3   4
ENDBRANCH   1   3
BRANCH   1   7
HETATM    7  C3  UNL     1      28.189  17.042   4.314  1.00  0.00     0.427 C 
HETATM    8  F3  UNL     1      29.321  17.720   4.662  1.00  0.00    -0.167 F 
HETATM    9  F4  UNL     1      27.547  17.705   3.308  1.00  0.00    -0.167 F 
HETATM   10  F5  UNL     1      28.552  15.789   3.853  1.00  0.00    -0.167 F 
ENDBRANCH   1   7
TORSDOF 3
ENDMDL
