MODEL 16
REMARK VINA RESULT: -5.328306296      1.975      2.579
REMARK  3 active torsions:
REMARK  status: ('A' for Active; 'I' for Inactive)
REMARK    1  A    between atoms: C1_2  and  O1_4 
REMARK    2  A    between atoms: O1_4  and  C2_5 
REMARK    3  A    between atoms: C2_5  and  C3_7 
ROOT
HETATM    1  C2  UNL     1      27.085  17.113   4.940  1.00  0.00     0.330 C 
HETATM    2 CL1  UNL     1      26.192  17.018   3.426  1.00  0.00    -0.086 Cl
ENDROOT
BRANCH   1   3
HETATM    3  O1  UNL     1      26.388  17.957   5.800  1.00  0.00    -0.302 OA
BRANCH   3   4
HETATM    4  C1  UNL     1      26.209  17.424   7.063  1.00  0.00     0.501 C 
HETATM    5  F1  UNL     1      26.764  18.343   7.961  1.00  0.00    -0.184 F 
HETATM    6  F2  UNL     1      26.838  16.240   7.254  1.00  0.00    -0.184 F 
ENDBRANCH   3   4
ENDBRANCH   1   3
BRANCH   1   7
HETATM    7  C3  UNL     1      28.479  17.649   4.710  1.00  0.00     0.427 C 
HETATM    8  F3  UNL     1      29.435  16.679   4.800  1.00  0.00    -0.167 F 
HETATM    9  F4  UNL     1      28.756  18.652   5.594  1.00  0.00    -0.167 F 
HETATM   10  F5  UNL     1      28.502  18.172   3.429  1.00  0.00    -0.167 F 
ENDBRANCH   1   7
TORSDOF 3
ENDMDL
