MODEL 3
REMARK VINA RESULT: -5.879837131      1.873      2.341
REMARK  3 active torsions:
REMARK  status: ('A' for Active; 'I' for Inactive)
REMARK    1  A    between atoms: C1_2  and  O1_4 
REMARK    2  A    between atoms: O1_4  and  C2_5 
REMARK    3  A    between atoms: C2_5  and  C3_7 
ROOT
HETATM    1  C2  UNL     1      27.359  16.916   5.699  1.00  0.00     0.330 C 
HETATM    2 CL1  UNL     1      26.063  15.798   5.290  1.00  0.00    -0.086 Cl
ENDROOT
BRANCH   1   3
HETATM    3  O1  UNL     1      26.878  18.212   5.540  1.00  0.00    -0.302 OA
BRANCH   3   4
HETATM    4  C1  UNL     1      26.874  18.942   6.713  1.00  0.00     0.501 C 
HETATM    5  F1  UNL     1      28.072  19.664   6.733  1.00  0.00    -0.184 F 
HETATM    6  F2  UNL     1      26.841  18.182   7.834  1.00  0.00    -0.184 F 
ENDBRANCH   3   4
ENDBRANCH   1   3
BRANCH   1   7
HETATM    7  C3  UNL     1      28.559  16.698   4.807  1.00  0.00     0.427 C 
HETATM    8  F3  UNL     1      29.138  17.869   4.412  1.00  0.00    -0.167 F 
HETATM    9  F4  UNL     1      28.211  15.964   3.710  1.00  0.00    -0.167 F 
HETATM   10  F5  UNL     1      29.482  15.978   5.544  1.00  0.00    -0.167 F 
ENDBRANCH   1   7
TORSDOF 3
ENDMDL
