MODEL 6
REMARK VINA RESULT: -5.836734545      1.395      1.830
REMARK  3 active torsions:
REMARK  status: ('A' for Active; 'I' for Inactive)
REMARK    1  A    between atoms: C1_2  and  O1_4 
REMARK    2  A    between atoms: O1_4  and  C2_5 
REMARK    3  A    between atoms: C2_5  and  C3_7 
ROOT
HETATM    1  C2  UNL     1      27.295  17.672   5.048  1.00  0.00     0.330 C 
HETATM    2 CL1  UNL     1      27.761  17.989   3.380  1.00  0.00    -0.086 Cl
ENDROOT
BRANCH   1   3
HETATM    3  O1  UNL     1      27.998  18.551   5.867  1.00  0.00    -0.302 OA
BRANCH   3   4
HETATM    4  C1  UNL     1      27.182  19.301   6.691  1.00  0.00     0.501 C 
HETATM    5  F1  UNL     1      27.926  20.424   7.068  1.00  0.00    -0.184 F 
HETATM    6  F2  UNL     1      26.811  18.661   7.827  1.00  0.00    -0.184 F 
ENDBRANCH   3   4
ENDBRANCH   1   3
BRANCH   1   7
HETATM    7  C3  UNL     1      27.611  16.245   5.432  1.00  0.00     0.427 C 
HETATM    8  F3  UNL     1      27.170  15.343   4.508  1.00  0.00    -0.167 F 
HETATM    9  F4  UNL     1      27.076  15.951   6.654  1.00  0.00    -0.167 F 
HETATM   10  F5  UNL     1      28.988  16.148   5.521  1.00  0.00    -0.167 F 
ENDBRANCH   1   7
TORSDOF 3
ENDMDL
