MODEL 4
REMARK VINA RESULT: -6.714947557      2.446      8.867
REMARK  10 active torsions:
REMARK  status: ('A' for Active; 'I' for Inactive)
REMARK    1  A    between atoms: C2_2  and  C4_4 
REMARK    2  A    between atoms: C4_4  and  N1_5 
REMARK    3  A    between atoms: C4_4  and  C8_15 
REMARK       I    between atoms: N1_5  and  C5_7 
REMARK    4  A    between atoms: C5_7  and  C6_9 
REMARK    5  A    between atoms: C6_9  and  N2_11 
REMARK       I    between atoms: C8_15  and  N3_17 
REMARK    6  A    between atoms: C12_21  and  C13_22 
REMARK       I    between atoms: C13_22  and  N4_24 
REMARK    7  A    between atoms: N4_24  and  C14_26 
REMARK    8  A    between atoms: C14_26  and  C15_27 
REMARK    9  A    between atoms: C15_27  and  C16_28 
REMARK   10  A    between atoms: C15_27  and  C22_34 
ROOT
HETATM    1  C8  UNL     1      21.715  44.222  -1.753  1.00  0.00     0.267 C 
HETATM    2  O2  UNL     1      21.806  45.413  -2.231  1.00  0.00    -0.266 OA
HETATM    3  N3  UNL     1      21.849  43.107  -2.547  1.00  0.00    -0.334 N 
HETATM    4  C9  UNL     1      21.491  41.673  -2.319  1.00  0.00     0.127 C 
HETATM    5  C10 UNL     1      20.349  41.675  -3.378  1.00  0.00     0.022 C 
HETATM    6  C11 UNL     1      20.975  42.555  -4.505  1.00  0.00     0.037 C 
HETATM    7  C12 UNL     1      22.315  42.922  -3.891  1.00  0.00     0.179 C 
ENDROOT
BRANCH   7   8
HETATM    8  C13 UNL     1      23.199  43.832  -4.500  1.00  0.00     0.240 C 
HETATM    9  O3  UNL     1      24.328  44.092  -4.001  1.00  0.00    -0.271 OA
HETATM   10  N4  UNL     1      22.861  44.498  -5.729  1.00  0.00    -0.355 N 
ATOM     11  H4  UNL     1      21.941  44.374  -6.150  1.00  0.00     0.162 HD
BRANCH  10  12
HETATM   12  C14 UNL     1      23.860  45.353  -6.363  1.00  0.00     0.162 C 
BRANCH  12  13
HETATM   13  C15 UNL     1      23.130  46.485  -7.051  1.00  0.00    -0.020 C 
BRANCH  13  14
HETATM   14  C16 UNL     1      22.215  45.930  -8.067  1.00  0.00    -0.028 A 
HETATM   15  C17 UNL     1      20.853  46.284  -8.029  1.00  0.00     0.012 A 
HETATM   16  C18 UNL     1      19.928  45.777  -8.900  1.00  0.00     0.001 A 
HETATM   17  C19 UNL     1      20.317  44.879  -9.865  1.00  0.00     0.000 A 
HETATM   18  C20 UNL     1      21.644  44.495  -9.947  1.00  0.00     0.001 A 
HETATM   19  C21 UNL     1      22.543  45.032  -9.050  1.00  0.00     0.012 A 
ENDBRANCH  13  14
BRANCH  13  20
HETATM   20  C22 UNL     1      22.694  47.590  -6.243  1.00  0.00    -0.028 A 
HETATM   21  C23 UNL     1      23.113  48.880  -6.584  1.00  0.00     0.012 A 
HETATM   22  C24 UNL     1      22.800  50.007  -5.863  1.00  0.00     0.001 A 
HETATM   23  C25 UNL     1      22.018  49.894  -4.724  1.00  0.00     0.000 A 
HETATM   24  C26 UNL     1      21.596  48.640  -4.375  1.00  0.00     0.001 A 
HETATM   25  C27 UNL     1      21.916  47.506  -5.104  1.00  0.00     0.012 A 
ENDBRANCH  13  20
ENDBRANCH  12  13
ENDBRANCH  10  12
ENDBRANCH   7   8
BRANCH   1  26
HETATM   26  C4  UNL     1      21.440  44.208  -0.266  1.00  0.00     0.084 C 
BRANCH  26  27
HETATM   27  C2  UNL     1      20.154  44.719   0.161  1.00  0.00     0.033 C 
HETATM   28  C1  UNL     1      19.829  44.390   1.621  1.00  0.00     0.016 C 
HETATM   29  C3  UNL     1      19.040  44.116  -0.700  1.00  0.00     0.016 C 
ENDBRANCH  26  27
BRANCH  26  30
HETATM   30  N1  UNL     1      22.595  44.596   0.468  1.00  0.00    -0.324 N 
HETATM   31  C5  UNL     1      23.613  43.830   1.032  1.00  0.00     0.252 C 
HETATM   32  O1  UNL     1      23.556  42.562   0.887  1.00  0.00    -0.271 OA
ATOM     33  H1  UNL     1      22.696  45.601   0.603  1.00  0.00     0.169 HD
BRANCH  31  34
HETATM   34  C6  UNL     1      24.742  44.412   1.782  1.00  0.00     0.271 C 
HETATM   35  C7  UNL     1      25.064  45.853   1.482  1.00  0.00     0.050 C 
BRANCH  34  36
HETATM   36  N2  UNL     1      25.967  43.637   1.538  1.00  0.00    -0.067 N 
ATOM     37  H23 UNL     1      26.477  43.977   0.723  1.00  0.00     0.275 HD
ATOM     38  H22 UNL     1      26.678  43.817   2.247  1.00  0.00     0.275 HD
ATOM     39  H21 UNL     1      25.746  42.644   1.463  1.00  0.00     0.275 HD
ENDBRANCH  34  36
ENDBRANCH  31  34
ENDBRANCH  26  30
ENDBRANCH   1  26
TORSDOF 10
ENDMDL
