MODEL 1
REMARK VINA RESULT: -6.815708866      0.000      0.000
REMARK  10 active torsions:
REMARK  status: ('A' for Active; 'I' for Inactive)
REMARK    1  A    between atoms: C2_2  and  C4_4 
REMARK    2  A    between atoms: C4_4  and  N1_5 
REMARK    3  A    between atoms: C4_4  and  C8_15 
REMARK       I    between atoms: N1_5  and  C5_7 
REMARK    4  A    between atoms: C5_7  and  C6_9 
REMARK    5  A    between atoms: C6_9  and  N2_11 
REMARK       I    between atoms: C8_15  and  N3_17 
REMARK    6  A    between atoms: C12_21  and  C13_22 
REMARK       I    between atoms: C13_22  and  N4_24 
REMARK    7  A    between atoms: N4_24  and  C14_26 
REMARK    8  A    between atoms: C14_26  and  C15_27 
REMARK    9  A    between atoms: C15_27  and  C16_28 
REMARK   10  A    between atoms: C15_27  and  C22_34 
ROOT
HETATM    1  C8  UNL     1      23.195  44.489  -3.778  1.00  0.00     0.267 C 
HETATM    2  O2  UNL     1      24.347  44.001  -3.479  1.00  0.00    -0.266 OA
HETATM    3  N3  UNL     1      22.181  44.576  -2.854  1.00  0.00    -0.334 N 
HETATM    4  C9  UNL     1      20.710  44.799  -3.007  1.00  0.00     0.127 C 
HETATM    5  C10 UNL     1      20.332  43.361  -2.543  1.00  0.00     0.022 C 
HETATM    6  C11 UNL     1      21.361  43.128  -1.394  1.00  0.00     0.037 C 
HETATM    7  C12 UNL     1      22.150  44.425  -1.428  1.00  0.00     0.179 C 
ENDROOT
BRANCH   7   8
HETATM    8  C13 UNL     1      23.295  44.632  -0.636  1.00  0.00     0.240 C 
HETATM    9  O3  UNL     1      23.907  45.734  -0.634  1.00  0.00    -0.271 OA
HETATM   10  N4  UNL     1      23.813  43.598   0.219  1.00  0.00    -0.355 N 
ATOM     11  H4  UNL     1      23.398  42.666   0.217  1.00  0.00     0.162 HD
BRANCH  10  12
HETATM   12  C14 UNL     1      24.944  43.906   1.089  1.00  0.00     0.162 C 
BRANCH  12  13
HETATM   13  C15 UNL     1      24.391  44.338   2.429  1.00  0.00    -0.020 C 
BRANCH  13  14
HETATM   14  C16 UNL     1      24.219  43.154   3.292  1.00  0.00    -0.028 A 
HETATM   15  C17 UNL     1      25.306  42.278   3.479  1.00  0.00     0.012 A 
HETATM   16  C18 UNL     1      25.219  41.131   4.219  1.00  0.00     0.001 A 
HETATM   17  C19 UNL     1      24.030  40.794   4.820  1.00  0.00     0.000 A 
HETATM   18  C20 UNL     1      22.929  41.617   4.668  1.00  0.00     0.001 A 
HETATM   19  C21 UNL     1      23.061  42.764   3.914  1.00  0.00     0.012 A 
ENDBRANCH  13  14
BRANCH  13  20
HETATM   20  C22 UNL     1      24.895  45.556   3.001  1.00  0.00    -0.028 A 
HETATM   21  C23 UNL     1      25.427  46.530   2.148  1.00  0.00     0.012 A 
HETATM   22  C24 UNL     1      25.979  47.711   2.580  1.00  0.00     0.001 A 
HETATM   23  C25 UNL     1      26.024  47.989   3.938  1.00  0.00     0.000 A 
HETATM   24  C26 UNL     1      25.507  47.049   4.787  1.00  0.00     0.001 A 
HETATM   25  C27 UNL     1      24.953  45.858   4.348  1.00  0.00     0.012 A 
ENDBRANCH  13  20
ENDBRANCH  12  13
ENDBRANCH  10  12
ENDBRANCH   7   8
BRANCH   1  26
HETATM   26  C4  UNL     1      23.101  44.924  -5.223  1.00  0.00     0.084 C 
BRANCH  26  27
HETATM   27  C2  UNL     1      23.750  44.075  -6.200  1.00  0.00     0.033 C 
HETATM   28  C1  UNL     1      24.241  44.839  -7.433  1.00  0.00     0.016 C 
HETATM   29  C3  UNL     1      22.775  43.000  -6.689  1.00  0.00     0.016 C 
ENDBRANCH  26  27
BRANCH  26  30
HETATM   30  N1  UNL     1      23.264  46.332  -5.341  1.00  0.00    -0.324 N 
HETATM   31  C5  UNL     1      22.336  47.335  -5.616  1.00  0.00     0.252 C 
HETATM   32  O1  UNL     1      21.119  46.990  -5.787  1.00  0.00    -0.271 OA
ATOM     33  H1  UNL     1      24.218  46.664  -5.201  1.00  0.00     0.169 HD
BRANCH  31  34
HETATM   34  C6  UNL     1      22.694  48.762  -5.715  1.00  0.00     0.271 C 
HETATM   35  C7  UNL     1      22.051  49.679  -4.708  1.00  0.00     0.050 C 
BRANCH  34  36
HETATM   36  N2  UNL     1      22.352  49.279  -7.048  1.00  0.00    -0.067 N 
ATOM     37  H23 UNL     1      23.031  49.967  -7.376  1.00  0.00     0.275 HD
ATOM     38  H22 UNL     1      22.487  48.577  -7.775  1.00  0.00     0.275 HD
ATOM     39  H21 UNL     1      21.403  49.651  -7.048  1.00  0.00     0.275 HD
ENDBRANCH  34  36
ENDBRANCH  31  34
ENDBRANCH  26  30
ENDBRANCH   1  26
TORSDOF 10
ENDMDL
