MODEL 3
REMARK VINA RESULT: -6.783914395      2.429      9.392
REMARK  10 active torsions:
REMARK  status: ('A' for Active; 'I' for Inactive)
REMARK    1  A    between atoms: C2_2  and  C4_4 
REMARK    2  A    between atoms: C4_4  and  N1_5 
REMARK    3  A    between atoms: C4_4  and  C8_15 
REMARK       I    between atoms: N1_5  and  C5_7 
REMARK    4  A    between atoms: C5_7  and  C6_9 
REMARK    5  A    between atoms: C6_9  and  N2_11 
REMARK       I    between atoms: C8_15  and  N3_17 
REMARK    6  A    between atoms: C12_21  and  C13_22 
REMARK       I    between atoms: C13_22  and  N4_24 
REMARK    7  A    between atoms: N4_24  and  C14_26 
REMARK    8  A    between atoms: C14_26  and  C15_27 
REMARK    9  A    between atoms: C15_27  and  C16_28 
REMARK   10  A    between atoms: C15_27  and  C22_34 
ROOT
HETATM    1  C8  UNL     1      21.494  44.079  -1.825  1.00  0.00     0.267 C 
HETATM    2  O2  UNL     1      21.388  45.246  -2.357  1.00  0.00    -0.266 OA
HETATM    3  N3  UNL     1      21.818  42.968  -2.568  1.00  0.00    -0.334 N 
HETATM    4  C9  UNL     1      21.703  41.506  -2.276  1.00  0.00     0.127 C 
HETATM    5  C10 UNL     1      20.586  41.270  -3.334  1.00  0.00     0.022 C 
HETATM    6  C11 UNL     1      21.066  42.191  -4.499  1.00  0.00     0.037 C 
HETATM    7  C12 UNL     1      22.320  42.804  -3.901  1.00  0.00     0.179 C 
ENDROOT
BRANCH   7   8
HETATM    8  C13 UNL     1      23.044  43.821  -4.551  1.00  0.00     0.240 C 
HETATM    9  O3  UNL     1      24.117  44.278  -4.071  1.00  0.00    -0.271 OA
HETATM   10  N4  UNL     1      22.601  44.377  -5.801  1.00  0.00    -0.355 N 
ATOM     11  H4  UNL     1      21.711  44.092  -6.209  1.00  0.00     0.162 HD
BRANCH  10  12
HETATM   12  C14 UNL     1      23.447  45.358  -6.473  1.00  0.00     0.162 C 
BRANCH  12  13
HETATM   13  C15 UNL     1      22.542  46.363  -7.150  1.00  0.00    -0.020 C 
BRANCH  13  14
HETATM   14  C16 UNL     1      22.507  47.604  -6.352  1.00  0.00    -0.028 A 
HETATM   15  C17 UNL     1      21.714  47.649  -5.190  1.00  0.00     0.012 A 
HETATM   16  C18 UNL     1      21.583  48.774  -4.421  1.00  0.00     0.001 A 
HETATM   17  C19 UNL     1      22.244  49.925  -4.776  1.00  0.00     0.000 A 
HETATM   18  C20 UNL     1      23.036  49.937  -5.910  1.00  0.00     0.001 A 
HETATM   19  C21 UNL     1      23.141  48.782  -6.655  1.00  0.00     0.012 A 
ENDBRANCH  13  14
BRANCH  13  20
HETATM   20  C22 UNL     1      22.591  46.451  -8.583  1.00  0.00    -0.028 A 
HETATM   21  C23 UNL     1      21.429  46.807  -9.276  1.00  0.00     0.012 A 
HETATM   22  C24 UNL     1      21.342  46.880 -10.645  1.00  0.00     0.001 A 
HETATM   23  C25 UNL     1      22.457  46.593 -11.418  1.00  0.00     0.000 A 
HETATM   24  C26 UNL     1      23.603  46.245 -10.758  1.00  0.00     0.001 A 
HETATM   25  C27 UNL     1      23.687  46.171  -9.377  1.00  0.00     0.012 A 
ENDBRANCH  13  20
ENDBRANCH  12  13
ENDBRANCH  10  12
ENDBRANCH   7   8
BRANCH   1  26
HETATM   26  C4  UNL     1      21.213  44.086  -0.339  1.00  0.00     0.084 C 
BRANCH  26  27
HETATM   27  C2  UNL     1      19.880  44.480   0.067  1.00  0.00     0.033 C 
HETATM   28  C1  UNL     1      19.650  44.361   1.577  1.00  0.00     0.016 C 
HETATM   29  C3  UNL     1      18.839  43.594  -0.623  1.00  0.00     0.016 C 
ENDBRANCH  26  27
BRANCH  26  30
HETATM   30  N1  UNL     1      22.320  44.608   0.385  1.00  0.00    -0.324 N 
HETATM   31  C5  UNL     1      23.278  43.968   1.168  1.00  0.00     0.252 C 
HETATM   32  O1  UNL     1      23.206  42.699   1.279  1.00  0.00    -0.271 OA
ATOM     33  H1  UNL     1      22.431  45.620   0.320  1.00  0.00     0.169 HD
BRANCH  31  34
HETATM   34  C6  UNL     1      24.362  44.686   1.866  1.00  0.00     0.271 C 
HETATM   35  C7  UNL     1      24.079  45.092   3.289  1.00  0.00     0.050 C 
BRANCH  34  36
HETATM   36  N2  UNL     1      24.715  45.909   1.131  1.00  0.00    -0.067 N 
ATOM     37  H23 UNL     1      24.806  45.739   0.129  1.00  0.00     0.275 HD
ATOM     38  H22 UNL     1      23.942  46.573   1.102  1.00  0.00     0.275 HD
ATOM     39  H21 UNL     1      25.560  46.324   1.525  1.00  0.00     0.275 HD
ENDBRANCH  34  36
ENDBRANCH  31  34
ENDBRANCH  26  30
ENDBRANCH   1  26
TORSDOF 10
ENDMDL
