MODEL 2
REMARK VINA RESULT: -6.810999974      2.695      9.537
REMARK  10 active torsions:
REMARK  status: ('A' for Active; 'I' for Inactive)
REMARK    1  A    between atoms: C2_2  and  C4_4 
REMARK    2  A    between atoms: C4_4  and  N1_5 
REMARK    3  A    between atoms: C4_4  and  C8_15 
REMARK       I    between atoms: N1_5  and  C5_7 
REMARK    4  A    between atoms: C5_7  and  C6_9 
REMARK    5  A    between atoms: C6_9  and  N2_11 
REMARK       I    between atoms: C8_15  and  N3_17 
REMARK    6  A    between atoms: C12_21  and  C13_22 
REMARK       I    between atoms: C13_22  and  N4_24 
REMARK    7  A    between atoms: N4_24  and  C14_26 
REMARK    8  A    between atoms: C14_26  and  C15_27 
REMARK    9  A    between atoms: C15_27  and  C16_28 
REMARK   10  A    between atoms: C15_27  and  C22_34 
ROOT
HETATM    1  C8  UNL     1      21.224  43.837  -3.175  1.00  0.00     0.267 C 
HETATM    2  O2  UNL     1      20.982  45.031  -3.588  1.00  0.00    -0.266 OA
HETATM    3  N3  UNL     1      21.761  42.877  -4.000  1.00  0.00    -0.334 N 
HETATM    4  C9  UNL     1      21.846  41.389  -3.875  1.00  0.00     0.127 C 
HETATM    5  C10 UNL     1      20.853  41.124  -5.044  1.00  0.00     0.022 C 
HETATM    6  C11 UNL     1      21.268  42.233  -6.060  1.00  0.00     0.037 C 
HETATM    7  C12 UNL     1      22.373  42.943  -5.296  1.00  0.00     0.179 C 
ENDROOT
BRANCH   7   8
HETATM    8  C13 UNL     1      22.980  44.120  -5.770  1.00  0.00     0.240 C 
HETATM    9  O3  UNL     1      23.833  44.746  -5.084  1.00  0.00    -0.271 OA
HETATM   10  N4  UNL     1      22.665  44.657  -7.067  1.00  0.00    -0.355 N 
ATOM     11  H4  UNL     1      21.941  44.230  -7.644  1.00  0.00     0.162 HD
BRANCH  10  12
HETATM   12  C14 UNL     1      23.402  45.825  -7.542  1.00  0.00     0.162 C 
BRANCH  12  13
HETATM   13  C15 UNL     1      22.400  46.928  -7.802  1.00  0.00    -0.020 C 
BRANCH  13  14
HETATM   14  C16 UNL     1      22.450  47.904  -6.698  1.00  0.00    -0.028 A 
HETATM   15  C17 UNL     1      21.670  47.678  -5.548  1.00  0.00     0.012 A 
HETATM   16  C18 UNL     1      21.616  48.556  -4.500  1.00  0.00     0.001 A 
HETATM   17  C19 UNL     1      22.347  49.719  -4.545  1.00  0.00     0.000 A 
HETATM   18  C20 UNL     1      23.130  49.993  -5.652  1.00  0.00     0.001 A 
HETATM   19  C21 UNL     1      23.155  49.080  -6.685  1.00  0.00     0.012 A 
ENDBRANCH  13  14
BRANCH  13  20
HETATM   20  C22 UNL     1      22.262  47.401  -9.152  1.00  0.00    -0.028 A 
HETATM   21  C23 UNL     1      20.980  47.677  -9.640  1.00  0.00     0.012 A 
HETATM   22  C24 UNL     1      20.718  48.090 -10.924  1.00  0.00     0.001 A 
HETATM   23  C25 UNL     1      21.767  48.258 -11.815  1.00  0.00     0.000 A 
HETATM   24  C26 UNL     1      23.027  47.995 -11.355  1.00  0.00     0.001 A 
HETATM   25  C27 UNL     1      23.288  47.577 -10.060  1.00  0.00     0.012 A 
ENDBRANCH  13  20
ENDBRANCH  12  13
ENDBRANCH  10  12
ENDBRANCH   7   8
BRANCH   1  26
HETATM   26  C4  UNL     1      20.843  43.630  -1.726  1.00  0.00     0.084 C 
BRANCH  26  27
HETATM   27  C2  UNL     1      19.471  43.923  -1.368  1.00  0.00     0.033 C 
HETATM   28  C1  UNL     1      19.343  45.054  -0.343  1.00  0.00     0.016 C 
HETATM   29  C3  UNL     1      18.812  42.681  -0.760  1.00  0.00     0.016 C 
ENDBRANCH  26  27
BRANCH  26  30
HETATM   30  N1  UNL     1      21.876  44.082  -0.860  1.00  0.00    -0.324 N 
HETATM   31  C5  UNL     1      22.805  43.370  -0.104  1.00  0.00     0.252 C 
HETATM   32  O1  UNL     1      22.778  42.095  -0.173  1.00  0.00    -0.271 OA
ATOM     33  H1  UNL     1      21.950  45.096  -0.778  1.00  0.00     0.169 HD
BRANCH  31  34
HETATM   34  C6  UNL     1      23.809  44.017   0.761  1.00  0.00     0.271 C 
HETATM   35  C7  UNL     1      23.534  43.976   2.242  1.00  0.00     0.050 C 
BRANCH  34  36
HETATM   36  N2  UNL     1      23.961  45.432   0.391  1.00  0.00    -0.067 N 
ATOM     37  H23 UNL     1      24.885  45.792   0.633  1.00  0.00     0.275 HD
ATOM     38  H22 UNL     1      24.010  45.558  -0.619  1.00  0.00     0.275 HD
ATOM     39  H21 UNL     1      23.215  45.987   0.810  1.00  0.00     0.275 HD
ENDBRANCH  34  36
ENDBRANCH  31  34
ENDBRANCH  26  30
ENDBRANCH   1  26
TORSDOF 10
ENDMDL
