MODEL 5
REMARK VINA RESULT: -7.005310957      2.367      9.239
REMARK  9 active torsions:
REMARK  status: ('A' for Active; 'I' for Inactive)
REMARK    1  A    between atoms: N1_2  and  C2_5 
REMARK    2  A    between atoms: C2_5  and  C4_7 
REMARK       I    between atoms: C4_7  and  N2_9 
REMARK    3  A    between atoms: N2_9  and  C5_11 
REMARK    4  A    between atoms: C5_11  and  C6_12 
REMARK    5  A    between atoms: C5_11  and  C28_39 
REMARK       I    between atoms: C6_12  and  N3_14 
REMARK    6  A    between atoms: C12_20  and  N4_21 
REMARK       I    between atoms: N4_21  and  C13_23 
REMARK    7  A    between atoms: C13_23  and  C14_25 
REMARK    8  A    between atoms: C14_25  and  C15_26 
REMARK    9  A    between atoms: C14_25  and  C21_32 
ROOT
HETATM    1  C6  UNL     1      79.787  62.837  13.200  1.00  0.00     0.243 C 
HETATM    2  O2  UNL     1      80.259  62.839  14.400  1.00  0.00    -0.271 OA
HETATM    3  N3  UNL     1      79.956  61.642  12.476  1.00  0.00    -0.343 N 
HETATM    4  C7  UNL     1      79.563  61.268  11.142  1.00  0.00     0.127 C 
HETATM    5  C8  UNL     1      79.076  59.838  11.311  1.00  0.00     0.026 C 
HETATM    6  C9  UNL     1      79.499  59.421  12.712  1.00  0.00     0.012 C 
HETATM    7  C10 UNL     1      80.185  58.094  12.575  1.00  0.00     0.009 C 
HETATM    8  C11 UNL     1      81.646  58.408  12.585  1.00  0.00     0.028 C 
HETATM    9  C12 UNL     1      81.727  59.916  12.234  1.00  0.00     0.107 C 
HETATM   10  C27 UNL     1      80.595  60.449  13.017  1.00  0.00     0.114 C 
ENDROOT
BRANCH   1  11
HETATM   11  C5  UNL     1      79.122  64.076  12.721  1.00  0.00     0.184 C 
BRANCH  11  12
HETATM   12  N2  UNL     1      78.433  64.703  13.896  1.00  0.00    -0.345 N 
HETATM   13  C4  UNL     1      77.032  64.769  13.938  1.00  0.00     0.248 C 
HETATM   14  O1  UNL     1      76.414  64.273  12.950  1.00  0.00    -0.271 OA
ATOM     15  H2  UNL     1      78.984  65.083  14.667  1.00  0.00     0.163 HD
BRANCH  13  16
HETATM   16  C2  UNL     1      76.220  65.350  15.009  1.00  0.00     0.272 C 
HETATM   17  C3  UNL     1      76.289  66.872  15.009  1.00  0.00     0.050 C 
BRANCH  16  18
HETATM   18  N1  UNL     1      76.391  64.818  16.313  1.00  0.00    -0.067 N 
HETATM   19  C1  UNL     1      75.359  65.283  17.262  1.00  0.00     0.267 C 
ATOM     20  H12 UNL     1      77.327  65.014  16.667  1.00  0.00     0.277 HD
ATOM     21  H11 UNL     1      76.433  63.799  16.290  1.00  0.00     0.277 HD
ENDBRANCH  16  18
ENDBRANCH  13  16
ENDBRANCH  11  12
BRANCH  11  22
HETATM   22  C28 UNL     1      79.991  65.123  12.157  1.00  0.00    -0.022 C 
HETATM   23  C29 UNL     1      79.736  65.478  10.708  1.00  0.00     0.017 C 
HETATM   24  C30 UNL     1      80.143  66.400  12.909  1.00  0.00     0.017 C 
HETATM   25  C31 UNL     1      81.421  64.507  12.130  1.00  0.00     0.017 C 
ENDBRANCH  11  22
ENDBRANCH   1  11
BRANCH   9  26
HETATM   26  N4  UNL     1      83.047  60.293  12.685  1.00  0.00    -0.354 N 
HETATM   27  C13 UNL     1      84.100  60.717  11.821  1.00  0.00     0.231 C 
HETATM   28  O3  UNL     1      83.801  60.751  10.604  1.00  0.00    -0.272 OA
ATOM     29  H4  UNL     1      83.238  60.253  13.686  1.00  0.00     0.163 HD
BRANCH  27  30
HETATM   30  C14 UNL     1      85.440  61.091  12.265  1.00  0.00     0.143 C 
BRANCH  30  31
HETATM   31  C15 UNL     1      86.476  60.056  12.149  1.00  0.00    -0.041 A 
HETATM   32  C16 UNL     1      86.162  58.721  11.994  1.00  0.00     0.008 A 
HETATM   33  C17 UNL     1      87.143  57.751  11.887  1.00  0.00     0.001 A 
HETATM   34  C18 UNL     1      88.471  58.119  11.937  1.00  0.00     0.000 A 
HETATM   35  C19 UNL     1      88.809  59.438  12.091  1.00  0.00     0.001 A 
HETATM   36  C20 UNL     1      87.807  60.403  12.196  1.00  0.00     0.008 A 
ENDBRANCH  30  31
BRANCH  30  37
HETATM   37  C21 UNL     1      85.353  61.504  13.710  1.00  0.00    -0.041 A 
HETATM   38  C22 UNL     1      84.656  62.627  14.093  1.00  0.00     0.008 A 
HETATM   39  C23 UNL     1      84.591  62.983  15.418  1.00  0.00     0.001 A 
HETATM   40  C24 UNL     1      85.214  62.239  16.411  1.00  0.00     0.000 A 
HETATM   41  C25 UNL     1      85.909  61.119  16.037  1.00  0.00     0.001 A 
HETATM   42  C26 UNL     1      85.972  60.762  14.703  1.00  0.00     0.008 A 
ENDBRANCH  30  37
ENDBRANCH  27  30
ENDBRANCH   9  26
TORSDOF 9
ENDMDL
