MODEL 4
REMARK VINA RESULT: -7.211397136      0.956      3.006
REMARK  9 active torsions:
REMARK  status: ('A' for Active; 'I' for Inactive)
REMARK    1  A    between atoms: N1_2  and  C2_5 
REMARK    2  A    between atoms: C2_5  and  C4_7 
REMARK       I    between atoms: C4_7  and  N2_9 
REMARK    3  A    between atoms: N2_9  and  C5_11 
REMARK    4  A    between atoms: C5_11  and  C6_12 
REMARK    5  A    between atoms: C5_11  and  C28_39 
REMARK       I    between atoms: C6_12  and  N3_14 
REMARK    6  A    between atoms: C12_20  and  N4_21 
REMARK       I    between atoms: N4_21  and  C13_23 
REMARK    7  A    between atoms: C13_23  and  C14_25 
REMARK    8  A    between atoms: C14_25  and  C15_26 
REMARK    9  A    between atoms: C14_25  and  C21_32 
ROOT
HETATM    1  C6  UNL     1      81.435  62.552  13.445  1.00  0.00     0.243 C 
HETATM    2  O2  UNL     1      81.342  62.666  14.726  1.00  0.00    -0.271 OA
HETATM    3  N3  UNL     1      80.737  63.515  12.691  1.00  0.00    -0.343 N 
HETATM    4  C7  UNL     1      80.613  63.712  11.270  1.00  0.00     0.127 C 
HETATM    5  C8  UNL     1      80.702  65.222  11.119  1.00  0.00     0.026 C 
HETATM    6  C9  UNL     1      80.592  65.784  12.530  1.00  0.00     0.012 C 
HETATM    7  C10 UNL     1      79.549  66.861  12.481  1.00  0.00     0.009 C 
HETATM    8  C11 UNL     1      78.302  66.218  12.996  1.00  0.00     0.028 C 
HETATM    9  C12 UNL     1      78.555  64.695  12.852  1.00  0.00     0.107 C 
HETATM   10  C27 UNL     1      79.965  64.603  13.279  1.00  0.00     0.114 C 
ENDROOT
BRANCH   1  11
HETATM   11  C5  UNL     1      82.260  61.438  12.911  1.00  0.00     0.184 C 
BRANCH  11  12
HETATM   12  N2  UNL     1      83.198  61.008  14.000  1.00  0.00    -0.345 N 
HETATM   13  C4  UNL     1      84.514  61.492  14.026  1.00  0.00     0.248 C 
HETATM   14  O1  UNL     1      84.840  62.294  13.101  1.00  0.00    -0.271 OA
ATOM     15  H2  UNL     1      82.878  60.363  14.722  1.00  0.00     0.163 HD
BRANCH  13  16
HETATM   16  C2  UNL     1      85.543  61.164  15.015  1.00  0.00     0.272 C 
HETATM   17  C3  UNL     1      85.518  62.123  16.198  1.00  0.00     0.050 C 
BRANCH  16  18
HETATM   18  N1  UNL     1      86.862  60.959  14.535  1.00  0.00    -0.067 N 
HETATM   19  C1  UNL     1      87.044  59.633  13.907  1.00  0.00     0.267 C 
ATOM     20  H12 UNL     1      87.547  61.109  15.275  1.00  0.00     0.277 HD
ATOM     21  H11 UNL     1      87.139  61.706  13.898  1.00  0.00     0.277 HD
ENDBRANCH  16  18
ENDBRANCH  13  16
ENDBRANCH  11  12
BRANCH  11  22
HETATM   22  C28 UNL     1      81.545  60.222  12.491  1.00  0.00    -0.022 C 
HETATM   23  C29 UNL     1      80.504  59.704  13.461  1.00  0.00     0.017 C 
HETATM   24  C30 UNL     1      80.940  60.187  11.130  1.00  0.00     0.017 C 
HETATM   25  C31 UNL     1      82.616  59.092  12.477  1.00  0.00     0.017 C 
ENDBRANCH  11  22
ENDBRANCH   1  11
BRANCH   9  26
HETATM   26  N4  UNL     1      77.581  64.109  13.743  1.00  0.00    -0.354 N 
HETATM   27  C13 UNL     1      77.160  62.747  13.687  1.00  0.00     0.231 C 
HETATM   28  O3  UNL     1      77.710  62.062  12.793  1.00  0.00    -0.272 OA
ATOM     29  H4  UNL     1      77.167  64.708  14.457  1.00  0.00     0.163 HD
BRANCH  27  30
HETATM   30  C14 UNL     1      76.169  62.147  14.576  1.00  0.00     0.143 C 
BRANCH  30  31
HETATM   31  C15 UNL     1      74.808  62.019  14.040  1.00  0.00    -0.041 A 
HETATM   32  C16 UNL     1      74.385  62.733  12.937  1.00  0.00     0.008 A 
HETATM   33  C17 UNL     1      73.101  62.610  12.439  1.00  0.00     0.001 A 
HETATM   34  C18 UNL     1      72.212  61.754  13.054  1.00  0.00     0.000 A 
HETATM   35  C19 UNL     1      72.607  61.033  14.151  1.00  0.00     0.001 A 
HETATM   36  C20 UNL     1      73.906  61.169  14.640  1.00  0.00     0.008 A 
ENDBRANCH  30  31
BRANCH  30  37
HETATM   37  C21 UNL     1      76.101  62.980  15.828  1.00  0.00    -0.041 A 
HETATM   38  C22 UNL     1      75.186  64.000  15.961  1.00  0.00     0.008 A 
HETATM   39  C23 UNL     1      75.145  64.746  17.113  1.00  0.00     0.001 A 
HETATM   40  C24 UNL     1      76.006  64.509  18.175  1.00  0.00     0.000 A 
HETATM   41  C25 UNL     1      76.920  63.495  18.050  1.00  0.00     0.001 A 
HETATM   42  C26 UNL     1      76.960  62.745  16.890  1.00  0.00     0.008 A 
ENDBRANCH  30  37
ENDBRANCH  27  30
ENDBRANCH   9  26
TORSDOF 9
ENDMDL
