MODEL 2
REMARK VINA RESULT: -7.427168109      2.199      9.327
REMARK  9 active torsions:
REMARK  status: ('A' for Active; 'I' for Inactive)
REMARK    1  A    between atoms: N1_2  and  C2_5 
REMARK    2  A    between atoms: C2_5  and  C4_7 
REMARK       I    between atoms: C4_7  and  N2_9 
REMARK    3  A    between atoms: N2_9  and  C5_11 
REMARK    4  A    between atoms: C5_11  and  C6_12 
REMARK    5  A    between atoms: C5_11  and  C28_39 
REMARK       I    between atoms: C6_12  and  N3_14 
REMARK    6  A    between atoms: C12_20  and  N4_21 
REMARK       I    between atoms: N4_21  and  C13_23 
REMARK    7  A    between atoms: C13_23  and  C14_25 
REMARK    8  A    between atoms: C14_25  and  C15_26 
REMARK    9  A    between atoms: C14_25  and  C21_32 
ROOT
HETATM    1  C6  UNL     1      79.892  62.046  13.543  1.00  0.00     0.243 C 
HETATM    2  O2  UNL     1      80.386  61.918  14.727  1.00  0.00    -0.271 OA
HETATM    3  N3  UNL     1      80.190  61.009  12.638  1.00  0.00    -0.343 N 
HETATM    4  C7  UNL     1      79.817  60.803  11.263  1.00  0.00     0.127 C 
HETATM    5  C8  UNL     1      79.514  59.315  11.204  1.00  0.00     0.026 C 
HETATM    6  C9  UNL     1      80.016  58.740  12.522  1.00  0.00     0.012 C 
HETATM    7  C10 UNL     1      80.857  57.546  12.174  1.00  0.00     0.009 C 
HETATM    8  C11 UNL     1      82.267  58.035  12.230  1.00  0.00     0.028 C 
HETATM    9  C12 UNL     1      82.155  59.578  12.122  1.00  0.00     0.107 C 
HETATM   10  C27 UNL     1      80.984  59.836  12.982  1.00  0.00     0.114 C 
ENDROOT
BRANCH   1  11
HETATM   11  C5  UNL     1      79.069  63.252  13.267  1.00  0.00     0.184 C 
BRANCH  11  12
HETATM   12  N2  UNL     1      78.628  63.809  14.588  1.00  0.00    -0.345 N 
HETATM   13  C4  UNL     1      77.345  63.523  15.079  1.00  0.00     0.248 C 
HETATM   14  O1  UNL     1      76.616  62.782  14.356  1.00  0.00    -0.271 OA
ATOM     15  H2  UNL     1      79.261  64.398  15.130  1.00  0.00     0.163 HD
BRANCH  13  16
HETATM   16  C2  UNL     1      76.772  63.994  16.341  1.00  0.00     0.272 C 
HETATM   17  C3  UNL     1      77.161  63.097  17.510  1.00  0.00     0.050 C 
BRANCH  16  18
HETATM   18  N1  UNL     1      75.385  64.294  16.351  1.00  0.00    -0.067 N 
HETATM   19  C1  UNL     1      75.053  65.446  17.215  1.00  0.00     0.267 C 
ATOM     20  H12 UNL     1      74.836  63.474  16.609  1.00  0.00     0.277 HD
ATOM     21  H11 UNL     1      75.035  64.435  15.403  1.00  0.00     0.277 HD
ENDBRANCH  16  18
ENDBRANCH  13  16
ENDBRANCH  11  12
BRANCH  11  22
HETATM   22  C28 UNL     1      79.731  64.362  12.562  1.00  0.00    -0.022 C 
HETATM   23  C29 UNL     1      79.481  65.743  13.129  1.00  0.00     0.017 C 
HETATM   24  C30 UNL     1      81.190  64.254  12.278  1.00  0.00     0.017 C 
HETATM   25  C31 UNL     1      79.059  64.423  11.158  1.00  0.00     0.017 C 
ENDBRANCH  11  22
ENDBRANCH   1  11
BRANCH   9  26
HETATM   26  N4  UNL     1      83.428  60.041  12.624  1.00  0.00    -0.354 N 
HETATM   27  C13 UNL     1      84.439  60.640  11.816  1.00  0.00     0.231 C 
HETATM   28  O3  UNL     1      84.146  60.752  10.602  1.00  0.00    -0.272 OA
ATOM     29  H4  UNL     1      83.616  59.932  13.620  1.00  0.00     0.163 HD
BRANCH  27  30
HETATM   30  C14 UNL     1      85.732  61.103  12.310  1.00  0.00     0.143 C 
BRANCH  30  31
HETATM   31  C15 UNL     1      86.843  60.146  12.224  1.00  0.00    -0.041 A 
HETATM   32  C16 UNL     1      86.636  58.808  11.956  1.00  0.00     0.008 A 
HETATM   33  C17 UNL     1      87.686  57.910  11.879  1.00  0.00     0.001 A 
HETATM   34  C18 UNL     1      88.976  58.356  12.072  1.00  0.00     0.000 A 
HETATM   35  C19 UNL     1      89.209  59.680  12.339  1.00  0.00     0.001 A 
HETATM   36  C20 UNL     1      88.138  60.571  12.414  1.00  0.00     0.008 A 
ENDBRANCH  30  31
BRANCH  30  37
HETATM   37  C21 UNL     1      85.565  61.494  13.755  1.00  0.00    -0.041 A 
HETATM   38  C22 UNL     1      86.127  60.751  14.767  1.00  0.00     0.008 A 
HETATM   39  C23 UNL     1      85.960  61.128  16.078  1.00  0.00     0.001 A 
HETATM   40  C24 UNL     1      85.232  62.255  16.432  1.00  0.00     0.000 A 
HETATM   41  C25 UNL     1      84.669  63.001  15.428  1.00  0.00     0.001 A 
HETATM   42  C26 UNL     1      84.839  62.620  14.110  1.00  0.00     0.008 A 
ENDBRANCH  30  37
ENDBRANCH  27  30
ENDBRANCH   9  26
TORSDOF 9
ENDMDL
