MODEL 3
REMARK VINA RESULT: -7.379988720      2.231      8.856
REMARK  9 active torsions:
REMARK  status: ('A' for Active; 'I' for Inactive)
REMARK    1  A    between atoms: N1_2  and  C2_5 
REMARK    2  A    between atoms: C2_5  and  C4_7 
REMARK       I    between atoms: C4_7  and  N2_9 
REMARK    3  A    between atoms: N2_9  and  C5_11 
REMARK    4  A    between atoms: C5_11  and  C6_12 
REMARK    5  A    between atoms: C5_11  and  C28_39 
REMARK       I    between atoms: C6_12  and  N3_14 
REMARK    6  A    between atoms: C12_20  and  N4_21 
REMARK       I    between atoms: N4_21  and  C13_23 
REMARK    7  A    between atoms: C13_23  and  C14_25 
REMARK    8  A    between atoms: C14_25  and  C15_26 
REMARK    9  A    between atoms: C14_25  and  C21_32 
ROOT
HETATM    1  C6  UNL     1      79.625  62.222  12.973  1.00  0.00     0.243 C 
HETATM    2  O2  UNL     1      79.689  61.966  14.235  1.00  0.00    -0.271 OA
HETATM    3  N3  UNL     1      79.893  61.140  12.112  1.00  0.00    -0.343 N 
HETATM    4  C7  UNL     1      79.908  61.042  10.676  1.00  0.00     0.127 C 
HETATM    5  C8  UNL     1      79.250  59.698  10.412  1.00  0.00     0.026 C 
HETATM    6  C9  UNL     1      79.162  59.010  11.767  1.00  0.00     0.012 C 
HETATM    7  C10 UNL     1      79.718  57.628  11.582  1.00  0.00     0.009 C 
HETATM    8  C11 UNL     1      81.123  57.704  12.082  1.00  0.00     0.028 C 
HETATM    9  C12 UNL     1      81.465  59.216  12.071  1.00  0.00     0.107 C 
HETATM   10  C27 UNL     1      80.203  59.793  12.574  1.00  0.00     0.114 C 
ENDROOT
BRANCH   1  11
HETATM   11  C5  UNL     1      79.276  63.609  12.569  1.00  0.00     0.184 C 
BRANCH  11  12
HETATM   12  N2  UNL     1      78.596  64.261  13.736  1.00  0.00    -0.345 N 
HETATM   13  C4  UNL     1      77.197  64.354  13.772  1.00  0.00     0.248 C 
HETATM   14  O1  UNL     1      76.572  63.860  12.788  1.00  0.00    -0.271 OA
ATOM     15  H2  UNL     1      79.151  64.638  14.504  1.00  0.00     0.163 HD
BRANCH  13  16
HETATM   16  C2  UNL     1      76.392  64.962  14.835  1.00  0.00     0.272 C 
HETATM   17  C3  UNL     1      76.336  66.479  14.704  1.00  0.00     0.050 C 
BRANCH  16  18
HETATM   18  N1  UNL     1      76.670  64.561  16.167  1.00  0.00    -0.067 N 
HETATM   19  C1  UNL     1      76.534  63.103  16.367  1.00  0.00     0.267 C 
ATOM     20  H12 UNL     1      76.092  65.075  16.831  1.00  0.00     0.277 HD
ATOM     21  H11 UNL     1      77.590  64.886  16.463  1.00  0.00     0.277 HD
ENDBRANCH  16  18
ENDBRANCH  13  16
ENDBRANCH  11  12
BRANCH  11  22
HETATM   22  C28 UNL     1      80.392  64.497  12.205  1.00  0.00    -0.022 C 
HETATM   23  C29 UNL     1      80.329  65.899  12.774  1.00  0.00     0.017 C 
HETATM   24  C30 UNL     1      81.785  64.002  12.395  1.00  0.00     0.017 C 
HETATM   25  C31 UNL     1      80.260  64.726  10.671  1.00  0.00     0.017 C 
ENDBRANCH  11  22
ENDBRANCH   1  11
BRANCH   9  26
HETATM   26  N4  UNL     1      82.604  59.308  12.955  1.00  0.00    -0.354 N 
HETATM   27  C13 UNL     1      83.914  59.688  12.538  1.00  0.00     0.231 C 
HETATM   28  O3  UNL     1      84.022  59.954  11.317  1.00  0.00    -0.272 OA
ATOM     29  H4  UNL     1      82.462  59.086  13.940  1.00  0.00     0.163 HD
BRANCH  27  30
HETATM   30  C14 UNL     1      85.074  59.775  13.420  1.00  0.00     0.143 C 
BRANCH  30  31
HETATM   31  C15 UNL     1      85.106  60.917  14.343  1.00  0.00    -0.041 A 
HETATM   32  C16 UNL     1      84.361  62.057  14.121  1.00  0.00     0.008 A 
HETATM   33  C17 UNL     1      84.397  63.131  14.994  1.00  0.00     0.001 A 
HETATM   34  C18 UNL     1      85.195  63.067  16.116  1.00  0.00     0.000 A 
HETATM   35  C19 UNL     1      85.945  61.946  16.359  1.00  0.00     0.001 A 
HETATM   36  C20 UNL     1      85.896  60.873  15.470  1.00  0.00     0.008 A 
ENDBRANCH  30  31
BRANCH  30  37
HETATM   37  C21 UNL     1      86.309  59.835  12.561  1.00  0.00    -0.041 A 
HETATM   38  C22 UNL     1      86.799  61.034  12.095  1.00  0.00     0.008 A 
HETATM   39  C23 UNL     1      87.927  61.063  11.312  1.00  0.00     0.001 A 
HETATM   40  C24 UNL     1      88.611  59.907  10.963  1.00  0.00     0.000 A 
HETATM   41  C25 UNL     1      88.129  58.709  11.424  1.00  0.00     0.001 A 
HETATM   42  C26 UNL     1      86.994  58.682  12.212  1.00  0.00     0.008 A 
ENDBRANCH  30  37
ENDBRANCH  27  30
ENDBRANCH   9  26
TORSDOF 9
ENDMDL
