MODEL 1
REMARK VINA RESULT: -7.529198942      0.000      0.000
REMARK  9 active torsions:
REMARK  status: ('A' for Active; 'I' for Inactive)
REMARK    1  A    between atoms: N1_2  and  C2_5 
REMARK    2  A    between atoms: C2_5  and  C4_7 
REMARK       I    between atoms: C4_7  and  N2_9 
REMARK    3  A    between atoms: N2_9  and  C5_11 
REMARK    4  A    between atoms: C5_11  and  C6_12 
REMARK    5  A    between atoms: C5_11  and  C28_39 
REMARK       I    between atoms: C6_12  and  N3_14 
REMARK    6  A    between atoms: C12_20  and  N4_21 
REMARK       I    between atoms: N4_21  and  C13_23 
REMARK    7  A    between atoms: C13_23  and  C14_25 
REMARK    8  A    between atoms: C14_25  and  C15_26 
REMARK    9  A    between atoms: C14_25  and  C21_32 
ROOT
HETATM    1  C6  UNL     1      81.517  62.546  13.462  1.00  0.00     0.243 C 
HETATM    2  O2  UNL     1      81.529  62.724  14.739  1.00  0.00    -0.271 OA
HETATM    3  N3  UNL     1      80.804  63.504  12.716  1.00  0.00    -0.343 N 
HETATM    4  C7  UNL     1      80.579  63.639  11.301  1.00  0.00     0.127 C 
HETATM    5  C8  UNL     1      80.718  65.135  11.068  1.00  0.00     0.026 C 
HETATM    6  C9  UNL     1      80.742  65.766  12.453  1.00  0.00     0.012 C 
HETATM    7  C10 UNL     1      79.744  66.887  12.429  1.00  0.00     0.009 C 
HETATM    8  C11 UNL     1      78.515  66.326  13.068  1.00  0.00     0.028 C 
HETATM    9  C12 UNL     1      78.693  64.788  12.982  1.00  0.00     0.107 C 
HETATM   10  C27 UNL     1      80.126  64.652  13.306  1.00  0.00     0.114 C 
ENDROOT
BRANCH   1  11
HETATM   11  C5  UNL     1      82.251  61.372  12.924  1.00  0.00     0.184 C 
BRANCH  11  12
HETATM   12  N2  UNL     1      83.209  60.914  13.983  1.00  0.00    -0.345 N 
HETATM   13  C4  UNL     1      84.497  61.466  14.052  1.00  0.00     0.248 C 
HETATM   14  O1  UNL     1      84.780  62.351  13.192  1.00  0.00    -0.271 OA
ATOM     15  H2  UNL     1      82.925  60.200  14.654  1.00  0.00     0.163 HD
BRANCH  13  16
HETATM   16  C2  UNL     1      85.541  61.121  15.021  1.00  0.00     0.272 C 
HETATM   17  C3  UNL     1      85.538  62.065  16.216  1.00  0.00     0.050 C 
BRANCH  16  18
HETATM   18  N1  UNL     1      86.851  60.918  14.516  1.00  0.00    -0.067 N 
HETATM   19  C1  UNL     1      86.982  59.664  13.746  1.00  0.00     0.267 C 
ATOM     20  H12 UNL     1      87.541  60.960  15.265  1.00  0.00     0.277 HD
ATOM     21  H11 UNL     1      87.158  61.719  13.964  1.00  0.00     0.277 HD
ENDBRANCH  16  18
ENDBRANCH  13  16
ENDBRANCH  11  12
BRANCH  11  22
HETATM   22  C28 UNL     1      81.447  60.191  12.569  1.00  0.00    -0.022 C 
HETATM   23  C29 UNL     1      80.416  59.765  13.593  1.00  0.00     0.017 C 
HETATM   24  C30 UNL     1      80.790  60.155  11.233  1.00  0.00     0.017 C 
HETATM   25  C31 UNL     1      82.447  58.997  12.550  1.00  0.00     0.017 C 
ENDBRANCH  11  22
ENDBRANCH   1  11
BRANCH   9  26
HETATM   26  N4  UNL     1      77.766  64.290  13.972  1.00  0.00    -0.354 N 
HETATM   27  C13 UNL     1      76.360  64.165  13.765  1.00  0.00     0.231 C 
HETATM   28  O3  UNL     1      75.962  64.520  12.630  1.00  0.00    -0.272 OA
ATOM     29  H4  UNL     1      78.142  64.009  14.878  1.00  0.00     0.163 HD
BRANCH  27  30
HETATM   30  C14 UNL     1      75.414  63.671  14.761  1.00  0.00     0.143 C 
BRANCH  30  31
HETATM   31  C15 UNL     1      75.866  63.700  16.158  1.00  0.00    -0.041 A 
HETATM   32  C16 UNL     1      76.911  62.917  16.605  1.00  0.00     0.008 A 
HETATM   33  C17 UNL     1      77.331  62.947  17.923  1.00  0.00     0.001 A 
HETATM   34  C18 UNL     1      76.694  63.778  18.820  1.00  0.00     0.000 A 
HETATM   35  C19 UNL     1      75.654  64.566  18.402  1.00  0.00     0.001 A 
HETATM   36  C20 UNL     1      75.244  64.523  17.069  1.00  0.00     0.008 A 
ENDBRANCH  30  31
BRANCH  30  37
HETATM   37  C21 UNL     1      75.069  62.248  14.411  1.00  0.00    -0.041 A 
HETATM   38  C22 UNL     1      73.928  61.649  14.893  1.00  0.00     0.008 A 
HETATM   39  C23 UNL     1      73.636  60.348  14.560  1.00  0.00     0.001 A 
HETATM   40  C24 UNL     1      74.463  59.596  13.737  1.00  0.00     0.000 A 
HETATM   41  C25 UNL     1      75.601  60.187  13.253  1.00  0.00     0.001 A 
HETATM   42  C26 UNL     1      75.893  61.495  13.589  1.00  0.00     0.008 A 
ENDBRANCH  30  37
ENDBRANCH  27  30
ENDBRANCH   9  26
TORSDOF 9
ENDMDL
