MODEL 3
REMARK VINA RESULT: -6.055550382      1.348      1.412
REMARK  7 active torsions:
REMARK  status: ('A' for Active; 'I' for Inactive)
REMARK    1  A    between atoms: N1_1  and  C1_5 
REMARK    2  A    between atoms: C1_5  and  C2_6 
REMARK    3  A    between atoms: C1_5  and  C6_13 
REMARK    4  A    between atoms: C2_6  and  C3_7 
REMARK    5  A    between atoms: C3_7  and  C4_8 
REMARK    6  A    between atoms: C4_8  and  C5_9 
REMARK    7  A    between atoms: C5_9  and  N2_10 
ROOT
HETATM    1  C1  UNL     1      20.827 -16.388   7.542  1.00  0.00     0.283 C 
ENDROOT
BRANCH   1   2
HETATM    2  N1  UNL     1      21.188 -17.724   7.037  1.00  0.00    -0.065 N 
ATOM      3  H13 UNL     1      21.661 -17.679   6.134  1.00  0.00     0.275 HD
ATOM      4  H12 UNL     1      21.942 -18.148   7.577  1.00  0.00     0.275 HD
ATOM      5  H11 UNL     1      20.358 -18.317   7.004  1.00  0.00     0.275 HD
ENDBRANCH   1   2
BRANCH   1   6
HETATM    6  C2  UNL     1      22.062 -15.607   7.828  1.00  0.00     0.044 C 
BRANCH   6   7
HETATM    7  C3  UNL     1      23.344 -16.203   7.351  1.00  0.00     0.004 C 
BRANCH   7   8
HETATM    8  C4  UNL     1      24.454 -15.287   7.856  1.00  0.00     0.026 C 
BRANCH   8   9
HETATM    9  C5  UNL     1      24.510 -14.001   7.081  1.00  0.00     0.201 C 
BRANCH   9  10
HETATM   10  N2  UNL     1      25.839 -13.461   7.214  1.00  0.00    -0.156 N 
HETATM   11  O1  UNL     1      26.803 -14.187   7.486  1.00  0.00    -0.537 OA
HETATM   12  O2  UNL     1      26.038 -12.122   7.038  1.00  0.00    -0.537 OA
ENDBRANCH   9  10
ENDBRANCH   8   9
ENDBRANCH   7   8
ENDBRANCH   6   7
ENDBRANCH   1   6
BRANCH   1  13
HETATM   13  C6  UNL     1      20.037 -15.721   6.498  1.00  0.00     0.204 C 
HETATM   14  O3  UNL     1      20.514 -15.591   5.348  1.00  0.00    -0.646 OA
HETATM   15  O4  UNL     1      18.770 -15.224   6.733  1.00  0.00    -0.646 OA
ENDBRANCH   1  13
TORSDOF 7
ENDMDL
