MODEL 1
REMARK VINA RESULT: -6.297023999      0.000      0.000
REMARK  7 active torsions:
REMARK  status: ('A' for Active; 'I' for Inactive)
REMARK    1  A    between atoms: N1_1  and  C1_5 
REMARK    2  A    between atoms: C1_5  and  C2_6 
REMARK    3  A    between atoms: C1_5  and  C6_13 
REMARK    4  A    between atoms: C2_6  and  C3_7 
REMARK    5  A    between atoms: C3_7  and  C4_8 
REMARK    6  A    between atoms: C4_8  and  C5_9 
REMARK    7  A    between atoms: C5_9  and  N2_10 
ROOT
HETATM    1  C1  UNL     1      21.617 -16.193   5.827  1.00  0.00     0.283 C 
ENDROOT
BRANCH   1   2
HETATM    2  N1  UNL     1      21.370 -15.723   4.452  1.00  0.00    -0.065 N 
ATOM      3  H13 UNL     1      21.401 -14.706   4.383  1.00  0.00     0.275 HD
ATOM      4  H12 UNL     1      22.148 -15.937   3.828  1.00  0.00     0.275 HD
ATOM      5  H11 UNL     1      20.488 -16.103   4.110  1.00  0.00     0.275 HD
ENDBRANCH   1   2
BRANCH   1   6
HETATM    6  C2  UNL     1      22.779 -15.466   6.408  1.00  0.00     0.044 C 
BRANCH   6   7
HETATM    7  C3  UNL     1      23.609 -16.224   7.387  1.00  0.00     0.004 C 
BRANCH   7   8
HETATM    8  C4  UNL     1      24.644 -15.240   7.923  1.00  0.00     0.026 C 
BRANCH   8   9
HETATM    9  C5  UNL     1      24.659 -13.963   7.131  1.00  0.00     0.201 C 
BRANCH   9  10
HETATM   10  N2  UNL     1      25.974 -13.384   7.250  1.00  0.00    -0.156 N 
HETATM   11  O1  UNL     1      26.958 -14.078   7.534  1.00  0.00    -0.537 OA
HETATM   12  O2  UNL     1      26.135 -12.044   7.045  1.00  0.00    -0.537 OA
ENDBRANCH   9  10
ENDBRANCH   8   9
ENDBRANCH   7   8
ENDBRANCH   6   7
ENDBRANCH   1   6
BRANCH   1  13
HETATM   13  C6  UNL     1      20.404 -15.918   6.610  1.00  0.00     0.204 C 
HETATM   14  O3  UNL     1      19.561 -15.099   6.179  1.00  0.00    -0.646 OA
HETATM   15  O4  UNL     1      20.151 -16.533   7.820  1.00  0.00    -0.646 OA
ENDBRANCH   1  13
TORSDOF 7
ENDMDL
