MODEL 2
REMARK VINA RESULT: -6.167108115      1.439      1.734
REMARK  7 active torsions:
REMARK  status: ('A' for Active; 'I' for Inactive)
REMARK    1  A    between atoms: N1_1  and  C1_5 
REMARK    2  A    between atoms: C1_5  and  C2_6 
REMARK    3  A    between atoms: C1_5  and  C6_13 
REMARK    4  A    between atoms: C2_6  and  C3_7 
REMARK    5  A    between atoms: C3_7  and  C4_8 
REMARK    6  A    between atoms: C4_8  and  C5_9 
REMARK    7  A    between atoms: C5_9  and  N2_10 
ROOT
HETATM    1  C1  UNL     1      22.004 -17.357   5.992  1.00  0.00     0.283 C 
ENDROOT
BRANCH   1   2
HETATM    2  N1  UNL     1      22.390 -18.343   4.967  1.00  0.00    -0.065 N 
ATOM      3  H13 UNL     1      22.853 -19.157   5.372  1.00  0.00     0.275 HD
ATOM      4  H12 UNL     1      21.580 -18.819   4.568  1.00  0.00     0.275 HD
ATOM      5  H11 UNL     1      22.963 -17.893   4.252  1.00  0.00     0.275 HD
ENDBRANCH   1   2
BRANCH   1   6
HETATM    6  C2  UNL     1      23.168 -17.068   6.876  1.00  0.00     0.044 C 
BRANCH   6   7
HETATM    7  C3  UNL     1      23.044 -15.872   7.758  1.00  0.00     0.004 C 
BRANCH   7   8
HETATM    8  C4  UNL     1      24.436 -15.253   7.837  1.00  0.00     0.026 C 
BRANCH   8   9
HETATM    9  C5  UNL     1      24.520 -13.970   7.060  1.00  0.00     0.201 C 
BRANCH   9  10
HETATM   10  N2  UNL     1      25.851 -13.441   7.221  1.00  0.00    -0.156 N 
HETATM   11  O1  UNL     1      26.799 -14.173   7.531  1.00  0.00    -0.537 OA
HETATM   12  O2  UNL     1      26.068 -12.107   7.029  1.00  0.00    -0.537 OA
ENDBRANCH   9  10
ENDBRANCH   8   9
ENDBRANCH   7   8
ENDBRANCH   6   7
ENDBRANCH   1   6
BRANCH   1  13
HETATM   13  C6  UNL     1      21.585 -16.136   5.291  1.00  0.00     0.204 C 
HETATM   14  O3  UNL     1      20.464 -15.634   5.536  1.00  0.00    -0.646 OA
HETATM   15  O4  UNL     1      22.387 -15.507   4.360  1.00  0.00    -0.646 OA
ENDBRANCH   1  13
TORSDOF 7
ENDMDL
