MODEL 9
REMARK VINA RESULT: -5.828207710      1.898      5.833
REMARK  7 active torsions:
REMARK  status: ('A' for Active; 'I' for Inactive)
REMARK    1  A    between atoms: N1_1  and  C1_5 
REMARK    2  A    between atoms: C1_5  and  C2_6 
REMARK    3  A    between atoms: C1_5  and  C6_13 
REMARK    4  A    between atoms: C2_6  and  C3_7 
REMARK    5  A    between atoms: C3_7  and  C4_8 
REMARK    6  A    between atoms: C4_8  and  C5_9 
REMARK    7  A    between atoms: C5_9  and  N2_10 
ROOT
HETATM    1  C1  UNL     1      24.251 -15.622   7.390  1.00  0.00     0.283 C 
ENDROOT
BRANCH   1   2
HETATM    2  N1  UNL     1      23.497 -15.630   8.656  1.00  0.00    -0.065 N 
ATOM      3  H13 UNL     1      22.494 -15.733   8.505  1.00  0.00     0.275 HD
ATOM      4  H12 UNL     1      23.654 -16.484   9.191  1.00  0.00     0.275 HD
ATOM      5  H11 UNL     1      23.719 -14.793   9.196  1.00  0.00     0.275 HD
ENDBRANCH   1   2
BRANCH   1   6
HETATM    6  C2  UNL     1      23.305 -15.597   6.240  1.00  0.00     0.044 C 
BRANCH   6   7
HETATM    7  C3  UNL     1      22.242 -16.643   6.238  1.00  0.00     0.004 C 
BRANCH   7   8
HETATM    8  C4  UNL     1      20.912 -15.900   6.155  1.00  0.00     0.026 C 
BRANCH   8   9
HETATM    9  C5  UNL     1      19.916 -16.429   7.148  1.00  0.00     0.201 C 
BRANCH   9  10
HETATM   10  N2  UNL     1      18.631 -15.857   6.833  1.00  0.00    -0.156 N 
HETATM   11  O1  UNL     1      18.523 -14.676   6.480  1.00  0.00    -0.537 OA
HETATM   12  O2  UNL     1      17.513 -16.634   6.926  1.00  0.00    -0.537 OA
ENDBRANCH   9  10
ENDBRANCH   8   9
ENDBRANCH   7   8
ENDBRANCH   6   7
ENDBRANCH   1   6
BRANCH   1  13
HETATM   13  C6  UNL     1      25.088 -14.414   7.384  1.00  0.00     0.204 C 
HETATM   14  O3  UNL     1      24.551 -13.289   7.263  1.00  0.00    -0.646 OA
HETATM   15  O4  UNL     1      26.462 -14.466   7.507  1.00  0.00    -0.646 OA
ENDBRANCH   1  13
TORSDOF 7
ENDMDL
