MODEL 4
REMARK VINA RESULT: -6.036192601      1.449      1.604
REMARK  7 active torsions:
REMARK  status: ('A' for Active; 'I' for Inactive)
REMARK    1  A    between atoms: N1_1  and  C1_5 
REMARK    2  A    between atoms: C1_5  and  C2_6 
REMARK    3  A    between atoms: C1_5  and  C6_13 
REMARK    4  A    between atoms: C2_6  and  C3_7 
REMARK    5  A    between atoms: C3_7  and  C4_8 
REMARK    6  A    between atoms: C4_8  and  C5_9 
REMARK    7  A    between atoms: C5_9  and  N2_10 
ROOT
HETATM    1  C1  UNL     1      20.976 -16.638   7.561  1.00  0.00     0.283 C 
ENDROOT
BRANCH   1   2
HETATM    2  N1  UNL     1      20.483 -18.022   7.436  1.00  0.00    -0.065 N 
ATOM      3  H13 UNL     1      20.210 -18.246   6.479  1.00  0.00     0.275 HD
ATOM      4  H12 UNL     1      21.232 -18.707   7.540  1.00  0.00     0.275 HD
ATOM      5  H11 UNL     1      19.723 -18.179   8.098  1.00  0.00     0.275 HD
ENDBRANCH   1   2
BRANCH   1   6
HETATM    6  C2  UNL     1      22.459 -16.617   7.420  1.00  0.00     0.044 C 
BRANCH   6   7
HETATM    7  C3  UNL     1      23.194 -15.689   8.328  1.00  0.00     0.004 C 
BRANCH   7   8
HETATM    8  C4  UNL     1      24.506 -15.356   7.625  1.00  0.00     0.026 C 
BRANCH   8   9
HETATM    9  C5  UNL     1      24.510 -13.951   7.092  1.00  0.00     0.201 C 
BRANCH   9  10
HETATM   10  N2  UNL     1      25.848 -13.431   7.225  1.00  0.00    -0.156 N 
HETATM   11  O1  UNL     1      26.798 -14.169   7.513  1.00  0.00    -0.537 OA
HETATM   12  O2  UNL     1      26.069 -12.099   7.028  1.00  0.00    -0.537 OA
ENDBRANCH   9  10
ENDBRANCH   8   9
ENDBRANCH   7   8
ENDBRANCH   6   7
ENDBRANCH   1   6
BRANCH   1  13
HETATM   13  C6  UNL     1      20.354 -15.850   6.488  1.00  0.00     0.204 C 
HETATM   14  O3  UNL     1      19.282 -15.242   6.708  1.00  0.00    -0.646 OA
HETATM   15  O4  UNL     1      20.909 -15.751   5.228  1.00  0.00    -0.646 OA
ENDBRANCH   1  13
TORSDOF 7
ENDMDL
