MODEL 7
REMARK VINA RESULT: -5.867854945      2.068      5.584
REMARK  7 active torsions:
REMARK  status: ('A' for Active; 'I' for Inactive)
REMARK    1  A    between atoms: N1_1  and  C1_5 
REMARK    2  A    between atoms: C1_5  and  C2_6 
REMARK    3  A    between atoms: C1_5  and  C6_13 
REMARK    4  A    between atoms: C2_6  and  C3_7 
REMARK    5  A    between atoms: C3_7  and  C4_8 
REMARK    6  A    between atoms: C4_8  and  C5_9 
REMARK    7  A    between atoms: C5_9  and  N2_10 
ROOT
HETATM    1  C1  UNL     1      23.371 -15.024   7.023  1.00  0.00     0.283 C 
ENDROOT
BRANCH   1   2
HETATM    2  N1  UNL     1      23.923 -13.685   6.748  1.00  0.00    -0.065 N 
ATOM      3  H13 UNL     1      23.191 -12.984   6.631  1.00  0.00     0.275 HD
ATOM      4  H12 UNL     1      24.382 -13.284   7.566  1.00  0.00     0.275 HD
ATOM      5  H11 UNL     1      24.545 -13.727   5.940  1.00  0.00     0.275 HD
ENDBRANCH   1   2
BRANCH   1   6
HETATM    6  C2  UNL     1      23.035 -15.704   5.741  1.00  0.00     0.044 C 
BRANCH   6   7
HETATM    7  C3  UNL     1      21.672 -16.302   5.650  1.00  0.00     0.004 C 
BRANCH   7   8
HETATM    8  C4  UNL     1      20.884 -15.749   6.834  1.00  0.00     0.026 C 
BRANCH   8   9
HETATM    9  C5  UNL     1      19.764 -16.667   7.234  1.00  0.00     0.201 C 
BRANCH   9  10
HETATM   10  N2  UNL     1      18.521 -16.030   6.880  1.00  0.00    -0.156 N 
HETATM   11  O1  UNL     1      17.447 -16.643   6.927  1.00  0.00    -0.537 OA
HETATM   12  O2  UNL     1      18.530 -14.723   6.484  1.00  0.00    -0.537 OA
ENDBRANCH   9  10
ENDBRANCH   8   9
ENDBRANCH   7   8
ENDBRANCH   6   7
ENDBRANCH   1   6
BRANCH   1  13
HETATM   13  C6  UNL     1      24.400 -15.784   7.746  1.00  0.00     0.204 C 
HETATM   14  O3  UNL     1      25.516 -15.262   7.966  1.00  0.00    -0.646 OA
HETATM   15  O4  UNL     1      24.186 -17.070   8.199  1.00  0.00    -0.646 OA
ENDBRANCH   1  13
TORSDOF 7
ENDMDL
