MODEL 6
REMARK VINA RESULT: -5.957999488      1.645      2.000
REMARK  7 active torsions:
REMARK  status: ('A' for Active; 'I' for Inactive)
REMARK    1  A    between atoms: N1_1  and  C1_5 
REMARK    2  A    between atoms: C1_5  and  C2_6 
REMARK    3  A    between atoms: C1_5  and  C6_13 
REMARK    4  A    between atoms: C2_6  and  C3_7 
REMARK    5  A    between atoms: C3_7  and  C4_8 
REMARK    6  A    between atoms: C4_8  and  C5_9 
REMARK    7  A    between atoms: C5_9  and  N2_10 
ROOT
HETATM    1  C1  UNL     1      21.360 -16.624   8.114  1.00  0.00     0.283 C 
ENDROOT
BRANCH   1   2
HETATM    2  N1  UNL     1      20.620 -16.543   6.841  1.00  0.00    -0.065 N 
ATOM      3  H13 UNL     1      20.837 -15.690   6.325  1.00  0.00     0.275 HD
ATOM      4  H12 UNL     1      20.958 -17.219   6.157  1.00  0.00     0.275 HD
ATOM      5  H11 UNL     1      19.620 -16.641   7.016  1.00  0.00     0.275 HD
ENDBRANCH   1   2
BRANCH   1   6
HETATM    6  C2  UNL     1      22.810 -16.829   7.841  1.00  0.00     0.044 C 
BRANCH   6   7
HETATM    7  C3  UNL     1      23.415 -15.949   6.799  1.00  0.00     0.004 C 
BRANCH   7   8
HETATM    8  C4  UNL     1      24.525 -15.167   7.494  1.00  0.00     0.026 C 
BRANCH   8   9
HETATM    9  C5  UNL     1      24.552 -13.730   7.055  1.00  0.00     0.201 C 
BRANCH   9  10
HETATM   10  N2  UNL     1      25.899 -13.244   7.218  1.00  0.00    -0.156 N 
HETATM   11  O1  UNL     1      26.177 -12.051   7.044  1.00  0.00    -0.537 OA
HETATM   12  O2  UNL     1      26.887 -14.118   7.570  1.00  0.00    -0.537 OA
ENDBRANCH   9  10
ENDBRANCH   8   9
ENDBRANCH   7   8
ENDBRANCH   6   7
ENDBRANCH   1   6
BRANCH   1  13
HETATM   13  C6  UNL     1      21.153 -15.355   8.824  1.00  0.00     0.204 C 
HETATM   14  O3  UNL     1      20.570 -14.409   8.247  1.00  0.00    -0.646 OA
HETATM   15  O4  UNL     1      21.580 -15.157  10.122  1.00  0.00    -0.646 OA
ENDBRANCH   1  13
TORSDOF 7
ENDMDL
