MODEL 11
REMARK VINA RESULT: -5.796063177      1.705      5.180
REMARK  7 active torsions:
REMARK  status: ('A' for Active; 'I' for Inactive)
REMARK    1  A    between atoms: N1_1  and  C1_5 
REMARK    2  A    between atoms: C1_5  and  C2_6 
REMARK    3  A    between atoms: C1_5  and  C6_13 
REMARK    4  A    between atoms: C2_6  and  C3_7 
REMARK    5  A    between atoms: C3_7  and  C4_8 
REMARK    6  A    between atoms: C4_8  and  C5_9 
REMARK    7  A    between atoms: C5_9  and  N2_10 
ROOT
HETATM    1  C1  UNL     1      23.892 -14.737   7.262  1.00  0.00     0.283 C 
ENDROOT
BRANCH   1   2
HETATM    2  N1  UNL     1      23.627 -15.065   5.849  1.00  0.00    -0.065 N 
ATOM      3  H13 UNL     1      24.322 -15.706   5.467  1.00  0.00     0.275 HD
ATOM      4  H12 UNL     1      22.804 -15.658   5.741  1.00  0.00     0.275 HD
ATOM      5  H11 UNL     1      23.556 -14.206   5.302  1.00  0.00     0.275 HD
ENDBRANCH   1   2
BRANCH   1   6
HETATM    6  C2  UNL     1      23.915 -15.985   8.073  1.00  0.00     0.044 C 
BRANCH   6   7
HETATM    7  C3  UNL     1      22.853 -16.115   9.112  1.00  0.00     0.004 C 
BRANCH   7   8
HETATM    8  C4  UNL     1      21.590 -15.508   8.509  1.00  0.00     0.026 C 
BRANCH   8   9
HETATM    9  C5  UNL     1      20.752 -16.542   7.813  1.00  0.00     0.201 C 
BRANCH   9  10
HETATM   10  N2  UNL     1      20.163 -15.926   6.651  1.00  0.00    -0.156 N 
HETATM   11  O1  UNL     1      20.792 -15.822   5.591  1.00  0.00    -0.537 OA
HETATM   12  O2  UNL     1      18.887 -15.446   6.724  1.00  0.00    -0.537 OA
ENDBRANCH   9  10
ENDBRANCH   8   9
ENDBRANCH   7   8
ENDBRANCH   6   7
ENDBRANCH   1   6
BRANCH   1  13
HETATM   13  C6  UNL     1      25.201 -14.071   7.320  1.00  0.00     0.204 C 
HETATM   14  O3  UNL     1      26.230 -14.745   7.552  1.00  0.00    -0.646 OA
HETATM   15  O4  UNL     1      25.347 -12.712   7.126  1.00  0.00    -0.646 OA
ENDBRANCH   1  13
TORSDOF 7
ENDMDL
