MODEL 3
REMARK VINA RESULT: -11.906341432      3.988     12.471
REMARK  5 active torsions:
REMARK  status: ('A' for Active; 'I' for Inactive)
REMARK    1  A    between atoms: C2_2  and  O1_3 
REMARK    2  A    between atoms: O1_3  and  C3_4 
REMARK    3  A    between atoms: C6_7  and  C7_8 
REMARK    4  A    between atoms: C10_13  and  C11_14 
REMARK    5  A    between atoms: C15_20  and  N3_21 
ROOT
HETATM    1  C7  UNL     1      -2.028   0.203  -2.691  1.00  0.00     0.116 A 
HETATM    2  N1  UNL     1      -2.248  -0.792  -1.815  1.00  0.00    -0.340 N 
ATOM      3  H1  UNL     1      -2.981  -1.495  -1.909  1.00  0.00     0.167 HD
HETATM    4  C8  UNL     1      -1.379  -0.736  -0.804  1.00  0.00     0.061 A 
HETATM    5  C9  UNL     1      -1.148  -1.476   0.339  1.00  0.00     0.047 A 
HETATM    6  C10 UNL     1      -0.137  -1.158   1.224  1.00  0.00     0.010 A 
HETATM    7  C23 UNL     1       0.688  -0.076   0.996  1.00  0.00     0.017 A 
HETATM    8  C24 UNL     1       0.458   0.662  -0.143  1.00  0.00     0.033 A 
HETATM    9  C25 UNL     1      -0.556   0.346  -1.035  1.00  0.00     0.060 A 
HETATM   10  N6  UNL     1      -0.985   0.891  -2.196  1.00  0.00    -0.340 N 
ATOM     11  H6  UNL     1      -0.574   1.714  -2.636  1.00  0.00     0.167 HD
ENDROOT
BRANCH   6  12
HETATM   12  C11 UNL     1       0.072  -1.976   2.431  1.00  0.00     0.116 A 
HETATM   13  N2  UNL     1       0.894  -1.732   3.460  1.00  0.00    -0.340 N 
HETATM   14  C12 UNL     1       0.807  -2.710   4.381  1.00  0.00     0.060 A 
ATOM     15  H2  UNL     1       1.501  -0.917   3.536  1.00  0.00     0.167 HD
HETATM   16  C13 UNL     1       1.390  -2.984   5.592  1.00  0.00     0.034 A 
HETATM   17  C22 UNL     1      -0.125  -3.617   3.892  1.00  0.00     0.062 A 
HETATM   18  C14 UNL     1       1.077  -4.125   6.330  1.00  0.00     0.031 A 
HETATM   19  C15 UNL     1       0.157  -5.037   5.867  1.00  0.00     0.032 A 
HETATM   20  C21 UNL     1      -0.420  -4.731   4.629  1.00  0.00     0.061 A 
HETATM   21  N5  UNL     1      -0.549  -3.136   2.707  1.00  0.00    -0.340 N 
ATOM     22  H5  UNL     1      -1.239  -3.586   2.107  1.00  0.00     0.167 HD
BRANCH  19  23
HETATM   23  N3  UNL     1      -0.213  -6.213   6.569  1.00  0.00    -0.377 N 
HETATM   24  C16 UNL     1      -1.568  -6.698   6.365  1.00  0.00     0.153 C 
HETATM   25  C17 UNL     1      -1.834  -8.073   6.821  1.00  0.00     0.291 C 
HETATM   26  N4  UNL     1      -0.808  -8.742   7.543  1.00  0.00     0.087 N 
HETATM   27  C18 UNL     1      -0.904 -10.187   7.473  1.00  0.00     0.310 C 
HETATM   28  C19 UNL     1       0.530  -8.398   7.112  1.00  0.00     0.291 C 
HETATM   29  C20 UNL     1       0.690  -6.904   7.451  1.00  0.00     0.153 C 
ENDBRANCH  19  23
ENDBRANCH   6  12
BRANCH   1  30
HETATM   30  C6  UNL     1      -2.765   0.491  -3.938  1.00  0.00     0.008 A 
HETATM   31  C5  UNL     1      -2.275   1.317  -4.901  1.00  0.00     0.018 A 
HETATM   32  C4  UNL     1      -3.005   1.559  -6.063  1.00  0.00     0.037 A 
HETATM   33  C3  UNL     1      -4.228   0.958  -6.237  1.00  0.00     0.068 A 
HETATM   34  C27 UNL     1      -4.724   0.128  -5.275  1.00  0.00     0.037 A 
HETATM   35  C26 UNL     1      -3.995  -0.105  -4.129  1.00  0.00     0.018 A 
BRANCH  33  36
HETATM   36  O1  UNL     1      -4.987   1.174  -7.384  1.00  0.00    -0.352 OA
BRANCH  36  37
HETATM   37  C2  UNL     1      -5.869   0.205  -7.879  1.00  0.00     0.171 C 
HETATM   38  C1  UNL     1      -7.278   0.727  -7.763  1.00  0.00     0.034 C 
ENDBRANCH  36  37
ENDBRANCH  33  36
ENDBRANCH   1  30
TORSDOF 5
ENDMDL
