MODEL 4
REMARK VINA RESULT: -11.828671743      4.898     13.096
REMARK  5 active torsions:
REMARK  status: ('A' for Active; 'I' for Inactive)
REMARK    1  A    between atoms: C2_2  and  O1_3 
REMARK    2  A    between atoms: O1_3  and  C3_4 
REMARK    3  A    between atoms: C6_7  and  C7_8 
REMARK    4  A    between atoms: C10_13  and  C11_14 
REMARK    5  A    between atoms: C15_20  and  N3_21 
ROOT
HETATM    1  C7  UNL     1      -1.301   1.796  -4.237  1.00  0.00     0.116 A 
HETATM    2  N1  UNL     1      -0.484   1.759  -3.172  1.00  0.00    -0.340 N 
ATOM      3  H1  UNL     1       0.320   2.372  -3.037  1.00  0.00     0.167 HD
HETATM    4  C8  UNL     1      -0.866   0.813  -2.312  1.00  0.00     0.061 A 
HETATM    5  C9  UNL     1      -0.412   0.347  -1.094  1.00  0.00     0.047 A 
HETATM    6  C10 UNL     1      -1.041  -0.683  -0.424  1.00  0.00     0.010 A 
HETATM    7  C23 UNL     1      -2.160  -1.292  -0.955  1.00  0.00     0.017 A 
HETATM    8  C24 UNL     1      -2.613  -0.828  -2.169  1.00  0.00     0.033 A 
HETATM    9  C25 UNL     1      -1.984   0.207  -2.845  1.00  0.00     0.060 A 
HETATM   10  N6  UNL     1      -2.216   0.835  -4.019  1.00  0.00    -0.340 N 
ATOM     11  H6  UNL     1      -2.982   0.611  -4.654  1.00  0.00     0.167 HD
ENDROOT
BRANCH   6  12
HETATM   12  C11 UNL     1      -0.520  -1.148   0.873  1.00  0.00     0.116 A 
HETATM   13  N2  UNL     1      -0.796  -2.293   1.510  1.00  0.00    -0.340 N 
HETATM   14  C12 UNL     1      -0.125  -2.364   2.674  1.00  0.00     0.060 A 
ATOM     15  H2  UNL     1      -1.429  -3.013   1.160  1.00  0.00     0.167 HD
HETATM   16  C13 UNL     1      -0.020  -3.265   3.703  1.00  0.00     0.034 A 
HETATM   17  C22 UNL     1       0.612  -1.191   2.766  1.00  0.00     0.062 A 
HETATM   18  C14 UNL     1       0.791  -3.039   4.814  1.00  0.00     0.031 A 
HETATM   19  C15 UNL     1       1.530  -1.884   4.927  1.00  0.00     0.032 A 
HETATM   20  C21 UNL     1       1.402  -0.984   3.863  1.00  0.00     0.061 A 
HETATM   21  N5  UNL     1       0.346  -0.478   1.654  1.00  0.00    -0.340 N 
ATOM     22  H5  UNL     1       0.743   0.435   1.435  1.00  0.00     0.167 HD
BRANCH  19  23
HETATM   23  N3  UNL     1       2.380  -1.593   6.026  1.00  0.00    -0.377 N 
HETATM   24  C16 UNL     1       3.108  -2.711   6.603  1.00  0.00     0.153 C 
HETATM   25  C17 UNL     1       4.219  -2.358   7.504  1.00  0.00     0.291 C 
HETATM   26  N4  UNL     1       4.385  -0.987   7.845  1.00  0.00     0.087 N 
HETATM   27  C18 UNL     1       5.738  -0.654   8.245  1.00  0.00     0.310 C 
HETATM   28  C19 UNL     1       4.035  -0.073   6.779  1.00  0.00     0.291 C 
HETATM   29  C20 UNL     1       2.522  -0.267   6.564  1.00  0.00     0.153 C 
ENDBRANCH  19  23
ENDBRANCH   6  12
BRANCH   1  30
HETATM   30  C6  UNL     1      -1.225   2.695  -5.407  1.00  0.00     0.008 A 
HETATM   31  C5  UNL     1      -2.331   3.114  -6.078  1.00  0.00     0.018 A 
HETATM   32  C4  UNL     1      -2.212   3.964  -7.176  1.00  0.00     0.037 A 
HETATM   33  C3  UNL     1      -0.968   4.380  -7.583  1.00  0.00     0.068 A 
HETATM   34  C27 UNL     1       0.145   3.963  -6.914  1.00  0.00     0.037 A 
HETATM   35  C26 UNL     1       0.017   3.122  -5.829  1.00  0.00     0.018 A 
BRANCH  33  36
HETATM   36  O1  UNL     1      -0.806   5.229  -8.675  1.00  0.00    -0.352 OA
BRANCH  36  37
HETATM   37  C2  UNL     1       0.365   5.974  -8.865  1.00  0.00     0.171 C 
HETATM   38  C1  UNL     1       0.179   7.336  -8.246  1.00  0.00     0.034 C 
ENDBRANCH  36  37
ENDBRANCH  33  36
ENDBRANCH   1  30
TORSDOF 5
ENDMDL
