MODEL 2
REMARK VINA RESULT: -12.081716905      4.083     12.675
REMARK  5 active torsions:
REMARK  status: ('A' for Active; 'I' for Inactive)
REMARK    1  A    between atoms: C2_2  and  O1_3 
REMARK    2  A    between atoms: O1_3  and  C3_4 
REMARK    3  A    between atoms: C6_7  and  C7_8 
REMARK    4  A    between atoms: C10_13  and  C11_14 
REMARK    5  A    between atoms: C15_20  and  N3_21 
ROOT
HETATM    1  C7  UNL     1      -1.321   0.226  -1.880  1.00  0.00     0.116 A 
HETATM    2  N1  UNL     1      -1.621  -0.825  -1.099  1.00  0.00    -0.340 N 
ATOM      3  H1  UNL     1      -2.351  -1.507  -1.302  1.00  0.00     0.167 HD
HETATM    4  C8  UNL     1      -0.834  -0.857  -0.022  1.00  0.00     0.061 A 
HETATM    5  C9  UNL     1      -0.703  -1.682   1.078  1.00  0.00     0.047 A 
HETATM    6  C10 UNL     1       0.238  -1.446   2.061  1.00  0.00     0.010 A 
HETATM    7  C23 UNL     1       1.090  -0.364   1.978  1.00  0.00     0.017 A 
HETATM    8  C24 UNL     1       0.960   0.458   0.882  1.00  0.00     0.033 A 
HETATM    9  C25 UNL     1       0.017   0.225  -0.107  1.00  0.00     0.060 A 
HETATM   10  N6  UNL     1      -0.313   0.860  -1.255  1.00  0.00    -0.340 N 
ATOM     11  H6  UNL     1       0.141   1.705  -1.600  1.00  0.00     0.167 HD
ENDROOT
BRANCH   6  12
HETATM   12  C11 UNL     1       0.341  -2.353   3.217  1.00  0.00     0.116 A 
HETATM   13  N2  UNL     1       1.117  -2.222   4.301  1.00  0.00    -0.340 N 
HETATM   14  C12 UNL     1       0.933  -3.254   5.145  1.00  0.00     0.060 A 
ATOM     15  H2  UNL     1       1.758  -1.446   4.464  1.00  0.00     0.167 HD
HETATM   16  C13 UNL     1       1.435  -3.638   6.362  1.00  0.00     0.034 A 
HETATM   17  C22 UNL     1      -0.014  -4.076   4.548  1.00  0.00     0.062 A 
HETATM   18  C14 UNL     1       1.028  -4.808   7.002  1.00  0.00     0.031 A 
HETATM   19  C15 UNL     1       0.092  -5.638   6.431  1.00  0.00     0.032 A 
HETATM   20  C21 UNL     1      -0.402  -5.220   5.189  1.00  0.00     0.061 A 
HETATM   21  N5  UNL     1      -0.349  -3.495   3.379  1.00  0.00    -0.340 N 
ATOM     22  H5  UNL     1      -1.027  -3.868   2.715  1.00  0.00     0.167 HD
BRANCH  19  23
HETATM   23  N3  UNL     1      -0.372  -6.838   7.029  1.00  0.00    -0.377 N 
HETATM   24  C16 UNL     1       0.446  -7.397   8.093  1.00  0.00     0.153 C 
HETATM   25  C17 UNL     1      -0.195  -8.432   8.921  1.00  0.00     0.291 C 
HETATM   26  N4  UNL     1      -1.480  -8.896   8.524  1.00  0.00     0.087 N 
HETATM   27  C18 UNL     1      -2.251  -9.459   9.615  1.00  0.00     0.310 C 
HETATM   28  C19 UNL     1      -2.309  -7.876   7.918  1.00  0.00     0.291 C 
HETATM   29  C20 UNL     1      -1.585  -7.491   6.615  1.00  0.00     0.153 C 
ENDBRANCH  19  23
ENDBRANCH   6  12
BRANCH   1  30
HETATM   30  C6  UNL     1      -1.953   0.617  -3.157  1.00  0.00     0.008 A 
HETATM   31  C5  UNL     1      -3.207   0.219  -3.501  1.00  0.00     0.018 A 
HETATM   32  C4  UNL     1      -3.765   0.613  -4.716  1.00  0.00     0.037 A 
HETATM   33  C3  UNL     1      -3.042   1.408  -5.571  1.00  0.00     0.068 A 
HETATM   34  C27 UNL     1      -1.784   1.810  -5.230  1.00  0.00     0.037 A 
HETATM   35  C26 UNL     1      -1.241   1.416  -4.027  1.00  0.00     0.018 A 
BRANCH  33  36
HETATM   36  O1  UNL     1      -3.564   1.823  -6.793  1.00  0.00    -0.352 OA
BRANCH  36  37
HETATM   37  C2  UNL     1      -4.800   1.363  -7.264  1.00  0.00     0.171 C 
HETATM   38  C1  UNL     1      -4.558   0.313  -8.318  1.00  0.00     0.034 C 
ENDBRANCH  36  37
ENDBRANCH  33  36
ENDBRANCH   1  30
TORSDOF 5
ENDMDL
