MODEL 8
REMARK VINA RESULT: -11.742548675      1.823      3.264
REMARK  5 active torsions:
REMARK  status: ('A' for Active; 'I' for Inactive)
REMARK    1  A    between atoms: C2_2  and  O1_3 
REMARK    2  A    between atoms: O1_3  and  C3_4 
REMARK    3  A    between atoms: C6_7  and  C7_8 
REMARK    4  A    between atoms: C10_13  and  C11_14 
REMARK    5  A    between atoms: C15_20  and  N3_21 
ROOT
HETATM    1  C7  UNL     1       0.458  -3.046   4.107  1.00  0.00     0.116 A 
HETATM    2  N1  UNL     1      -0.459  -3.032   3.126  1.00  0.00    -0.340 N 
ATOM      3  H1  UNL     1      -1.254  -3.668   3.067  1.00  0.00     0.167 HD
HETATM    4  C8  UNL     1      -0.190  -2.073   2.237  1.00  0.00     0.061 A 
HETATM    5  C9  UNL     1      -0.772  -1.620   1.070  1.00  0.00     0.047 A 
HETATM    6  C10 UNL     1      -0.241  -0.570   0.347  1.00  0.00     0.010 A 
HETATM    7  C23 UNL     1       0.906   0.070   0.769  1.00  0.00     0.017 A 
HETATM    8  C24 UNL     1       1.487  -0.382   1.933  1.00  0.00     0.033 A 
HETATM    9  C25 UNL     1       0.956  -1.434   2.663  1.00  0.00     0.060 A 
HETATM   10  N6  UNL     1       1.319  -2.058   3.806  1.00  0.00    -0.340 N 
ATOM     11  H6  UNL     1       2.136  -1.813   4.365  1.00  0.00     0.167 HD
ENDROOT
BRANCH   6  12
HETATM   12  C11 UNL     1      -0.896  -0.122  -0.894  1.00  0.00     0.116 A 
HETATM   13  N2  UNL     1      -0.606   0.954  -1.637  1.00  0.00    -0.340 N 
HETATM   14  C12 UNL     1      -1.425   1.031  -2.702  1.00  0.00     0.060 A 
ATOM     15  H2  UNL     1       0.134   1.622  -1.425  1.00  0.00     0.167 HD
HETATM   16  C13 UNL     1      -1.590   1.884  -3.764  1.00  0.00     0.034 A 
HETATM   17  C22 UNL     1      -2.276  -0.063  -2.614  1.00  0.00     0.062 A 
HETATM   18  C14 UNL     1      -2.568   1.684  -4.737  1.00  0.00     0.031 A 
HETATM   19  C15 UNL     1      -3.422   0.607  -4.672  1.00  0.00     0.032 A 
HETATM   20  C21 UNL     1      -3.230  -0.244  -3.577  1.00  0.00     0.061 A 
HETATM   21  N5  UNL     1      -1.923  -0.739  -1.503  1.00  0.00    -0.340 N 
ATOM     22  H5  UNL     1      -2.370  -1.594  -1.173  1.00  0.00     0.167 HD
BRANCH  19  23
HETATM   23  N3  UNL     1      -4.433   0.340  -5.630  1.00  0.00    -0.377 N 
HETATM   24  C16 UNL     1      -5.469  -0.603  -5.243  1.00  0.00     0.153 C 
HETATM   25  C17 UNL     1      -6.673  -0.621  -6.092  1.00  0.00     0.291 C 
HETATM   26  N4  UNL     1      -6.657   0.160  -7.280  1.00  0.00     0.087 N 
HETATM   27  C18 UNL     1      -7.980   0.528  -7.744  1.00  0.00     0.310 C 
HETATM   28  C19 UNL     1      -5.907   1.393  -7.160  1.00  0.00     0.291 C 
HETATM   29  C20 UNL     1      -4.449   0.955  -6.931  1.00  0.00     0.153 C 
ENDBRANCH  19  23
ENDBRANCH   6  12
BRANCH   1  30
HETATM   30  C6  UNL     1       0.521  -3.947   5.276  1.00  0.00     0.008 A 
HETATM   31  C5  UNL     1       1.320  -3.698   6.348  1.00  0.00     0.018 A 
HETATM   32  C4  UNL     1       1.346  -4.575   7.429  1.00  0.00     0.037 A 
HETATM   33  C3  UNL     1       0.558  -5.700   7.413  1.00  0.00     0.068 A 
HETATM   34  C27 UNL     1      -0.246  -5.955   6.341  1.00  0.00     0.037 A 
HETATM   35  C26 UNL     1      -0.265  -5.081   5.275  1.00  0.00     0.018 A 
BRANCH  33  36
HETATM   36  O1  UNL     1       0.555  -6.602   8.474  1.00  0.00    -0.352 OA
BRANCH  36  37
HETATM   37  C2  UNL     1      -0.050  -7.861   8.373  1.00  0.00     0.171 C 
HETATM   38  C1  UNL     1       0.323  -8.677   9.584  1.00  0.00     0.034 C 
ENDBRANCH  36  37
ENDBRANCH  33  36
ENDBRANCH   1  30
TORSDOF 5
ENDMDL
