MODEL 3
REMARK VINA RESULT: -6.079768603      2.847      4.994
REMARK  9 active torsions:
REMARK  status: ('A' for Active; 'I' for Inactive)
REMARK    1  A    between atoms: O1_2  and  C2_3 
REMARK    2  A    between atoms: C4_5  and  O2_6 
REMARK    3  A    between atoms: C5_8  and  C6_9 
REMARK    4  A    between atoms: C6_9  and  C7_10 
REMARK    5  A    between atoms: C7_10  and  C8_11 
REMARK    6  A    between atoms: C10_15  and  C11_16 
REMARK    7  A    between atoms: C11_16  and  O5_17 
REMARK    8  A    between atoms: C11_16  and  C12_19 
REMARK    9  A    between atoms: C12_19  and  C13_20 
ROOT
HETATM    1  C2  UNL     1      -2.399   7.089  13.599  1.00  0.00     0.079 A 
HETATM    2  C3  UNL     1      -1.763   6.238  14.474  1.00  0.00     0.074 A 
HETATM    3  C4  UNL     1      -2.248   4.964  14.692  1.00  0.00     0.074 A 
HETATM    4  C5  UNL     1      -3.385   4.510  14.035  1.00  0.00    -0.024 A 
HETATM    5  C9  UNL     1      -4.006   5.377  13.164  1.00  0.00     0.022 A 
HETATM    6  C10 UNL     1      -3.541   6.657  12.931  1.00  0.00     0.004 A 
ENDROOT
BRANCH   6   7
HETATM    7  C11 UNL     1      -4.166   7.615  12.021  1.00  0.00     0.154 C 
BRANCH   7   8
HETATM    8  O5  UNL     1      -3.247   8.011  11.069  1.00  0.00    -0.391 OA
ATOM      9  H5  UNL     1      -2.550   8.502  11.488  1.00  0.00     0.210 HD
ENDBRANCH   7   8
BRANCH   7  10
HETATM   10  C12 UNL     1      -5.459   7.138  11.423  1.00  0.00     0.040 C 
BRANCH  10  11
HETATM   11  C13 UNL     1      -6.546   8.193  11.560  1.00  0.00    -0.020 C 
HETATM   12  C14 UNL     1      -7.713   7.706  12.353  1.00  0.00     0.009 C 
HETATM   13  C15 UNL     1      -7.001   8.723  10.226  1.00  0.00     0.009 C 
ENDBRANCH  10  11
ENDBRANCH   7  10
ENDBRANCH   6   7
BRANCH   1  14
HETATM   14  O1  UNL     1      -1.896   8.385  13.383  1.00  0.00    -0.355 OA
HETATM   15  C1  UNL     1      -1.242   9.051  14.437  1.00  0.00     0.210 C 
ENDBRANCH   1  14
BRANCH   4  16
HETATM   16  C6  UNL     1      -3.858   3.131  14.309  1.00  0.00     0.052 C 
BRANCH  16  17
HETATM   17  C7  UNL     1      -5.036   2.829  13.432  1.00  0.00     0.118 C 
BRANCH  17  18
HETATM   18  C8  UNL     1      -4.665   1.962  12.281  1.00  0.00     0.172 C 
HETATM   19  O3  UNL     1      -3.542   1.413  12.310  1.00  0.00    -0.648 OA
HETATM   20  O4  UNL     1      -5.482   1.730  11.191  1.00  0.00    -0.648 OA
ENDBRANCH  17  18
ENDBRANCH  16  17
ENDBRANCH   4  16
BRANCH   3  21
HETATM   21  O2  UNL     1      -1.615   4.096  15.573  1.00  0.00    -0.360 OA
ATOM     22  H2  UNL     1      -2.045   3.305  15.877  1.00  0.00     0.217 HD
ENDBRANCH   3  21
TORSDOF 9
ENDMDL
