MODEL 1
REMARK VINA RESULT: -6.639565252      0.000      0.000
REMARK  9 active torsions:
REMARK  status: ('A' for Active; 'I' for Inactive)
REMARK    1  A    between atoms: O1_2  and  C2_3 
REMARK    2  A    between atoms: C4_5  and  O2_6 
REMARK    3  A    between atoms: C5_8  and  C6_9 
REMARK    4  A    between atoms: C6_9  and  C7_10 
REMARK    5  A    between atoms: C7_10  and  C8_11 
REMARK    6  A    between atoms: C10_15  and  C11_16 
REMARK    7  A    between atoms: C11_16  and  O5_17 
REMARK    8  A    between atoms: C11_16  and  C12_19 
REMARK    9  A    between atoms: C12_19  and  C13_20 
ROOT
HETATM    1  C2  UNL     1      -4.341   3.417  11.759  1.00  0.00     0.079 A 
HETATM    2  C3  UNL     1      -4.336   2.053  11.577  1.00  0.00     0.074 A 
HETATM    3  C4  UNL     1      -4.452   1.200  12.656  1.00  0.00     0.074 A 
HETATM    4  C5  UNL     1      -4.576   1.695  13.948  1.00  0.00    -0.024 A 
HETATM    5  C9  UNL     1      -4.579   3.063  14.108  1.00  0.00     0.022 A 
HETATM    6  C10 UNL     1      -4.464   3.937  13.045  1.00  0.00     0.004 A 
ENDROOT
BRANCH   6   7
HETATM    7  C11 UNL     1      -4.457   5.394  13.163  1.00  0.00     0.154 C 
BRANCH   7   8
HETATM    8  O5  UNL     1      -5.726   5.881  12.917  1.00  0.00    -0.391 OA
ATOM      9  H5  UNL     1      -5.671   6.796  12.667  1.00  0.00     0.210 HD
ENDBRANCH   7   8
BRANCH   7  10
HETATM   10  C12 UNL     1      -3.877   5.900  14.452  1.00  0.00     0.040 C 
BRANCH  10  11
HETATM   11  C13 UNL     1      -2.368   6.066  14.345  1.00  0.00    -0.020 C 
HETATM   12  C14 UNL     1      -1.627   4.949  15.001  1.00  0.00     0.009 C 
HETATM   13  C15 UNL     1      -1.898   7.394  14.875  1.00  0.00     0.009 C 
ENDBRANCH  10  11
ENDBRANCH   7  10
ENDBRANCH   6   7
BRANCH   1  14
HETATM   14  O1  UNL     1      -4.224   4.278  10.653  1.00  0.00    -0.355 OA
HETATM   15  C1  UNL     1      -3.091   4.178   9.823  1.00  0.00     0.210 C 
ENDBRANCH   1  14
BRANCH   4  16
HETATM   16  C6  UNL     1      -4.698   0.730  15.067  1.00  0.00     0.052 C 
BRANCH  16  17
HETATM   17  C7  UNL     1      -5.216   1.443  16.281  1.00  0.00     0.118 C 
BRANCH  17  18
HETATM   18  C8  UNL     1      -6.227   0.634  17.013  1.00  0.00     0.172 C 
HETATM   19  O3  UNL     1      -5.827  -0.393  17.605  1.00  0.00    -0.648 OA
HETATM   20  O4  UNL     1      -7.572   0.947  17.077  1.00  0.00    -0.648 OA
ENDBRANCH  17  18
ENDBRANCH  16  17
ENDBRANCH   4  16
BRANCH   3  21
HETATM   21  O2  UNL     1      -4.448  -0.179  12.485  1.00  0.00    -0.360 OA
ATOM     22  H2  UNL     1      -4.119  -0.756  13.163  1.00  0.00     0.217 HD
ENDBRANCH   3  21
TORSDOF 9
ENDMDL
