MODEL 2
REMARK VINA RESULT: -6.177035671      1.554      2.064
REMARK  9 active torsions:
REMARK  status: ('A' for Active; 'I' for Inactive)
REMARK    1  A    between atoms: O1_2  and  C2_3 
REMARK    2  A    between atoms: C4_5  and  O2_6 
REMARK    3  A    between atoms: C5_8  and  C6_9 
REMARK    4  A    between atoms: C6_9  and  C7_10 
REMARK    5  A    between atoms: C7_10  and  C8_11 
REMARK    6  A    between atoms: C10_15  and  C11_16 
REMARK    7  A    between atoms: C11_16  and  O5_17 
REMARK    8  A    between atoms: C11_16  and  C12_19 
REMARK    9  A    between atoms: C12_19  and  C13_20 
ROOT
HETATM    1  C2  UNL     1      -3.731   5.004  10.845  1.00  0.00     0.079 A 
HETATM    2  C3  UNL     1      -4.012   3.757  10.333  1.00  0.00     0.074 A 
HETATM    3  C4  UNL     1      -4.304   2.702  11.174  1.00  0.00     0.074 A 
HETATM    4  C5  UNL     1      -4.324   2.871  12.553  1.00  0.00    -0.024 A 
HETATM    5  C9  UNL     1      -4.041   4.126  13.045  1.00  0.00     0.022 A 
HETATM    6  C10 UNL     1      -3.745   5.197  12.225  1.00  0.00     0.004 A 
ENDROOT
BRANCH   6   7
HETATM    7  C11 UNL     1      -3.433   6.545  12.697  1.00  0.00     0.154 C 
BRANCH   7   8
HETATM    8  O5  UNL     1      -4.426   7.414  12.290  1.00  0.00    -0.391 OA
ATOM      9  H5  UNL     1      -4.268   8.273  12.666  1.00  0.00     0.210 HD
ENDBRANCH   7   8
BRANCH   7  10
HETATM   10  C12 UNL     1      -3.152   6.627  14.170  1.00  0.00     0.040 C 
BRANCH  10  11
HETATM   11  C13 UNL     1      -1.812   7.299  14.434  1.00  0.00    -0.020 C 
HETATM   12  C14 UNL     1      -1.960   8.592  15.163  1.00  0.00     0.009 C 
HETATM   13  C15 UNL     1      -1.011   7.492  13.174  1.00  0.00     0.009 C 
ENDBRANCH  10  11
ENDBRANCH   7  10
ENDBRANCH   6   7
BRANCH   1  14
HETATM   14  O1  UNL     1      -3.436   6.073   9.981  1.00  0.00    -0.355 OA
HETATM   15  C1  UNL     1      -4.237   6.273   8.840  1.00  0.00     0.210 C 
ENDBRANCH   1  14
BRANCH   4  16
HETATM   16  C6  UNL     1      -4.646   1.700  13.405  1.00  0.00     0.052 C 
BRANCH  16  17
HETATM   17  C7  UNL     1      -4.829   2.156  14.822  1.00  0.00     0.118 C 
BRANCH  17  18
HETATM   18  C8  UNL     1      -4.915   1.011  15.768  1.00  0.00     0.172 C 
HETATM   19  O3  UNL     1      -3.861   0.387  16.016  1.00  0.00    -0.648 OA
HETATM   20  O4  UNL     1      -6.082   0.602  16.384  1.00  0.00    -0.648 OA
ENDBRANCH  17  18
ENDBRANCH  16  17
ENDBRANCH   4  16
BRANCH   3  21
HETATM   21  O2  UNL     1      -4.588   1.439  10.669  1.00  0.00    -0.360 OA
ATOM     22  H2  UNL     1      -4.573   0.672  11.229  1.00  0.00     0.217 HD
ENDBRANCH   3  21
TORSDOF 9
ENDMDL
