MODEL 5
REMARK VINA RESULT: -8.871743903      3.917      9.807
REMARK  9 active torsions:
REMARK  status: ('A' for Active; 'I' for Inactive)
REMARK    1  A    between atoms: O1_2  and  C2_3 
REMARK    2  A    between atoms: C10_12  and  O3_13 
REMARK    3  A    between atoms: C13_17  and  O4_18 
REMARK    4  A    between atoms: C17_24  and  O6_25 
REMARK    5  A    between atoms: C17_24  and  C18_27 
REMARK    6  A    between atoms: C21_31  and  O8_32 
REMARK    7  A    between atoms: O8_32  and  C22_33 
REMARK    8  A    between atoms: C24_35  and  N1_36 
REMARK    9  A    between atoms: C25_40  and  O9_41 
ROOT
HETATM    1  C2  UNL     1      20.334  38.247  51.496  1.00  0.00     0.083 A 
HETATM    2  C3  UNL     1      19.751  38.036  52.728  1.00  0.00     0.038 A 
HETATM    3  C4  UNL     1      19.153  36.812  53.016  1.00  0.00     0.004 A 
HETATM    4  C5  UNL     1      19.174  35.847  52.031  1.00  0.00     0.017 A 
HETATM    5  C6  UNL     1      19.751  36.037  50.794  1.00  0.00     0.032 A 
HETATM    6  C7  UNL     1      20.343  37.264  50.522  1.00  0.00     0.062 A 
HETATM    7  C8  UNL     1      20.966  37.486  49.204  1.00  0.00     0.200 A 
HETATM    8  O2  UNL     1      21.491  38.604  48.992  1.00  0.00    -0.286 OA
HETATM    9  C9  UNL     1      20.949  36.420  48.213  1.00  0.00     0.066 A 
HETATM   10  C10 UNL     1      21.555  36.681  46.974  1.00  0.00     0.090 A 
HETATM   11  C11 UNL     1      21.561  35.707  46.015  1.00  0.00     0.014 A 
HETATM   12  C12 UNL     1      20.967  34.471  46.282  1.00  0.00    -0.009 A 
HETATM   13  C13 UNL     1      20.365  34.181  47.486  1.00  0.00     0.088 A 
HETATM   14  C14 UNL     1      20.370  35.196  48.458  1.00  0.00     0.066 A 
HETATM   15  C15 UNL     1      19.757  34.992  49.768  1.00  0.00     0.197 A 
HETATM   16  O5  UNL     1      19.230  33.880  49.990  1.00  0.00    -0.286 OA
HETATM   17  C16 UNL     1      21.027  33.486  45.181  1.00  0.00     0.088 C 
HETATM   18  C17 UNL     1      20.501  34.179  43.940  1.00  0.00     0.124 C 
HETATM   19  C20 UNL     1      21.182  35.467  43.634  1.00  0.00     0.083 C 
HETATM   20  C21 UNL     1      22.180  35.907  44.686  1.00  0.00     0.164 C 
ENDROOT
BRANCH  20  21
HETATM   21  O8  UNL     1      23.362  35.148  44.600  1.00  0.00    -0.351 OA
BRANCH  21  22
HETATM   22  C22 UNL     1      23.822  35.241  43.314  1.00  0.00     0.263 C 
HETATM   23  C23 UNL     1      24.924  36.288  43.153  1.00  0.00     0.096 C 
HETATM   24  C24 UNL     1      25.140  36.452  41.680  1.00  0.00     0.219 C 
HETATM   25  C25 UNL     1      25.436  35.142  41.038  1.00  0.00     0.177 C 
HETATM   26  C26 UNL     1      24.618  33.999  41.531  1.00  0.00     0.151 C 
HETATM   27  C27 UNL     1      23.364  33.772  40.677  1.00  0.00     0.042 C 
HETATM   28  O10 UNL     1      24.316  34.039  42.872  1.00  0.00    -0.354 OA
BRANCH  24  29
HETATM   29  N1  UNL     1      24.054  37.179  41.089  1.00  0.00    -0.072 N 
ATOM     30  H13 UNL     1      23.168  36.979  41.553  1.00  0.00     0.274 HD
ATOM     31  H12 UNL     1      24.111  38.177  41.293  1.00  0.00     0.274 HD
ATOM     32  H11 UNL     1      24.006  36.999  40.087  1.00  0.00     0.274 HD
ENDBRANCH  24  29
BRANCH  25  33
HETATM   33  O9  UNL     1      25.337  35.180  39.648  1.00  0.00    -0.391 OA
ATOM     34  H9  UNL     1      24.594  34.691  39.314  1.00  0.00     0.210 HD
ENDBRANCH  25  33
ENDBRANCH  21  22
ENDBRANCH  20  21
BRANCH  10  35
HETATM   35  O3  UNL     1      22.117  37.907  46.776  1.00  0.00    -0.359 OA
ATOM     36  H3  UNL     1      21.880  38.390  45.992  1.00  0.00     0.217 HD
ENDBRANCH  10  35
BRANCH  18  37
HETATM   37  O6  UNL     1      20.669  33.340  42.816  1.00  0.00    -0.382 OA
ATOM     38  H6  UNL     1      19.902  33.394  42.258  1.00  0.00     0.211 HD
ENDBRANCH  18  37
BRANCH  18  39
HETATM   39  C18 UNL     1      19.045  34.419  44.151  1.00  0.00     0.157 C 
HETATM   40  C19 UNL     1      18.109  33.273  44.304  1.00  0.00     0.094 C 
HETATM   41  O7  UNL     1      18.680  35.589  44.189  1.00  0.00    -0.295 OA
ENDBRANCH  18  39
BRANCH  13  42
HETATM   42  O4  UNL     1      19.775  32.991  47.790  1.00  0.00    -0.359 OA
ATOM     43  H4  UNL     1      19.114  32.873  48.463  1.00  0.00     0.217 HD
ENDBRANCH  13  42
BRANCH   1  44
HETATM   44  O1  UNL     1      20.949  39.454  51.150  1.00  0.00    -0.355 OA
HETATM   45  C1  UNL     1      21.838  40.029  52.089  1.00  0.00     0.210 C 
ENDBRANCH   1  44
TORSDOF 9
ENDMDL
