MODEL 4
REMARK VINA RESULT: -8.921457486      4.124      9.538
REMARK  9 active torsions:
REMARK  status: ('A' for Active; 'I' for Inactive)
REMARK    1  A    between atoms: O1_2  and  C2_3 
REMARK    2  A    between atoms: C10_12  and  O3_13 
REMARK    3  A    between atoms: C13_17  and  O4_18 
REMARK    4  A    between atoms: C17_24  and  O6_25 
REMARK    5  A    between atoms: C17_24  and  C18_27 
REMARK    6  A    between atoms: C21_31  and  O8_32 
REMARK    7  A    between atoms: O8_32  and  C22_33 
REMARK    8  A    between atoms: C24_35  and  N1_36 
REMARK    9  A    between atoms: C25_40  and  O9_41 
ROOT
HETATM    1  C2  UNL     1      19.539  38.230  50.092  1.00  0.00     0.083 A 
HETATM    2  C3  UNL     1      20.147  38.885  51.144  1.00  0.00     0.038 A 
HETATM    3  C4  UNL     1      21.495  39.221  51.069  1.00  0.00     0.004 A 
HETATM    4  C5  UNL     1      22.174  38.876  49.919  1.00  0.00     0.017 A 
HETATM    5  C6  UNL     1      21.587  38.222  48.858  1.00  0.00     0.032 A 
HETATM    6  C7  UNL     1      20.240  37.892  48.948  1.00  0.00     0.062 A 
HETATM    7  C8  UNL     1      19.593  37.193  47.823  1.00  0.00     0.200 A 
HETATM    8  O2  UNL     1      18.378  36.911  47.937  1.00  0.00    -0.286 OA
HETATM    9  C9  UNL     1      20.374  36.860  46.640  1.00  0.00     0.066 A 
HETATM   10  C10 UNL     1      19.712  36.194  45.597  1.00  0.00     0.090 A 
HETATM   11  C11 UNL     1      20.409  35.862  44.469  1.00  0.00     0.014 A 
HETATM   12  C12 UNL     1      21.764  36.190  44.371  1.00  0.00    -0.009 A 
HETATM   13  C13 UNL     1      22.443  36.843  45.375  1.00  0.00     0.088 A 
HETATM   14  C14 UNL     1      21.708  37.175  46.526  1.00  0.00     0.066 A 
HETATM   15  C15 UNL     1      22.334  37.868  47.650  1.00  0.00     0.197 A 
HETATM   16  O5  UNL     1      23.547  38.154  47.546  1.00  0.00    -0.286 OA
HETATM   17  C16 UNL     1      22.426  35.789  43.111  1.00  0.00     0.088 C 
HETATM   18  C17 UNL     1      22.121  34.320  42.902  1.00  0.00     0.124 C 
HETATM   19  C20 UNL     1      20.669  33.992  42.950  1.00  0.00     0.083 C 
HETATM   20  C21 UNL     1      19.781  35.161  43.327  1.00  0.00     0.164 C 
ENDROOT
BRANCH  20  21
HETATM   21  O8  UNL     1      19.645  36.052  42.245  1.00  0.00    -0.351 OA
BRANCH  21  22
HETATM   22  C22 UNL     1      18.995  35.389  41.240  1.00  0.00     0.263 C 
HETATM   23  C23 UNL     1      17.625  34.863  41.667  1.00  0.00     0.096 C 
HETATM   24  C24 UNL     1      17.157  33.960  40.567  1.00  0.00     0.219 C 
HETATM   25  C25 UNL     1      17.165  34.670  39.258  1.00  0.00     0.177 C 
HETATM   26  C26 UNL     1      18.344  35.550  39.026  1.00  0.00     0.151 C 
HETATM   27  C27 UNL     1      19.470  34.826  38.277  1.00  0.00     0.042 C 
HETATM   28  O10 UNL     1      18.813  36.196  40.145  1.00  0.00    -0.354 OA
BRANCH  24  29
HETATM   29  N1  UNL     1      17.885  32.724  40.585  1.00  0.00    -0.072 N 
ATOM     30  H13 UNL     1      18.757  32.806  41.108  1.00  0.00     0.274 HD
ATOM     31  H12 UNL     1      17.425  32.022  41.164  1.00  0.00     0.274 HD
ATOM     32  H11 UNL     1      18.043  32.388  39.635  1.00  0.00     0.274 HD
ENDBRANCH  24  29
BRANCH  25  33
HETATM   33  O9  UNL     1      17.044  33.809  38.169  1.00  0.00    -0.391 OA
ATOM     34  H9  UNL     1      17.610  34.044  37.443  1.00  0.00     0.210 HD
ENDBRANCH  25  33
ENDBRANCH  21  22
ENDBRANCH  20  21
BRANCH  10  35
HETATM   35  O3  UNL     1      18.390  35.902  45.753  1.00  0.00    -0.359 OA
ATOM     36  H3  UNL     1      18.117  35.456  46.547  1.00  0.00     0.217 HD
ENDBRANCH  10  35
BRANCH  18  37
HETATM   37  O6  UNL     1      22.601  33.907  41.639  1.00  0.00    -0.382 OA
ATOM     38  H6  UNL     1      22.300  34.509  40.968  1.00  0.00     0.211 HD
ENDBRANCH  18  37
BRANCH  18  39
HETATM   39  C18 UNL     1      22.841  33.561  43.964  1.00  0.00     0.157 C 
HETATM   40  C19 UNL     1      22.126  32.535  44.769  1.00  0.00     0.094 C 
HETATM   41  O7  UNL     1      24.026  33.831  44.125  1.00  0.00    -0.295 OA
ENDBRANCH  18  39
BRANCH  13  42
HETATM   42  O4  UNL     1      23.762  37.183  45.324  1.00  0.00    -0.359 OA
ATOM     43  H4  UNL     1      24.409  36.934  45.973  1.00  0.00     0.217 HD
ENDBRANCH  13  42
BRANCH   1  44
HETATM   44  O1  UNL     1      18.189  37.867  50.111  1.00  0.00    -0.355 OA
HETATM   45  C1  UNL     1      17.310  38.653  50.893  1.00  0.00     0.210 C 
ENDBRANCH   1  44
TORSDOF 9
ENDMDL
