MODEL 2
REMARK VINA RESULT: -9.109316453      3.142      6.087
REMARK  9 active torsions:
REMARK  status: ('A' for Active; 'I' for Inactive)
REMARK    1  A    between atoms: O1_2  and  C2_3 
REMARK    2  A    between atoms: C10_12  and  O3_13 
REMARK    3  A    between atoms: C13_17  and  O4_18 
REMARK    4  A    between atoms: C17_24  and  O6_25 
REMARK    5  A    between atoms: C17_24  and  C18_27 
REMARK    6  A    between atoms: C21_31  and  O8_32 
REMARK    7  A    between atoms: O8_32  and  C22_33 
REMARK    8  A    between atoms: C24_35  and  N1_36 
REMARK    9  A    between atoms: C25_40  and  O9_41 
ROOT
HETATM    1  C2  UNL     1      25.493  36.720  42.238  1.00  0.00     0.083 A 
HETATM    2  C3  UNL     1      25.795  36.561  40.900  1.00  0.00     0.038 A 
HETATM    3  C4  UNL     1      24.800  36.187  40.002  1.00  0.00     0.004 A 
HETATM    4  C5  UNL     1      23.531  35.988  40.504  1.00  0.00     0.017 A 
HETATM    5  C6  UNL     1      23.209  36.141  41.835  1.00  0.00     0.032 A 
HETATM    6  C7  UNL     1      24.213  36.515  42.720  1.00  0.00     0.062 A 
HETATM    7  C8  UNL     1      23.887  36.683  44.148  1.00  0.00     0.200 A 
HETATM    8  O2  UNL     1      24.816  37.021  44.918  1.00  0.00    -0.286 OA
HETATM    9  C9  UNL     1      22.524  36.456  44.605  1.00  0.00     0.066 A 
HETATM   10  C10 UNL     1      22.266  36.629  45.974  1.00  0.00     0.090 A 
HETATM   11  C11 UNL     1      20.999  36.425  46.445  1.00  0.00     0.014 A 
HETATM   12  C12 UNL     1      19.984  36.048  45.562  1.00  0.00    -0.009 A 
HETATM   13  C13 UNL     1      20.204  35.870  44.214  1.00  0.00     0.088 A 
HETATM   14  C14 UNL     1      21.512  36.085  43.750  1.00  0.00     0.066 A 
HETATM   15  C15 UNL     1      21.852  35.922  42.338  1.00  0.00     0.197 A 
HETATM   16  O5  UNL     1      20.932  35.585  41.560  1.00  0.00    -0.286 OA
HETATM   17  C16 UNL     1      18.651  35.853  46.170  1.00  0.00     0.088 C 
HETATM   18  C17 UNL     1      18.836  34.915  47.346  1.00  0.00     0.124 C 
HETATM   19  C20 UNL     1      19.880  35.358  48.311  1.00  0.00     0.083 C 
HETATM   20  C21 UNL     1      20.649  36.588  47.874  1.00  0.00     0.164 C 
ENDROOT
BRANCH  20  21
HETATM   21  O8  UNL     1      19.867  37.748  48.036  1.00  0.00    -0.351 OA
BRANCH  21  22
HETATM   22  C22 UNL     1      19.397  37.755  49.321  1.00  0.00     0.263 C 
HETATM   23  C23 UNL     1      20.379  38.387  50.308  1.00  0.00     0.096 C 
HETATM   24  C24 UNL     1      19.848  38.097  51.678  1.00  0.00     0.219 C 
HETATM   25  C25 UNL     1      18.444  38.571  51.815  1.00  0.00     0.177 C 
HETATM   26  C26 UNL     1      17.576  38.324  50.630  1.00  0.00     0.151 C 
HETATM   27  C27 UNL     1      16.802  37.004  50.744  1.00  0.00     0.042 C 
HETATM   28  O10 UNL     1      18.209  38.436  49.415  1.00  0.00    -0.354 OA
BRANCH  24  29
HETATM   29  N1  UNL     1      20.051  36.717  52.015  1.00  0.00    -0.072 N 
ATOM     30  H13 UNL     1      19.343  36.378  52.666  1.00  0.00     0.274 HD
ATOM     31  H12 UNL     1      19.843  36.101  51.229  1.00  0.00     0.274 HD
ATOM     32  H11 UNL     1      20.995  36.571  52.372  1.00  0.00     0.274 HD
ENDBRANCH  24  29
BRANCH  25  33
HETATM   33  O9  UNL     1      17.800  38.059  52.940  1.00  0.00    -0.391 OA
ATOM     34  H9  UNL     1      16.861  37.971  52.825  1.00  0.00     0.210 HD
ENDBRANCH  25  33
ENDBRANCH  21  22
ENDBRANCH  20  21
BRANCH  10  35
HETATM   35  O3  UNL     1      23.298  36.997  46.785  1.00  0.00    -0.359 OA
ATOM     36  H3  UNL     1      24.183  36.774  46.517  1.00  0.00     0.217 HD
ENDBRANCH  10  35
BRANCH  18  37
HETATM   37  O6  UNL     1      17.625  34.802  48.063  1.00  0.00    -0.382 OA
ATOM     38  H6  UNL     1      17.796  34.867  48.995  1.00  0.00     0.211 HD
ENDBRANCH  18  37
BRANCH  18  39
HETATM   39  C18 UNL     1      19.198  33.579  46.794  1.00  0.00     0.157 C 
HETATM   40  C19 UNL     1      18.354  32.945  45.745  1.00  0.00     0.094 C 
HETATM   41  O7  UNL     1      20.207  33.051  47.248  1.00  0.00    -0.295 OA
ENDBRANCH  18  39
BRANCH  13  42
HETATM   42  O4  UNL     1      19.246  35.505  43.315  1.00  0.00    -0.359 OA
ATOM     43  H4  UNL     1      18.953  34.612  43.171  1.00  0.00     0.217 HD
ENDBRANCH  13  42
BRANCH   1  44
HETATM   44  O1  UNL     1      26.450  37.094  43.186  1.00  0.00    -0.355 OA
HETATM   45  C1  UNL     1      27.629  37.720  42.716  1.00  0.00     0.210 C 
ENDBRANCH   1  44
TORSDOF 9
ENDMDL
