MODEL 3
REMARK VINA RESULT: -10.271464712      1.214      2.076
REMARK  12 active torsions:
REMARK  status: ('A' for Active; 'I' for Inactive)
REMARK    1  A    between atoms: C2_2  and  C3_3 
REMARK    2  A    between atoms: C3_3  and  C4_4 
REMARK    3  A    between atoms: C4_4  and  N1_5 
REMARK    4  A    between atoms: N1_5  and  C5_6 
REMARK    5  A    between atoms: N1_5  and  C14_18 
REMARK    6  A    between atoms: C5_6  and  C6_7 
REMARK    7  A    between atoms: C9_11  and  O1_12 
REMARK    8  A    between atoms: C11_14  and  O2_15 
REMARK    9  A    between atoms: C17_21  and  C18_22 
REMARK   10  A    between atoms: C18_22  and  O3_23 
REMARK   11  A    between atoms: C18_22  and  C19_25 
REMARK   12  A    between atoms: C18_22  and  C20_29 
ROOT
HETATM    1  C14 UNL     1      62.584  41.752  23.159  1.00  0.00     0.030 A 
HETATM    2  C15 UNL     1      62.758  41.358  21.837  1.00  0.00     0.030 A 
HETATM    3  C16 UNL     1      62.835  42.254  20.777  1.00  0.00     0.013 A 
HETATM    4  C17 UNL     1      62.745  43.587  20.984  1.00  0.00    -0.006 A 
HETATM    5  C21 UNL     1      62.574  44.035  22.286  1.00  0.00     0.013 A 
HETATM    6  C22 UNL     1      62.496  43.134  23.330  1.00  0.00     0.030 A 
ENDROOT
BRANCH   1   7
HETATM    7  N1  UNL     1      62.514  40.886  24.267  1.00  0.00    -0.377 N 
BRANCH   7   8
HETATM    8  C4  UNL     1      63.452  39.802  24.439  1.00  0.00     0.123 C 
BRANCH   8   9
HETATM    9  C3  UNL     1      62.829  38.456  24.437  1.00  0.00     0.019 C 
BRANCH   9  10
HETATM   10  C2  UNL     1      63.701  37.263  24.535  1.00  0.00    -0.003 C 
HETATM   11  C1  UNL     1      64.902  37.309  23.625  1.00  0.00     0.005 C 
ENDBRANCH   9  10
ENDBRANCH   8   9
ENDBRANCH   7   8
BRANCH   7  12
HETATM   12  C5  UNL     1      61.497  41.088  25.282  1.00  0.00     0.161 C 
BRANCH  12  13
HETATM   13  C6  UNL     1      60.109  41.195  24.835  1.00  0.00    -0.036 A 
HETATM   14  C7  UNL     1      59.141  41.407  25.817  1.00  0.00     0.035 A 
HETATM   15  C8  UNL     1      57.814  41.584  25.475  1.00  0.00     0.070 A 
HETATM   16 CL1  UNL     1      56.622  41.829  26.723  1.00  0.00    -0.081 Cl
HETATM   17  C9  UNL     1      57.436  41.553  24.149  1.00  0.00     0.123 A 
HETATM   18  C11 UNL     1      58.357  41.344  23.140  1.00  0.00     0.103 A 
HETATM   19  C13 UNL     1      59.669  41.175  23.532  1.00  0.00     0.048 A 
BRANCH  17  20
HETATM   20  O1  UNL     1      56.097  41.743  23.801  1.00  0.00    -0.351 OA
HETATM   21  C10 UNL     1      55.229  40.631  23.632  1.00  0.00     0.210 C 
ENDBRANCH  17  20
BRANCH  18  22
HETATM   22  O2  UNL     1      57.947  41.315  21.809  1.00  0.00    -0.353 OA
HETATM   23  C12 UNL     1      57.835  40.136  21.061  1.00  0.00     0.210 C 
ENDBRANCH  18  22
ENDBRANCH  12  13
ENDBRANCH   7  12
ENDBRANCH   1   7
BRANCH   4  24
HETATM   24  C18 UNL     1      62.809  44.569  19.884  1.00  0.00     0.281 C 
BRANCH  24  25
HETATM   25  O3  UNL     1      63.074  45.870  20.401  1.00  0.00    -0.370 OA
ATOM     26  H3  UNL     1      62.333  46.443  20.244  1.00  0.00     0.211 HD
ENDBRANCH  24  25
BRANCH  24  27
HETATM   27  C19 UNL     1      61.552  44.700  19.095  1.00  0.00     0.431 C 
HETATM   28  F1  UNL     1      60.975  43.454  18.809  1.00  0.00    -0.167 F 
HETATM   29  F2  UNL     1      61.657  45.502  18.017  1.00  0.00    -0.167 F 
HETATM   30  F3  UNL     1      60.634  45.316  19.958  1.00  0.00    -0.167 F 
ENDBRANCH  24  27
BRANCH  24  31
HETATM   31  C20 UNL     1      63.941  44.288  18.901  1.00  0.00     0.431 C 
HETATM   32  F4  UNL     1      63.591  43.406  17.924  1.00  0.00    -0.167 F 
HETATM   33  F5  UNL     1      65.109  43.934  19.560  1.00  0.00    -0.167 F 
HETATM   34  F6  UNL     1      64.211  45.498  18.273  1.00  0.00    -0.167 F 
ENDBRANCH  24  31
ENDBRANCH   4  24
TORSDOF 12
ENDMDL
