MODEL 15
REMARK VINA RESULT: -7.942160181      2.661      4.952
REMARK  12 active torsions:
REMARK  status: ('A' for Active; 'I' for Inactive)
REMARK    1  A    between atoms: C2_2  and  C3_3 
REMARK    2  A    between atoms: C3_3  and  C4_4 
REMARK    3  A    between atoms: C4_4  and  N1_5 
REMARK    4  A    between atoms: N1_5  and  C5_6 
REMARK    5  A    between atoms: N1_5  and  C14_18 
REMARK    6  A    between atoms: C5_6  and  C6_7 
REMARK    7  A    between atoms: C9_11  and  O1_12 
REMARK    8  A    between atoms: C11_14  and  O2_15 
REMARK    9  A    between atoms: C17_21  and  C18_22 
REMARK   10  A    between atoms: C18_22  and  O3_23 
REMARK   11  A    between atoms: C18_22  and  C19_25 
REMARK   12  A    between atoms: C18_22  and  C20_29 
ROOT
HETATM    1  C14 UNL     1      59.739  42.435  21.905  1.00  0.00     0.030 A 
HETATM    2  C15 UNL     1      60.236  41.879  20.731  1.00  0.00     0.030 A 
HETATM    3  C16 UNL     1      61.220  42.484  19.957  1.00  0.00     0.013 A 
HETATM    4  C17 UNL     1      61.759  43.669  20.317  1.00  0.00    -0.006 A 
HETATM    5  C21 UNL     1      61.302  44.267  21.483  1.00  0.00     0.013 A 
HETATM    6  C22 UNL     1      60.321  43.658  22.242  1.00  0.00     0.030 A 
ENDROOT
BRANCH   1   7
HETATM    7  N1  UNL     1      58.755  41.858  22.730  1.00  0.00    -0.377 N 
BRANCH   7   8
HETATM    8  C4  UNL     1      57.450  41.508  22.218  1.00  0.00     0.123 C 
BRANCH   8   9
HETATM    9  C3  UNL     1      56.387  41.470  23.251  1.00  0.00     0.019 C 
BRANCH   9  10
HETATM   10  C2  UNL     1      55.429  40.340  23.249  1.00  0.00    -0.003 C 
HETATM   11  C1  UNL     1      54.051  40.706  23.738  1.00  0.00     0.005 C 
ENDBRANCH   9  10
ENDBRANCH   8   9
ENDBRANCH   7   8
BRANCH   7  12
HETATM   12  C5  UNL     1      59.050  41.576  24.122  1.00  0.00     0.161 C 
BRANCH  12  13
HETATM   13  C6  UNL     1      60.340  40.958  24.427  1.00  0.00    -0.036 A 
HETATM   14  C7  UNL     1      60.366  39.568  24.542  1.00  0.00     0.035 A 
HETATM   15  C8  UNL     1      61.555  38.899  24.763  1.00  0.00     0.070 A 
HETATM   16 CL1  UNL     1      61.556  37.163  24.921  1.00  0.00    -0.081 Cl
HETATM   17  C9  UNL     1      62.733  39.608  24.873  1.00  0.00     0.123 A 
HETATM   18  C11 UNL     1      62.758  40.986  24.768  1.00  0.00     0.103 A 
HETATM   19  C13 UNL     1      61.547  41.607  24.545  1.00  0.00     0.048 A 
BRANCH  17  20
HETATM   20  O1  UNL     1      63.935  38.932  25.086  1.00  0.00    -0.351 OA
HETATM   21  C10 UNL     1      64.575  38.240  24.023  1.00  0.00     0.210 C 
ENDBRANCH  17  20
BRANCH  18  22
HETATM   22  O2  UNL     1      63.962  41.678  24.886  1.00  0.00    -0.353 OA
HETATM   23  C12 UNL     1      64.042  43.066  25.043  1.00  0.00     0.210 C 
ENDBRANCH  18  22
ENDBRANCH  12  13
ENDBRANCH   7  12
ENDBRANCH   1   7
BRANCH   4  24
HETATM   24  C18 UNL     1      62.796  44.349  19.516  1.00  0.00     0.281 C 
BRANCH  24  25
HETATM   25  O3  UNL     1      63.273  45.502  20.204  1.00  0.00    -0.370 OA
ATOM     26  H3  UNL     1      64.194  45.640  20.015  1.00  0.00     0.211 HD
ENDBRANCH  24  25
BRANCH  24  27
HETATM   27  C19 UNL     1      62.332  44.838  18.187  1.00  0.00     0.431 C 
HETATM   28  F1  UNL     1      61.593  43.868  17.495  1.00  0.00    -0.167 F 
HETATM   29  F2  UNL     1      63.297  45.409  17.440  1.00  0.00    -0.167 F 
HETATM   30  F3  UNL     1      61.400  45.849  18.468  1.00  0.00    -0.167 F 
ENDBRANCH  24  27
BRANCH  24  31
HETATM   31  C20 UNL     1      64.029  43.482  19.281  1.00  0.00     0.431 C 
HETATM   32  F4  UNL     1      64.006  42.838  18.081  1.00  0.00    -0.167 F 
HETATM   33  F5  UNL     1      64.262  42.631  20.351  1.00  0.00    -0.167 F 
HETATM   34  F6  UNL     1      65.110  44.355  19.248  1.00  0.00    -0.167 F 
ENDBRANCH  24  31
ENDBRANCH   4  24
TORSDOF 12
ENDMDL
