MODEL 6
REMARK VINA RESULT: -9.920347266      0.966      2.029
REMARK  12 active torsions:
REMARK  status: ('A' for Active; 'I' for Inactive)
REMARK    1  A    between atoms: C2_2  and  C3_3 
REMARK    2  A    between atoms: C3_3  and  C4_4 
REMARK    3  A    between atoms: C4_4  and  N1_5 
REMARK    4  A    between atoms: N1_5  and  C5_6 
REMARK    5  A    between atoms: N1_5  and  C14_18 
REMARK    6  A    between atoms: C5_6  and  C6_7 
REMARK    7  A    between atoms: C9_11  and  O1_12 
REMARK    8  A    between atoms: C11_14  and  O2_15 
REMARK    9  A    between atoms: C17_21  and  C18_22 
REMARK   10  A    between atoms: C18_22  and  O3_23 
REMARK   11  A    between atoms: C18_22  and  C19_25 
REMARK   12  A    between atoms: C18_22  and  C20_29 
ROOT
HETATM    1  C14 UNL     1      62.203  41.298  22.897  1.00  0.00     0.030 A 
HETATM    2  C15 UNL     1      62.006  40.746  21.636  1.00  0.00     0.030 A 
HETATM    3  C16 UNL     1      61.950  41.503  20.472  1.00  0.00     0.013 A 
HETATM    4  C17 UNL     1      62.091  42.847  20.507  1.00  0.00    -0.006 A 
HETATM    5  C21 UNL     1      62.293  43.449  21.740  1.00  0.00     0.013 A 
HETATM    6  C22 UNL     1      62.343  42.686  22.890  1.00  0.00     0.030 A 
ENDROOT
BRANCH   1   7
HETATM    7  N1  UNL     1      62.281  40.574  24.102  1.00  0.00    -0.377 N 
BRANCH   7   8
HETATM    8  C4  UNL     1      63.343  39.626  24.347  1.00  0.00     0.123 C 
BRANCH   8   9
HETATM    9  C3  UNL     1      62.876  38.232  24.541  1.00  0.00     0.019 C 
BRANCH   9  10
HETATM   10  C2  UNL     1      63.860  37.129  24.447  1.00  0.00    -0.003 C 
HETATM   11  C1  UNL     1      64.977  37.388  23.469  1.00  0.00     0.005 C 
ENDBRANCH   9  10
ENDBRANCH   8   9
ENDBRANCH   7   8
BRANCH   7  12
HETATM   12  C5  UNL     1      61.295  40.792  25.143  1.00  0.00     0.161 C 
BRANCH  12  13
HETATM   13  C6  UNL     1      59.921  41.066  24.724  1.00  0.00    -0.036 A 
HETATM   14  C7  UNL     1      59.591  40.770  23.401  1.00  0.00     0.035 A 
HETATM   15  C8  UNL     1      58.299  40.938  22.940  1.00  0.00     0.070 A 
HETATM   16 CL1  UNL     1      57.918  40.578  21.277  1.00  0.00    -0.081 Cl
HETATM   17  C9  UNL     1      57.319  41.401  23.793  1.00  0.00     0.123 A 
HETATM   18  C11 UNL     1      57.597  41.709  25.112  1.00  0.00     0.103 A 
HETATM   19  C13 UNL     1      58.900  41.524  25.524  1.00  0.00     0.048 A 
BRANCH  17  20
HETATM   20  O1  UNL     1      56.012  41.560  23.332  1.00  0.00    -0.351 OA
HETATM   21  C10 UNL     1      55.089  40.482  23.387  1.00  0.00     0.210 C 
ENDBRANCH  17  20
BRANCH  18  22
HETATM   22  O2  UNL     1      56.589  42.178  25.952  1.00  0.00    -0.353 OA
HETATM   23  C12 UNL     1      56.563  41.944  27.331  1.00  0.00     0.210 C 
ENDBRANCH  18  22
ENDBRANCH  12  13
ENDBRANCH   7  12
ENDBRANCH   1   7
BRANCH   4  24
HETATM   24  C18 UNL     1      62.024  43.686  19.294  1.00  0.00     0.281 C 
BRANCH  24  25
HETATM   25  O3  UNL     1      60.967  43.244  18.447  1.00  0.00    -0.370 OA
ATOM     26  H3  UNL     1      60.507  42.517  18.849  1.00  0.00     0.211 HD
ENDBRANCH  24  25
BRANCH  24  27
HETATM   27  C19 UNL     1      63.252  43.659  18.452  1.00  0.00     0.431 C 
HETATM   28  F1  UNL     1      63.433  44.856  17.742  1.00  0.00    -0.167 F 
HETATM   29  F2  UNL     1      63.371  42.558  17.684  1.00  0.00    -0.167 F 
HETATM   30  F3  UNL     1      64.323  43.627  19.356  1.00  0.00    -0.167 F 
ENDBRANCH  24  27
BRANCH  24  31
HETATM   31  C20 UNL     1      61.710  45.147  19.600  1.00  0.00     0.431 C 
HETATM   32  F4  UNL     1      62.804  45.857  19.991  1.00  0.00    -0.167 F 
HETATM   33  F5  UNL     1      60.644  45.263  20.481  1.00  0.00    -0.167 F 
HETATM   34  F6  UNL     1      61.275  45.704  18.403  1.00  0.00    -0.167 F 
ENDBRANCH  24  31
ENDBRANCH   4  24
TORSDOF 12
ENDMDL
