MODEL 19
REMARK VINA RESULT: -7.689535325      5.812      8.978
REMARK  12 active torsions:
REMARK  status: ('A' for Active; 'I' for Inactive)
REMARK    1  A    between atoms: C2_2  and  C3_3 
REMARK    2  A    between atoms: C3_3  and  C4_4 
REMARK    3  A    between atoms: C4_4  and  N1_5 
REMARK    4  A    between atoms: N1_5  and  C5_6 
REMARK    5  A    between atoms: N1_5  and  C14_18 
REMARK    6  A    between atoms: C5_6  and  C6_7 
REMARK    7  A    between atoms: C9_11  and  O1_12 
REMARK    8  A    between atoms: C11_14  and  O2_15 
REMARK    9  A    between atoms: C17_21  and  C18_22 
REMARK   10  A    between atoms: C18_22  and  O3_23 
REMARK   11  A    between atoms: C18_22  and  C19_25 
REMARK   12  A    between atoms: C18_22  and  C20_29 
ROOT
HETATM    1  C14 UNL     1      57.507  41.417  25.098  1.00  0.00     0.030 A 
HETATM    2  C15 UNL     1      57.551  41.561  26.481  1.00  0.00     0.030 A 
HETATM    3  C16 UNL     1      56.427  41.469  27.294  1.00  0.00     0.013 A 
HETATM    4  C17 UNL     1      55.205  41.227  26.769  1.00  0.00    -0.006 A 
HETATM    5  C21 UNL     1      55.105  41.072  25.394  1.00  0.00     0.013 A 
HETATM    6  C22 UNL     1      56.229  41.168  24.596  1.00  0.00     0.030 A 
ENDROOT
BRANCH   1   7
HETATM    7  N1  UNL     1      58.617  41.487  24.235  1.00  0.00    -0.377 N 
BRANCH   7   8
HETATM    8  C4  UNL     1      59.970  41.490  24.741  1.00  0.00     0.123 C 
BRANCH   8   9
HETATM    9  C3  UNL     1      60.572  40.140  24.864  1.00  0.00     0.019 C 
BRANCH   9  10
HETATM   10  C2  UNL     1      62.004  39.962  24.531  1.00  0.00    -0.003 C 
HETATM   11  C1  UNL     1      62.472  38.531  24.593  1.00  0.00     0.005 C 
ENDBRANCH   9  10
ENDBRANCH   8   9
ENDBRANCH   7   8
BRANCH   7  12
HETATM   12  C5  UNL     1      58.416  41.533  22.799  1.00  0.00     0.161 C 
BRANCH  12  13
HETATM   13  C6  UNL     1      59.576  41.843  21.965  1.00  0.00    -0.036 A 
HETATM   14  C7  UNL     1      60.202  40.772  21.326  1.00  0.00     0.035 A 
HETATM   15  C8  UNL     1      61.265  40.985  20.468  1.00  0.00     0.070 A 
HETATM   16 CL1  UNL     1      62.040  39.627  19.695  1.00  0.00    -0.081 Cl
HETATM   17  C9  UNL     1      61.717  42.267  20.237  1.00  0.00     0.123 A 
HETATM   18  C11 UNL     1      61.131  43.360  20.848  1.00  0.00     0.103 A 
HETATM   19  C13 UNL     1      60.074  43.097  21.693  1.00  0.00     0.048 A 
BRANCH  17  20
HETATM   20  O1  UNL     1      62.783  42.483  19.362  1.00  0.00    -0.351 OA
HETATM   21  C10 UNL     1      62.569  42.538  17.959  1.00  0.00     0.210 C 
ENDBRANCH  17  20
BRANCH  18  22
HETATM   22  O2  UNL     1      61.610  44.645  20.600  1.00  0.00    -0.353 OA
HETATM   23  C12 UNL     1      61.101  45.477  19.596  1.00  0.00     0.210 C 
ENDBRANCH  18  22
ENDBRANCH  12  13
ENDBRANCH   7  12
ENDBRANCH   1   7
BRANCH   4  24
HETATM   24  C18 UNL     1      53.987  41.136  27.597  1.00  0.00     0.281 C 
BRANCH  24  25
HETATM   25  O3  UNL     1      54.210  40.272  28.708  1.00  0.00    -0.370 OA
ATOM     26  H3  UNL     1      54.746  39.533  28.446  1.00  0.00     0.211 HD
ENDBRANCH  24  25
BRANCH  24  27
HETATM   27  C19 UNL     1      52.797  40.582  26.891  1.00  0.00     0.431 C 
HETATM   28  F1  UNL     1      52.951  39.221  26.585  1.00  0.00    -0.167 F 
HETATM   29  F2  UNL     1      52.380  41.322  25.846  1.00  0.00    -0.167 F 
HETATM   30  F3  UNL     1      51.759  40.609  27.834  1.00  0.00    -0.167 F 
ENDBRANCH  24  27
BRANCH  24  31
HETATM   31  C20 UNL     1      53.579  42.474  28.202  1.00  0.00     0.431 C 
HETATM   32  F4  UNL     1      52.580  43.090  27.510  1.00  0.00    -0.167 F 
HETATM   33  F5  UNL     1      54.679  43.293  28.413  1.00  0.00    -0.167 F 
HETATM   34  F6  UNL     1      53.074  42.185  29.465  1.00  0.00    -0.167 F 
ENDBRANCH  24  31
ENDBRANCH   4  24
TORSDOF 12
ENDMDL
