MODEL 18
REMARK VINA RESULT: -7.736124770      2.753      5.246
REMARK  12 active torsions:
REMARK  status: ('A' for Active; 'I' for Inactive)
REMARK    1  A    between atoms: C2_2  and  C3_3 
REMARK    2  A    between atoms: C3_3  and  C4_4 
REMARK    3  A    between atoms: C4_4  and  N1_5 
REMARK    4  A    between atoms: N1_5  and  C5_6 
REMARK    5  A    between atoms: N1_5  and  C14_18 
REMARK    6  A    between atoms: C5_6  and  C6_7 
REMARK    7  A    between atoms: C9_11  and  O1_12 
REMARK    8  A    between atoms: C11_14  and  O2_15 
REMARK    9  A    between atoms: C17_21  and  C18_22 
REMARK   10  A    between atoms: C18_22  and  O3_23 
REMARK   11  A    between atoms: C18_22  and  C19_25 
REMARK   12  A    between atoms: C18_22  and  C20_29 
ROOT
HETATM    1  C14 UNL     1      59.766  42.149  21.780  1.00  0.00     0.030 A 
HETATM    2  C15 UNL     1      60.359  41.365  20.797  1.00  0.00     0.030 A 
HETATM    3  C16 UNL     1      61.392  41.815  19.982  1.00  0.00     0.013 A 
HETATM    4  C17 UNL     1      61.886  43.066  20.111  1.00  0.00    -0.006 A 
HETATM    5  C21 UNL     1      61.332  43.891  21.079  1.00  0.00     0.013 A 
HETATM    6  C22 UNL     1      60.303  43.433  21.880  1.00  0.00     0.030 A 
ENDROOT
BRANCH   1   7
HETATM    7  N1  UNL     1      58.728  41.736  22.638  1.00  0.00    -0.377 N 
BRANCH   7   8
HETATM    8  C4  UNL     1      57.380  41.545  22.156  1.00  0.00     0.123 C 
BRANCH   8   9
HETATM    9  C3  UNL     1      56.357  41.493  23.229  1.00  0.00     0.019 C 
BRANCH   9  10
HETATM   10  C2  UNL     1      55.428  40.340  23.276  1.00  0.00    -0.003 C 
HETATM   11  C1  UNL     1      54.025  40.702  23.689  1.00  0.00     0.005 C 
ENDBRANCH   9  10
ENDBRANCH   8   9
ENDBRANCH   7   8
BRANCH   7  12
HETATM   12  C5  UNL     1      59.008  41.467  24.036  1.00  0.00     0.161 C 
BRANCH  12  13
HETATM   13  C6  UNL     1      60.309  40.887  24.364  1.00  0.00    -0.036 A 
HETATM   14  C7  UNL     1      60.362  39.502  24.530  1.00  0.00     0.035 A 
HETATM   15  C8  UNL     1      61.564  38.866  24.777  1.00  0.00     0.070 A 
HETATM   16 CL1  UNL     1      61.600  37.136  24.998  1.00  0.00    -0.081 Cl
HETATM   17  C9  UNL     1      62.728  39.602  24.861  1.00  0.00     0.123 A 
HETATM   18  C11 UNL     1      62.726  40.975  24.706  1.00  0.00     0.103 A 
HETATM   19  C13 UNL     1      61.503  41.563  24.459  1.00  0.00     0.048 A 
BRANCH  17  20
HETATM   20  O1  UNL     1      63.943  38.958  25.100  1.00  0.00    -0.351 OA
HETATM   21  C10 UNL     1      64.586  38.222  24.069  1.00  0.00     0.210 C 
ENDBRANCH  17  20
BRANCH  18  22
HETATM   22  O2  UNL     1      63.915  41.694  24.798  1.00  0.00    -0.353 OA
HETATM   23  C12 UNL     1      63.968  43.069  25.053  1.00  0.00     0.210 C 
ENDBRANCH  18  22
ENDBRANCH  12  13
ENDBRANCH   7  12
ENDBRANCH   1   7
BRANCH   4  24
HETATM   24  C18 UNL     1      62.973  43.585  19.256  1.00  0.00     0.281 C 
BRANCH  24  25
HETATM   25  O3  UNL     1      63.088  42.797  18.075  1.00  0.00    -0.370 OA
ATOM     26  H3  UNL     1      63.108  43.357  17.308  1.00  0.00     0.211 HD
ENDBRANCH  24  25
BRANCH  24  27
HETATM   27  C19 UNL     1      64.322  43.563  19.887  1.00  0.00     0.431 C 
HETATM   28  F1  UNL     1      64.290  43.996  21.220  1.00  0.00    -0.167 F 
HETATM   29  F2  UNL     1      65.284  44.156  19.154  1.00  0.00    -0.167 F 
HETATM   30  F3  UNL     1      64.670  42.207  19.972  1.00  0.00    -0.167 F 
ENDBRANCH  24  27
BRANCH  24  31
HETATM   31  C20 UNL     1      62.717  45.007  18.769  1.00  0.00     0.431 C 
HETATM   32  F4  UNL     1      63.164  45.956  19.637  1.00  0.00    -0.167 F 
HETATM   33  F5  UNL     1      61.392  45.188  18.402  1.00  0.00    -0.167 F 
HETATM   34  F6  UNL     1      63.457  45.150  17.601  1.00  0.00    -0.167 F 
ENDBRANCH  24  31
ENDBRANCH   4  24
TORSDOF 12
ENDMDL
