MODEL 1
REMARK VINA RESULT: -10.679679504      0.000      0.000
REMARK  12 active torsions:
REMARK  status: ('A' for Active; 'I' for Inactive)
REMARK    1  A    between atoms: C2_2  and  C3_3 
REMARK    2  A    between atoms: C3_3  and  C4_4 
REMARK    3  A    between atoms: C4_4  and  N1_5 
REMARK    4  A    between atoms: N1_5  and  C5_6 
REMARK    5  A    between atoms: N1_5  and  C14_18 
REMARK    6  A    between atoms: C5_6  and  C6_7 
REMARK    7  A    between atoms: C9_11  and  O1_12 
REMARK    8  A    between atoms: C11_14  and  O2_15 
REMARK    9  A    between atoms: C17_21  and  C18_22 
REMARK   10  A    between atoms: C18_22  and  O3_23 
REMARK   11  A    between atoms: C18_22  and  C19_25 
REMARK   12  A    between atoms: C18_22  and  C20_29 
ROOT
HETATM    1  C14 UNL     1      62.515  41.564  22.834  1.00  0.00     0.030 A 
HETATM    2  C15 UNL     1      62.541  42.917  23.153  1.00  0.00     0.030 A 
HETATM    3  C16 UNL     1      62.583  43.926  22.198  1.00  0.00     0.013 A 
HETATM    4  C17 UNL     1      62.598  43.636  20.878  1.00  0.00    -0.006 A 
HETATM    5  C21 UNL     1      62.570  42.300  20.503  1.00  0.00     0.013 A 
HETATM    6  C22 UNL     1      62.531  41.307  21.463  1.00  0.00     0.030 A 
ENDROOT
BRANCH   1   7
HETATM    7  N1  UNL     1      62.458  40.507  23.762  1.00  0.00    -0.377 N 
BRANCH   7   8
HETATM    8  C4  UNL     1      63.356  39.379  23.678  1.00  0.00     0.123 C 
BRANCH   8   9
HETATM    9  C3  UNL     1      63.004  38.258  24.584  1.00  0.00     0.019 C 
BRANCH   9  10
HETATM   10  C2  UNL     1      63.831  37.029  24.556  1.00  0.00    -0.003 C 
HETATM   11  C1  UNL     1      65.093  37.161  23.742  1.00  0.00     0.005 C 
ENDBRANCH   9  10
ENDBRANCH   8   9
ENDBRANCH   7   8
BRANCH   7  12
HETATM   12  C5  UNL     1      61.499  40.548  24.849  1.00  0.00     0.161 C 
BRANCH  12  13
HETATM   13  C6  UNL     1      60.119  40.900  24.518  1.00  0.00    -0.036 A 
HETATM   14  C7  UNL     1      59.683  40.607  23.225  1.00  0.00     0.035 A 
HETATM   15  C8  UNL     1      58.374  40.847  22.849  1.00  0.00     0.070 A 
HETATM   16 CL1  UNL     1      57.860  40.488  21.223  1.00  0.00    -0.081 Cl
HETATM   17  C9  UNL     1      57.485  41.382  23.758  1.00  0.00     0.123 A 
HETATM   18  C11 UNL     1      57.870  41.692  25.049  1.00  0.00     0.103 A 
HETATM   19  C13 UNL     1      59.184  41.432  25.376  1.00  0.00     0.048 A 
BRANCH  17  20
HETATM   20  O1  UNL     1      56.161  41.615  23.382  1.00  0.00    -0.351 OA
HETATM   21  C10 UNL     1      55.184  40.590  23.502  1.00  0.00     0.210 C 
ENDBRANCH  17  20
BRANCH  18  22
HETATM   22  O2  UNL     1      56.951  42.234  25.945  1.00  0.00    -0.353 OA
HETATM   23  C12 UNL     1      56.601  41.624  27.155  1.00  0.00     0.210 C 
ENDBRANCH  18  22
ENDBRANCH  12  13
ENDBRANCH   7  12
ENDBRANCH   1   7
BRANCH   4  24
HETATM   24  C18 UNL     1      62.656  44.678  19.834  1.00  0.00     0.281 C 
BRANCH  24  25
HETATM   25  O3  UNL     1      63.018  45.931  20.409  1.00  0.00    -0.370 OA
ATOM     26  H3  UNL     1      62.482  46.626  20.045  1.00  0.00     0.211 HD
ENDBRANCH  24  25
BRANCH  24  27
HETATM   27  C19 UNL     1      61.369  44.919  19.125  1.00  0.00     0.431 C 
HETATM   28  F1  UNL     1      60.778  43.726  18.682  1.00  0.00    -0.167 F 
HETATM   29  F2  UNL     1      61.431  45.871  18.174  1.00  0.00    -0.167 F 
HETATM   30  F3  UNL     1      60.488  45.398  20.106  1.00  0.00    -0.167 F 
ENDBRANCH  24  27
BRANCH  24  31
HETATM   31  C20 UNL     1      63.718  44.400  18.775  1.00  0.00     0.431 C 
HETATM   32  F4  UNL     1      63.260  43.627  17.752  1.00  0.00    -0.167 F 
HETATM   33  F5  UNL     1      64.886  43.912  19.344  1.00  0.00    -0.167 F 
HETATM   34  F6  UNL     1      64.048  45.635  18.231  1.00  0.00    -0.167 F 
ENDBRANCH  24  31
ENDBRANCH   4  24
TORSDOF 12
ENDMDL
