MODEL 2
REMARK VINA RESULT: -10.335426705      0.791      1.852
REMARK  12 active torsions:
REMARK  status: ('A' for Active; 'I' for Inactive)
REMARK    1  A    between atoms: C2_2  and  C3_3 
REMARK    2  A    between atoms: C3_3  and  C4_4 
REMARK    3  A    between atoms: C4_4  and  N1_5 
REMARK    4  A    between atoms: N1_5  and  C5_6 
REMARK    5  A    between atoms: N1_5  and  C14_18 
REMARK    6  A    between atoms: C5_6  and  C6_7 
REMARK    7  A    between atoms: C9_11  and  O1_12 
REMARK    8  A    between atoms: C11_14  and  O2_15 
REMARK    9  A    between atoms: C17_21  and  C18_22 
REMARK   10  A    between atoms: C18_22  and  O3_23 
REMARK   11  A    between atoms: C18_22  and  C19_25 
REMARK   12  A    between atoms: C18_22  and  C20_29 
ROOT
HETATM    1  C14 UNL     1      62.509  41.495  22.948  1.00  0.00     0.030 A 
HETATM    2  C15 UNL     1      62.537  42.883  23.028  1.00  0.00     0.030 A 
HETATM    3  C16 UNL     1      62.531  43.712  21.913  1.00  0.00     0.013 A 
HETATM    4  C17 UNL     1      62.492  43.199  20.663  1.00  0.00    -0.006 A 
HETATM    5  C21 UNL     1      62.459  41.819  20.526  1.00  0.00     0.013 A 
HETATM    6  C22 UNL     1      62.470  41.005  21.642  1.00  0.00     0.030 A 
ENDROOT
BRANCH   1   7
HETATM    7  N1  UNL     1      62.500  40.614  24.046  1.00  0.00    -0.377 N 
BRANCH   7   8
HETATM    8  C4  UNL     1      63.486  39.567  24.184  1.00  0.00     0.123 C 
BRANCH   8   9
HETATM    9  C3  UNL     1      62.917  38.240  24.518  1.00  0.00     0.019 C 
BRANCH   9  10
HETATM   10  C2  UNL     1      63.805  37.054  24.498  1.00  0.00    -0.003 C 
HETATM   11  C1  UNL     1      65.073  37.255  23.709  1.00  0.00     0.005 C 
ENDBRANCH   9  10
ENDBRANCH   8   9
ENDBRANCH   7   8
BRANCH   7  12
HETATM   12  C5  UNL     1      61.500  40.762  25.087  1.00  0.00     0.161 C 
BRANCH  12  13
HETATM   13  C6  UNL     1      60.129  41.049  24.668  1.00  0.00    -0.036 A 
HETATM   14  C7  UNL     1      59.788  40.730  23.353  1.00  0.00     0.035 A 
HETATM   15  C8  UNL     1      58.496  40.909  22.894  1.00  0.00     0.070 A 
HETATM   16 CL1  UNL     1      58.101  40.519  21.242  1.00  0.00    -0.081 Cl
HETATM   17  C9  UNL     1      57.529  41.408  23.742  1.00  0.00     0.123 A 
HETATM   18  C11 UNL     1      57.818  41.741  25.052  1.00  0.00     0.103 A 
HETATM   19  C13 UNL     1      59.120  41.542  25.462  1.00  0.00     0.048 A 
BRANCH  17  20
HETATM   20  O1  UNL     1      56.222  41.579  23.283  1.00  0.00    -0.351 OA
HETATM   21  C10 UNL     1      55.266  40.536  23.415  1.00  0.00     0.210 C 
ENDBRANCH  17  20
BRANCH  18  22
HETATM   22  O2  UNL     1      56.822  42.246  25.885  1.00  0.00    -0.353 OA
HETATM   23  C12 UNL     1      56.578  41.762  27.176  1.00  0.00     0.210 C 
ENDBRANCH  18  22
ENDBRANCH  12  13
ENDBRANCH   7  12
ENDBRANCH   1   7
BRANCH   4  24
HETATM   24  C18 UNL     1      62.497  44.045  19.454  1.00  0.00     0.281 C 
BRANCH  24  25
HETATM   25  O3  UNL     1      62.730  43.247  18.296  1.00  0.00    -0.370 OA
ATOM     26  H3  UNL     1      63.423  43.627  17.770  1.00  0.00     0.211 HD
ENDBRANCH  24  25
BRANCH  24  27
HETATM   27  C19 UNL     1      63.554  45.095  19.436  1.00  0.00     0.431 C 
HETATM   28  F1  UNL     1      64.766  44.635  19.971  1.00  0.00    -0.167 F 
HETATM   29  F2  UNL     1      63.163  46.282  19.940  1.00  0.00    -0.167 F 
HETATM   30  F3  UNL     1      63.836  45.316  18.079  1.00  0.00    -0.167 F 
ENDBRANCH  24  27
BRANCH  24  31
HETATM   31  C20 UNL     1      61.160  44.735  19.206  1.00  0.00     0.431 C 
HETATM   32  F4  UNL     1      61.203  45.624  18.175  1.00  0.00    -0.167 F 
HETATM   33  F5  UNL     1      60.646  45.280  20.373  1.00  0.00    -0.167 F 
HETATM   34  F6  UNL     1      60.275  43.730  18.833  1.00  0.00    -0.167 F 
ENDBRANCH  24  31
ENDBRANCH   4  24
TORSDOF 12
ENDMDL
