MODEL 4
REMARK VINA RESULT: -10.204856090      1.243      2.037
REMARK  12 active torsions:
REMARK  status: ('A' for Active; 'I' for Inactive)
REMARK    1  A    between atoms: C2_2  and  C3_3 
REMARK    2  A    between atoms: C3_3  and  C4_4 
REMARK    3  A    between atoms: C4_4  and  N1_5 
REMARK    4  A    between atoms: N1_5  and  C5_6 
REMARK    5  A    between atoms: N1_5  and  C14_18 
REMARK    6  A    between atoms: C5_6  and  C6_7 
REMARK    7  A    between atoms: C9_11  and  O1_12 
REMARK    8  A    between atoms: C11_14  and  O2_15 
REMARK    9  A    between atoms: C17_21  and  C18_22 
REMARK   10  A    between atoms: C18_22  and  O3_23 
REMARK   11  A    between atoms: C18_22  and  C19_25 
REMARK   12  A    between atoms: C18_22  and  C20_29 
ROOT
HETATM    1  C14 UNL     1      62.629  41.841  23.179  1.00  0.00     0.030 A 
HETATM    2  C15 UNL     1      62.406  43.204  23.339  1.00  0.00     0.030 A 
HETATM    3  C16 UNL     1      62.477  44.117  22.293  1.00  0.00     0.013 A 
HETATM    4  C17 UNL     1      62.772  43.715  21.037  1.00  0.00    -0.006 A 
HETATM    5  C21 UNL     1      63.001  42.364  20.820  1.00  0.00     0.013 A 
HETATM    6  C22 UNL     1      62.930  41.467  21.869  1.00  0.00     0.030 A 
ENDROOT
BRANCH   1   7
HETATM    7  N1  UNL     1      62.555  40.876  24.201  1.00  0.00    -0.377 N 
BRANCH   7   8
HETATM    8  C4  UNL     1      63.494  39.780  24.276  1.00  0.00     0.123 C 
BRANCH   8   9
HETATM    9  C3  UNL     1      62.862  38.456  24.487  1.00  0.00     0.019 C 
BRANCH   9  10
HETATM   10  C2  UNL     1      63.716  37.245  24.476  1.00  0.00    -0.003 C 
HETATM   11  C1  UNL     1      64.988  37.403  23.683  1.00  0.00     0.005 C 
ENDBRANCH   9  10
ENDBRANCH   8   9
ENDBRANCH   7   8
BRANCH   7  12
HETATM   12  C5  UNL     1      61.534  40.983  25.226  1.00  0.00     0.161 C 
BRANCH  12  13
HETATM   13  C6  UNL     1      60.148  41.125  24.785  1.00  0.00    -0.036 A 
HETATM   14  C7  UNL     1      59.192  41.376  25.770  1.00  0.00     0.035 A 
HETATM   15  C8  UNL     1      57.868  41.588  25.432  1.00  0.00     0.070 A 
HETATM   16 CL1  UNL     1      56.691  41.884  26.683  1.00  0.00    -0.081 Cl
HETATM   17  C9  UNL     1      57.482  41.552  24.108  1.00  0.00     0.123 A 
HETATM   18  C11 UNL     1      58.391  41.304  23.097  1.00  0.00     0.103 A 
HETATM   19  C13 UNL     1      59.699  41.101  23.485  1.00  0.00     0.048 A 
BRANCH  17  20
HETATM   20  O1  UNL     1      56.148  41.777  23.766  1.00  0.00    -0.351 OA
HETATM   21  C10 UNL     1      55.233  40.694  23.669  1.00  0.00     0.210 C 
ENDBRANCH  17  20
BRANCH  18  22
HETATM   22  O2  UNL     1      57.974  41.270  21.769  1.00  0.00    -0.353 OA
HETATM   23  C12 UNL     1      57.780  40.085  21.050  1.00  0.00     0.210 C 
ENDBRANCH  18  22
ENDBRANCH  12  13
ENDBRANCH   7  12
ENDBRANCH   1   7
BRANCH   4  24
HETATM   24  C18 UNL     1      62.870  44.656  19.903  1.00  0.00     0.281 C 
BRANCH  24  25
HETATM   25  O3  UNL     1      62.926  45.997  20.379  1.00  0.00    -0.370 OA
ATOM     26  H3  UNL     1      63.766  46.165  20.789  1.00  0.00     0.211 HD
ENDBRANCH  24  25
BRANCH  24  27
HETATM   27  C19 UNL     1      61.718  44.613  18.959  1.00  0.00     0.431 C 
HETATM   28  F1  UNL     1      61.183  43.322  18.836  1.00  0.00    -0.167 F 
HETATM   29  F2  UNL     1      61.951  45.211  17.774  1.00  0.00    -0.167 F 
HETATM   30  F3  UNL     1      60.700  45.351  19.581  1.00  0.00    -0.167 F 
ENDBRANCH  24  27
BRANCH  24  31
HETATM   31  C20 UNL     1      64.142  44.466  19.083  1.00  0.00     0.431 C 
HETATM   32  F4  UNL     1      64.580  45.620  18.505  1.00  0.00    -0.167 F 
HETATM   33  F5  UNL     1      64.014  43.421  18.180  1.00  0.00    -0.167 F 
HETATM   34  F6  UNL     1      65.123  44.071  19.985  1.00  0.00    -0.167 F 
ENDBRANCH  24  31
ENDBRANCH   4  24
TORSDOF 12
ENDMDL
