MODEL 10
REMARK VINA RESULT: -6.590697250      1.438      1.504
REMARK  4 active torsions:
REMARK  status: ('A' for Active; 'I' for Inactive)
REMARK    1  A    between atoms: C4_8  and  C5_9 
REMARK    2  A    between atoms: C5_9  and  C6_10 
REMARK    3  A    between atoms: C6_10  and  N2_11 
REMARK    4  A    between atoms: C6_10  and  C7_15 
ROOT
HETATM    1  C5  UNL     1      10.989  52.198  20.802  1.00  0.00     0.091 C 
ENDROOT
BRANCH   1   2
HETATM    2  C4  UNL     1      10.260  52.529  19.567  1.00  0.00     0.045 A 
HETATM    3  C2  UNL     1       9.273  51.785  18.958  1.00  0.00     0.084 A 
HETATM    4  C1  UNL     1       8.715  50.466  19.417  1.00  0.00     0.079 C 
HETATM    5  O1  UNL     1       8.920  52.464  17.895  1.00  0.00    -0.239 OA
HETATM    6  N1  UNL     1       9.590  53.570  17.772  1.00  0.00    -0.225 N 
HETATM    7  C3  UNL     1      10.443  53.653  18.799  1.00  0.00     0.274 A 
ATOM      8  H1  UNL     1       9.484  54.255  17.023  1.00  0.00     0.198 HD
HETATM    9  O2  UNL     1      11.249  54.616  18.976  1.00  0.00    -0.266 OA
ENDBRANCH   1   2
BRANCH   1  10
HETATM   10  C6  UNL     1      12.480  52.349  20.694  1.00  0.00     0.287 C 
BRANCH  10  11
HETATM   11  N2  UNL     1      12.941  52.409  19.326  1.00  0.00    -0.065 N 
ATOM     12  H23 UNL     1      12.227  52.807  18.717  1.00  0.00     0.275 HD
ATOM     13  H22 UNL     1      13.667  53.117  19.216  1.00  0.00     0.275 HD
ATOM     14  H21 UNL     1      13.258  51.505  18.974  1.00  0.00     0.275 HD
ENDBRANCH  10  11
BRANCH  10  15
HETATM   15  C7  UNL     1      13.082  51.166  21.368  1.00  0.00     0.204 C 
HETATM   16  O3  UNL     1      13.948  51.351  22.261  1.00  0.00    -0.646 OA
HETATM   17  O4  UNL     1      12.750  49.854  21.076  1.00  0.00    -0.646 OA
ENDBRANCH  10  15
ENDBRANCH   1  10
TORSDOF 4
ENDMDL
