MODEL 7
REMARK VINA RESULT: -6.800149178      1.817      1.952
REMARK  4 active torsions:
REMARK  status: ('A' for Active; 'I' for Inactive)
REMARK    1  A    between atoms: C4_8  and  C5_9 
REMARK    2  A    between atoms: C5_9  and  C6_10 
REMARK    3  A    between atoms: C6_10  and  N2_11 
REMARK    4  A    between atoms: C6_10  and  C7_15 
ROOT
HETATM    1  C5  UNL     1      11.899  52.566  19.725  1.00  0.00     0.091 C 
ENDROOT
BRANCH   1   2
HETATM    2  C4  UNL     1      10.567  52.808  19.151  1.00  0.00     0.045 A 
HETATM    3  C2  UNL     1       9.467  51.981  19.222  1.00  0.00     0.084 A 
HETATM    4  C1  UNL     1       9.378  50.643  19.903  1.00  0.00     0.079 C 
HETATM    5  O1  UNL     1       8.512  52.601  18.572  1.00  0.00    -0.239 OA
HETATM    6  N1  UNL     1       8.903  53.744  18.096  1.00  0.00    -0.225 N 
HETATM    7  C3  UNL     1      10.186  53.917  18.435  1.00  0.00     0.274 A 
ATOM      8  H1  UNL     1       8.331  54.396  17.559  1.00  0.00     0.198 HD
HETATM    9  O2  UNL     1      10.872  54.936  18.121  1.00  0.00    -0.266 OA
ENDBRANCH   1   2
BRANCH   1  10
HETATM   10  C6  UNL     1      11.889  52.270  21.199  1.00  0.00     0.287 C 
BRANCH  10  11
HETATM   11  N2  UNL     1      12.232  53.419  22.005  1.00  0.00    -0.065 N 
ATOM     12  H23 UNL     1      11.764  54.258  21.663  1.00  0.00     0.275 HD
ATOM     13  H22 UNL     1      11.805  53.355  22.929  1.00  0.00     0.275 HD
ATOM     14  H21 UNL     1      13.239  53.566  22.077  1.00  0.00     0.275 HD
ENDBRANCH  10  11
BRANCH  10  15
HETATM   15  C7  UNL     1      12.887  51.189  21.427  1.00  0.00     0.204 C 
HETATM   16  O3  UNL     1      13.932  51.455  22.075  1.00  0.00    -0.646 OA
HETATM   17  O4  UNL     1      12.745  49.891  20.968  1.00  0.00    -0.646 OA
ENDBRANCH  10  15
ENDBRANCH   1  10
TORSDOF 4
ENDMDL
