MODEL 5
REMARK VINA RESULT: -6.946813743      1.697      4.874
REMARK  4 active torsions:
REMARK  status: ('A' for Active; 'I' for Inactive)
REMARK    1  A    between atoms: C4_8  and  C5_9 
REMARK    2  A    between atoms: C5_9  and  C6_10 
REMARK    3  A    between atoms: C6_10  and  N2_11 
REMARK    4  A    between atoms: C6_10  and  C7_15 
ROOT
HETATM    1  C5  UNL     1      10.448  52.059  20.486  1.00  0.00     0.091 C 
ENDROOT
BRANCH   1   2
HETATM    2  C4  UNL     1      11.784  51.727  21.007  1.00  0.00     0.045 A 
HETATM    3  C2  UNL     1      12.614  52.539  21.748  1.00  0.00     0.084 A 
HETATM    4  C1  UNL     1      12.344  53.950  22.195  1.00  0.00     0.079 C 
HETATM    5  O1  UNL     1      13.690  51.829  21.984  1.00  0.00    -0.239 OA
HETATM    6  N1  UNL     1      13.620  50.642  21.463  1.00  0.00    -0.225 N 
HETATM    7  C3  UNL     1      12.441  50.532  20.839  1.00  0.00     0.274 A 
ATOM      8  H1  UNL     1      14.338  49.919  21.520  1.00  0.00     0.198 HD
HETATM    9  O2  UNL     1      12.058  49.492  20.223  1.00  0.00    -0.266 OA
ENDBRANCH   1   2
BRANCH   1  10
HETATM   10  C6  UNL     1      10.436  52.460  19.038  1.00  0.00     0.287 C 
BRANCH  10  11
HETATM   11  N2  UNL     1      10.970  53.785  18.818  1.00  0.00    -0.065 N 
ATOM     12  H23 UNL     1      10.780  54.100  17.867  1.00  0.00     0.275 HD
ATOM     13  H22 UNL     1      10.436  54.483  19.335  1.00  0.00     0.275 HD
ATOM     14  H21 UNL     1      11.965  53.853  19.033  1.00  0.00     0.275 HD
ENDBRANCH  10  11
BRANCH  10  15
HETATM   15  C7  UNL     1       9.016  52.418  18.593  1.00  0.00     0.204 C 
HETATM   16  O3  UNL     1       8.152  51.930  19.365  1.00  0.00    -0.646 OA
HETATM   17  O4  UNL     1       8.573  52.886  17.367  1.00  0.00    -0.646 OA
ENDBRANCH  10  15
ENDBRANCH   1  10
TORSDOF 4
ENDMDL
