MODEL 3
REMARK VINA RESULT: -7.521804976      1.221      1.395
REMARK  4 active torsions:
REMARK  status: ('A' for Active; 'I' for Inactive)
REMARK    1  A    between atoms: C4_8  and  C5_9 
REMARK    2  A    between atoms: C5_9  and  C6_10 
REMARK    3  A    between atoms: C6_10  and  N2_11 
REMARK    4  A    between atoms: C6_10  and  C7_15 
ROOT
HETATM    1  C5  UNL     1      10.658  51.784  20.685  1.00  0.00     0.091 C 
ENDROOT
BRANCH   1   2
HETATM    2  C4  UNL     1      10.010  52.278  19.460  1.00  0.00     0.045 A 
HETATM    3  C2  UNL     1       8.926  51.728  18.812  1.00  0.00     0.084 A 
HETATM    4  C1  UNL     1       8.158  50.497  19.208  1.00  0.00     0.079 C 
HETATM    5  O1  UNL     1       8.702  52.498  17.776  1.00  0.00    -0.239 OA
HETATM    6  N1  UNL     1       9.540  53.487  17.706  1.00  0.00    -0.225 N 
HETATM    7  C3  UNL     1      10.381  53.390  18.743  1.00  0.00     0.274 A 
ATOM      8  H1  UNL     1       9.556  54.211  16.988  1.00  0.00     0.198 HD
HETATM    9  O2  UNL     1      11.328  54.203  18.969  1.00  0.00    -0.266 OA
ENDBRANCH   1   2
BRANCH   1  10
HETATM   10  C6  UNL     1      12.057  51.276  20.477  1.00  0.00     0.287 C 
BRANCH  10  11
HETATM   11  N2  UNL     1      12.143  49.834  20.517  1.00  0.00    -0.065 N 
ATOM     12  H23 UNL     1      11.304  49.408  20.125  1.00  0.00     0.275 HD
ATOM     13  H22 UNL     1      12.833  49.492  19.848  1.00  0.00     0.275 HD
ATOM     14  H21 UNL     1      12.331  49.474  21.453  1.00  0.00     0.275 HD
ENDBRANCH  10  11
BRANCH  10  15
HETATM   15  C7  UNL     1      12.890  51.852  21.569  1.00  0.00     0.204 C 
HETATM   16  O3  UNL     1      12.533  52.936  22.098  1.00  0.00    -0.646 OA
HETATM   17  O4  UNL     1      14.049  51.269  22.051  1.00  0.00    -0.646 OA
ENDBRANCH  10  15
ENDBRANCH   1  10
TORSDOF 4
ENDMDL
