MODEL 13
REMARK VINA RESULT: -6.061095578      2.355      4.335
REMARK  4 active torsions:
REMARK  status: ('A' for Active; 'I' for Inactive)
REMARK    1  A    between atoms: C4_8  and  C5_9 
REMARK    2  A    between atoms: C5_9  and  C6_10 
REMARK    3  A    between atoms: C6_10  and  N2_11 
REMARK    4  A    between atoms: C6_10  and  C7_15 
ROOT
HETATM    1  C5  UNL     1       9.571  52.046  20.028  1.00  0.00     0.091 C 
ENDROOT
BRANCH   1   2
HETATM    2  C4  UNL     1      11.020  52.299  19.982  1.00  0.00     0.045 A 
HETATM    3  C2  UNL     1      11.656  53.401  19.455  1.00  0.00     0.084 A 
HETATM    4  C1  UNL     1      11.016  54.597  18.807  1.00  0.00     0.079 C 
HETATM    5  O1  UNL     1      12.937  53.192  19.634  1.00  0.00    -0.239 OA
HETATM    6  N1  UNL     1      13.174  52.061  20.226  1.00  0.00    -0.225 N 
HETATM    7  C3  UNL     1      11.999  51.465  20.465  1.00  0.00     0.274 A 
ATOM      8  H1  UNL     1      14.094  51.692  20.468  1.00  0.00     0.198 HD
HETATM    9  O2  UNL     1      11.877  50.338  21.033  1.00  0.00    -0.266 OA
ENDBRANCH   1   2
BRANCH   1  10
HETATM   10  C6  UNL     1       8.989  51.569  18.727  1.00  0.00     0.287 C 
BRANCH  10  11
HETATM   11  N2  UNL     1       8.261  52.601  18.025  1.00  0.00    -0.065 N 
ATOM     12  H23 UNL     1       7.472  52.932  18.580  1.00  0.00     0.275 HD
ATOM     13  H22 UNL     1       8.804  53.463  17.978  1.00  0.00     0.275 HD
ATOM     14  H21 UNL     1       7.957  52.310  17.096  1.00  0.00     0.275 HD
ENDBRANCH  10  11
BRANCH  10  15
HETATM   15  C7  UNL     1       8.067  50.448  19.055  1.00  0.00     0.204 C 
HETATM   16  O3  UNL     1       7.154  50.638  19.899  1.00  0.00    -0.646 OA
HETATM   17  O4  UNL     1       8.144  49.187  18.486  1.00  0.00    -0.646 OA
ENDBRANCH  10  15
ENDBRANCH   1  10
TORSDOF 4
ENDMDL
