MODEL 1
REMARK VINA RESULT: -7.798564702      0.000      0.000
REMARK  4 active torsions:
REMARK  status: ('A' for Active; 'I' for Inactive)
REMARK    1  A    between atoms: C4_8  and  C5_9 
REMARK    2  A    between atoms: C5_9  and  C6_10 
REMARK    3  A    between atoms: C6_10  and  N2_11 
REMARK    4  A    between atoms: C6_10  and  C7_15 
ROOT
HETATM    1  C5  UNL     1      11.260  51.677  20.906  1.00  0.00     0.091 C 
ENDROOT
BRANCH   1   2
HETATM    2  C4  UNL     1      10.895  52.626  19.843  1.00  0.00     0.045 A 
HETATM    3  C2  UNL     1       9.780  52.582  19.035  1.00  0.00     0.084 A 
HETATM    4  C1  UNL     1       8.681  51.555  19.056  1.00  0.00     0.079 C 
HETATM    5  O1  UNL     1       9.873  53.622  18.242  1.00  0.00    -0.239 OA
HETATM    6  N1  UNL     1      10.942  54.322  18.472  1.00  0.00    -0.225 N 
HETATM    7  C3  UNL     1      11.615  53.734  19.469  1.00  0.00     0.274 A 
ATOM      8  H1  UNL     1      11.221  55.170  17.979  1.00  0.00     0.198 HD
HETATM    9  O2  UNL     1      12.712  54.167  19.937  1.00  0.00    -0.266 OA
ENDBRANCH   1   2
BRANCH   1  10
HETATM   10  C6  UNL     1      12.407  50.772  20.553  1.00  0.00     0.287 C 
BRANCH  10  11
HETATM   11  N2  UNL     1      11.978  49.457  20.136  1.00  0.00    -0.065 N 
ATOM     12  H23 UNL     1      11.058  49.236  20.517  1.00  0.00     0.275 HD
ATOM     13  H22 UNL     1      11.754  49.445  19.141  1.00  0.00     0.275 HD
ATOM     14  H21 UNL     1      12.653  48.727  20.367  1.00  0.00     0.275 HD
ENDBRANCH  10  11
BRANCH  10  15
HETATM   15  C7  UNL     1      13.251  50.653  21.774  1.00  0.00     0.204 C 
HETATM   16  O3  UNL     1      13.931  51.645  22.142  1.00  0.00    -0.646 OA
HETATM   17  O4  UNL     1      13.343  49.507  22.546  1.00  0.00    -0.646 OA
ENDBRANCH  10  15
ENDBRANCH   1  10
TORSDOF 4
ENDMDL
