MODEL 8
REMARK VINA RESULT: -6.778553022      2.078      4.690
REMARK  4 active torsions:
REMARK  status: ('A' for Active; 'I' for Inactive)
REMARK    1  A    between atoms: C4_8  and  C5_9 
REMARK    2  A    between atoms: C5_9  and  C6_10 
REMARK    3  A    between atoms: C6_10  and  N2_11 
REMARK    4  A    between atoms: C6_10  and  C7_15 
ROOT
HETATM    1  C5  UNL     1      10.855  51.934  19.821  1.00  0.00     0.091 C 
ENDROOT
BRANCH   1   2
HETATM    2  C4  UNL     1      11.991  51.722  20.731  1.00  0.00     0.045 A 
HETATM    3  C2  UNL     1      12.639  52.673  21.489  1.00  0.00     0.084 A 
HETATM    4  C1  UNL     1      12.333  54.143  21.560  1.00  0.00     0.079 C 
HETATM    5  O1  UNL     1      13.580  52.031  22.138  1.00  0.00    -0.239 OA
HETATM    6  N1  UNL     1      13.589  50.762  21.863  1.00  0.00    -0.225 N 
HETATM    7  C3  UNL     1      12.609  50.521  20.984  1.00  0.00     0.274 A 
ATOM      8  H1  UNL     1      14.231  50.069  22.249  1.00  0.00     0.198 HD
HETATM    9  O2  UNL     1      12.349  49.375  20.507  1.00  0.00    -0.266 OA
ENDBRANCH   1   2
BRANCH   1  10
HETATM   10  C6  UNL     1       9.623  51.153  20.183  1.00  0.00     0.287 C 
BRANCH  10  11
HETATM   11  N2  UNL     1       9.682  49.777  19.748  1.00  0.00    -0.065 N 
ATOM     12  H23 UNL     1      10.194  49.203  20.418  1.00  0.00     0.275 HD
ATOM     13  H22 UNL     1       8.766  49.334  19.815  1.00  0.00     0.275 HD
ATOM     14  H21 UNL     1      10.070  49.674  18.809  1.00  0.00     0.275 HD
ENDBRANCH  10  11
BRANCH  10  15
HETATM   15  C7  UNL     1       8.474  51.832  19.523  1.00  0.00     0.204 C 
HETATM   16  O3  UNL     1       7.310  51.408  19.743  1.00  0.00    -0.646 OA
HETATM   17  O4  UNL     1       8.598  52.915  18.670  1.00  0.00    -0.646 OA
ENDBRANCH  10  15
ENDBRANCH   1  10
TORSDOF 4
ENDMDL
