MODEL 5
REMARK VINA RESULT: -5.871147996      4.905      7.279
REMARK  3 active torsions:
REMARK  status: ('A' for Active; 'I' for Inactive)
REMARK    1  A    between atoms: C2_2  and  O2_4 
REMARK    2  A    between atoms: O2_4  and  C3_5 
REMARK    3  A    between atoms: C9_11  and  C10_12 
ROOT
HETATM    1  C3  UNL     1      33.566  40.547  -8.833  1.00  0.00     0.102 A 
HETATM    2  C4  UNL     1      32.886  39.534  -9.462  1.00  0.00    -0.027 A 
HETATM    3  C5  UNL     1      32.464  39.724 -10.874  1.00  0.00     0.051 C 
HETATM    4  C6  UNL     1      32.627  38.379  -8.749  1.00  0.00     0.009 A 
HETATM    5  C7  UNL     1      33.038  38.235  -7.430  1.00  0.00     0.002 A 
HETATM    6  C8  UNL     1      33.721  39.287  -6.835  1.00  0.00     0.021 A 
HETATM    7  C9  UNL     1      33.991  40.444  -7.521  1.00  0.00     0.075 A 
ENDROOT
BRANCH   1   8
HETATM    8  O2  UNL     1      33.849  41.725  -9.508  1.00  0.00    -0.278 OA
BRANCH   8   9
HETATM    9  C2  UNL     1      32.861  42.669  -9.740  1.00  0.00     0.260 C 
HETATM   10  C1  UNL     1      32.793  43.503 -10.967  1.00  0.00     0.126 C 
HETATM   11  O1  UNL     1      31.977  42.830  -8.866  1.00  0.00    -0.265 OA
ENDBRANCH   8   9
ENDBRANCH   1   8
BRANCH   7  12
HETATM   12  C10 UNL     1      34.707  41.554  -6.912  1.00  0.00     0.212 C 
HETATM   13  O3  UNL     1      35.961  41.508  -6.900  1.00  0.00    -0.644 OA
HETATM   14  O4  UNL     1      34.097  42.637  -6.354  1.00  0.00    -0.644 OA
ENDBRANCH   7  12
TORSDOF 3
ENDMDL
