MODEL 9
REMARK VINA RESULT: -5.636814309      6.549      8.936
REMARK  3 active torsions:
REMARK  status: ('A' for Active; 'I' for Inactive)
REMARK    1  A    between atoms: C2_2  and  O2_4 
REMARK    2  A    between atoms: O2_4  and  C3_5 
REMARK    3  A    between atoms: C9_11  and  C10_12 
ROOT
HETATM    1  C3  UNL     1      32.852  40.654 -10.217  1.00  0.00     0.102 A 
HETATM    2  C4  UNL     1      32.531  40.347 -11.515  1.00  0.00    -0.027 A 
HETATM    3  C5  UNL     1      32.205  38.939 -11.859  1.00  0.00     0.051 C 
HETATM    4  C6  UNL     1      32.525  41.369 -12.446  1.00  0.00     0.009 A 
HETATM    5  C7  UNL     1      32.835  42.676 -12.088  1.00  0.00     0.002 A 
HETATM    6  C8  UNL     1      33.154  42.937 -10.763  1.00  0.00     0.021 A 
HETATM    7  C9  UNL     1      33.167  41.941  -9.820  1.00  0.00     0.075 A 
ENDROOT
BRANCH   1   8
HETATM    8  O2  UNL     1      32.871  39.661  -9.247  1.00  0.00    -0.278 OA
BRANCH   8   9
HETATM    9  C2  UNL     1      33.930  38.773  -9.157  1.00  0.00     0.260 C 
HETATM   10  C1  UNL     1      33.761  37.305  -9.009  1.00  0.00     0.126 C 
HETATM   11  O1  UNL     1      35.096  39.232  -9.202  1.00  0.00    -0.265 OA
ENDBRANCH   8   9
ENDBRANCH   1   8
BRANCH   7  12
HETATM   12  C10 UNL     1      33.497  42.199  -8.427  1.00  0.00     0.212 C 
HETATM   13  O3  UNL     1      32.559  42.484  -7.644  1.00  0.00    -0.644 OA
HETATM   14  O4  UNL     1      34.763  42.152  -7.926  1.00  0.00    -0.644 OA
ENDBRANCH   7  12
TORSDOF 3
ENDMDL
