MODEL 11
REMARK VINA RESULT: -5.626128600      1.270      2.051
REMARK  3 active torsions:
REMARK  status: ('A' for Active; 'I' for Inactive)
REMARK    1  A    between atoms: C2_2  and  O2_4 
REMARK    2  A    between atoms: O2_4  and  C3_5 
REMARK    3  A    between atoms: C9_11  and  C10_12 
ROOT
HETATM    1  C3  UNL     1      36.534  40.245  -2.924  1.00  0.00     0.102 A 
HETATM    2  C4  UNL     1      36.342  38.979  -2.432  1.00  0.00    -0.027 A 
HETATM    3  C5  UNL     1      36.602  38.723  -0.991  1.00  0.00     0.051 C 
HETATM    4  C6  UNL     1      35.913  37.997  -3.304  1.00  0.00     0.009 A 
HETATM    5  C7  UNL     1      35.679  38.272  -4.646  1.00  0.00     0.002 A 
HETATM    6  C8  UNL     1      35.888  39.568  -5.098  1.00  0.00     0.021 A 
HETATM    7  C9  UNL     1      36.314  40.560  -4.252  1.00  0.00     0.075 A 
ENDROOT
BRANCH   1   8
HETATM    8  O2  UNL     1      36.964  41.264  -2.086  1.00  0.00    -0.278 OA
BRANCH   8   9
HETATM    9  C2  UNL     1      36.068  42.184  -1.565  1.00  0.00     0.260 C 
HETATM   10  C1  UNL     1      36.354  43.638  -1.456  1.00  0.00     0.126 C 
HETATM   11  O1  UNL     1      34.956  41.769  -1.163  1.00  0.00    -0.265 OA
ENDBRANCH   8   9
ENDBRANCH   1   8
BRANCH   7  12
HETATM   12  C10 UNL     1      36.535  41.923  -4.710  1.00  0.00     0.212 C 
HETATM   13  O3  UNL     1      35.553  42.557  -5.167  1.00  0.00    -0.644 OA
HETATM   14  O4  UNL     1      37.745  42.549  -4.674  1.00  0.00    -0.644 OA
ENDBRANCH   7  12
TORSDOF 3
ENDMDL
