MODEL 6
REMARK VINA RESULT: -5.751119362      6.663      8.880
REMARK  3 active torsions:
REMARK  status: ('A' for Active; 'I' for Inactive)
REMARK    1  A    between atoms: C2_2  and  O2_4 
REMARK    2  A    between atoms: O2_4  and  C3_5 
REMARK    3  A    between atoms: C9_11  and  C10_12 
ROOT
HETATM    1  C3  UNL     1      33.157  41.711 -10.620  1.00  0.00     0.102 A 
HETATM    2  C4  UNL     1      33.143  40.341 -10.675  1.00  0.00    -0.027 A 
HETATM    3  C5  UNL     1      33.767  39.573  -9.566  1.00  0.00     0.051 C 
HETATM    4  C6  UNL     1      32.544  39.736 -11.764  1.00  0.00     0.009 A 
HETATM    5  C7  UNL     1      31.969  40.486 -12.783  1.00  0.00     0.002 A 
HETATM    6  C8  UNL     1      32.009  41.870 -12.684  1.00  0.00     0.021 A 
HETATM    7  C9  UNL     1      32.597  42.494 -11.613  1.00  0.00     0.075 A 
ENDROOT
BRANCH   1   8
HETATM    8  O2  UNL     1      33.746  42.363  -9.546  1.00  0.00    -0.278 OA
BRANCH   8   9
HETATM    9  C2  UNL     1      33.142  42.371  -8.299  1.00  0.00     0.260 C 
HETATM   10  C1  UNL     1      33.836  41.973  -7.048  1.00  0.00     0.126 C 
HETATM   11  O1  UNL     1      31.945  42.733  -8.221  1.00  0.00    -0.265 OA
ENDBRANCH   8   9
ENDBRANCH   1   8
BRANCH   7  12
HETATM   12  C10 UNL     1      32.645  43.943 -11.495  1.00  0.00     0.212 C 
HETATM   13  O3  UNL     1      31.657  44.524 -10.982  1.00  0.00    -0.644 OA
HETATM   14  O4  UNL     1      33.697  44.704 -11.908  1.00  0.00    -0.644 OA
ENDBRANCH   7  12
TORSDOF 3
ENDMDL
