MODEL 1
REMARK VINA RESULT: -6.495615880      0.000      0.000
REMARK  3 active torsions:
REMARK  status: ('A' for Active; 'I' for Inactive)
REMARK    1  A    between atoms: C2_2  and  O2_4 
REMARK    2  A    between atoms: O2_4  and  C3_5 
REMARK    3  A    between atoms: C9_11  and  C10_12 
ROOT
HETATM    1  C3  UNL     1      35.947  41.529  -2.427  1.00  0.00     0.102 A 
HETATM    2  C4  UNL     1      35.859  40.712  -1.329  1.00  0.00    -0.027 A 
HETATM    3  C5  UNL     1      35.845  41.328   0.024  1.00  0.00     0.051 C 
HETATM    4  C6  UNL     1      35.786  39.347  -1.534  1.00  0.00     0.009 A 
HETATM    5  C7  UNL     1      35.800  38.805  -2.813  1.00  0.00     0.002 A 
HETATM    6  C8  UNL     1      35.891  39.672  -3.893  1.00  0.00     0.021 A 
HETATM    7  C9  UNL     1      35.965  41.030  -3.717  1.00  0.00     0.075 A 
ENDROOT
BRANCH   1   8
HETATM    8  O2  UNL     1      36.022  42.906  -2.271  1.00  0.00    -0.278 OA
BRANCH   8   9
HETATM    9  C2  UNL     1      37.170  43.506  -1.778  1.00  0.00     0.260 C 
HETATM   10  C1  UNL     1      37.175  44.810  -1.068  1.00  0.00     0.126 C 
HETATM   11  O1  UNL     1      38.264  42.917  -1.940  1.00  0.00    -0.265 OA
ENDBRANCH   8   9
ENDBRANCH   1   8
BRANCH   7  12
HETATM   12  C10 UNL     1      36.059  41.951  -4.839  1.00  0.00     0.212 C 
HETATM   13  O3  UNL     1      37.203  42.312  -5.208  1.00  0.00    -0.644 OA
HETATM   14  O4  UNL     1      34.981  42.445  -5.509  1.00  0.00    -0.644 OA
ENDBRANCH   7  12
TORSDOF 3
ENDMDL
