MODEL 5
REMARK VINA RESULT: -7.606363912      3.713      6.782
REMARK  11 active torsions:
REMARK  status: ('A' for Active; 'I' for Inactive)
REMARK    1  A    between atoms: N1_1  and  C1_5 
REMARK    2  A    between atoms: C1_5  and  C2_6 
REMARK    3  A    between atoms: C1_5  and  C10_21 
REMARK    4  A    between atoms: C2_6  and  C3_7 
REMARK    5  A    between atoms: C3_7  and  P1_8 
REMARK    6  A    between atoms: P1_8  and  C4_11 
REMARK    7  A    between atoms: C4_11  and  C5_12 
REMARK    8  A    between atoms: C5_12  and  C6_13 
REMARK    9  A    between atoms: C5_12  and  C9_18 
REMARK   10  A    between atoms: C6_13  and  C7_14 
REMARK   11  A    between atoms: C7_14  and  C8_15 
ROOT
HETATM    1  P1  UNL     1      24.516  44.321  16.934  1.00  0.00     0.107 P 
HETATM    2  O1  UNL     1      24.887  42.668  16.902  1.00  0.00    -0.667 OA
HETATM    3  O2  UNL     1      25.600  45.355  16.214  1.00  0.00    -0.667 OA
ENDROOT
BRANCH   1   4
HETATM    4  C3  UNL     1      23.241  44.808  17.961  1.00  0.00     0.106 C 
BRANCH   4   5
HETATM    5  C2  UNL     1      21.872  44.307  17.673  1.00  0.00     0.054 C 
BRANCH   5   6
HETATM    6  C1  UNL     1      20.680  45.132  17.865  1.00  0.00     0.283 C 
BRANCH   6   7
HETATM    7  N1  UNL     1      20.695  46.532  17.857  1.00  0.00    -0.065 N 
ATOM      8  H13 UNL     1      20.230  46.843  18.709  1.00  0.00     0.275 HD
ATOM      9  H12 UNL     1      21.660  46.823  18.012  1.00  0.00     0.275 HD
ATOM     10  H11 UNL     1      20.330  47.096  17.090  1.00  0.00     0.275 HD
ENDBRANCH   6   7
BRANCH   6  11
HETATM   11  C10 UNL     1      20.111  44.690  19.200  1.00  0.00     0.204 C 
HETATM   12  O7  UNL     1      19.470  45.454  19.952  1.00  0.00    -0.646 OA
HETATM   13  O8  UNL     1      20.320  43.389  19.580  1.00  0.00    -0.646 OA
ENDBRANCH   6  11
ENDBRANCH   5   6
ENDBRANCH   4   5
ENDBRANCH   1   4
BRANCH   1  14
HETATM   14  C4  UNL     1      23.723  44.229  15.472  1.00  0.00     0.119 C 
BRANCH  14  15
HETATM   15  C5  UNL     1      23.612  45.418  14.555  1.00  0.00     0.097 C 
BRANCH  15  16
HETATM   16  C6  UNL     1      23.657  44.844  13.152  1.00  0.00     0.026 C 
BRANCH  16  17
HETATM   17  C7  UNL     1      24.699  45.630  12.385  1.00  0.00     0.114 C 
BRANCH  17  18
HETATM   18  C8  UNL     1      24.141  46.887  11.838  1.00  0.00     0.172 C 
HETATM   19  O3  UNL     1      24.814  47.941  11.979  1.00  0.00    -0.648 OA
HETATM   20  O4  UNL     1      22.925  46.988  11.178  1.00  0.00    -0.648 OA
ENDBRANCH  17  18
ENDBRANCH  16  17
ENDBRANCH  15  16
BRANCH  15  21
HETATM   21  C9  UNL     1      22.522  46.343  14.730  1.00  0.00     0.177 C 
HETATM   22  O5  UNL     1      21.485  46.234  14.042  1.00  0.00    -0.648 OA
HETATM   23  O6  UNL     1      22.578  47.369  15.645  1.00  0.00    -0.648 OA
ENDBRANCH  15  21
ENDBRANCH  14  15
ENDBRANCH   1  14
TORSDOF 11
ENDMDL
