MODEL 3
REMARK VINA RESULT: -7.681723566      1.203      1.833
REMARK  11 active torsions:
REMARK  status: ('A' for Active; 'I' for Inactive)
REMARK    1  A    between atoms: N1_1  and  C1_5 
REMARK    2  A    between atoms: C1_5  and  C2_6 
REMARK    3  A    between atoms: C1_5  and  C10_21 
REMARK    4  A    between atoms: C2_6  and  C3_7 
REMARK    5  A    between atoms: C3_7  and  P1_8 
REMARK    6  A    between atoms: P1_8  and  C4_11 
REMARK    7  A    between atoms: C4_11  and  C5_12 
REMARK    8  A    between atoms: C5_12  and  C6_13 
REMARK    9  A    between atoms: C5_12  and  C9_18 
REMARK   10  A    between atoms: C6_13  and  C7_14 
REMARK   11  A    between atoms: C7_14  and  C8_15 
ROOT
HETATM    1  P1  UNL     1      20.532  44.390  18.664  1.00  0.00     0.107 P 
HETATM    2  O1  UNL     1      19.512  45.740  18.580  1.00  0.00    -0.667 OA
HETATM    3  O2  UNL     1      20.338  43.372  19.963  1.00  0.00    -0.667 OA
ENDROOT
BRANCH   1   4
HETATM    4  C3  UNL     1      21.864  44.359  17.594  1.00  0.00     0.106 C 
BRANCH   4   5
HETATM    5  C2  UNL     1      23.009  45.266  17.867  1.00  0.00     0.054 C 
BRANCH   5   6
HETATM    6  C1  UNL     1      22.921  46.714  17.687  1.00  0.00     0.283 C 
BRANCH   6   7
HETATM    7  N1  UNL     1      22.160  47.554  18.509  1.00  0.00    -0.065 N 
ATOM      8  H13 UNL     1      21.199  47.213  18.480  1.00  0.00     0.275 HD
ATOM      9  H12 UNL     1      22.434  47.361  19.472  1.00  0.00     0.275 HD
ATOM     10  H11 UNL     1      22.124  48.567  18.403  1.00  0.00     0.275 HD
ENDBRANCH   6   7
BRANCH   6  11
HETATM   11  C10 UNL     1      22.430  46.901  16.264  1.00  0.00     0.204 C 
HETATM   12  O7  UNL     1      21.288  47.328  15.990  1.00  0.00    -0.646 OA
HETATM   13  O8  UNL     1      23.293  46.581  15.247  1.00  0.00    -0.646 OA
ENDBRANCH   6  11
ENDBRANCH   5   6
ENDBRANCH   4   5
ENDBRANCH   1   4
BRANCH   1  14
HETATM   14  C4  UNL     1      19.441  43.443  17.835  1.00  0.00     0.119 C 
BRANCH  14  15
HETATM   15  C5  UNL     1      18.474  42.538  18.550  1.00  0.00     0.097 C 
BRANCH  15  16
HETATM   16  C6  UNL     1      17.117  42.849  17.948  1.00  0.00     0.026 C 
BRANCH  16  17
HETATM   17  C7  UNL     1      17.225  42.602  16.459  1.00  0.00     0.114 C 
BRANCH  17  18
HETATM   18  C8  UNL     1      16.089  41.800  15.954  1.00  0.00     0.172 C 
HETATM   19  O3  UNL     1      15.647  42.062  14.805  1.00  0.00    -0.648 OA
HETATM   20  O4  UNL     1      15.472  40.776  16.658  1.00  0.00    -0.648 OA
ENDBRANCH  17  18
ENDBRANCH  16  17
ENDBRANCH  15  16
BRANCH  15  21
HETATM   21  C9  UNL     1      18.737  41.123  18.597  1.00  0.00     0.177 C 
HETATM   22  O5  UNL     1      19.870  40.681  18.313  1.00  0.00    -0.648 OA
HETATM   23  O6  UNL     1      17.766  40.213  18.951  1.00  0.00    -0.648 OA
ENDBRANCH  15  21
ENDBRANCH  14  15
ENDBRANCH   1  14
TORSDOF 11
ENDMDL
