MODEL 7
REMARK VINA RESULT: -7.558368007      3.011      6.388
REMARK  11 active torsions:
REMARK  status: ('A' for Active; 'I' for Inactive)
REMARK    1  A    between atoms: N1_1  and  C1_5 
REMARK    2  A    between atoms: C1_5  and  C2_6 
REMARK    3  A    between atoms: C1_5  and  C10_21 
REMARK    4  A    between atoms: C2_6  and  C3_7 
REMARK    5  A    between atoms: C3_7  and  P1_8 
REMARK    6  A    between atoms: P1_8  and  C4_11 
REMARK    7  A    between atoms: C4_11  and  C5_12 
REMARK    8  A    between atoms: C5_12  and  C6_13 
REMARK    9  A    between atoms: C5_12  and  C9_18 
REMARK   10  A    between atoms: C6_13  and  C7_14 
REMARK   11  A    between atoms: C7_14  and  C8_15 
ROOT
HETATM    1  P1  UNL     1      21.551  45.402  18.002  1.00  0.00     0.107 P 
HETATM    2  O1  UNL     1      22.603  45.426  19.329  1.00  0.00    -0.667 OA
HETATM    3  O2  UNL     1      21.173  46.863  17.306  1.00  0.00    -0.667 OA
ENDROOT
BRANCH   1   4
HETATM    4  C3  UNL     1      20.730  43.936  17.692  1.00  0.00     0.106 C 
BRANCH   4   5
HETATM    5  C2  UNL     1      19.850  43.383  18.754  1.00  0.00     0.054 C 
BRANCH   5   6
HETATM    6  C1  UNL     1      18.591  42.702  18.453  1.00  0.00     0.283 C 
BRANCH   6   7
HETATM    7  N1  UNL     1      17.378  42.999  19.085  1.00  0.00    -0.065 N 
ATOM      8  H13 UNL     1      17.321  42.413  19.918  1.00  0.00     0.275 HD
ATOM      9  H12 UNL     1      17.465  43.936  19.479  1.00  0.00     0.275 HD
ATOM     10  H11 UNL     1      16.472  42.951  18.621  1.00  0.00     0.275 HD
ENDBRANCH   6   7
BRANCH   6  11
HETATM   11  C10 UNL     1      18.878  41.231  18.684  1.00  0.00     0.204 C 
HETATM   12  O7  UNL     1      20.033  40.756  18.690  1.00  0.00    -0.646 OA
HETATM   13  O8  UNL     1      17.806  40.400  18.893  1.00  0.00    -0.646 OA
ENDBRANCH   6  11
ENDBRANCH   5   6
ENDBRANCH   4   5
ENDBRANCH   1   4
BRANCH   1  14
HETATM   14  C4  UNL     1      22.819  45.285  16.927  1.00  0.00     0.119 C 
BRANCH  14  15
HETATM   15  C5  UNL     1      23.322  43.953  16.440  1.00  0.00     0.097 C 
BRANCH  15  16
HETATM   16  C6  UNL     1      23.670  44.168  14.979  1.00  0.00     0.026 C 
BRANCH  16  17
HETATM   17  C7  UNL     1      22.598  45.063  14.396  1.00  0.00     0.114 C 
BRANCH  17  18
HETATM   18  C8  UNL     1      23.092  45.810  13.218  1.00  0.00     0.172 C 
HETATM   19  O3  UNL     1      23.036  45.243  12.095  1.00  0.00    -0.648 OA
HETATM   20  O4  UNL     1      23.613  47.094  13.260  1.00  0.00    -0.648 OA
ENDBRANCH  17  18
ENDBRANCH  16  17
ENDBRANCH  15  16
BRANCH  15  21
HETATM   21  C9  UNL     1      24.381  43.293  17.160  1.00  0.00     0.177 C 
HETATM   22  O5  UNL     1      25.248  43.962  17.761  1.00  0.00    -0.648 OA
HETATM   23  O6  UNL     1      24.481  41.921  17.213  1.00  0.00    -0.648 OA
ENDBRANCH  15  21
ENDBRANCH  14  15
ENDBRANCH   1  14
TORSDOF 11
ENDMDL
