MODEL 4
REMARK VINA RESULT: -7.613751854      2.953      7.175
REMARK  11 active torsions:
REMARK  status: ('A' for Active; 'I' for Inactive)
REMARK    1  A    between atoms: N1_1  and  C1_5 
REMARK    2  A    between atoms: C1_5  and  C2_6 
REMARK    3  A    between atoms: C1_5  and  C10_21 
REMARK    4  A    between atoms: C2_6  and  C3_7 
REMARK    5  A    between atoms: C3_7  and  P1_8 
REMARK    6  A    between atoms: P1_8  and  C4_11 
REMARK    7  A    between atoms: C4_11  and  C5_12 
REMARK    8  A    between atoms: C5_12  and  C6_13 
REMARK    9  A    between atoms: C5_12  and  C9_18 
REMARK   10  A    between atoms: C6_13  and  C7_14 
REMARK   11  A    between atoms: C7_14  and  C8_15 
ROOT
HETATM    1  P1  UNL     1      19.613  44.486  18.939  1.00  0.00     0.107 P 
HETATM    2  O1  UNL     1      20.595  43.353  19.728  1.00  0.00    -0.667 OA
HETATM    3  O2  UNL     1      19.525  46.006  19.603  1.00  0.00    -0.667 OA
ENDROOT
BRANCH   1   4
HETATM    4  C3  UNL     1      18.564  43.890  17.729  1.00  0.00     0.106 C 
BRANCH   4   5
HETATM    5  C2  UNL     1      18.396  42.419  17.602  1.00  0.00     0.054 C 
BRANCH   5   6
HETATM    6  C1  UNL     1      17.480  41.659  18.451  1.00  0.00     0.283 C 
BRANCH   6   7
HETATM    7  N1  UNL     1      16.662  42.243  19.427  1.00  0.00    -0.065 N 
ATOM      8  H13 UNL     1      17.269  42.782  20.045  1.00  0.00     0.275 HD
ATOM      9  H12 UNL     1      16.114  42.969  18.965  1.00  0.00     0.275 HD
ATOM     10  H11 UNL     1      16.023  41.714  20.018  1.00  0.00     0.275 HD
ENDBRANCH   6   7
BRANCH   6  11
HETATM   11  C10 UNL     1      18.351  40.630  19.144  1.00  0.00     0.204 C 
HETATM   12  O7  UNL     1      19.575  40.514  18.920  1.00  0.00    -0.646 OA
HETATM   13  O8  UNL     1      17.750  39.797  20.052  1.00  0.00    -0.646 OA
ENDBRANCH   6  11
ENDBRANCH   5   6
ENDBRANCH   4   5
ENDBRANCH   1   4
BRANCH   1  14
HETATM   14  C4  UNL     1      20.886  45.028  18.012  1.00  0.00     0.119 C 
BRANCH  14  15
HETATM   15  C5  UNL     1      21.653  46.272  18.370  1.00  0.00     0.097 C 
BRANCH  15  16
HETATM   16  C6  UNL     1      22.998  45.780  18.872  1.00  0.00     0.026 C 
BRANCH  16  17
HETATM   17  C7  UNL     1      23.491  44.748  17.881  1.00  0.00     0.114 C 
BRANCH  17  18
HETATM   18  C8  UNL     1      24.827  45.097  17.349  1.00  0.00     0.172 C 
HETATM   19  O3  UNL     1      24.892  45.980  16.455  1.00  0.00    -0.648 OA
HETATM   20  O4  UNL     1      26.017  44.519  17.765  1.00  0.00    -0.648 OA
ENDBRANCH  17  18
ENDBRANCH  16  17
ENDBRANCH  15  16
BRANCH  15  21
HETATM   21  C9  UNL     1      21.788  47.323  17.396  1.00  0.00     0.177 C 
HETATM   22  O5  UNL     1      22.159  48.464  17.745  1.00  0.00    -0.648 OA
HETATM   23  O6  UNL     1      21.518  47.119  16.062  1.00  0.00    -0.648 OA
ENDBRANCH  15  21
ENDBRANCH  14  15
ENDBRANCH   1  14
TORSDOF 11
ENDMDL
