MODEL 2
REMARK VINA RESULT: -7.748887898      1.611      2.018
REMARK  11 active torsions:
REMARK  status: ('A' for Active; 'I' for Inactive)
REMARK    1  A    between atoms: N1_1  and  C1_5 
REMARK    2  A    between atoms: C1_5  and  C2_6 
REMARK    3  A    between atoms: C1_5  and  C10_21 
REMARK    4  A    between atoms: C2_6  and  C3_7 
REMARK    5  A    between atoms: C3_7  and  P1_8 
REMARK    6  A    between atoms: P1_8  and  C4_11 
REMARK    7  A    between atoms: C4_11  and  C5_12 
REMARK    8  A    between atoms: C5_12  and  C6_13 
REMARK    9  A    between atoms: C5_12  and  C9_18 
REMARK   10  A    between atoms: C6_13  and  C7_14 
REMARK   11  A    between atoms: C7_14  and  C8_15 
ROOT
HETATM    1  P1  UNL     1      20.452  44.347  18.524  1.00  0.00     0.107 P 
HETATM    2  O1  UNL     1      19.532  45.769  18.496  1.00  0.00    -0.667 OA
HETATM    3  O2  UNL     1      20.384  43.427  19.906  1.00  0.00    -0.667 OA
ENDROOT
BRANCH   1   4
HETATM    4  C3  UNL     1      21.601  44.144  17.275  1.00  0.00     0.106 C 
BRANCH   4   5
HETATM    5  C2  UNL     1      23.011  44.526  17.546  1.00  0.00     0.054 C 
BRANCH   5   6
HETATM    6  C1  UNL     1      23.739  45.478  16.708  1.00  0.00     0.283 C 
BRANCH   6   7
HETATM    7  N1  UNL     1      25.058  45.878  16.954  1.00  0.00    -0.065 N 
ATOM      8  H13 UNL     1      25.649  45.055  16.835  1.00  0.00     0.275 HD
ATOM      9  H12 UNL     1      25.344  46.470  16.174  1.00  0.00     0.275 HD
ATOM     10  H11 UNL     1      25.357  46.342  17.810  1.00  0.00     0.275 HD
ENDBRANCH   6   7
BRANCH   6  11
HETATM   11  C10 UNL     1      22.879  46.727  16.698  1.00  0.00     0.204 C 
HETATM   12  O7  UNL     1      22.607  47.374  17.732  1.00  0.00    -0.646 OA
HETATM   13  O8  UNL     1      22.386  47.149  15.489  1.00  0.00    -0.646 OA
ENDBRANCH   6  11
ENDBRANCH   5   6
ENDBRANCH   4   5
ENDBRANCH   1   4
BRANCH   1  14
HETATM   14  C4  UNL     1      19.182  43.447  17.932  1.00  0.00     0.119 C 
BRANCH  14  15
HETATM   15  C5  UNL     1      18.457  42.442  18.788  1.00  0.00     0.097 C 
BRANCH  15  16
HETATM   16  C6  UNL     1      16.983  42.738  18.586  1.00  0.00     0.026 C 
BRANCH  16  17
HETATM   17  C7  UNL     1      16.754  42.853  17.095  1.00  0.00     0.114 C 
BRANCH  17  18
HETATM   18  C8  UNL     1      15.701  41.922  16.631  1.00  0.00     0.172 C 
HETATM   19  O3  UNL     1      14.965  41.385  17.500  1.00  0.00    -0.648 OA
HETATM   20  O4  UNL     1      15.464  41.597  15.304  1.00  0.00    -0.648 OA
ENDBRANCH  17  18
ENDBRANCH  16  17
ENDBRANCH  15  16
BRANCH  15  21
HETATM   21  C9  UNL     1      18.757  41.042  18.638  1.00  0.00     0.177 C 
HETATM   22  O5  UNL     1      19.914  40.671  18.347  1.00  0.00    -0.648 OA
HETATM   23  O6  UNL     1      17.797  40.070  18.805  1.00  0.00    -0.648 OA
ENDBRANCH  15  21
ENDBRANCH  14  15
ENDBRANCH   1  14
TORSDOF 11
ENDMDL
