MODEL 8
REMARK VINA RESULT: -7.467144648      1.779      2.177
REMARK  11 active torsions:
REMARK  status: ('A' for Active; 'I' for Inactive)
REMARK    1  A    between atoms: N1_1  and  C1_5 
REMARK    2  A    between atoms: C1_5  and  C2_6 
REMARK    3  A    between atoms: C1_5  and  C10_21 
REMARK    4  A    between atoms: C2_6  and  C3_7 
REMARK    5  A    between atoms: C3_7  and  P1_8 
REMARK    6  A    between atoms: P1_8  and  C4_11 
REMARK    7  A    between atoms: C4_11  and  C5_12 
REMARK    8  A    between atoms: C5_12  and  C6_13 
REMARK    9  A    between atoms: C5_12  and  C9_18 
REMARK   10  A    between atoms: C6_13  and  C7_14 
REMARK   11  A    between atoms: C7_14  and  C8_15 
ROOT
HETATM    1  P1  UNL     1      20.680  44.502  18.720  1.00  0.00     0.107 P 
HETATM    2  O1  UNL     1      19.617  45.810  18.558  1.00  0.00    -0.667 OA
HETATM    3  O2  UNL     1      20.492  43.533  20.057  1.00  0.00    -0.667 OA
ENDROOT
BRANCH   1   4
HETATM    4  C3  UNL     1      22.036  44.473  17.681  1.00  0.00     0.106 C 
BRANCH   4   5
HETATM    5  C2  UNL     1      23.231  45.273  18.059  1.00  0.00     0.054 C 
BRANCH   5   6
HETATM    6  C1  UNL     1      24.593  44.838  17.752  1.00  0.00     0.283 C 
BRANCH   6   7
HETATM    7  N1  UNL     1      25.679  45.020  18.617  1.00  0.00    -0.065 N 
ATOM      8  H13 UNL     1      25.890  44.112  19.031  1.00  0.00     0.275 HD
ATOM      9  H12 UNL     1      26.500  45.195  18.037  1.00  0.00     0.275 HD
ATOM     10  H11 UNL     1      25.691  45.706  19.371  1.00  0.00     0.275 HD
ENDBRANCH   6   7
BRANCH   6  11
HETATM   11  C10 UNL     1      24.934  45.520  16.441  1.00  0.00     0.204 C 
HETATM   12  O7  UNL     1      26.015  45.338  15.841  1.00  0.00    -0.646 OA
HETATM   13  O8  UNL     1      24.002  46.373  15.908  1.00  0.00    -0.646 OA
ENDBRANCH   6  11
ENDBRANCH   5   6
ENDBRANCH   4   5
ENDBRANCH   1   4
BRANCH   1  14
HETATM   14  C4  UNL     1      19.641  43.483  17.909  1.00  0.00     0.119 C 
BRANCH  14  15
HETATM   15  C5  UNL     1      18.626  42.644  18.637  1.00  0.00     0.097 C 
BRANCH  15  16
HETATM   16  C6  UNL     1      17.292  43.000  18.009  1.00  0.00     0.026 C 
BRANCH  16  17
HETATM   17  C7  UNL     1      17.304  42.447  16.600  1.00  0.00     0.114 C 
BRANCH  17  18
HETATM   18  C8  UNL     1      16.140  41.568  16.348  1.00  0.00     0.172 C 
HETATM   19  O3  UNL     1      15.287  41.443  17.265  1.00  0.00    -0.648 OA
HETATM   20  O4  UNL     1      15.919  40.870  15.171  1.00  0.00    -0.648 OA
ENDBRANCH  17  18
ENDBRANCH  16  17
ENDBRANCH  15  16
BRANCH  15  21
HETATM   21  C9  UNL     1      18.822  41.220  18.727  1.00  0.00     0.177 C 
HETATM   22  O5  UNL     1      19.904  40.708  18.369  1.00  0.00    -0.648 OA
HETATM   23  O6  UNL     1      17.843  40.379  19.204  1.00  0.00    -0.648 OA
ENDBRANCH  15  21
ENDBRANCH  14  15
ENDBRANCH   1  14
TORSDOF 11
ENDMDL
