MODEL 1
REMARK VINA RESULT: -7.141326295      0.000      0.000
REMARK  4 active torsions:
REMARK  status: ('A' for Active; 'I' for Inactive)
REMARK    1  A    between atoms: N1_1  and  C1_5 
REMARK    2  A    between atoms: C1_5  and  C2_6 
REMARK    3  A    between atoms: C1_5  and  C5_15 
REMARK    4  A    between atoms: C2_6  and  N2_7 
ROOT
HETATM    1  C2  UNL     1      16.875  42.133  18.503  1.00  0.00     0.205 C 
ENDROOT
BRANCH   1   2
HETATM    2  C1  UNL     1      17.702  40.984  18.989  1.00  0.00     0.303 C 
BRANCH   2   3
HETATM    3  N1  UNL     1      17.482  40.628  20.351  1.00  0.00    -0.064 N 
ATOM      4  H13 UNL     1      16.679  41.134  20.725  1.00  0.00     0.275 HD
ATOM      5  H12 UNL     1      17.133  39.672  20.415  1.00  0.00     0.275 HD
ATOM      6  H11 UNL     1      18.292  40.751  20.959  1.00  0.00     0.275 HD
ENDBRANCH   2   3
BRANCH   2   7
HETATM    7  C5  UNL     1      19.129  41.342  18.809  1.00  0.00     0.206 C 
HETATM    8  O4  UNL     1      19.952  40.480  18.442  1.00  0.00    -0.646 OA
HETATM    9  O5  UNL     1      19.552  42.654  19.051  1.00  0.00    -0.646 OA
ENDBRANCH   2   7
ENDBRANCH   1   2
BRANCH   1  10
HETATM   10  N2  UNL     1      16.484  42.042  17.130  1.00  0.00    -0.194 N 
HETATM   11  O1  UNL     1      17.065  42.566  16.098  1.00  0.00    -0.174 OA
HETATM   12  C3  UNL     1      16.392  42.250  14.994  1.00  0.00     0.391 A 
HETATM   13  O2  UNL     1      16.660  42.583  13.811  1.00  0.00    -0.236 OA
HETATM   14  N3  UNL     1      15.356  41.504  15.357  1.00  0.00    -0.251 N 
HETATM   15  C4  UNL     1      15.406  41.367  16.697  1.00  0.00     0.351 A 
ATOM     16  H3  UNL     1      14.652  41.106  14.736  1.00  0.00     0.176 HD
HETATM   17  O3  UNL     1      14.554  40.707  17.344  1.00  0.00    -0.244 OA
ENDBRANCH   1  10
TORSDOF 4
ENDMDL
