MODEL 2
REMARK VINA RESULT: -7.103161300      1.359      1.556
REMARK  4 active torsions:
REMARK  status: ('A' for Active; 'I' for Inactive)
REMARK    1  A    between atoms: N1_1  and  C1_5 
REMARK    2  A    between atoms: C1_5  and  C2_6 
REMARK    3  A    between atoms: C1_5  and  C5_15 
REMARK    4  A    between atoms: C2_6  and  N2_7 
ROOT
HETATM    1  C2  UNL     1      16.897  42.349  18.265  1.00  0.00     0.205 C 
ENDROOT
BRANCH   1   2
HETATM    2  C1  UNL     1      18.368  42.370  18.540  1.00  0.00     0.303 C 
BRANCH   2   3
HETATM    3  N1  UNL     1      19.164  42.885  17.476  1.00  0.00    -0.064 N 
ATOM      4  H13 UNL     1      18.977  43.879  17.342  1.00  0.00     0.275 HD
ATOM      5  H12 UNL     1      20.144  42.927  17.755  1.00  0.00     0.275 HD
ATOM      6  H11 UNL     1      19.069  42.385  16.593  1.00  0.00     0.275 HD
ENDBRANCH   2   3
BRANCH   2   7
HETATM    7  C5  UNL     1      18.796  40.982  18.833  1.00  0.00     0.206 C 
HETATM    8  O4  UNL     1      19.963  40.617  18.582  1.00  0.00    -0.646 OA
HETATM    9  O5  UNL     1      17.887  40.078  19.394  1.00  0.00    -0.646 OA
ENDBRANCH   2   7
ENDBRANCH   1   2
BRANCH   1  10
HETATM   10  N2  UNL     1      16.554  42.122  16.895  1.00  0.00    -0.194 N 
HETATM   11  O1  UNL     1      16.775  42.891  15.878  1.00  0.00    -0.174 OA
HETATM   12  C3  UNL     1      16.303  42.323  14.771  1.00  0.00     0.391 A 
HETATM   13  O2  UNL     1      16.339  42.779  13.600  1.00  0.00    -0.236 OA
HETATM   14  N3  UNL     1      15.769  41.158  15.117  1.00  0.00    -0.251 N 
HETATM   15  C4  UNL     1      15.922  41.022  16.449  1.00  0.00     0.351 A 
ATOM     16  H3  UNL     1      15.324  40.489  14.490  1.00  0.00     0.176 HD
HETATM   17  O3  UNL     1      15.515  40.014  17.081  1.00  0.00    -0.244 OA
ENDBRANCH   1  10
TORSDOF 4
ENDMDL
