MODEL 9
REMARK VINA RESULT: -6.747919006      1.324      1.427
REMARK  4 active torsions:
REMARK  status: ('A' for Active; 'I' for Inactive)
REMARK    1  A    between atoms: N1_1  and  C1_5 
REMARK    2  A    between atoms: C1_5  and  C2_6 
REMARK    3  A    between atoms: C1_5  and  C5_15 
REMARK    4  A    between atoms: C2_6  and  N2_7 
ROOT
HETATM    1  C2  UNL     1      18.360  41.075  17.531  1.00  0.00     0.205 C 
ENDROOT
BRANCH   1   2
HETATM    2  C1  UNL     1      18.345  41.936  18.755  1.00  0.00     0.303 C 
BRANCH   2   3
HETATM    3  N1  UNL     1      17.120  42.627  18.982  1.00  0.00    -0.064 N 
ATOM      4  H13 UNL     1      16.470  42.458  18.213  1.00  0.00     0.275 HD
ATOM      5  H12 UNL     1      16.604  42.192  19.746  1.00  0.00     0.275 HD
ATOM      6  H11 UNL     1      17.220  43.628  19.147  1.00  0.00     0.275 HD
ENDBRANCH   2   3
BRANCH   2   7
HETATM    7  C5  UNL     1      19.440  42.927  18.628  1.00  0.00     0.206 C 
HETATM    8  O4  UNL     1      20.364  42.742  17.810  1.00  0.00    -0.646 OA
HETATM    9  O5  UNL     1      19.436  44.074  19.429  1.00  0.00    -0.646 OA
ENDBRANCH   2   7
ENDBRANCH   1   2
BRANCH   1  10
HETATM   10  N2  UNL     1      17.400  41.443  16.537  1.00  0.00    -0.194 N 
HETATM   11  O1  UNL     1      17.584  42.163  15.476  1.00  0.00    -0.174 OA
HETATM   12  C3  UNL     1      16.441  42.277  14.805  1.00  0.00     0.391 A 
HETATM   13  O2  UNL     1      16.240  42.902  13.732  1.00  0.00    -0.236 OA
HETATM   14  N3  UNL     1      15.514  41.604  15.477  1.00  0.00    -0.251 N 
HETATM   15  C4  UNL     1      16.107  41.077  16.566  1.00  0.00     0.351 A 
ATOM     16  H3  UNL     1      14.534  41.505  15.217  1.00  0.00     0.176 HD
HETATM   17  O3  UNL     1      15.486  40.378  17.407  1.00  0.00    -0.244 OA
ENDBRANCH   1  10
TORSDOF 4
ENDMDL
