MODEL 5
REMARK VINA RESULT: -6.994306985      3.277      4.949
REMARK  4 active torsions:
REMARK  status: ('A' for Active; 'I' for Inactive)
REMARK    1  A    between atoms: N1_1  and  C1_5 
REMARK    2  A    between atoms: C1_5  and  C2_6 
REMARK    3  A    between atoms: C1_5  and  C5_15 
REMARK    4  A    between atoms: C2_6  and  N2_7 
ROOT
HETATM    1  C2  UNL     1      18.751  42.802  18.774  1.00  0.00     0.205 C 
ENDROOT
BRANCH   1   2
HETATM    2  C1  UNL     1      18.917  41.322  18.918  1.00  0.00     0.303 C 
BRANCH   2   3
HETATM    3  N1  UNL     1      19.312  40.649  17.726  1.00  0.00    -0.064 N 
ATOM      4  H13 UNL     1      19.737  41.307  17.072  1.00  0.00     0.275 HD
ATOM      5  H12 UNL     1      20.112  40.043  17.910  1.00  0.00     0.275 HD
ATOM      6  H11 UNL     1      18.569  40.124  17.267  1.00  0.00     0.275 HD
ENDBRANCH   2   3
BRANCH   2   7
HETATM    7  C5  UNL     1      17.625  40.762  19.381  1.00  0.00     0.206 C 
HETATM    8  O4  UNL     1      16.556  41.353  19.125  1.00  0.00    -0.646 OA
HETATM    9  O5  UNL     1      17.605  39.566  20.107  1.00  0.00    -0.646 OA
ENDBRANCH   2   7
ENDBRANCH   1   2
BRANCH   1  10
HETATM   10  N2  UNL     1      19.940  43.496  18.386  1.00  0.00    -0.194 N 
HETATM   11  O1  UNL     1      20.852  43.113  17.550  1.00  0.00    -0.174 OA
HETATM   12  C3  UNL     1      21.801  44.042  17.461  1.00  0.00     0.391 A 
HETATM   13  O2  UNL     1      22.838  44.013  16.750  1.00  0.00    -0.236 OA
HETATM   14  N3  UNL     1      21.464  45.036  18.274  1.00  0.00    -0.251 N 
HETATM   15  C4  UNL     1      20.297  44.703  18.859  1.00  0.00     0.351 A 
ATOM     16  H3  UNL     1      21.991  45.895  18.427  1.00  0.00     0.176 HD
HETATM   17  O3  UNL     1      19.714  45.449  19.687  1.00  0.00    -0.244 OA
ENDBRANCH   1  10
TORSDOF 4
ENDMDL
