MODEL 8
REMARK VINA RESULT: -6.795367439      1.004      1.414
REMARK  4 active torsions:
REMARK  status: ('A' for Active; 'I' for Inactive)
REMARK    1  A    between atoms: N1_1  and  C1_5 
REMARK    2  A    between atoms: C1_5  and  C2_6 
REMARK    3  A    between atoms: C1_5  and  C5_15 
REMARK    4  A    between atoms: C2_6  and  N2_7 
ROOT
HETATM    1  C2  UNL     1      17.314  40.452  17.777  1.00  0.00     0.205 C 
ENDROOT
BRANCH   1   2
HETATM    2  C1  UNL     1      17.619  41.440  18.859  1.00  0.00     0.303 C 
BRANCH   2   3
HETATM    3  N1  UNL     1      16.943  42.688  18.733  1.00  0.00    -0.064 N 
ATOM      4  H13 UNL     1      17.468  43.315  18.123  1.00  0.00     0.275 HD
ATOM      5  H12 UNL     1      16.094  42.576  18.179  1.00  0.00     0.275 HD
ATOM      6  H11 UNL     1      16.731  43.149  19.617  1.00  0.00     0.275 HD
ENDBRANCH   2   3
BRANCH   2   7
HETATM    7  C5  UNL     1      19.081  41.682  18.855  1.00  0.00     0.206 C 
HETATM    8  O4  UNL     1      19.534  42.803  19.162  1.00  0.00    -0.646 OA
HETATM    9  O5  UNL     1      19.956  40.647  18.506  1.00  0.00    -0.646 OA
ENDBRANCH   2   7
ENDBRANCH   1   2
BRANCH   1  10
HETATM   10  N2  UNL     1      16.664  41.010  16.632  1.00  0.00    -0.194 N 
HETATM   11  O1  UNL     1      17.106  41.923  15.828  1.00  0.00    -0.174 OA
HETATM   12  C3  UNL     1      16.201  42.170  14.884  1.00  0.00     0.391 A 
HETATM   13  O2  UNL     1      16.285  42.993  13.937  1.00  0.00    -0.236 OA
HETATM   14  N3  UNL     1      15.159  41.380  15.114  1.00  0.00    -0.251 N 
HETATM   15  C4  UNL     1      15.440  40.647  16.209  1.00  0.00     0.351 A 
ATOM     16  H3  UNL     1      14.303  41.335  14.562  1.00  0.00     0.176 HD
HETATM   17  O3  UNL     1      14.643  39.798  16.682  1.00  0.00    -0.244 OA
ENDBRANCH   1  10
TORSDOF 4
ENDMDL
