MODEL 2
REMARK VINA RESULT: -8.943164398      1.215      1.629
REMARK  9 active torsions:
REMARK  status: ('A' for Active; 'I' for Inactive)
REMARK    1  A    between atoms: C2_2  and  O1_3 
REMARK    2  A    between atoms: O1_3  and  C3_4 
REMARK    3  A    between atoms: C3_4  and  C4_5 
REMARK    4  A    between atoms: C3_4  and  C22_28 
REMARK    5  A    between atoms: C4_5  and  C5_6 
REMARK    6  A    between atoms: C8_9  and  O2_10 
REMARK    7  A    between atoms: O2_10  and  C9_11 
REMARK    8  A    between atoms: C9_11  and  C10_12 
REMARK    9  A    between atoms: C12_15  and  C13_16 
ROOT
HETATM    1  C5  UNL     1      47.827  25.624  30.196  1.00  0.00    -0.049 A 
HETATM    2  C6  UNL     1      49.077  25.986  29.699  1.00  0.00     0.010 A 
HETATM    3  C7  UNL     1      50.155  26.197  30.529  1.00  0.00     0.037 A 
HETATM    4  C8  UNL     1      50.037  26.057  31.891  1.00  0.00     0.069 A 
HETATM    5  C19 UNL     1      48.814  25.701  32.404  1.00  0.00     0.044 A 
HETATM    6  C20 UNL     1      47.724  25.488  31.558  1.00  0.00    -0.053 A 
HETATM    7  C21 UNL     1      46.435  25.117  32.177  1.00  0.00     0.049 C 
ENDROOT
BRANCH   4   8
HETATM    8  O2  UNL     1      51.079  26.253  32.777  1.00  0.00    -0.345 OA
BRANCH   8   9
HETATM    9  C9  UNL     1      51.987  27.310  32.775  1.00  0.00     0.233 C 
BRANCH   9  10
HETATM   10  C10 UNL     1      51.887  27.922  34.167  1.00  0.00     0.041 A 
HETATM   11  C11 UNL     1      52.778  27.547  35.148  1.00  0.00     0.079 A 
HETATM   12  S1  UNL     1      52.248  28.490  36.469  1.00  0.00    -0.081 SA
HETATM   13  C12 UNL     1      50.946  29.290  35.711  1.00  0.00     0.084 A 
HETATM   14  N1  UNL     1      50.987  28.793  34.484  1.00  0.00    -0.351 N 
ATOM     15  H1  UNL     1      50.308  29.099  33.789  1.00  0.00     0.166 HD
BRANCH  13  16
HETATM   16  C13 UNL     1      50.006  30.287  36.271  1.00  0.00    -0.002 A 
HETATM   17  C14 UNL     1      49.984  30.423  37.637  1.00  0.00     0.016 A 
HETATM   18  C15 UNL     1      49.118  31.343  38.200  1.00  0.00     0.024 A 
HETATM   19  C16 UNL     1      48.296  32.108  37.401  1.00  0.00     0.034 A 
HETATM   20 CL1  UNL     1      47.187  33.285  38.090  1.00  0.00    -0.084 Cl
HETATM   21  C17 UNL     1      48.339  31.951  36.041  1.00  0.00     0.024 A 
HETATM   22  C18 UNL     1      49.198  31.037  35.468  1.00  0.00     0.016 A 
ENDBRANCH  13  16
ENDBRANCH   9  10
ENDBRANCH   8   9
ENDBRANCH   4   8
BRANCH   1  23
HETATM   23  C4  UNL     1      46.685  25.394  29.287  1.00  0.00     0.082 C 
BRANCH  23  24
HETATM   24  C3  UNL     1      46.464  26.473  28.272  1.00  0.00     0.226 C 
BRANCH  24  25
HETATM   25  O1  UNL     1      45.444  27.339  28.568  1.00  0.00    -0.375 OA
BRANCH  25  26
HETATM   26  C2  UNL     1      44.468  26.823  29.366  1.00  0.00     0.164 C 
HETATM   27  C1  UNL     1      43.085  26.805  28.816  1.00  0.00     0.033 C 
ENDBRANCH  25  26
ENDBRANCH  24  25
BRANCH  24  28
HETATM   28  C22 UNL     1      46.181  25.784  26.973  1.00  0.00     0.203 C 
HETATM   29  O3  UNL     1      45.747  26.485  26.032  1.00  0.00    -0.646 OA
HETATM   30  O4  UNL     1      46.371  24.433  26.758  1.00  0.00    -0.646 OA
ENDBRANCH  24  28
ENDBRANCH  23  24
ENDBRANCH   1  23
TORSDOF 9
ENDMDL
