MODEL 1
REMARK VINA RESULT: -9.207208514      0.000      0.000
REMARK  9 active torsions:
REMARK  status: ('A' for Active; 'I' for Inactive)
REMARK    1  A    between atoms: C2_2  and  O1_3 
REMARK    2  A    between atoms: O1_3  and  C3_4 
REMARK    3  A    between atoms: C3_4  and  C4_5 
REMARK    4  A    between atoms: C3_4  and  C22_28 
REMARK    5  A    between atoms: C4_5  and  C5_6 
REMARK    6  A    between atoms: C8_9  and  O2_10 
REMARK    7  A    between atoms: O2_10  and  C9_11 
REMARK    8  A    between atoms: C9_11  and  C10_12 
REMARK    9  A    between atoms: C12_15  and  C13_16 
ROOT
HETATM    1  C5  UNL     1      46.751  26.005  29.934  1.00  0.00    -0.049 A 
HETATM    2  C6  UNL     1      48.032  25.559  29.611  1.00  0.00     0.010 A 
HETATM    3  C7  UNL     1      49.065  25.601  30.518  1.00  0.00     0.037 A 
HETATM    4  C8  UNL     1      48.872  26.088  31.789  1.00  0.00     0.069 A 
HETATM    5  C19 UNL     1      47.619  26.533  32.130  1.00  0.00     0.044 A 
HETATM    6  C20 UNL     1      46.573  26.489  31.206  1.00  0.00    -0.053 A 
HETATM    7  C21 UNL     1      45.253  26.992  31.635  1.00  0.00     0.049 C 
ENDROOT
BRANCH   4   8
HETATM    8  O2  UNL     1      49.866  26.156  32.746  1.00  0.00    -0.345 OA
BRANCH   8   9
HETATM    9  C9  UNL     1      51.215  26.428  32.529  1.00  0.00     0.233 C 
BRANCH   9  10
HETATM   10  C10 UNL     1      51.579  27.484  33.565  1.00  0.00     0.041 A 
HETATM   11  C11 UNL     1      52.894  27.660  33.934  1.00  0.00     0.079 A 
HETATM   12  S1  UNL     1      52.762  28.918  35.082  1.00  0.00    -0.081 SA
HETATM   13  C12 UNL     1      51.071  29.142  35.026  1.00  0.00     0.084 A 
HETATM   14  N1  UNL     1      50.698  28.242  34.130  1.00  0.00    -0.351 N 
ATOM     15  H1  UNL     1      49.712  28.146  33.886  1.00  0.00     0.166 HD
BRANCH  13  16
HETATM   16  C13 UNL     1      50.229  30.097  35.781  1.00  0.00    -0.002 A 
HETATM   17  C14 UNL     1      49.400  30.910  35.050  1.00  0.00     0.016 A 
HETATM   18  C15 UNL     1      48.598  31.818  35.719  1.00  0.00     0.024 A 
HETATM   19  C16 UNL     1      48.633  31.898  37.094  1.00  0.00     0.034 A 
HETATM   20 CL1  UNL     1      47.624  33.040  37.970  1.00  0.00    -0.084 Cl
HETATM   21  C17 UNL     1      49.470  31.073  37.799  1.00  0.00     0.024 A 
HETATM   22  C18 UNL     1      50.274  30.165  37.143  1.00  0.00     0.016 A 
ENDBRANCH  13  16
ENDBRANCH   9  10
ENDBRANCH   8   9
ENDBRANCH   4   8
BRANCH   1  23
HETATM   23  C4  UNL     1      45.653  25.943  28.947  1.00  0.00     0.082 C 
BRANCH  23  24
HETATM   24  C3  UNL     1      46.064  26.224  27.534  1.00  0.00     0.226 C 
BRANCH  24  25
HETATM   25  O1  UNL     1      45.658  27.440  27.049  1.00  0.00    -0.375 OA
BRANCH  25  26
HETATM   26  C2  UNL     1      44.733  28.082  27.816  1.00  0.00     0.164 C 
HETATM   27  C1  UNL     1      43.692  28.870  27.101  1.00  0.00     0.033 C 
ENDBRANCH  25  26
ENDBRANCH  24  25
BRANCH  24  28
HETATM   28  C22 UNL     1      45.484  25.126  26.697  1.00  0.00     0.203 C 
HETATM   29  O3  UNL     1      46.234  24.168  26.404  1.00  0.00    -0.646 OA
HETATM   30  O4  UNL     1      44.183  25.111  26.235  1.00  0.00    -0.646 OA
ENDBRANCH  24  28
ENDBRANCH  23  24
ENDBRANCH   1  23
TORSDOF 9
ENDMDL
