MODEL 3
REMARK VINA RESULT: -8.926822365      1.179      2.167
REMARK  9 active torsions:
REMARK  status: ('A' for Active; 'I' for Inactive)
REMARK    1  A    between atoms: C2_2  and  O1_3 
REMARK    2  A    between atoms: O1_3  and  C3_4 
REMARK    3  A    between atoms: C3_4  and  C4_5 
REMARK    4  A    between atoms: C3_4  and  C22_28 
REMARK    5  A    between atoms: C4_5  and  C5_6 
REMARK    6  A    between atoms: C8_9  and  O2_10 
REMARK    7  A    between atoms: O2_10  and  C9_11 
REMARK    8  A    between atoms: C9_11  and  C10_12 
REMARK    9  A    between atoms: C12_15  and  C13_16 
ROOT
HETATM    1  C5  UNL     1      47.884  25.512  29.604  1.00  0.00    -0.049 A 
HETATM    2  C6  UNL     1      47.655  25.051  30.899  1.00  0.00     0.010 A 
HETATM    3  C7  UNL     1      48.575  25.229  31.906  1.00  0.00     0.037 A 
HETATM    4  C8  UNL     1      49.765  25.874  31.671  1.00  0.00     0.069 A 
HETATM    5  C19 UNL     1      50.014  26.337  30.403  1.00  0.00     0.044 A 
HETATM    6  C20 UNL     1      49.077  26.154  29.383  1.00  0.00    -0.053 A 
HETATM    7  C21 UNL     1      49.412  26.668  28.040  1.00  0.00     0.049 C 
ENDROOT
BRANCH   4   8
HETATM    8  O2  UNL     1      50.729  26.085  32.638  1.00  0.00    -0.345 OA
BRANCH   8   9
HETATM    9  C9  UNL     1      51.823  26.945  32.551  1.00  0.00     0.233 C 
BRANCH   9  10
HETATM   10  C10 UNL     1      51.880  27.652  33.900  1.00  0.00     0.041 A 
HETATM   11  C11 UNL     1      52.904  27.377  34.777  1.00  0.00     0.079 A 
HETATM   12  S1  UNL     1      52.514  28.396  36.091  1.00  0.00    -0.081 SA
HETATM   13  C12 UNL     1      51.093  29.099  35.458  1.00  0.00     0.084 A 
HETATM   14  N1  UNL     1      50.995  28.517  34.274  1.00  0.00    -0.351 N 
ATOM     15  H1  UNL     1      50.219  28.751  33.655  1.00  0.00     0.166 HD
BRANCH  13  16
HETATM   16  C13 UNL     1      50.195  30.104  36.070  1.00  0.00    -0.002 A 
HETATM   17  C14 UNL     1      50.217  30.209  37.438  1.00  0.00     0.016 A 
HETATM   18  C15 UNL     1      49.391  31.137  38.048  1.00  0.00     0.024 A 
HETATM   19  C16 UNL     1      48.565  31.939  37.291  1.00  0.00     0.034 A 
HETATM   20 CL1  UNL     1      47.506  33.126  38.040  1.00  0.00    -0.084 Cl
HETATM   21  C17 UNL     1      48.563  31.813  35.927  1.00  0.00     0.024 A 
HETATM   22  C18 UNL     1      49.382  30.892  35.308  1.00  0.00     0.016 A 
ENDBRANCH  13  16
ENDBRANCH   9  10
ENDBRANCH   8   9
ENDBRANCH   4   8
BRANCH   1  23
HETATM   23  C4  UNL     1      46.878  25.318  28.539  1.00  0.00     0.082 C 
BRANCH  23  24
HETATM   24  C3  UNL     1      45.757  26.311  28.547  1.00  0.00     0.226 C 
BRANCH  24  25
HETATM   25  O1  UNL     1      44.630  25.899  29.208  1.00  0.00    -0.375 OA
BRANCH  25  26
HETATM   26  C2  UNL     1      44.139  26.792  30.112  1.00  0.00     0.164 C 
HETATM   27  C1  UNL     1      44.902  26.959  31.379  1.00  0.00     0.033 C 
ENDBRANCH  25  26
ENDBRANCH  24  25
BRANCH  24  28
HETATM   28  C22 UNL     1      45.428  26.591  27.113  1.00  0.00     0.203 C 
HETATM   29  O3  UNL     1      46.319  26.365  26.263  1.00  0.00    -0.646 OA
HETATM   30  O4  UNL     1      44.212  27.080  26.680  1.00  0.00    -0.646 OA
ENDBRANCH  24  28
ENDBRANCH  23  24
ENDBRANCH   1  23
TORSDOF 9
ENDMDL
