MODEL 7
REMARK VINA RESULT: -10.288005891      3.365      5.652
REMARK  8 active torsions:
REMARK  status: ('A' for Active; 'I' for Inactive)
REMARK    1  A    between atoms: C4_5  and  C5_6 
REMARK    2  A    between atoms: N2_12  and  C6_13 
REMARK    3  A    between atoms: C10_17  and  C11_18 
REMARK    4  A    between atoms: N6_30  and  C16_31 
REMARK    5  A    between atoms: C19_34  and  C20_35 
REMARK    6  A    between atoms: C25_40  and  C26_41 
REMARK    7  A    between atoms: C26_41  and  N7_42 
REMARK    8  A    between atoms: C29_45  and  O3_46 
ROOT
HETATM    1  O1  UNL     1      32.926  32.173  17.665  1.00  0.00    -0.265 OA
HETATM    2  C1  UNL     1      33.680  31.242  17.332  1.00  0.00     0.277 C 
HETATM    3  C2  UNL     1      33.462  30.412  16.153  1.00  0.00     0.133 A 
HETATM    4  C3  UNL     1      34.358  29.406  15.870  1.00  0.00     0.011 A 
HETATM    5  C4  UNL     1      33.882  28.798  14.720  1.00  0.00     0.141 A 
HETATM    6  N1  UNL     1      32.771  29.410  14.349  1.00  0.00    -0.288 N 
ATOM      7  H1  UNL     1      32.208  29.169  13.534  1.00  0.00     0.187 HD
HETATM    8  N2  UNL     1      32.507  30.380  15.200  1.00  0.00    -0.250 N 
HETATM    9  C14 UNL     1      35.562  29.155  16.713  1.00  0.00     0.064 C 
HETATM   10  C15 UNL     1      35.265  29.562  18.120  1.00  0.00     0.137 C 
HETATM   11  N6  UNL     1      34.812  30.963  18.127  1.00  0.00    -0.312 N 
ENDROOT
BRANCH  11  12
HETATM   12  C16 UNL     1      35.481  31.929  18.883  1.00  0.00     0.037 A 
HETATM   13  C17 UNL     1      35.608  33.204  18.348  1.00  0.00     0.030 A 
HETATM   14  C18 UNL     1      36.264  34.232  19.036  1.00  0.00     0.014 A 
HETATM   15  C19 UNL     1      36.791  33.980  20.263  1.00  0.00    -0.025 A 
HETATM   16  C31 UNL     1      36.666  32.717  20.795  1.00  0.00     0.014 A 
HETATM   17  C32 UNL     1      36.019  31.695  20.121  1.00  0.00     0.030 A 
BRANCH  15  18
HETATM   18  C20 UNL     1      37.453  35.050  21.004  1.00  0.00    -0.018 A 
HETATM   19  C21 UNL     1      38.763  35.330  20.689  1.00  0.00     0.013 A 
HETATM   20  C22 UNL     1      39.462  36.339  21.299  1.00  0.00     0.001 A 
HETATM   21  C23 UNL     1      38.853  37.101  22.250  1.00  0.00     0.001 A 
HETATM   22  C24 UNL     1      37.537  36.817  22.565  1.00  0.00     0.010 A 
HETATM   23  C25 UNL     1      36.822  35.819  21.973  1.00  0.00    -0.019 A 
BRANCH  23  24
HETATM   24  C26 UNL     1      35.454  35.511  22.346  1.00  0.00     0.311 C 
BRANCH  24  25
HETATM   25  N7  UNL     1      35.183  34.864  23.579  1.00  0.00     0.095 N 
HETATM   26  C27 UNL     1      34.436  33.652  23.545  1.00  0.00     0.275 C 
HETATM   27  C28 UNL     1      33.622  33.560  24.791  1.00  0.00     0.064 C 
HETATM   28  C29 UNL     1      33.760  34.874  25.469  1.00  0.00     0.148 C 
HETATM   29  C30 UNL     1      34.674  35.693  24.625  1.00  0.00     0.304 C 
BRANCH  28  30
HETATM   30  O3  UNL     1      34.281  34.621  26.759  1.00  0.00    -0.394 OA
ATOM     31  H3  UNL     1      34.954  33.958  26.664  1.00  0.00     0.210 HD
ENDBRANCH  28  30
ENDBRANCH  24  25
ENDBRANCH  23  24
ENDBRANCH  15  18
ENDBRANCH  11  12
BRANCH   8  32
HETATM   32  C6  UNL     1      31.416  31.300  15.195  1.00  0.00     0.058 A 
HETATM   33  C7  UNL     1      30.138  30.889  15.518  1.00  0.00     0.031 A 
HETATM   34  C8  UNL     1      29.097  31.792  15.506  1.00  0.00     0.003 A 
HETATM   35  C9  UNL     1      29.312  33.111  15.175  1.00  0.00     0.015 A 
HETATM   36  C10 UNL     1      30.582  33.548  14.849  1.00  0.00     0.012 A 
HETATM   37  C13 UNL     1      31.601  32.627  14.868  1.00  0.00     0.046 A 
BRANCH  36  38
HETATM   38  C11 UNL     1      30.790  34.948  14.500  1.00  0.00     0.134 A 
HETATM   39  N3  UNL     1      31.954  35.617  14.454  1.00  0.00    -0.281 N 
HETATM   40  N4  UNL     1      31.724  36.887  14.092  1.00  0.00    -0.250 N 
ATOM     41  H3  UNL     1      32.870  35.220  14.662  1.00  0.00     0.188 HD
HETATM   42  C12 UNL     1      30.423  37.041  13.905  1.00  0.00     0.340 A 
ATOM     43  H4  UNL     1      32.433  37.612  13.981  1.00  0.00     0.192 HD
HETATM   44  O2  UNL     1      29.765  38.057  13.561  1.00  0.00    -0.245 OA
HETATM   45  N5  UNL     1      29.841  35.837  14.158  1.00  0.00    -0.292 N 
ATOM     46  H5  UNL     1      28.842  35.640  14.099  1.00  0.00     0.172 HD
ENDBRANCH  36  38
ENDBRANCH   8  32
BRANCH   5  47
HETATM   47  C5  UNL     1      34.580  27.644  14.079  1.00  0.00     0.434 C 
HETATM   48  F1  UNL     1      34.979  26.798  15.092  1.00  0.00    -0.165 F 
HETATM   49  F2  UNL     1      33.708  26.991  13.256  1.00  0.00    -0.165 F 
HETATM   50  F3  UNL     1      35.698  28.090  13.381  1.00  0.00    -0.165 F 
ENDBRANCH   5  47
TORSDOF 8
ENDMDL
