MODEL 12
REMARK VINA RESULT: -10.028804262      3.387      4.182
REMARK  8 active torsions:
REMARK  status: ('A' for Active; 'I' for Inactive)
REMARK    1  A    between atoms: C4_5  and  C5_6 
REMARK    2  A    between atoms: N2_12  and  C6_13 
REMARK    3  A    between atoms: C10_17  and  C11_18 
REMARK    4  A    between atoms: N6_30  and  C16_31 
REMARK    5  A    between atoms: C19_34  and  C20_35 
REMARK    6  A    between atoms: C25_40  and  C26_41 
REMARK    7  A    between atoms: C26_41  and  N7_42 
REMARK    8  A    between atoms: C29_45  and  O3_46 
ROOT
HETATM    1  O1  UNL     1      35.030  28.992  19.511  1.00  0.00    -0.265 OA
HETATM    2  C1  UNL     1      34.250  29.505  18.691  1.00  0.00     0.277 C 
HETATM    3  C2  UNL     1      33.034  28.852  18.220  1.00  0.00     0.133 A 
HETATM    4  C3  UNL     1      32.234  29.507  17.310  1.00  0.00     0.011 A 
HETATM    5  C4  UNL     1      31.184  28.644  17.049  1.00  0.00     0.141 A 
HETATM    6  N1  UNL     1      31.355  27.546  17.764  1.00  0.00    -0.288 N 
ATOM      7  H1  UNL     1      30.730  26.740  17.768  1.00  0.00     0.187 HD
HETATM    8  N2  UNL     1      32.461  27.657  18.470  1.00  0.00    -0.250 N 
HETATM    9  C14 UNL     1      32.556  30.876  16.812  1.00  0.00     0.064 C 
HETATM   10  C15 UNL     1      34.038  31.064  16.824  1.00  0.00     0.137 C 
HETATM   11  N6  UNL     1      34.543  30.787  18.180  1.00  0.00    -0.312 N 
ENDROOT
BRANCH  11  12
HETATM   12  C16 UNL     1      35.263  31.753  18.887  1.00  0.00     0.037 A 
HETATM   13  C17 UNL     1      35.169  33.074  18.468  1.00  0.00     0.030 A 
HETATM   14  C18 UNL     1      35.856  34.106  19.118  1.00  0.00     0.014 A 
HETATM   15  C19 UNL     1      36.639  33.813  20.189  1.00  0.00    -0.025 A 
HETATM   16  C31 UNL     1      36.734  32.504  20.606  1.00  0.00     0.014 A 
HETATM   17  C32 UNL     1      36.058  31.478  19.969  1.00  0.00     0.030 A 
BRANCH  15  18
HETATM   18  C20 UNL     1      37.340  34.883  20.893  1.00  0.00    -0.018 A 
HETATM   19  C21 UNL     1      38.642  35.142  20.529  1.00  0.00     0.013 A 
HETATM   20  C22 UNL     1      39.374  36.149  21.101  1.00  0.00     0.001 A 
HETATM   21  C23 UNL     1      38.809  36.931  22.063  1.00  0.00     0.001 A 
HETATM   22  C24 UNL     1      37.501  36.668  22.427  1.00  0.00     0.010 A 
HETATM   23  C25 UNL     1      36.753  35.672  21.874  1.00  0.00    -0.019 A 
BRANCH  23  24
HETATM   24  C26 UNL     1      35.396  35.386  22.298  1.00  0.00     0.311 C 
BRANCH  24  25
HETATM   25  N7  UNL     1      35.161  34.742  23.540  1.00  0.00     0.095 N 
HETATM   26  C27 UNL     1      34.550  33.456  23.517  1.00  0.00     0.275 C 
HETATM   27  C28 UNL     1      33.715  33.305  24.744  1.00  0.00     0.064 C 
HETATM   28  C29 UNL     1      33.691  34.641  25.391  1.00  0.00     0.148 C 
HETATM   29  C30 UNL     1      34.535  35.535  24.550  1.00  0.00     0.304 C 
BRANCH  28  30
HETATM   30  O3  UNL     1      34.198  34.477  26.701  1.00  0.00    -0.394 OA
ATOM     31  H3  UNL     1      35.122  34.271  26.618  1.00  0.00     0.210 HD
ENDBRANCH  28  30
ENDBRANCH  24  25
ENDBRANCH  23  24
ENDBRANCH  15  18
ENDBRANCH  11  12
BRANCH   8  32
HETATM   32  C6  UNL     1      33.038  26.721  19.381  1.00  0.00     0.058 A 
HETATM   33  C7  UNL     1      32.813  26.819  20.739  1.00  0.00     0.031 A 
HETATM   34  C8  UNL     1      33.380  25.908  21.603  1.00  0.00     0.003 A 
HETATM   35  C9  UNL     1      34.175  24.889  21.128  1.00  0.00     0.015 A 
HETATM   36  C10 UNL     1      34.416  24.767  19.773  1.00  0.00     0.012 A 
HETATM   37  C13 UNL     1      33.838  25.691  18.935  1.00  0.00     0.046 A 
BRANCH  36  38
HETATM   38  C11 UNL     1      35.261  23.683  19.290  1.00  0.00     0.134 A 
HETATM   39  N3  UNL     1      35.208  22.386  19.638  1.00  0.00    -0.281 N 
HETATM   40  N4  UNL     1      36.156  21.708  18.973  1.00  0.00    -0.250 N 
ATOM     41  H3  UNL     1      34.551  21.981  20.303  1.00  0.00     0.188 HD
HETATM   42  C12 UNL     1      36.816  22.557  18.202  1.00  0.00     0.340 A 
ATOM     43  H4  UNL     1      36.336  20.708  19.050  1.00  0.00     0.192 HD
HETATM   44  O2  UNL     1      37.777  22.361  17.413  1.00  0.00    -0.245 OA
HETATM   45  N5  UNL     1      36.262  23.785  18.398  1.00  0.00    -0.292 N 
ATOM     46  H5  UNL     1      36.559  24.647  17.941  1.00  0.00     0.172 HD
ENDBRANCH  36  38
ENDBRANCH   8  32
BRANCH   5  47
HETATM   47  C5  UNL     1      30.083  28.987  16.100  1.00  0.00     0.434 C 
HETATM   48  F1  UNL     1      29.220  27.913  16.076  1.00  0.00    -0.165 F 
HETATM   49  F2  UNL     1      29.425  30.094  16.554  1.00  0.00    -0.165 F 
HETATM   50  F3  UNL     1      30.600  29.194  14.824  1.00  0.00    -0.165 F 
ENDBRANCH   5  47
TORSDOF 8
ENDMDL
