MODEL 9
REMARK VINA RESULT: -10.150853881      3.214      5.606
REMARK  8 active torsions:
REMARK  status: ('A' for Active; 'I' for Inactive)
REMARK    1  A    between atoms: C4_5  and  C5_6 
REMARK    2  A    between atoms: N2_12  and  C6_13 
REMARK    3  A    between atoms: C10_17  and  C11_18 
REMARK    4  A    between atoms: N6_30  and  C16_31 
REMARK    5  A    between atoms: C19_34  and  C20_35 
REMARK    6  A    between atoms: C25_40  and  C26_41 
REMARK    7  A    between atoms: C26_41  and  N7_42 
REMARK    8  A    between atoms: C29_45  and  O3_46 
ROOT
HETATM    1  O1  UNL     1      32.976  31.889  17.905  1.00  0.00    -0.265 OA
HETATM    2  C1  UNL     1      33.822  31.078  17.492  1.00  0.00     0.277 C 
HETATM    3  C2  UNL     1      33.604  30.197  16.351  1.00  0.00     0.133 A 
HETATM    4  C3  UNL     1      34.608  29.335  15.971  1.00  0.00     0.011 A 
HETATM    5  C4  UNL     1      34.106  28.633  14.889  1.00  0.00     0.141 A 
HETATM    6  N1  UNL     1      32.879  29.057  14.645  1.00  0.00    -0.288 N 
ATOM      7  H1  UNL     1      32.271  28.714  13.902  1.00  0.00     0.187 HD
HETATM    8  N2  UNL     1      32.565  29.995  15.515  1.00  0.00    -0.250 N 
HETATM    9  C14 UNL     1      35.925  29.293  16.671  1.00  0.00     0.064 C 
HETATM   10  C15 UNL     1      35.730  29.682  18.101  1.00  0.00     0.137 C 
HETATM   11  N6  UNL     1      35.067  30.996  18.152  1.00  0.00    -0.312 N 
ENDROOT
BRANCH  11  12
HETATM   12  C16 UNL     1      35.658  32.071  18.820  1.00  0.00     0.037 A 
HETATM   13  C17 UNL     1      36.265  31.824  20.046  1.00  0.00     0.030 A 
HETATM   14  C18 UNL     1      36.881  32.842  20.783  1.00  0.00     0.014 A 
HETATM   15  C19 UNL     1      36.889  34.108  20.292  1.00  0.00    -0.025 A 
HETATM   16  C31 UNL     1      36.289  34.355  19.078  1.00  0.00     0.014 A 
HETATM   17  C32 UNL     1      35.678  33.355  18.342  1.00  0.00     0.030 A 
BRANCH  15  18
HETATM   18  C20 UNL     1      37.552  35.174  21.037  1.00  0.00    -0.018 A 
HETATM   19  C21 UNL     1      38.867  35.445  20.732  1.00  0.00     0.013 A 
HETATM   20  C22 UNL     1      39.567  36.450  21.346  1.00  0.00     0.001 A 
HETATM   21  C23 UNL     1      38.956  37.217  22.292  1.00  0.00     0.001 A 
HETATM   22  C24 UNL     1      37.636  36.942  22.597  1.00  0.00     0.010 A 
HETATM   23  C25 UNL     1      36.919  35.948  22.001  1.00  0.00    -0.019 A 
BRANCH  23  24
HETATM   24  C26 UNL     1      35.546  35.650  22.363  1.00  0.00     0.311 C 
BRANCH  24  25
HETATM   25  N7  UNL     1      35.264  34.971  23.576  1.00  0.00     0.095 N 
HETATM   26  C27 UNL     1      34.573  33.728  23.499  1.00  0.00     0.275 C 
HETATM   27  C28 UNL     1      33.724  33.580  24.716  1.00  0.00     0.064 C 
HETATM   28  C29 UNL     1      33.781  34.887  25.418  1.00  0.00     0.148 C 
HETATM   29  C30 UNL     1      34.685  35.760  24.617  1.00  0.00     0.304 C 
BRANCH  28  30
HETATM   30  O3  UNL     1      34.269  34.637  26.721  1.00  0.00    -0.394 OA
ATOM     31  H3  UNL     1      33.694  35.090  27.326  1.00  0.00     0.210 HD
ENDBRANCH  28  30
ENDBRANCH  24  25
ENDBRANCH  23  24
ENDBRANCH  15  18
ENDBRANCH  11  12
BRANCH   8  32
HETATM   32  C6  UNL     1      31.349  30.736  15.631  1.00  0.00     0.058 A 
HETATM   33  C7  UNL     1      30.233  30.181  16.224  1.00  0.00     0.031 A 
HETATM   34  C8  UNL     1      29.068  30.910  16.326  1.00  0.00     0.003 A 
HETATM   35  C9  UNL     1      29.000  32.198  15.842  1.00  0.00     0.015 A 
HETATM   36  C10 UNL     1      30.103  32.777  15.245  1.00  0.00     0.012 A 
HETATM   37  C13 UNL     1      31.251  32.026  15.156  1.00  0.00     0.046 A 
BRANCH  36  38
HETATM   38  C11 UNL     1      30.010  34.140  14.738  1.00  0.00     0.134 A 
HETATM   39  N3  UNL     1      28.944  34.734  14.176  1.00  0.00    -0.281 N 
HETATM   40  N4  UNL     1      29.262  35.993  13.840  1.00  0.00    -0.250 N 
ATOM     41  H3  UNL     1      28.035  34.296  14.028  1.00  0.00     0.188 HD
HETATM   42  C12 UNL     1      30.522  36.213  14.181  1.00  0.00     0.340 A 
ATOM     43  H4  UNL     1      28.638  36.667  13.397  1.00  0.00     0.192 HD
HETATM   44  O2  UNL     1      31.231  37.246  14.056  1.00  0.00    -0.245 OA
HETATM   45  N5  UNL     1      30.988  35.062  14.739  1.00  0.00    -0.292 N 
ATOM     46  H5  UNL     1      31.932  34.921  15.101  1.00  0.00     0.172 HD
ENDBRANCH  36  38
ENDBRANCH   8  32
BRANCH   5  47
HETATM   47  C5  UNL     1      34.899  27.586  14.177  1.00  0.00     0.434 C 
HETATM   48  F1  UNL     1      34.032  26.928  13.331  1.00  0.00    -0.165 F 
HETATM   49  F2  UNL     1      35.884  28.185  13.446  1.00  0.00    -0.165 F 
HETATM   50  F3  UNL     1      35.427  26.682  15.094  1.00  0.00    -0.165 F 
ENDBRANCH   5  47
TORSDOF 8
ENDMDL
