MODEL 9
REMARK VINA RESULT: -6.342190301      3.401      3.867
REMARK  3 active torsions:
REMARK  status: ('A' for Active; 'I' for Inactive)
REMARK    1  A    between atoms: N1_1  and  S1_4 
REMARK    2  A    between atoms: S1_4  and  C1_7 
REMARK    3  A    between atoms: C5_13  and  C6_14 
ROOT
HETATM    1  C1  UNL     1      -5.089   2.549  14.923  1.00  0.00     0.081 A 
HETATM    2  C2  UNL     1      -6.081   3.105  15.691  1.00  0.00     0.027 A 
HETATM    3  C3  UNL     1      -6.630   4.312  15.385  1.00  0.00     0.033 A 
HETATM    4  C4  UNL     1      -6.146   4.973  14.252  1.00  0.00     0.060 A 
HETATM    5  N2  UNL     1      -6.460   6.147  13.681  1.00  0.00    -0.339 N 
ATOM      6  H2  UNL     1      -7.170   6.790  14.032  1.00  0.00     0.167 HD
HETATM    7  C5  UNL     1      -5.717   6.362  12.591  1.00  0.00     0.134 A 
HETATM    8  N4  UNL     1      -4.918   5.286  12.484  1.00  0.00    -0.339 N 
ATOM      9  H4  UNL     1      -4.227   5.149  11.745  1.00  0.00     0.167 HD
HETATM   10  C9  UNL     1      -5.150   4.413  13.480  1.00  0.00     0.062 A 
HETATM   11  C10 UNL     1      -4.597   3.171  13.810  1.00  0.00     0.057 A 
ENDROOT
BRANCH   1  12
HETATM   12  S1  UNL     1      -4.400   0.985  15.347  1.00  0.00     0.256 S 
HETATM   13  O1  UNL     1      -3.258   1.126  16.287  1.00  0.00    -0.201 OA
HETATM   14  O2  UNL     1      -5.479   0.146  16.016  1.00  0.00    -0.201 OA
BRANCH  12  15
HETATM   15  N1  UNL     1      -3.977   0.203  13.876  1.00  0.00    -0.324 N 
ATOM     16  H12 UNL     1      -3.364   0.632  13.184  1.00  0.00     0.169 HD
ATOM     17  H11 UNL     1      -4.398  -0.721  13.775  1.00  0.00     0.169 HD
ENDBRANCH  12  15
ENDBRANCH   1  12
BRANCH   7  18
HETATM   18  C6  UNL     1      -5.755   7.544  11.676  1.00  0.00     0.083 A 
HETATM   19  C7  UNL     1      -6.860   8.362  11.656  1.00  0.00     0.084 A 
HETATM   20  S2  UNL     1      -6.417   9.522  10.486  1.00  0.00    -0.094 SA
HETATM   21  C8  UNL     1      -4.873   8.909  10.095  1.00  0.00     0.138 A 
HETATM   22  N3  UNL     1      -4.775   7.853  10.876  1.00  0.00    -0.357 N 
ATOM     23  H3  UNL     1      -3.933   7.279  10.853  1.00  0.00     0.166 HD
ENDBRANCH   7  18
TORSDOF 3
ENDMDL
