MODEL 3
REMARK VINA RESULT: -7.108474197      2.753      3.744
REMARK  3 active torsions:
REMARK  status: ('A' for Active; 'I' for Inactive)
REMARK    1  A    between atoms: N1_1  and  S1_4 
REMARK    2  A    between atoms: S1_4  and  C1_7 
REMARK    3  A    between atoms: C5_13  and  C6_14 
ROOT
HETATM    1  C1  UNL     1      -5.521   2.451  16.020  1.00  0.00     0.081 A 
HETATM    2  C2  UNL     1      -4.207   2.404  15.628  1.00  0.00     0.027 A 
HETATM    3  C3  UNL     1      -3.698   3.287  14.726  1.00  0.00     0.033 A 
HETATM    4  C4  UNL     1      -4.567   4.252  14.207  1.00  0.00     0.060 A 
HETATM    5  N2  UNL     1      -4.396   5.248  13.322  1.00  0.00    -0.339 N 
ATOM      6  H2  UNL     1      -3.514   5.462  12.856  1.00  0.00     0.167 HD
HETATM    7  C5  UNL     1      -5.534   5.922  13.135  1.00  0.00     0.134 A 
HETATM    8  N4  UNL     1      -6.439   5.324  13.930  1.00  0.00    -0.339 N 
ATOM      9  H4  UNL     1      -7.416   5.610  14.012  1.00  0.00     0.167 HD
HETATM   10  C9  UNL     1      -5.887   4.298  14.602  1.00  0.00     0.062 A 
HETATM   11  C10 UNL     1      -6.393   3.383  15.530  1.00  0.00     0.057 A 
ENDROOT
BRANCH   1  12
HETATM   12  S1  UNL     1      -6.148   1.292  17.189  1.00  0.00     0.256 S 
HETATM   13  O1  UNL     1      -7.372   0.614  16.687  1.00  0.00    -0.201 OA
HETATM   14  O2  UNL     1      -5.080   0.239  17.446  1.00  0.00    -0.201 OA
BRANCH  12  15
HETATM   15  N1  UNL     1      -6.398   2.144  18.661  1.00  0.00    -0.324 N 
ATOM     16  H12 UNL     1      -7.063   1.832  19.368  1.00  0.00     0.169 HD
ATOM     17  H11 UNL     1      -5.818   2.978  18.747  1.00  0.00     0.169 HD
ENDBRANCH  12  15
ENDBRANCH   1  12
BRANCH   7  18
HETATM   18  C6  UNL     1      -5.766   7.094  12.236  1.00  0.00     0.083 A 
HETATM   19  C7  UNL     1      -4.699   7.735  11.653  1.00  0.00     0.084 A 
HETATM   20  S2  UNL     1      -5.474   8.960  10.753  1.00  0.00    -0.094 SA
HETATM   21  C8  UNL     1      -7.089   8.592  11.165  1.00  0.00     0.138 A 
HETATM   22  N3  UNL     1      -6.954   7.556  11.965  1.00  0.00    -0.357 N 
ATOM     23  H3  UNL     1      -7.778   7.115  12.373  1.00  0.00     0.166 HD
ENDBRANCH   7  18
TORSDOF 3
ENDMDL
