MODEL 5
REMARK VINA RESULT: -6.651135046      3.150      3.444
REMARK  3 active torsions:
REMARK  status: ('A' for Active; 'I' for Inactive)
REMARK    1  A    between atoms: N1_1  and  S1_4 
REMARK    2  A    between atoms: S1_4  and  C1_7 
REMARK    3  A    between atoms: C5_13  and  C6_14 
ROOT
HETATM    1  C1  UNL     1      -5.289   2.342  15.288  1.00  0.00     0.081 A 
HETATM    2  C2  UNL     1      -6.294   2.968  15.983  1.00  0.00     0.027 A 
HETATM    3  C3  UNL     1      -6.758   4.195  15.619  1.00  0.00     0.033 A 
HETATM    4  C4  UNL     1      -6.173   4.801  14.503  1.00  0.00     0.060 A 
HETATM    5  N2  UNL     1      -6.389   5.976  13.889  1.00  0.00    -0.339 N 
ATOM      6  H2  UNL     1      -7.083   6.663  14.183  1.00  0.00     0.167 HD
HETATM    7  C5  UNL     1      -5.572   6.124  12.842  1.00  0.00     0.134 A 
HETATM    8  N4  UNL     1      -4.827   5.006  12.806  1.00  0.00    -0.339 N 
ATOM      9  H4  UNL     1      -4.103   4.815  12.113  1.00  0.00     0.167 HD
HETATM   10  C9  UNL     1      -5.164   4.171  13.805  1.00  0.00     0.062 A 
HETATM   11  C10 UNL     1      -4.699   2.911  14.194  1.00  0.00     0.057 A 
ENDROOT
BRANCH   1  12
HETATM   12  S1  UNL     1      -4.711   0.755  15.787  1.00  0.00     0.256 S 
HETATM   13  O1  UNL     1      -4.734  -0.215  14.661  1.00  0.00    -0.201 OA
HETATM   14  O2  UNL     1      -3.277   0.895  16.277  1.00  0.00    -0.201 OA
BRANCH  12  15
HETATM   15  N1  UNL     1      -5.669   0.265  17.127  1.00  0.00    -0.324 N 
ATOM     16  H12 UNL     1      -6.561  -0.216  17.016  1.00  0.00     0.169 HD
ATOM     17  H11 UNL     1      -5.254   0.503  18.027  1.00  0.00     0.169 HD
ENDBRANCH  12  15
ENDBRANCH   1  12
BRANCH   7  18
HETATM   18  C6  UNL     1      -5.493   7.284  11.901  1.00  0.00     0.083 A 
HETATM   19  C7  UNL     1      -6.625   8.006  11.603  1.00  0.00     0.084 A 
HETATM   20  S2  UNL     1      -6.018   9.180  10.523  1.00  0.00    -0.094 SA
HETATM   21  C8  UNL     1      -4.383   8.692  10.513  1.00  0.00     0.138 A 
HETATM   22  N3  UNL     1      -4.384   7.661  11.332  1.00  0.00    -0.357 N 
ATOM     23  H3  UNL     1      -3.516   7.159  11.521  1.00  0.00     0.166 HD
ENDBRANCH   7  18
TORSDOF 3
ENDMDL
