MODEL 14
REMARK VINA RESULT: -6.205355584      4.500      7.454
REMARK  3 active torsions:
REMARK  status: ('A' for Active; 'I' for Inactive)
REMARK    1  A    between atoms: N1_1  and  S1_4 
REMARK    2  A    between atoms: S1_4  and  C1_7 
REMARK    3  A    between atoms: C5_13  and  C6_14 
ROOT
HETATM    1  C1  UNL     1      -1.503   2.860  10.365  1.00  0.00     0.081 A 
HETATM    2  C2  UNL     1      -1.677   1.511  10.183  1.00  0.00     0.027 A 
HETATM    3  C3  UNL     1      -2.443   0.769  11.028  1.00  0.00     0.033 A 
HETATM    4  C4  UNL     1      -3.053   1.432  12.097  1.00  0.00     0.060 A 
HETATM    5  N2  UNL     1      -3.854   1.012  13.090  1.00  0.00    -0.339 N 
ATOM      6  H2  UNL     1      -4.161   0.047  13.217  1.00  0.00     0.167 HD
HETATM    7  C5  UNL     1      -4.194   2.026  13.891  1.00  0.00     0.134 A 
HETATM    8  N4  UNL     1      -3.586   3.109  13.376  1.00  0.00    -0.339 N 
ATOM      9  H4  UNL     1      -3.652   4.049  13.767  1.00  0.00     0.167 HD
HETATM   10  C9  UNL     1      -2.878   2.787  12.279  1.00  0.00     0.062 A 
HETATM   11  C10 UNL     1      -2.087   3.535  11.401  1.00  0.00     0.057 A 
ENDROOT
BRANCH   1  12
HETATM   12  S1  UNL     1      -0.504   3.791   9.254  1.00  0.00     0.256 S 
HETATM   13  O1  UNL     1      -0.888   3.551   7.838  1.00  0.00    -0.201 OA
HETATM   14  O2  UNL     1      -0.688   5.270   9.562  1.00  0.00    -0.201 OA
BRANCH  12  15
HETATM   15  N1  UNL     1       1.134   3.394   9.591  1.00  0.00    -0.324 N 
ATOM     16  H12 UNL     1       1.903   4.038   9.405  1.00  0.00     0.169 HD
ATOM     17  H11 UNL     1       1.249   2.463   9.989  1.00  0.00     0.169 HD
ENDBRANCH  12  15
ENDBRANCH   1  12
BRANCH   7  18
HETATM   18  C6  UNL     1      -5.067   1.980  15.104  1.00  0.00     0.083 A 
HETATM   19  C7  UNL     1      -4.955   0.937  15.993  1.00  0.00     0.084 A 
HETATM   20  S2  UNL     1      -6.129   1.343  17.162  1.00  0.00    -0.094 SA
HETATM   21  C8  UNL     1      -6.688   2.796  16.463  1.00  0.00     0.138 A 
HETATM   22  N3  UNL     1      -5.951   2.897  15.377  1.00  0.00    -0.357 N 
ATOM     23  H3  UNL     1      -6.073   3.691  14.749  1.00  0.00     0.166 HD
ENDBRANCH   7  18
TORSDOF 3
ENDMDL
