MODEL 15
REMARK VINA RESULT: -6.032614004      3.763      4.675
REMARK  3 active torsions:
REMARK  status: ('A' for Active; 'I' for Inactive)
REMARK    1  A    between atoms: N1_1  and  S1_4 
REMARK    2  A    between atoms: S1_4  and  C1_7 
REMARK    3  A    between atoms: C5_13  and  C6_14 
ROOT
HETATM    1  C1  UNL     1      -3.145   2.366  11.547  1.00  0.00     0.081 A 
HETATM    2  C2  UNL     1      -1.852   2.263  11.101  1.00  0.00     0.027 A 
HETATM    3  C3  UNL     1      -0.933   3.238  11.340  1.00  0.00     0.033 A 
HETATM    4  C4  UNL     1      -1.355   4.358  12.063  1.00  0.00     0.060 A 
HETATM    5  N2  UNL     1      -0.721   5.473  12.464  1.00  0.00    -0.339 N 
ATOM      6  H2  UNL     1       0.260   5.680  12.277  1.00  0.00     0.167 HD
HETATM    7  C5  UNL     1      -1.548   6.275  13.141  1.00  0.00     0.134 A 
HETATM    8  N4  UNL     1      -2.731   5.636  13.160  1.00  0.00    -0.339 N 
ATOM      9  H4  UNL     1      -3.576   5.995  13.607  1.00  0.00     0.167 HD
HETATM   10  C9  UNL     1      -2.654   4.461  12.512  1.00  0.00     0.062 A 
HETATM   11  C10 UNL     1      -3.586   3.449  12.256  1.00  0.00     0.057 A 
ENDROOT
BRANCH   1  12
HETATM   12  S1  UNL     1      -4.309   1.086  11.220  1.00  0.00     0.256 S 
HETATM   13  O1  UNL     1      -5.674   1.630  10.993  1.00  0.00    -0.201 OA
HETATM   14  O2  UNL     1      -3.870   0.342   9.967  1.00  0.00    -0.201 OA
BRANCH  12  15
HETATM   15  N1  UNL     1      -4.228  -0.021  12.532  1.00  0.00    -0.324 N 
ATOM     16  H12 UNL     1      -4.753  -0.895  12.545  1.00  0.00     0.169 HD
ATOM     17  H11 UNL     1      -3.608   0.287  13.281  1.00  0.00     0.169 HD
ENDBRANCH  12  15
ENDBRANCH   1  12
BRANCH   7  18
HETATM   18  C6  UNL     1      -1.237   7.603  13.753  1.00  0.00     0.083 A 
HETATM   19  C7  UNL     1      -0.254   8.397  13.211  1.00  0.00     0.084 A 
HETATM   20  S2  UNL     1      -0.291   9.756  14.241  1.00  0.00    -0.094 SA
HETATM   21  C8  UNL     1      -1.538   9.244  15.288  1.00  0.00     0.138 A 
HETATM   22  N3  UNL     1      -1.861   8.066  14.799  1.00  0.00    -0.357 N 
ATOM     23  H3  UNL     1      -2.598   7.515  15.238  1.00  0.00     0.166 HD
ENDBRANCH   7  18
TORSDOF 3
ENDMDL
