MODEL 12
REMARK VINA RESULT: -6.283113067      2.423      3.035
REMARK  3 active torsions:
REMARK  status: ('A' for Active; 'I' for Inactive)
REMARK    1  A    between atoms: N1_1  and  S1_4 
REMARK    2  A    between atoms: S1_4  and  C1_7 
REMARK    3  A    between atoms: C5_13  and  C6_14 
ROOT
HETATM    1  C1  UNL     1      -5.493   2.250  16.123  1.00  0.00     0.081 A 
HETATM    2  C2  UNL     1      -4.137   2.057  16.040  1.00  0.00     0.027 A 
HETATM    3  C3  UNL     1      -3.362   2.784  15.190  1.00  0.00     0.033 A 
HETATM    4  C4  UNL     1      -3.999   3.743  14.396  1.00  0.00     0.060 A 
HETATM    5  N2  UNL     1      -3.544   4.609  13.476  1.00  0.00    -0.339 N 
ATOM      6  H2  UNL     1      -2.566   4.698  13.198  1.00  0.00     0.167 HD
HETATM    7  C5  UNL     1      -4.543   5.340  12.973  1.00  0.00     0.134 A 
HETATM    8  N4  UNL     1      -5.652   4.912  13.602  1.00  0.00    -0.339 N 
ATOM      9  H4  UNL     1      -6.590   5.279  13.435  1.00  0.00     0.167 HD
HETATM   10  C9  UNL     1      -5.361   3.936  14.479  1.00  0.00     0.062 A 
HETATM   11  C10 UNL     1      -6.143   3.180  15.359  1.00  0.00     0.057 A 
ENDROOT
BRANCH   1  12
HETATM   12  S1  UNL     1      -6.467   1.292  17.234  1.00  0.00     0.256 S 
HETATM   13  O1  UNL     1      -7.891   1.242  16.811  1.00  0.00    -0.201 OA
HETATM   14  O2  UNL     1      -5.918  -0.127  17.257  1.00  0.00    -0.201 OA
BRANCH  12  15
HETATM   15  N1  UNL     1      -6.247   1.957  18.803  1.00  0.00    -0.324 N 
ATOM     16  H12 UNL     1      -6.932   1.839  19.549  1.00  0.00     0.169 HD
ATOM     17  H11 UNL     1      -5.372   2.471  18.903  1.00  0.00     0.169 HD
ENDBRANCH  12  15
ENDBRANCH   1  12
BRANCH   7  18
HETATM   18  C6  UNL     1      -4.460   6.410  11.931  1.00  0.00     0.083 A 
HETATM   19  C7  UNL     1      -4.786   6.125  10.626  1.00  0.00     0.084 A 
HETATM   20  S2  UNL     1      -4.533   7.631   9.864  1.00  0.00    -0.094 SA
HETATM   21  C8  UNL     1      -4.035   8.524  11.231  1.00  0.00     0.138 A 
HETATM   22  N3  UNL     1      -4.087   7.629  12.195  1.00  0.00    -0.357 N 
ATOM     23  H3  UNL     1      -3.835   7.891  13.148  1.00  0.00     0.166 HD
ENDBRANCH   7  18
TORSDOF 3
ENDMDL
