MODEL 13
REMARK VINA RESULT: -6.219651574      4.493      7.429
REMARK  3 active torsions:
REMARK  status: ('A' for Active; 'I' for Inactive)
REMARK    1  A    between atoms: N1_1  and  S1_4 
REMARK    2  A    between atoms: S1_4  and  C1_7 
REMARK    3  A    between atoms: C5_13  and  C6_14 
ROOT
HETATM    1  C1  UNL     1      -1.343   2.759  10.392  1.00  0.00     0.081 A 
HETATM    2  C2  UNL     1      -1.622   1.430  10.193  1.00  0.00     0.027 A 
HETATM    3  C3  UNL     1      -2.459   0.744  11.018  1.00  0.00     0.033 A 
HETATM    4  C4  UNL     1      -3.032   1.445  12.084  1.00  0.00     0.060 A 
HETATM    5  N2  UNL     1      -3.880   1.081  13.061  1.00  0.00    -0.339 N 
ATOM      6  H2  UNL     1      -4.265   0.143  13.172  1.00  0.00     0.167 HD
HETATM    7  C5  UNL     1      -4.151   2.112  13.866  1.00  0.00     0.134 A 
HETATM    8  N4  UNL     1      -3.449   3.147  13.372  1.00  0.00    -0.339 N 
ATOM      9  H4  UNL     1      -3.445   4.087  13.771  1.00  0.00     0.167 HD
HETATM   10  C9  UNL     1      -2.751   2.780  12.283  1.00  0.00     0.062 A 
HETATM   11  C10 UNL     1      -1.888   3.469  11.425  1.00  0.00     0.057 A 
ENDROOT
BRANCH   1  12
HETATM   12  S1  UNL     1      -0.254   3.617   9.306  1.00  0.00     0.256 S 
HETATM   13  O1  UNL     1       1.133   3.089   9.390  1.00  0.00    -0.201 OA
HETATM   14  O2  UNL     1      -0.755   3.439   7.880  1.00  0.00    -0.201 OA
BRANCH  12  15
HETATM   15  N1  UNL     1      -0.370   5.288   9.689  1.00  0.00    -0.324 N 
ATOM     16  H12 UNL     1      -1.070   5.655  10.334  1.00  0.00     0.169 HD
ATOM     17  H11 UNL     1       0.325   5.861   9.211  1.00  0.00     0.169 HD
ENDBRANCH  12  15
ENDBRANCH   1  12
BRANCH   7  18
HETATM   18  C6  UNL     1      -5.044   2.126  15.065  1.00  0.00     0.083 A 
HETATM   19  C7  UNL     1      -4.918   1.152  16.027  1.00  0.00     0.084 A 
HETATM   20  S2  UNL     1      -6.125   1.604  17.145  1.00  0.00    -0.094 SA
HETATM   21  C8  UNL     1      -6.713   2.986  16.336  1.00  0.00     0.138 A 
HETATM   22  N3  UNL     1      -5.960   3.032  15.257  1.00  0.00    -0.357 N 
ATOM     23  H3  UNL     1      -6.093   3.776  14.573  1.00  0.00     0.166 HD
ENDBRANCH   7  18
TORSDOF 3
ENDMDL
