MODEL 11
REMARK VINA RESULT: -9.553933184      2.595      4.952
REMARK  9 active torsions:
REMARK  status: ('A' for Active; 'I' for Inactive)
REMARK    1  A    between atoms: C1_2  and  C2_4 
REMARK    2  A    between atoms: C2_4  and  C3_5 
REMARK    3  A    between atoms: C3_5  and  C4_6 
REMARK    4  A    between atoms: C4_6  and  N1_7 
REMARK    5  A    between atoms: C8_11  and  C9_12 
REMARK    6  A    between atoms: C9_12  and  O3_13 
REMARK    7  A    between atoms: O3_13  and  C10_14 
REMARK    8  A    between atoms: C13_17  and  O4_18 
REMARK    9  A    between atoms: O4_18  and  C14_19 
ROOT
HETATM    1  C10 UNL     1      32.753  84.094   0.548  1.00  0.00     0.069 A 
HETATM    2  C11 UNL     1      32.750  84.758   1.752  1.00  0.00     0.039 A 
HETATM    3  C12 UNL     1      31.718  85.629   2.105  1.00  0.00     0.040 A 
HETATM    4  C13 UNL     1      30.671  85.828   1.216  1.00  0.00     0.076 A 
HETATM    5  C20 UNL     1      30.657  85.174   0.008  1.00  0.00     0.040 A 
HETATM    6  C21 UNL     1      31.703  84.309  -0.317  1.00  0.00     0.039 A 
ENDROOT
BRANCH   1   7
HETATM    7  O3  UNL     1      33.747  83.236   0.176  1.00  0.00    -0.349 OA
BRANCH   7   8
HETATM    8  C9  UNL     1      33.578  81.824   0.021  1.00  0.00     0.211 C 
BRANCH   8   9
HETATM    9  C8  UNL     1      34.806  81.258  -0.566  1.00  0.00     0.247 C 
HETATM   10  N1  UNL     1      35.146  79.932  -0.284  1.00  0.00     0.095 N 
HETATM   11  C5  UNL     1      35.936  79.420  -1.396  1.00  0.00     0.273 C 
HETATM   12  C6  UNL     1      35.620  80.277  -2.584  1.00  0.00     0.032 C 
HETATM   13  C7  UNL     1      34.736  81.404  -2.091  1.00  0.00     0.040 C 
BRANCH  10  14
HETATM   14  C4  UNL     1      34.123  79.010   0.027  1.00  0.00     0.273 C 
BRANCH  14  15
HETATM   15  C3  UNL     1      34.361  77.581  -0.419  1.00  0.00     0.041 C 
BRANCH  15  16
HETATM   16  C2  UNL     1      33.018  77.003  -0.896  1.00  0.00     0.115 C 
BRANCH  16  17
HETATM   17  C1  UNL     1      32.550  77.714  -2.113  1.00  0.00     0.172 C 
HETATM   18  O1  UNL     1      31.444  78.313  -2.104  1.00  0.00    -0.648 OA
HETATM   19  O2  UNL     1      33.327  77.729  -3.254  1.00  0.00    -0.648 OA
ENDBRANCH  16  17
ENDBRANCH  15  16
ENDBRANCH  14  15
ENDBRANCH  10  14
ENDBRANCH   8   9
ENDBRANCH   7   8
ENDBRANCH   1   7
BRANCH   4  20
HETATM   20  O4  UNL     1      29.637  86.689   1.551  1.00  0.00    -0.311 OA
BRANCH  20  21
HETATM   21  C14 UNL     1      28.527  86.742   0.715  1.00  0.00     0.076 A 
HETATM   22  C15 UNL     1      28.581  87.485  -0.439  1.00  0.00     0.039 A 
HETATM   23  C16 UNL     1      27.522  87.581  -1.309  1.00  0.00     0.026 A 
HETATM   24  C17 UNL     1      26.350  86.892  -1.002  1.00  0.00     0.034 A 
HETATM   25 CL1  UNL     1      24.996  86.999  -2.090  1.00  0.00    -0.084 Cl
HETATM   26  C18 UNL     1      26.313  86.150   0.163  1.00  0.00     0.026 A 
HETATM   27  C19 UNL     1      27.369  86.050   1.038  1.00  0.00     0.039 A 
ENDBRANCH  20  21
ENDBRANCH   4  20
TORSDOF 9
ENDMDL
