MODEL 8
REMARK VINA RESULT: -9.831767573      2.778      5.336
REMARK  9 active torsions:
REMARK  status: ('A' for Active; 'I' for Inactive)
REMARK    1  A    between atoms: C1_2  and  C2_4 
REMARK    2  A    between atoms: C2_4  and  C3_5 
REMARK    3  A    between atoms: C3_5  and  C4_6 
REMARK    4  A    between atoms: C4_6  and  N1_7 
REMARK    5  A    between atoms: C8_11  and  C9_12 
REMARK    6  A    between atoms: C9_12  and  O3_13 
REMARK    7  A    between atoms: O3_13  and  C10_14 
REMARK    8  A    between atoms: C13_17  and  O4_18 
REMARK    9  A    between atoms: O4_18  and  C14_19 
ROOT
HETATM    1  C10 UNL     1      33.111  83.963   0.625  1.00  0.00     0.069 A 
HETATM    2  C11 UNL     1      33.242  84.733   1.756  1.00  0.00     0.039 A 
HETATM    3  C12 UNL     1      32.195  85.532   2.222  1.00  0.00     0.040 A 
HETATM    4  C13 UNL     1      30.996  85.546   1.525  1.00  0.00     0.076 A 
HETATM    5  C20 UNL     1      30.848  84.783   0.391  1.00  0.00     0.040 A 
HETATM    6  C21 UNL     1      31.911  83.994  -0.050  1.00  0.00     0.039 A 
ENDROOT
BRANCH   1   7
HETATM    7  O3  UNL     1      34.115  83.173   0.145  1.00  0.00    -0.349 OA
BRANCH   7   8
HETATM    8  C9  UNL     1      34.017  82.370  -1.035  1.00  0.00     0.211 C 
BRANCH   8   9
HETATM    9  C8  UNL     1      35.070  81.339  -1.001  1.00  0.00     0.247 C 
HETATM   10  N1  UNL     1      34.874  80.194  -0.225  1.00  0.00     0.095 N 
HETATM   11  C5  UNL     1      35.648  79.109  -0.815  1.00  0.00     0.273 C 
HETATM   12  C6  UNL     1      35.886  79.476  -2.248  1.00  0.00     0.032 C 
HETATM   13  C7  UNL     1      35.359  80.883  -2.436  1.00  0.00     0.040 C 
BRANCH  10  14
HETATM   14  C4  UNL     1      33.558  79.747   0.026  1.00  0.00     0.273 C 
BRANCH  14  15
HETATM   15  C3  UNL     1      33.323  78.258  -0.131  1.00  0.00     0.041 C 
BRANCH  15  16
HETATM   16  C2  UNL     1      32.237  77.842   0.876  1.00  0.00     0.115 C 
BRANCH  16  17
HETATM   17  C1  UNL     1      32.851  77.468   2.176  1.00  0.00     0.172 C 
HETATM   18  O1  UNL     1      34.033  77.041   2.211  1.00  0.00    -0.648 OA
HETATM   19  O2  UNL     1      32.133  77.592   3.348  1.00  0.00    -0.648 OA
ENDBRANCH  16  17
ENDBRANCH  15  16
ENDBRANCH  14  15
ENDBRANCH  10  14
ENDBRANCH   8   9
ENDBRANCH   7   8
ENDBRANCH   1   7
BRANCH   4  20
HETATM   20  O4  UNL     1      29.946  86.332   1.974  1.00  0.00    -0.311 OA
BRANCH  20  21
HETATM   21  C14 UNL     1      28.861  86.529   1.128  1.00  0.00     0.076 A 
HETATM   22  C15 UNL     1      29.038  87.199  -0.058  1.00  0.00     0.039 A 
HETATM   23  C16 UNL     1      28.010  87.428  -0.941  1.00  0.00     0.026 A 
HETATM   24  C17 UNL     1      26.740  86.957  -0.612  1.00  0.00     0.034 A 
HETATM   25 CL1  UNL     1      25.423  87.236  -1.716  1.00  0.00    -0.084 Cl
HETATM   26  C18 UNL     1      26.580  86.285   0.585  1.00  0.00     0.026 A 
HETATM   27  C19 UNL     1      27.604  86.053   1.473  1.00  0.00     0.039 A 
ENDBRANCH  20  21
ENDBRANCH   4  20
TORSDOF 9
ENDMDL
