MODEL 1
REMARK VINA RESULT: -10.060563069      0.000      0.000
REMARK  9 active torsions:
REMARK  status: ('A' for Active; 'I' for Inactive)
REMARK    1  A    between atoms: C1_2  and  C2_4 
REMARK    2  A    between atoms: C2_4  and  C3_5 
REMARK    3  A    between atoms: C3_5  and  C4_6 
REMARK    4  A    between atoms: C4_6  and  N1_7 
REMARK    5  A    between atoms: C8_11  and  C9_12 
REMARK    6  A    between atoms: C9_12  and  O3_13 
REMARK    7  A    between atoms: O3_13  and  C10_14 
REMARK    8  A    between atoms: C13_17  and  O4_18 
REMARK    9  A    between atoms: O4_18  and  C14_19 
ROOT
HETATM    1  C10 UNL     1      29.008  86.174   0.515  1.00  0.00     0.069 A 
HETATM    2  C11 UNL     1      27.916  85.790   1.258  1.00  0.00     0.039 A 
HETATM    3  C12 UNL     1      26.615  86.103   0.863  1.00  0.00     0.040 A 
HETATM    4  C13 UNL     1      26.420  86.819  -0.310  1.00  0.00     0.076 A 
HETATM    5  C20 UNL     1      27.499  87.211  -1.066  1.00  0.00     0.040 A 
HETATM    6  C21 UNL     1      28.788  86.884  -0.645  1.00  0.00     0.039 A 
ENDROOT
BRANCH   1   7
HETATM    7  O3  UNL     1      30.291  85.883   0.875  1.00  0.00    -0.349 OA
BRANCH   7   8
HETATM    8  C9  UNL     1      31.178  85.062   0.109  1.00  0.00     0.211 C 
BRANCH   8   9
HETATM    9  C8  UNL     1      32.150  84.430   1.020  1.00  0.00     0.247 C 
HETATM   10  N1  UNL     1      33.247  83.755   0.480  1.00  0.00     0.095 N 
HETATM   11  C5  UNL     1      34.329  83.797   1.455  1.00  0.00     0.273 C 
HETATM   12  C6  UNL     1      34.050  84.955   2.364  1.00  0.00     0.032 C 
HETATM   13  C7  UNL     1      32.688  85.495   1.983  1.00  0.00     0.040 C 
BRANCH  10  14
HETATM   14  C4  UNL     1      33.742  84.144  -0.785  1.00  0.00     0.273 C 
BRANCH  14  15
HETATM   15  C3  UNL     1      35.143  83.672  -1.122  1.00  0.00     0.041 C 
BRANCH  15  16
HETATM   16  C2  UNL     1      35.023  82.508  -2.120  1.00  0.00     0.115 C 
BRANCH  16  17
HETATM   17  C1  UNL     1      34.876  81.218  -1.397  1.00  0.00     0.172 C 
HETATM   18  O1  UNL     1      35.885  80.667  -0.887  1.00  0.00    -0.648 OA
HETATM   19  O2  UNL     1      33.637  80.624  -1.275  1.00  0.00    -0.648 OA
ENDBRANCH  16  17
ENDBRANCH  15  16
ENDBRANCH  14  15
ENDBRANCH  10  14
ENDBRANCH   8   9
ENDBRANCH   7   8
ENDBRANCH   1   7
BRANCH   4  20
HETATM   20  O4  UNL     1      25.134  87.137  -0.718  1.00  0.00    -0.311 OA
BRANCH  20  21
HETATM   21  C14 UNL     1      24.603  86.460  -1.811  1.00  0.00     0.076 A 
HETATM   22  C15 UNL     1      24.574  85.087  -1.810  1.00  0.00     0.039 A 
HETATM   23  C16 UNL     1      24.062  84.356  -2.856  1.00  0.00     0.026 A 
HETATM   24  C17 UNL     1      23.556  85.044  -3.957  1.00  0.00     0.034 A 
HETATM   25 CL1  UNL     1      22.904  84.138  -5.292  1.00  0.00    -0.084 Cl
HETATM   26  C18 UNL     1      23.594  86.425  -3.941  1.00  0.00     0.026 A 
HETATM   27  C19 UNL     1      24.104  87.162  -2.898  1.00  0.00     0.039 A 
ENDBRANCH  20  21
ENDBRANCH   4  20
TORSDOF 9
ENDMDL
