MODEL 10
REMARK VINA RESULT: -9.670581762      2.950      5.277
REMARK  9 active torsions:
REMARK  status: ('A' for Active; 'I' for Inactive)
REMARK    1  A    between atoms: C1_2  and  C2_4 
REMARK    2  A    between atoms: C2_4  and  C3_5 
REMARK    3  A    between atoms: C3_5  and  C4_6 
REMARK    4  A    between atoms: C4_6  and  N1_7 
REMARK    5  A    between atoms: C8_11  and  C9_12 
REMARK    6  A    between atoms: C9_12  and  O3_13 
REMARK    7  A    between atoms: O3_13  and  C10_14 
REMARK    8  A    between atoms: C13_17  and  O4_18 
REMARK    9  A    between atoms: O4_18  and  C14_19 
ROOT
HETATM    1  C10 UNL     1      32.849  83.955   0.613  1.00  0.00     0.069 A 
HETATM    2  C11 UNL     1      32.917  84.692   1.772  1.00  0.00     0.039 A 
HETATM    3  C12 UNL     1      31.928  85.618   2.110  1.00  0.00     0.040 A 
HETATM    4  C13 UNL     1      30.851  85.797   1.254  1.00  0.00     0.076 A 
HETATM    5  C20 UNL     1      30.765  85.069   0.091  1.00  0.00     0.040 A 
HETATM    6  C21 UNL     1      31.769  84.151  -0.220  1.00  0.00     0.039 A 
ENDROOT
BRANCH   1   7
HETATM    7  O3  UNL     1      33.799  83.043   0.256  1.00  0.00    -0.349 OA
BRANCH   7   8
HETATM    8  C9  UNL     1      33.532  81.666  -0.020  1.00  0.00     0.211 C 
BRANCH   8   9
HETATM    9  C8  UNL     1      34.776  81.019  -0.474  1.00  0.00     0.247 C 
HETATM   10  N1  UNL     1      34.922  79.639  -0.317  1.00  0.00     0.095 N 
HETATM   11  C5  UNL     1      35.834  79.159  -1.347  1.00  0.00     0.273 C 
HETATM   12  C6  UNL     1      35.818  80.176  -2.448  1.00  0.00     0.032 C 
HETATM   13  C7  UNL     1      34.985  81.342  -1.959  1.00  0.00     0.040 C 
BRANCH  10  14
HETATM   14  C4  UNL     1      33.770  78.822  -0.295  1.00  0.00     0.273 C 
BRANCH  14  15
HETATM   15  C3  UNL     1      33.435  78.184   1.039  1.00  0.00     0.041 C 
BRANCH  15  16
HETATM   16  C2  UNL     1      31.912  77.973   1.094  1.00  0.00     0.115 C 
BRANCH  16  17
HETATM   17  C1  UNL     1      31.477  77.701   2.488  1.00  0.00     0.172 C 
HETATM   18  O1  UNL     1      30.250  77.655   2.764  1.00  0.00    -0.648 OA
HETATM   19  O2  UNL     1      32.411  77.492   3.483  1.00  0.00    -0.648 OA
ENDBRANCH  16  17
ENDBRANCH  15  16
ENDBRANCH  14  15
ENDBRANCH  10  14
ENDBRANCH   8   9
ENDBRANCH   7   8
ENDBRANCH   1   7
BRANCH   4  20
HETATM   20  O4  UNL     1      29.859  86.710   1.575  1.00  0.00    -0.311 OA
BRANCH  20  21
HETATM   21  C14 UNL     1      28.710  86.738   0.793  1.00  0.00     0.076 A 
HETATM   22  C15 UNL     1      27.576  86.097   1.228  1.00  0.00     0.039 A 
HETATM   23  C16 UNL     1      26.407  86.085   0.507  1.00  0.00     0.026 A 
HETATM   24  C17 UNL     1      26.379  86.753  -0.716  1.00  0.00     0.034 A 
HETATM   25 CL1  UNL     1      24.908  86.751  -1.647  1.00  0.00    -0.084 Cl
HETATM   26  C18 UNL     1      27.529  87.393  -1.139  1.00  0.00     0.026 A 
HETATM   27  C19 UNL     1      28.702  87.408  -0.422  1.00  0.00     0.039 A 
ENDBRANCH  20  21
ENDBRANCH   4  20
TORSDOF 9
ENDMDL
