MODEL 3
REMARK VINA RESULT: -9.928435309      0.156      1.114
REMARK  9 active torsions:
REMARK  status: ('A' for Active; 'I' for Inactive)
REMARK    1  A    between atoms: C1_2  and  C2_4 
REMARK    2  A    between atoms: C2_4  and  C3_5 
REMARK    3  A    between atoms: C3_5  and  C4_6 
REMARK    4  A    between atoms: C4_6  and  N1_7 
REMARK    5  A    between atoms: C8_11  and  C9_12 
REMARK    6  A    between atoms: C9_12  and  O3_13 
REMARK    7  A    between atoms: O3_13  and  C10_14 
REMARK    8  A    between atoms: C13_17  and  O4_18 
REMARK    9  A    between atoms: O4_18  and  C14_19 
ROOT
HETATM    1  C10 UNL     1      28.945  86.278   0.352  1.00  0.00     0.069 A 
HETATM    2  C11 UNL     1      28.696  87.054  -0.756  1.00  0.00     0.039 A 
HETATM    3  C12 UNL     1      27.394  87.342  -1.170  1.00  0.00     0.040 A 
HETATM    4  C13 UNL     1      26.328  86.832  -0.445  1.00  0.00     0.076 A 
HETATM    5  C20 UNL     1      26.556  86.054   0.665  1.00  0.00     0.040 A 
HETATM    6  C21 UNL     1      27.869  85.783   1.055  1.00  0.00     0.039 A 
ENDROOT
BRANCH   1   7
HETATM    7  O3  UNL     1      30.205  85.979   0.782  1.00  0.00    -0.349 OA
BRANCH   7   8
HETATM    8  C9  UNL     1      31.150  85.207   0.035  1.00  0.00     0.211 C 
BRANCH   8   9
HETATM    9  C8  UNL     1      32.068  84.537   0.974  1.00  0.00     0.247 C 
HETATM   10  N1  UNL     1      33.137  83.795   0.466  1.00  0.00     0.095 N 
HETATM   11  C5  UNL     1      34.201  83.793   1.462  1.00  0.00     0.273 C 
HETATM   12  C6  UNL     1      33.969  84.979   2.348  1.00  0.00     0.032 C 
HETATM   13  C7  UNL     1      32.645  85.587   1.931  1.00  0.00     0.040 C 
BRANCH  10  14
HETATM   14  C4  UNL     1      33.677  84.136  -0.794  1.00  0.00     0.273 C 
BRANCH  14  15
HETATM   15  C3  UNL     1      35.084  83.643  -1.067  1.00  0.00     0.041 C 
BRANCH  15  16
HETATM   16  C2  UNL     1      34.992  82.479  -2.068  1.00  0.00     0.115 C 
BRANCH  16  17
HETATM   17  C1  UNL     1      34.786  81.194  -1.351  1.00  0.00     0.172 C 
HETATM   18  O1  UNL     1      33.654  80.645  -1.362  1.00  0.00    -0.648 OA
HETATM   19  O2  UNL     1      35.831  80.595  -0.678  1.00  0.00    -0.648 OA
ENDBRANCH  16  17
ENDBRANCH  15  16
ENDBRANCH  14  15
ENDBRANCH  10  14
ENDBRANCH   8   9
ENDBRANCH   7   8
ENDBRANCH   1   7
BRANCH   4  20
HETATM   20  O4  UNL     1      25.029  87.109  -0.841  1.00  0.00    -0.311 OA
BRANCH  20  21
HETATM   21  C14 UNL     1      24.507  86.413  -1.924  1.00  0.00     0.076 A 
HETATM   22  C15 UNL     1      24.468  85.040  -1.894  1.00  0.00     0.039 A 
HETATM   23  C16 UNL     1      23.964  84.289  -2.929  1.00  0.00     0.026 A 
HETATM   24  C17 UNL     1      23.476  84.955  -4.051  1.00  0.00     0.034 A 
HETATM   25 CL1  UNL     1      22.834  84.025  -5.375  1.00  0.00    -0.084 Cl
HETATM   26  C18 UNL     1      23.523  86.337  -4.065  1.00  0.00     0.026 A 
HETATM   27  C19 UNL     1      24.025  87.093  -3.033  1.00  0.00     0.039 A 
ENDBRANCH  20  21
ENDBRANCH   4  20
TORSDOF 9
ENDMDL
