MODEL 2
REMARK VINA RESULT: -10.033982249      0.077      1.111
REMARK  9 active torsions:
REMARK  status: ('A' for Active; 'I' for Inactive)
REMARK    1  A    between atoms: C1_2  and  C2_4 
REMARK    2  A    between atoms: C2_4  and  C3_5 
REMARK    3  A    between atoms: C3_5  and  C4_6 
REMARK    4  A    between atoms: C4_6  and  N1_7 
REMARK    5  A    between atoms: C8_11  and  C9_12 
REMARK    6  A    between atoms: C9_12  and  O3_13 
REMARK    7  A    between atoms: O3_13  and  C10_14 
REMARK    8  A    between atoms: C13_17  and  O4_18 
REMARK    9  A    between atoms: O4_18  and  C14_19 
ROOT
HETATM    1  C10 UNL     1      29.001  86.182   0.585  1.00  0.00     0.069 A 
HETATM    2  C11 UNL     1      27.901  85.850   1.341  1.00  0.00     0.039 A 
HETATM    3  C12 UNL     1      26.605  86.152   0.920  1.00  0.00     0.040 A 
HETATM    4  C13 UNL     1      26.425  86.804  -0.292  1.00  0.00     0.076 A 
HETATM    5  C20 UNL     1      27.512  87.144  -1.061  1.00  0.00     0.040 A 
HETATM    6  C21 UNL     1      28.796  86.828  -0.614  1.00  0.00     0.039 A 
ENDROOT
BRANCH   1   7
HETATM    7  O3  UNL     1      30.279  85.899   0.970  1.00  0.00    -0.349 OA
BRANCH   7   8
HETATM    8  C9  UNL     1      31.218  85.167   0.176  1.00  0.00     0.211 C 
BRANCH   8   9
HETATM    9  C8  UNL     1      32.174  84.491   1.071  1.00  0.00     0.247 C 
HETATM   10  N1  UNL     1      33.239  83.778   0.513  1.00  0.00     0.095 N 
HETATM   11  C5  UNL     1      34.333  83.771   1.476  1.00  0.00     0.273 C 
HETATM   12  C6  UNL     1      34.109  84.932   2.396  1.00  0.00     0.032 C 
HETATM   13  C7  UNL     1      32.764  85.527   2.035  1.00  0.00     0.040 C 
BRANCH  10  14
HETATM   14  C4  UNL     1      33.734  84.157  -0.754  1.00  0.00     0.273 C 
BRANCH  14  15
HETATM   15  C3  UNL     1      35.119  83.650  -1.103  1.00  0.00     0.041 C 
BRANCH  15  16
HETATM   16  C2  UNL     1      34.961  82.493  -2.105  1.00  0.00     0.115 C 
BRANCH  16  17
HETATM   17  C1  UNL     1      34.792  81.204  -1.386  1.00  0.00     0.172 C 
HETATM   18  O1  UNL     1      33.657  80.666  -1.324  1.00  0.00    -0.648 OA
HETATM   19  O2  UNL     1      35.875  80.589  -0.792  1.00  0.00    -0.648 OA
ENDBRANCH  16  17
ENDBRANCH  15  16
ENDBRANCH  14  15
ENDBRANCH  10  14
ENDBRANCH   8   9
ENDBRANCH   7   8
ENDBRANCH   1   7
BRANCH   4  20
HETATM   20  O4  UNL     1      25.145  87.110  -0.726  1.00  0.00    -0.311 OA
BRANCH  20  21
HETATM   21  C14 UNL     1      24.626  86.399  -1.802  1.00  0.00     0.076 A 
HETATM   22  C15 UNL     1      24.087  87.078  -2.868  1.00  0.00     0.039 A 
HETATM   23  C16 UNL     1      23.559  86.438  -3.963  1.00  0.00     0.026 A 
HETATM   24  C17 UNL     1      23.573  85.045  -3.985  1.00  0.00     0.034 A 
HETATM   25 CL1  UNL     1      22.908  84.214  -5.363  1.00  0.00    -0.084 Cl
HETATM   26  C18 UNL     1      24.118  84.379  -2.904  1.00  0.00     0.026 A 
HETATM   27  C19 UNL     1      24.649  85.012  -1.806  1.00  0.00     0.039 A 
ENDBRANCH  20  21
ENDBRANCH   4  20
TORSDOF 9
ENDMDL
