MODEL 9
REMARK VINA RESULT: -9.771273203      0.548      1.422
REMARK  9 active torsions:
REMARK  status: ('A' for Active; 'I' for Inactive)
REMARK    1  A    between atoms: C1_2  and  C2_4 
REMARK    2  A    between atoms: C2_4  and  C3_5 
REMARK    3  A    between atoms: C3_5  and  C4_6 
REMARK    4  A    between atoms: C4_6  and  N1_7 
REMARK    5  A    between atoms: C8_11  and  C9_12 
REMARK    6  A    between atoms: C9_12  and  O3_13 
REMARK    7  A    between atoms: O3_13  and  C10_14 
REMARK    8  A    between atoms: C13_17  and  O4_18 
REMARK    9  A    between atoms: O4_18  and  C14_19 
ROOT
HETATM    1  C10 UNL     1      29.027  86.217   0.413  1.00  0.00     0.069 A 
HETATM    2  C11 UNL     1      28.790  86.949  -0.727  1.00  0.00     0.039 A 
HETATM    3  C12 UNL     1      27.492  87.244  -1.150  1.00  0.00     0.040 A 
HETATM    4  C13 UNL     1      26.418  86.786  -0.400  1.00  0.00     0.076 A 
HETATM    5  C20 UNL     1      26.636  86.052   0.742  1.00  0.00     0.040 A 
HETATM    6  C21 UNL     1      27.945  85.773   1.140  1.00  0.00     0.039 A 
ENDROOT
BRANCH   1   7
HETATM    7  O3  UNL     1      30.283  85.913   0.852  1.00  0.00    -0.349 OA
BRANCH   7   8
HETATM    8  C9  UNL     1      31.187  85.039   0.169  1.00  0.00     0.211 C 
BRANCH   8   9
HETATM    9  C8  UNL     1      32.152  84.496   1.141  1.00  0.00     0.247 C 
HETATM   10  N1  UNL     1      33.353  83.954   0.677  1.00  0.00     0.095 N 
HETATM   11  C5  UNL     1      34.350  84.091   1.731  1.00  0.00     0.273 C 
HETATM   12  C6  UNL     1      33.881  85.193   2.631  1.00  0.00     0.032 C 
HETATM   13  C7  UNL     1      32.500  85.592   2.156  1.00  0.00     0.040 C 
BRANCH  10  14
HETATM   14  C4  UNL     1      33.894  84.420  -0.542  1.00  0.00     0.273 C 
BRANCH  14  15
HETATM   15  C3  UNL     1      34.564  83.375  -1.412  1.00  0.00     0.041 C 
BRANCH  15  16
HETATM   16  C2  UNL     1      34.312  81.997  -0.777  1.00  0.00     0.115 C 
BRANCH  16  17
HETATM   17  C1  UNL     1      35.164  80.965  -1.422  1.00  0.00     0.172 C 
HETATM   18  O1  UNL     1      35.844  80.180  -0.712  1.00  0.00    -0.648 OA
HETATM   19  O2  UNL     1      35.210  80.858  -2.797  1.00  0.00    -0.648 OA
ENDBRANCH  16  17
ENDBRANCH  15  16
ENDBRANCH  14  15
ENDBRANCH  10  14
ENDBRANCH   8   9
ENDBRANCH   7   8
ENDBRANCH   1   7
BRANCH   4  20
HETATM   20  O4  UNL     1      25.124  87.070  -0.805  1.00  0.00    -0.311 OA
BRANCH  20  21
HETATM   21  C14 UNL     1      24.595  86.356  -1.874  1.00  0.00     0.076 A 
HETATM   22  C15 UNL     1      24.049  87.032  -2.938  1.00  0.00     0.039 A 
HETATM   23  C16 UNL     1      23.510  86.389  -4.027  1.00  0.00     0.026 A 
HETATM   24  C17 UNL     1      23.522  84.996  -4.043  1.00  0.00     0.034 A 
HETATM   25 CL1  UNL     1      22.845  84.161  -5.413  1.00  0.00    -0.084 Cl
HETATM   26  C18 UNL     1      24.075  84.332  -2.965  1.00  0.00     0.026 A 
HETATM   27  C19 UNL     1      24.615  84.969  -1.873  1.00  0.00     0.039 A 
ENDBRANCH  20  21
ENDBRANCH   4  20
TORSDOF 9
ENDMDL
