MODEL 5
REMARK VINA RESULT: -6.762919488      1.326      1.731
REMARK  1 active torsions:
REMARK  status: ('A' for Active; 'I' for Inactive)
REMARK    1  A    between atoms: C5_6  and  C6_7 
ROOT
HETATM    1  N1  UNL     1      19.922  -9.163  12.087  1.00  0.00    -0.102 NA
HETATM    2  C1  UNL     1      18.620  -9.458  11.573  1.00  0.00     0.047 A 
HETATM    3  C2  UNL     1      18.268 -10.739  11.204  1.00  0.00     0.026 A 
HETATM    4  C3  UNL     1      17.019 -11.051  10.707  1.00  0.00     0.003 A 
HETATM    5  C4  UNL     1      16.076 -10.060  10.565  1.00  0.00     0.018 A 
HETATM    6  C5  UNL     1      16.395  -8.777  10.922  1.00  0.00     0.042 A 
HETATM    7  C7  UNL     1      17.666  -8.477  11.426  1.00  0.00     0.044 A 
ENDROOT
BRANCH   6   8
HETATM    8  C6  UNL     1      15.432  -7.697  10.791  1.00  0.00     0.209 C 
HETATM    9  O1  UNL     1      14.798  -7.570   9.718  1.00  0.00    -0.644 OA
HETATM   10  O2  UNL     1      15.199  -6.810  11.823  1.00  0.00    -0.644 OA
ENDBRANCH   6   8
TORSDOF 1
ENDMDL
