MODEL 1
REMARK VINA RESULT: -6.981931107      0.000      0.000
REMARK  1 active torsions:
REMARK  status: ('A' for Active; 'I' for Inactive)
REMARK    1  A    between atoms: C5_6  and  C6_7 
ROOT
HETATM    1  N1  UNL     1      18.700 -11.279  11.455  1.00  0.00    -0.102 NA
HETATM    2  C1  UNL     1      17.590 -10.523  10.960  1.00  0.00     0.047 A 
HETATM    3  C2  UNL     1      16.645 -11.094  10.135  1.00  0.00     0.026 A 
HETATM    4  C3  UNL     1      15.566 -10.387   9.645  1.00  0.00     0.003 A 
HETATM    5  C4  UNL     1      15.410  -9.063   9.981  1.00  0.00     0.018 A 
HETATM    6  C5  UNL     1      16.332  -8.467  10.799  1.00  0.00     0.042 A 
HETATM    7  C7  UNL     1      17.422  -9.197  11.288  1.00  0.00     0.044 A 
ENDROOT
BRANCH   6   8
HETATM    8  C6  UNL     1      16.210  -7.071  11.181  1.00  0.00     0.209 C 
HETATM    9  O1  UNL     1      15.113  -6.649  11.615  1.00  0.00    -0.644 OA
HETATM   10  O2  UNL     1      17.275  -6.199  11.077  1.00  0.00    -0.644 OA
ENDBRANCH   6   8
TORSDOF 1
ENDMDL
