MODEL 6
REMARK VINA RESULT: -6.738371193      1.345      1.769
REMARK  1 active torsions:
REMARK  status: ('A' for Active; 'I' for Inactive)
REMARK    1  A    between atoms: C5_6  and  C6_7 
ROOT
HETATM    1  N1  UNL     1      19.929  -9.086  12.141  1.00  0.00    -0.102 NA
HETATM    2  C1  UNL     1      18.633  -9.392  11.617  1.00  0.00     0.047 A 
HETATM    3  C2  UNL     1      18.293 -10.676  11.248  1.00  0.00     0.026 A 
HETATM    4  C3  UNL     1      17.051 -10.997  10.741  1.00  0.00     0.003 A 
HETATM    5  C4  UNL     1      16.103 -10.012  10.588  1.00  0.00     0.018 A 
HETATM    6  C5  UNL     1      16.410  -8.727  10.945  1.00  0.00     0.042 A 
HETATM    7  C7  UNL     1      17.674  -8.417  11.458  1.00  0.00     0.044 A 
ENDROOT
BRANCH   6   8
HETATM    8  C6  UNL     1      15.441  -7.654  10.802  1.00  0.00     0.209 C 
HETATM    9  O1  UNL     1      15.226  -6.889  11.771  1.00  0.00    -0.644 OA
HETATM   10  O2  UNL     1      14.752  -7.458   9.621  1.00  0.00    -0.644 OA
ENDBRANCH   6   8
TORSDOF 1
ENDMDL
