MODEL 2
REMARK VINA RESULT: -6.978605092      0.149      1.017
REMARK  1 active torsions:
REMARK  status: ('A' for Active; 'I' for Inactive)
REMARK    1  A    between atoms: C5_6  and  C6_7 
ROOT
HETATM    1  N1  UNL     1      18.767 -11.278  11.506  1.00  0.00    -0.102 NA
HETATM    2  C1  UNL     1      17.666 -10.532  10.981  1.00  0.00     0.047 A 
HETATM    3  C2  UNL     1      16.768 -11.099  10.102  1.00  0.00     0.026 A 
HETATM    4  C3  UNL     1      15.698 -10.401   9.582  1.00  0.00     0.003 A 
HETATM    5  C4  UNL     1      15.502  -9.088   9.941  1.00  0.00     0.018 A 
HETATM    6  C5  UNL     1      16.376  -8.496  10.812  1.00  0.00     0.042 A 
HETATM    7  C7  UNL     1      17.457  -9.217  11.331  1.00  0.00     0.044 A 
ENDROOT
BRANCH   6   8
HETATM    8  C6  UNL     1      16.210  -7.111  11.220  1.00  0.00     0.209 C 
HETATM    9  O1  UNL     1      17.099  -6.277  10.932  1.00  0.00    -0.644 OA
HETATM   10  O2  UNL     1      15.093  -6.695  11.917  1.00  0.00    -0.644 OA
ENDBRANCH   6   8
TORSDOF 1
ENDMDL
