MODEL 1
REMARK VINA RESULT: -6.042395394      0.000      0.000
REMARK  3 active torsions:
REMARK  status: ('A' for Active; 'I' for Inactive)
REMARK    1  A    between atoms: C2_2  and  O1_3 
REMARK    2  A    between atoms: C2_2  and  C3_8 
REMARK    3  A    between atoms: O1_3  and  P1_4 
ROOT
HETATM    1  C1  UNL     1     -31.817   6.220 -27.359  1.00  0.00     0.052 C 
HETATM    2  C2  UNL     1     -30.810   6.782 -26.345  1.00  0.00     0.232 C 
ENDROOT
BRANCH   2   3
HETATM    3  O1  UNL     1     -29.612   6.230 -26.595  1.00  0.00    -0.267 OA
BRANCH   3   4
HETATM    4  P1  UNL     1     -28.828   5.325 -25.555  1.00  0.00     0.423 P 
HETATM    5  O2  UNL     1     -27.518   5.218 -26.315  1.00  0.00    -0.617 OA
HETATM    6  O3  UNL     1     -27.959   6.056 -24.263  1.00  0.00    -0.617 OA
HETATM    7  O4  UNL     1     -29.019   3.680 -25.473  1.00  0.00    -0.617 OA
ENDBRANCH   3   4
ENDBRANCH   2   3
BRANCH   2   8
HETATM    8  C3  UNL     1     -30.930   8.225 -26.374  1.00  0.00     0.203 C 
HETATM    9  O5  UNL     1     -31.512   8.770 -27.332  1.00  0.00    -0.646 OA
HETATM   10  O6  UNL     1     -30.417   9.016 -25.373  1.00  0.00    -0.646 OA
ENDBRANCH   2   8
TORSDOF 3
ENDMDL
