MODEL 5
REMARK VINA RESULT: -5.634481099      1.207      1.891
REMARK  3 active torsions:
REMARK  status: ('A' for Active; 'I' for Inactive)
REMARK    1  A    between atoms: C2_2  and  O1_3 
REMARK    2  A    between atoms: C2_2  and  C3_8 
REMARK    3  A    between atoms: O1_3  and  P1_4 
ROOT
HETATM    1  C1  UNL     1     -30.628   8.521 -25.995  1.00  0.00     0.052 C 
HETATM    2  C2  UNL     1     -30.585   7.185 -26.751  1.00  0.00     0.232 C 
ENDROOT
BRANCH   2   3
HETATM    3  O1  UNL     1     -30.457   6.199 -25.849  1.00  0.00    -0.267 OA
BRANCH   3   4
HETATM    4  P1  UNL     1     -29.071   5.521 -25.481  1.00  0.00     0.423 P 
HETATM    5  O2  UNL     1     -28.285   5.978 -26.697  1.00  0.00    -0.617 OA
HETATM    6  O3  UNL     1     -27.937   6.361 -24.497  1.00  0.00    -0.617 OA
HETATM    7  O4  UNL     1     -28.752   3.919 -25.765  1.00  0.00    -0.617 OA
ENDBRANCH   3   4
ENDBRANCH   2   3
BRANCH   2   8
HETATM    8  C3  UNL     1     -31.721   7.163 -27.648  1.00  0.00     0.203 C 
HETATM    9  O5  UNL     1     -32.378   6.111 -27.778  1.00  0.00    -0.646 OA
HETATM   10  O6  UNL     1     -32.099   8.272 -28.368  1.00  0.00    -0.646 OA
ENDBRANCH   2   8
TORSDOF 3
ENDMDL
