MODEL 7
REMARK VINA RESULT: -5.585632535      0.446      1.446
REMARK  3 active torsions:
REMARK  status: ('A' for Active; 'I' for Inactive)
REMARK    1  A    between atoms: C2_2  and  O1_3 
REMARK    2  A    between atoms: C2_2  and  C3_8 
REMARK    3  A    between atoms: O1_3  and  P1_4 
ROOT
HETATM    1  C1  UNL     1     -31.899   6.266 -27.321  1.00  0.00     0.052 C 
HETATM    2  C2  UNL     1     -30.754   6.793 -26.443  1.00  0.00     0.232 C 
ENDROOT
BRANCH   2   3
HETATM    3  O1  UNL     1     -29.600   6.299 -26.920  1.00  0.00    -0.267 OA
BRANCH   3   4
HETATM    4  P1  UNL     1     -28.410   5.802 -25.997  1.00  0.00     0.423 P 
HETATM    5  O2  UNL     1     -29.033   4.496 -25.538  1.00  0.00    -0.617 OA
HETATM    6  O3  UNL     1     -27.120   4.890 -26.675  1.00  0.00    -0.617 OA
HETATM    7  O4  UNL     1     -28.190   6.346 -24.447  1.00  0.00    -0.617 OA
ENDBRANCH   3   4
ENDBRANCH   2   3
BRANCH   2   8
HETATM    8  C3  UNL     1     -30.910   8.230 -26.351  1.00  0.00     0.203 C 
HETATM    9  O5  UNL     1     -31.510   8.840 -27.258  1.00  0.00    -0.646 OA
HETATM   10  O6  UNL     1     -30.411   8.947 -25.288  1.00  0.00    -0.646 OA
ENDBRANCH   2   8
TORSDOF 3
ENDMDL
