MODEL 4
REMARK VINA RESULT: -5.638325351      1.135      2.279
REMARK  3 active torsions:
REMARK  status: ('A' for Active; 'I' for Inactive)
REMARK    1  A    between atoms: C2_2  and  O1_3 
REMARK    2  A    between atoms: C2_2  and  C3_8 
REMARK    3  A    between atoms: O1_3  and  P1_4 
ROOT
HETATM    1  C1  UNL     1     -30.463   8.594 -25.827  1.00  0.00     0.052 C 
HETATM    2  C2  UNL     1     -30.322   7.242 -26.540  1.00  0.00     0.232 C 
ENDROOT
BRANCH   2   3
HETATM    3  O1  UNL     1     -30.119   6.297 -25.607  1.00  0.00    -0.267 OA
BRANCH   3   4
HETATM    4  P1  UNL     1     -28.976   5.202 -25.702  1.00  0.00     0.423 P 
HETATM    5  O2  UNL     1     -28.262   5.532 -24.405  1.00  0.00    -0.617 OA
HETATM    6  O3  UNL     1     -29.249   3.619 -25.088  1.00  0.00    -0.617 OA
HETATM    7  O4  UNL     1     -27.608   5.410 -26.614  1.00  0.00    -0.617 OA
ENDBRANCH   3   4
ENDBRANCH   2   3
BRANCH   2   8
HETATM    8  C3  UNL     1     -31.455   7.106 -27.432  1.00  0.00     0.203 C 
HETATM    9  O5  UNL     1     -32.029   6.004 -27.529  1.00  0.00    -0.646 OA
HETATM   10  O6  UNL     1     -31.916   8.162 -28.183  1.00  0.00    -0.646 OA
ENDBRANCH   2   8
TORSDOF 3
ENDMDL
