MODEL 2
REMARK VINA RESULT: -5.981722302      1.175      2.271
REMARK  3 active torsions:
REMARK  status: ('A' for Active; 'I' for Inactive)
REMARK    1  A    between atoms: C2_2  and  O1_3 
REMARK    2  A    between atoms: C2_2  and  C3_8 
REMARK    3  A    between atoms: O1_3  and  P1_4 
ROOT
HETATM    1  C1  UNL     1     -30.587   8.367 -25.817  1.00  0.00     0.052 C 
HETATM    2  C2  UNL     1     -30.461   7.150 -26.745  1.00  0.00     0.232 C 
ENDROOT
BRANCH   2   3
HETATM    3  O1  UNL     1     -30.180   6.076 -25.990  1.00  0.00    -0.267 OA
BRANCH   3   4
HETATM    4  P1  UNL     1     -28.709   5.661 -25.567  1.00  0.00     0.423 P 
HETATM    5  O2  UNL     1     -28.957   4.177 -25.374  1.00  0.00    -0.617 OA
HETATM    6  O3  UNL     1     -27.550   5.258 -26.772  1.00  0.00    -0.617 OA
HETATM    7  O4  UNL     1     -28.129   5.858 -24.027  1.00  0.00    -0.617 OA
ENDBRANCH   3   4
ENDBRANCH   2   3
BRANCH   2   8
HETATM    8  C3  UNL     1     -31.643   7.123 -27.581  1.00  0.00     0.203 C 
HETATM    9  O5  UNL     1     -32.318   6.077 -27.652  1.00  0.00    -0.646 OA
HETATM   10  O6  UNL     1     -32.045   8.221 -28.305  1.00  0.00    -0.646 OA
ENDBRANCH   2   8
TORSDOF 3
ENDMDL
