MODEL 8
REMARK VINA RESULT: -5.475888591      1.993      4.805
REMARK  5 active torsions:
REMARK  status: ('A' for Active; 'I' for Inactive)
REMARK    1  A    between atoms: C1_2  and  C2_4 
REMARK    2  A    between atoms: C2_4  and  O3_5 
REMARK    3  A    between atoms: C2_4  and  C3_7 
REMARK    4  A    between atoms: C3_7  and  O4_8 
REMARK    5  A    between atoms: O4_8  and  P1_9 
ROOT
HETATM    1  C2  UNL     1      -5.232   7.982  14.835  1.00  0.00     0.243 C 
ENDROOT
BRANCH   1   2
HETATM    2  C1  UNL     1      -5.177   6.487  14.727  1.00  0.00     0.205 C 
HETATM    3  O1  UNL     1      -5.700   5.725  15.560  1.00  0.00    -0.646 OA
HETATM    4  O2  UNL     1      -4.512   5.911  13.648  1.00  0.00    -0.646 OA
ENDBRANCH   1   2
BRANCH   1   5
HETATM    5  O3  UNL     1      -5.037   8.288  16.178  1.00  0.00    -0.383 OA
ATOM      6  H3  UNL     1      -4.100   8.267  16.326  1.00  0.00     0.210 HD
ENDBRANCH   1   5
BRANCH   1   7
HETATM    7  C3  UNL     1      -6.580   8.422  14.382  1.00  0.00     0.225 C 
BRANCH   7   8
HETATM    8  O4  UNL     1      -7.086   7.703  13.328  1.00  0.00    -0.280 OA
BRANCH   8   9
HETATM    9  P1  UNL     1      -8.584   7.902  12.844  1.00  0.00     0.422 P 
HETATM   10  O5  UNL     1      -9.078   9.371  12.104  1.00  0.00    -0.617 OA
HETATM   11  O6  UNL     1      -9.143   8.456  14.163  1.00  0.00    -0.617 OA
HETATM   12  O7  UNL     1      -9.703   6.681  12.887  1.00  0.00    -0.617 OA
ENDBRANCH   8   9
ENDBRANCH   7   8
ENDBRANCH   1   7
TORSDOF 5
ENDMDL
