MODEL 2
REMARK VINA RESULT: -5.914673146      0.966      1.180
REMARK  5 active torsions:
REMARK  status: ('A' for Active; 'I' for Inactive)
REMARK    1  A    between atoms: C1_2  and  C2_4 
REMARK    2  A    between atoms: C2_4  and  O3_5 
REMARK    3  A    between atoms: C2_4  and  C3_7 
REMARK    4  A    between atoms: C3_7  and  O4_8 
REMARK    5  A    between atoms: O4_8  and  P1_9 
ROOT
HETATM    1  C2  UNL     1      -8.620   8.362  13.814  1.00  0.00     0.243 C 
ENDROOT
BRANCH   1   2
HETATM    2  C1  UNL     1      -9.662   8.572  12.755  1.00  0.00     0.205 C 
HETATM    3  O1  UNL     1      -9.422   9.120  11.664  1.00  0.00    -0.646 OA
HETATM    4  O2  UNL     1     -10.963   8.140  12.992  1.00  0.00    -0.646 OA
ENDBRANCH   1   2
BRANCH   1   5
HETATM    5  O3  UNL     1      -7.759   9.452  13.742  1.00  0.00    -0.383 OA
ATOM      6  H3  UNL     1      -7.176   9.385  14.489  1.00  0.00     0.210 HD
ENDBRANCH   1   5
BRANCH   1   7
HETATM    7  C3  UNL     1      -7.901   7.097  13.500  1.00  0.00     0.225 C 
BRANCH   7   8
HETATM    8  O4  UNL     1      -6.541   7.161  13.670  1.00  0.00    -0.280 OA
BRANCH   8   9
HETATM    9  P1  UNL     1      -5.793   6.182  14.670  1.00  0.00     0.422 P 
HETATM   10  O5  UNL     1      -4.811   6.803  15.935  1.00  0.00    -0.617 OA
HETATM   11  O6  UNL     1      -4.506   6.009  13.847  1.00  0.00    -0.617 OA
HETATM   12  O7  UNL     1      -6.023   4.541  14.648  1.00  0.00    -0.617 OA
ENDBRANCH   8   9
ENDBRANCH   7   8
ENDBRANCH   1   7
TORSDOF 5
ENDMDL
