MODEL 6
REMARK VINA RESULT: -5.574830291      2.102      4.662
REMARK  5 active torsions:
REMARK  status: ('A' for Active; 'I' for Inactive)
REMARK    1  A    between atoms: C1_2  and  C2_4 
REMARK    2  A    between atoms: C2_4  and  O3_5 
REMARK    3  A    between atoms: C2_4  and  C3_7 
REMARK    4  A    between atoms: C3_7  and  O4_8 
REMARK    5  A    between atoms: O4_8  and  P1_9 
ROOT
HETATM    1  C2  UNL     1      -6.561   5.505  14.804  1.00  0.00     0.243 C 
ENDROOT
BRANCH   1   2
HETATM    2  C1  UNL     1      -5.273   6.261  14.660  1.00  0.00     0.205 C 
HETATM    3  O1  UNL     1      -4.531   6.157  13.668  1.00  0.00    -0.646 OA
HETATM    4  O2  UNL     1      -4.878   7.123  15.679  1.00  0.00    -0.646 OA
ENDBRANCH   1   2
BRANCH   1   5
HETATM    5  O3  UNL     1      -6.271   4.174  14.526  1.00  0.00    -0.383 OA
ATOM      6  H3  UNL     1      -6.030   4.137  13.608  1.00  0.00     0.210 HD
ENDBRANCH   1   5
BRANCH   1   7
HETATM    7  C3  UNL     1      -7.525   6.056  13.814  1.00  0.00     0.225 C 
BRANCH   7   8
HETATM    8  O4  UNL     1      -8.335   7.050  14.304  1.00  0.00    -0.280 OA
BRANCH   8   9
HETATM    9  P1  UNL     1      -8.588   8.382  13.479  1.00  0.00     0.422 P 
HETATM   10  O5  UNL     1      -9.968   8.539  12.469  1.00  0.00    -0.617 OA
HETATM   11  O6  UNL     1      -7.796   7.987  12.223  1.00  0.00    -0.617 OA
HETATM   12  O7  UNL     1      -7.638   9.729  13.650  1.00  0.00    -0.617 OA
ENDBRANCH   8   9
ENDBRANCH   7   8
ENDBRANCH   1   7
TORSDOF 5
ENDMDL
