MODEL 10
REMARK VINA RESULT: -5.430122807      1.046      1.920
REMARK  5 active torsions:
REMARK  status: ('A' for Active; 'I' for Inactive)
REMARK    1  A    between atoms: C1_2  and  C2_4 
REMARK    2  A    between atoms: C2_4  and  O3_5 
REMARK    3  A    between atoms: C2_4  and  C3_7 
REMARK    4  A    between atoms: C3_7  and  O4_8 
REMARK    5  A    between atoms: O4_8  and  P1_9 
ROOT
HETATM    1  C2  UNL     1      -8.661   8.475  13.554  1.00  0.00     0.243 C 
ENDROOT
BRANCH   1   2
HETATM    2  C1  UNL     1      -9.779   7.882  12.750  1.00  0.00     0.205 C 
HETATM    3  O1  UNL     1      -9.596   7.069  11.826  1.00  0.00    -0.646 OA
HETATM    4  O2  UNL     1     -11.090   8.249  13.041  1.00  0.00    -0.646 OA
ENDBRANCH   1   2
BRANCH   1   5
HETATM    5  O3  UNL     1      -8.225   9.596  12.857  1.00  0.00    -0.383 OA
ATOM      6  H3  UNL     1      -7.479   9.938  13.335  1.00  0.00     0.210 HD
ENDBRANCH   1   5
BRANCH   1   7
HETATM    7  C3  UNL     1      -7.580   7.457  13.651  1.00  0.00     0.225 C 
BRANCH   7   8
HETATM    8  O4  UNL     1      -6.485   7.860  14.374  1.00  0.00    -0.280 OA
BRANCH   8   9
HETATM    9  P1  UNL     1      -5.365   6.824  14.811  1.00  0.00     0.422 P 
HETATM   10  O5  UNL     1      -4.512   5.907  13.636  1.00  0.00    -0.617 OA
HETATM   11  O6  UNL     1      -6.286   5.607  14.994  1.00  0.00    -0.617 OA
HETATM   12  O7  UNL     1      -4.857   6.671  16.381  1.00  0.00    -0.617 OA
ENDBRANCH   8   9
ENDBRANCH   7   8
ENDBRANCH   1   7
TORSDOF 5
ENDMDL
