MODEL 1
REMARK VINA RESULT: -5.994463771      0.000      0.000
REMARK  5 active torsions:
REMARK  status: ('A' for Active; 'I' for Inactive)
REMARK    1  A    between atoms: C1_2  and  C2_4 
REMARK    2  A    between atoms: C2_4  and  O3_5 
REMARK    3  A    between atoms: C2_4  and  C3_7 
REMARK    4  A    between atoms: C3_7  and  O4_8 
REMARK    5  A    between atoms: O4_8  and  P1_9 
ROOT
HETATM    1  C2  UNL     1      -8.324   7.359  12.851  1.00  0.00     0.243 C 
ENDROOT
BRANCH   1   2
HETATM    2  C1  UNL     1      -9.425   8.331  12.546  1.00  0.00     0.205 C 
HETATM    3  O1  UNL     1      -9.320   9.234  11.698  1.00  0.00    -0.646 OA
HETATM    4  O2  UNL     1     -10.628   8.228  13.239  1.00  0.00    -0.646 OA
ENDBRANCH   1   2
BRANCH   1   5
HETATM    5  O3  UNL     1      -8.890   6.351  13.625  1.00  0.00    -0.383 OA
ATOM      6  H3  UNL     1      -8.966   6.697  14.505  1.00  0.00     0.210 HD
ENDBRANCH   1   5
BRANCH   1   7
HETATM    7  C3  UNL     1      -7.273   8.086  13.614  1.00  0.00     0.225 C 
BRANCH   7   8
HETATM    8  O4  UNL     1      -6.041   7.484  13.594  1.00  0.00    -0.280 OA
BRANCH   8   9
HETATM    9  P1  UNL     1      -5.663   6.354  14.642  1.00  0.00     0.422 P 
HETATM   10  O5  UNL     1      -4.703   6.720  16.019  1.00  0.00    -0.617 OA
HETATM   11  O6  UNL     1      -4.375   5.873  13.956  1.00  0.00    -0.617 OA
HETATM   12  O7  UNL     1      -6.279   4.818  14.556  1.00  0.00    -0.617 OA
ENDBRANCH   8   9
ENDBRANCH   7   8
ENDBRANCH   1   7
TORSDOF 5
ENDMDL
