MODEL 2
REMARK VINA RESULT: -10.962009403      0.993      6.032
REMARK  4 active torsions:
REMARK  status: ('A' for Active; 'I' for Inactive)
REMARK    1  A    between atoms: C5_6  and  O2_7 
REMARK    2  A    between atoms: C6_9  and  O3_10 
REMARK    3  A    between atoms: C10_16  and  O5_17 
REMARK    4  A    between atoms: C13_21  and  O6_22 
ROOT
HETATM    1  O1  UNL     1      24.727   5.010  17.870  1.00  0.00    -0.286 OA
HETATM    2  C1  UNL     1      23.980   5.975  18.129  1.00  0.00     0.197 A 
HETATM    3  C2  UNL     1      23.471   6.056  19.486  1.00  0.00     0.032 A 
HETATM    4  C3  UNL     1      23.797   5.116  20.436  1.00  0.00     0.019 A 
HETATM    5  C4  UNL     1      23.296   5.225  21.710  1.00  0.00     0.040 A 
HETATM    6  C5  UNL     1      22.448   6.274  22.096  1.00  0.00     0.099 A 
HETATM    7  C6  UNL     1      22.134   7.202  21.133  1.00  0.00     0.114 A 
HETATM    8  C7  UNL     1      22.642   7.092  19.842  1.00  0.00     0.065 A 
HETATM    9  C8  UNL     1      22.304   8.081  18.829  1.00  0.00     0.200 A 
HETATM   10  O4  UNL     1      21.542   9.012  19.201  1.00  0.00    -0.286 OA
HETATM   11  C9  UNL     1      22.805   8.021  17.450  1.00  0.00     0.065 A 
HETATM   12  C10 UNL     1      22.457   8.978  16.530  1.00  0.00     0.081 A 
HETATM   13  C11 UNL     1      22.974   8.857  15.229  1.00  0.00     0.040 A 
HETATM   14  C12 UNL     1      23.799   7.838  14.851  1.00  0.00     0.040 A 
HETATM   15  C13 UNL     1      24.129   6.881  15.825  1.00  0.00     0.081 A 
HETATM   16  C14 UNL     1      23.647   6.959  17.107  1.00  0.00     0.065 A 
ENDROOT
BRANCH   6  17
HETATM   17  O2  UNL     1      21.987   6.308  23.408  1.00  0.00    -0.358 OA
ATOM     18  H2  UNL     1      22.622   6.287  24.114  1.00  0.00     0.217 HD
ENDBRANCH   6  17
BRANCH   7  19
HETATM   19  O3  UNL     1      21.305   8.264  21.438  1.00  0.00    -0.357 OA
ATOM     20  H3  UNL     1      21.444   8.761  22.236  1.00  0.00     0.217 HD
ENDBRANCH   7  19
BRANCH  12  21
HETATM   21  O5  UNL     1      21.647  10.022  16.814  1.00  0.00    -0.360 OA
ATOM     22  H5  UNL     1      21.652  10.475  17.650  1.00  0.00     0.217 HD
ENDBRANCH  12  21
BRANCH  15  23
HETATM   23  O6  UNL     1      24.955   5.887  15.392  1.00  0.00    -0.360 OA
ATOM     24  H6  UNL     1      25.481   5.482  16.071  1.00  0.00     0.217 HD
ENDBRANCH  15  23
TORSDOF 4
ENDMDL
