MODEL 3
REMARK VINA RESULT: -10.722733668      0.828      5.061
REMARK  4 active torsions:
REMARK  status: ('A' for Active; 'I' for Inactive)
REMARK    1  A    between atoms: C5_6  and  O2_7 
REMARK    2  A    between atoms: C6_9  and  O3_10 
REMARK    3  A    between atoms: C10_16  and  O5_17 
REMARK    4  A    between atoms: C13_21  and  O6_22 
ROOT
HETATM    1  O1  UNL     1      21.469   9.254  18.992  1.00  0.00    -0.286 OA
HETATM    2  C1  UNL     1      22.214   8.300  18.693  1.00  0.00     0.197 A 
HETATM    3  C2  UNL     1      22.503   7.346  19.749  1.00  0.00     0.032 A 
HETATM    4  C3  UNL     1      21.982   7.490  21.013  1.00  0.00     0.019 A 
HETATM    5  C4  UNL     1      22.277   6.567  21.987  1.00  0.00     0.040 A 
HETATM    6  C5  UNL     1      23.106   5.461  21.746  1.00  0.00     0.099 A 
HETATM    7  C6  UNL     1      23.617   5.336  20.477  1.00  0.00     0.114 A 
HETATM    8  C7  UNL     1      23.317   6.270  19.491  1.00  0.00     0.065 A 
HETATM    9  C8  UNL     1      23.864   6.128  18.149  1.00  0.00     0.200 A 
HETATM   10  O4  UNL     1      24.604   5.127  17.959  1.00  0.00    -0.286 OA
HETATM   11  C9  UNL     1      23.587   7.078  17.064  1.00  0.00     0.065 A 
HETATM   12  C10 UNL     1      24.127   6.902  15.815  1.00  0.00     0.081 A 
HETATM   13  C11 UNL     1      23.818   7.850  14.826  1.00  0.00     0.040 A 
HETATM   14  C12 UNL     1      23.013   8.927  15.057  1.00  0.00     0.040 A 
HETATM   15  C13 UNL     1      22.482   9.069  16.350  1.00  0.00     0.081 A 
HETATM   16  C14 UNL     1      22.756   8.167  17.347  1.00  0.00     0.065 A 
ENDROOT
BRANCH   6  17
HETATM   17  O2  UNL     1      23.352   4.575  22.791  1.00  0.00    -0.358 OA
ATOM     18  H2  UNL     1      24.033   3.922  22.681  1.00  0.00     0.217 HD
ENDBRANCH   6  17
BRANCH   7  19
HETATM   19  O3  UNL     1      24.440   4.272  20.164  1.00  0.00    -0.357 OA
ATOM     20  H3  UNL     1      24.946   3.845  20.846  1.00  0.00     0.217 HD
ENDBRANCH   7  19
BRANCH  12  21
HETATM   21  O5  UNL     1      24.934   5.865  15.495  1.00  0.00    -0.360 OA
ATOM     22  H5  UNL     1      25.867   5.854  15.679  1.00  0.00     0.217 HD
ENDBRANCH  12  21
BRANCH  15  23
HETATM   23  O6  UNL     1      21.686  10.161  16.524  1.00  0.00    -0.360 OA
ATOM     24  H6  UNL     1      21.950  10.738  17.231  1.00  0.00     0.217 HD
ENDBRANCH  15  23
TORSDOF 4
ENDMDL
