MODEL 4
REMARK VINA RESULT: -10.395683968      1.358      5.153
REMARK  4 active torsions:
REMARK  status: ('A' for Active; 'I' for Inactive)
REMARK    1  A    between atoms: C5_6  and  O2_7 
REMARK    2  A    between atoms: C6_9  and  O3_10 
REMARK    3  A    between atoms: C10_16  and  O5_17 
REMARK    4  A    between atoms: C13_21  and  O6_22 
ROOT
HETATM    1  O1  UNL     1      21.553   9.578  18.132  1.00  0.00    -0.286 OA
HETATM    2  C1  UNL     1      22.194   8.529  18.339  1.00  0.00     0.197 A 
HETATM    3  C2  UNL     1      22.101   7.963  19.674  1.00  0.00     0.032 A 
HETATM    4  C3  UNL     1      21.344   8.556  20.656  1.00  0.00     0.019 A 
HETATM    5  C4  UNL     1      21.278   7.993  21.907  1.00  0.00     0.040 A 
HETATM    6  C5  UNL     1      21.965   6.814  22.236  1.00  0.00     0.099 A 
HETATM    7  C6  UNL     1      22.715   6.237  21.240  1.00  0.00     0.114 A 
HETATM    8  C7  UNL     1      22.781   6.808  19.973  1.00  0.00     0.065 A 
HETATM    9  C8  UNL     1      23.579   6.189  18.925  1.00  0.00     0.200 A 
HETATM   10  O4  UNL     1      24.184   5.132  19.246  1.00  0.00    -0.286 OA
HETATM   11  C9  UNL     1      23.690   6.740  17.569  1.00  0.00     0.065 A 
HETATM   12  C10 UNL     1      24.456   6.120  16.614  1.00  0.00     0.081 A 
HETATM   13  C11 UNL     1      24.516   6.705  15.338  1.00  0.00     0.040 A 
HETATM   14  C12 UNL     1      23.850   7.851  15.015  1.00  0.00     0.040 A 
HETATM   15  C13 UNL     1      23.078   8.453  16.023  1.00  0.00     0.081 A 
HETATM   16  C14 UNL     1      22.990   7.917  17.283  1.00  0.00     0.065 A 
ENDROOT
BRANCH   6  17
HETATM   17  O2  UNL     1      21.843   6.312  23.528  1.00  0.00    -0.358 OA
ATOM     18  H2  UNL     1      21.940   5.377  23.663  1.00  0.00     0.217 HD
ENDBRANCH   6  17
BRANCH   7  19
HETATM   19  O3  UNL     1      23.418   5.074  21.488  1.00  0.00    -0.357 OA
ATOM     20  H3  UNL     1      22.957   4.248  21.570  1.00  0.00     0.217 HD
ENDBRANCH   7  19
BRANCH  12  21
HETATM   21  O5  UNL     1      25.150   4.982  16.843  1.00  0.00    -0.360 OA
ATOM     22  H5  UNL     1      26.021   4.824  16.498  1.00  0.00     0.217 HD
ENDBRANCH  12  21
BRANCH  15  23
HETATM   23  O6  UNL     1      22.436   9.594  15.645  1.00  0.00    -0.360 OA
ATOM     24  H6  UNL     1      22.935  10.392  15.773  1.00  0.00     0.217 HD
ENDBRANCH  15  23
TORSDOF 4
ENDMDL
