MODEL 1
REMARK VINA RESULT: -11.466893468      0.000      0.000
REMARK  4 active torsions:
REMARK  status: ('A' for Active; 'I' for Inactive)
REMARK    1  A    between atoms: C5_6  and  O2_7 
REMARK    2  A    between atoms: C6_9  and  O3_10 
REMARK    3  A    between atoms: C10_16  and  O5_17 
REMARK    4  A    between atoms: C13_21  and  O6_22 
ROOT
HETATM    1  O1  UNL     1      21.418   9.390  18.599  1.00  0.00    -0.286 OA
HETATM    2  C1  UNL     1      22.171   8.403  18.479  1.00  0.00     0.197 A 
HETATM    3  C2  UNL     1      22.743   8.179  17.162  1.00  0.00     0.032 A 
HETATM    4  C3  UNL     1      22.465   9.014  16.105  1.00  0.00     0.019 A 
HETATM    5  C4  UNL     1      23.024   8.771  14.874  1.00  0.00     0.040 A 
HETATM    6  C5  UNL     1      23.883   7.686  14.640  1.00  0.00     0.099 A 
HETATM    7  C6  UNL     1      24.147   6.865  15.710  1.00  0.00     0.114 A 
HETATM    8  C7  UNL     1      23.581   7.111  16.956  1.00  0.00     0.065 A 
HETATM    9  C8  UNL     1      23.867   6.234  18.083  1.00  0.00     0.200 A 
HETATM   10  O4  UNL     1      24.640   5.270  17.847  1.00  0.00    -0.286 OA
HETATM   11  C9  UNL     1      23.302   6.438  19.423  1.00  0.00     0.065 A 
HETATM   12  C10 UNL     1      23.601   5.584  20.454  1.00  0.00     0.081 A 
HETATM   13  C11 UNL     1      23.025   5.841  21.709  1.00  0.00     0.040 A 
HETATM   14  C12 UNL     1      22.189   6.895  21.939  1.00  0.00     0.040 A 
HETATM   15  C13 UNL     1      21.910   7.744  20.856  1.00  0.00     0.081 A 
HETATM   16  C14 UNL     1      22.451   7.532  19.613  1.00  0.00     0.065 A 
ENDROOT
BRANCH   6  17
HETATM   17  O2  UNL     1      24.405   7.515  13.362  1.00  0.00    -0.358 OA
ATOM     18  H2  UNL     1      24.875   6.713  13.167  1.00  0.00     0.217 HD
ENDBRANCH   6  17
BRANCH   7  19
HETATM   19  O3  UNL     1      24.984   5.777  15.557  1.00  0.00    -0.357 OA
ATOM     20  H3  UNL     1      24.725   4.927  15.893  1.00  0.00     0.217 HD
ENDBRANCH   7  19
BRANCH  12  21
HETATM   21  O5  UNL     1      24.418   4.515  20.319  1.00  0.00    -0.360 OA
ATOM     22  H5  UNL     1      25.345   4.588  20.123  1.00  0.00     0.217 HD
ENDBRANCH  12  21
BRANCH  15  23
HETATM   23  O6  UNL     1      21.071   8.779  21.143  1.00  0.00    -0.360 OA
ATOM     24  H6  UNL     1      21.296   9.269  21.925  1.00  0.00     0.217 HD
ENDBRANCH  15  23
TORSDOF 4
ENDMDL
