MODEL 8
REMARK VINA RESULT: -9.003042270      1.236      1.949
REMARK  4 active torsions:
REMARK  status: ('A' for Active; 'I' for Inactive)
REMARK    1  A    between atoms: C5_6  and  O2_7 
REMARK    2  A    between atoms: C6_9  and  O3_10 
REMARK    3  A    between atoms: C10_16  and  O5_17 
REMARK    4  A    between atoms: C13_21  and  O6_22 
ROOT
HETATM    1  O1  UNL     1      21.943   9.184  18.171  1.00  0.00    -0.286 OA
HETATM    2  C1  UNL     1      22.421   8.145  18.666  1.00  0.00     0.197 A 
HETATM    3  C2  UNL     1      23.248   7.330  17.793  1.00  0.00     0.032 A 
HETATM    4  C3  UNL     1      23.488   7.689  16.487  1.00  0.00     0.019 A 
HETATM    5  C4  UNL     1      24.275   6.895  15.690  1.00  0.00     0.040 A 
HETATM    6  C5  UNL     1      24.857   5.706  16.156  1.00  0.00     0.099 A 
HETATM    7  C6  UNL     1      24.604   5.365  17.463  1.00  0.00     0.114 A 
HETATM    8  C7  UNL     1      23.807   6.170  18.270  1.00  0.00     0.065 A 
HETATM    9  C8  UNL     1      23.545   5.800  19.654  1.00  0.00     0.200 A 
HETATM   10  O4  UNL     1      24.080   4.730  20.047  1.00  0.00    -0.286 OA
HETATM   11  C9  UNL     1      22.714   6.605  20.557  1.00  0.00     0.065 A 
HETATM   12  C10 UNL     1      22.496   6.214  21.854  1.00  0.00     0.081 A 
HETATM   13  C11 UNL     1      21.690   7.034  22.661  1.00  0.00     0.040 A 
HETATM   14  C12 UNL     1      21.122   8.190  22.210  1.00  0.00     0.040 A 
HETATM   15  C13 UNL     1      21.372   8.553  20.876  1.00  0.00     0.081 A 
HETATM   16  C14 UNL     1      22.153   7.783  20.052  1.00  0.00     0.065 A 
ENDROOT
BRANCH   6  17
HETATM   17  O2  UNL     1      25.641   4.961  15.281  1.00  0.00    -0.358 OA
ATOM     18  H2  UNL     1      26.164   4.250  15.632  1.00  0.00     0.217 HD
ENDBRANCH   6  17
BRANCH   7  19
HETATM   19  O3  UNL     1      25.143   4.209  17.994  1.00  0.00    -0.357 OA
ATOM     20  H3  UNL     1      25.471   4.203  18.885  1.00  0.00     0.217 HD
ENDBRANCH   7  19
BRANCH  12  21
HETATM   21  O5  UNL     1      23.017   5.086  22.387  1.00  0.00    -0.360 OA
ATOM     22  H5  UNL     1      22.523   4.280  22.487  1.00  0.00     0.217 HD
ENDBRANCH  12  21
BRANCH  15  23
HETATM   23  O6  UNL     1      20.781   9.715  20.480  1.00  0.00    -0.360 OA
ATOM     24  H6  UNL     1      19.844   9.757  20.632  1.00  0.00     0.217 HD
ENDBRANCH  15  23
TORSDOF 4
ENDMDL
