MODEL 2
REMARK VINA RESULT: -9.665970818      0.802      1.535
REMARK  6 active torsions:
REMARK  status: ('A' for Active; 'I' for Inactive)
REMARK    1  A    between atoms: C6_6  and  N1_7 
REMARK    2  A    between atoms: N1_7  and  C7_9 
REMARK    3  A    between atoms: C8_12  and  N3_13 
REMARK    4  A    between atoms: N3_13  and  C9_15 
REMARK    5  A    between atoms: C14_20  and  N4_21 
REMARK    6  A    between atoms: C16_28  and  C17_29 
ROOT
HETATM    1  C7  UNL     1       3.587   0.562  14.174  1.00  0.00     0.138 A 
HETATM    2  N2  UNL     1       3.046   1.478  13.330  1.00  0.00    -0.176 N 
ATOM      3  H2  UNL     1       2.223   1.197  12.798  1.00  0.00     0.186 HD
HETATM    4  C8  UNL     1       3.506   2.712  13.144  1.00  0.00     0.679 A 
HETATM    5  N5  UNL     1       4.593   3.049  13.862  1.00  0.00    -0.201 N 
ATOM      6  H5  UNL     1       4.974   3.988  13.746  1.00  0.00     0.183 HD
HETATM    7  C15 UNL     1       5.191   2.236  14.707  1.00  0.00     0.126 A 
HETATM    8  C16 UNL     1       4.693   0.943  14.890  1.00  0.00     0.089 A 
ENDROOT
BRANCH   4   9
HETATM    9  N3  UNL     1       2.958   3.671  12.269  1.00  0.00    -0.219 N 
ATOM     10  H3  UNL     1       3.610   4.287  11.783  1.00  0.00     0.178 HD
BRANCH   9  11
HETATM   11  C9  UNL     1       1.570   3.853  12.005  1.00  0.00     0.129 C 
HETATM   12  C10 UNL     1       1.297   4.818  10.900  1.00  0.00     0.027 C 
HETATM   13  C11 UNL     1      -0.129   5.188  10.740  1.00  0.00     0.002 C 
HETATM   14  C12 UNL     1      -1.102   4.523  11.621  1.00  0.00     0.002 C 
HETATM   15  C13 UNL     1      -0.631   4.157  12.989  1.00  0.00     0.035 C 
HETATM   16  C14 UNL     1       0.829   4.386  13.225  1.00  0.00     0.206 C 
BRANCH  16  17
HETATM   17  N4  UNL     1       1.067   5.782  13.446  1.00  0.00    -0.073 N 
ATOM     18  H43 UNL     1       2.050   6.013  13.306  1.00  0.00     0.274 HD
ATOM     19  H42 UNL     1       0.658   6.346  12.701  1.00  0.00     0.274 HD
ATOM     20  H41 UNL     1       0.744   6.094  14.362  1.00  0.00     0.274 HD
ENDBRANCH  16  17
ENDBRANCH   9  11
ENDBRANCH   4   9
BRANCH   1  21
HETATM   21  N1  UNL     1       3.033  -0.741  14.277  1.00  0.00    -0.341 N 
ATOM     22  H1  UNL     1       3.680  -1.520  14.391  1.00  0.00     0.167 HD
BRANCH  21  23
HETATM   23  C6  UNL     1       1.641  -1.044  14.233  1.00  0.00     0.034 A 
HETATM   24  C5  UNL     1       1.250  -2.226  14.876  1.00  0.00     0.029 A 
HETATM   25  C4  UNL     1      -0.062  -2.594  14.906  1.00  0.00     0.003 A 
HETATM   26  C3  UNL     1      -1.021  -1.817  14.309  1.00  0.00     0.007 A 
HETATM   27  C2  UNL     1      -0.658  -0.663  13.678  1.00  0.00    -0.060 A 
HETATM   28  C1  UNL     1      -1.656   0.228  13.009  1.00  0.00     0.048 C 
HETATM   29  C18 UNL     1       0.684  -0.271  13.640  1.00  0.00     0.036 A 
ENDBRANCH  21  23
ENDBRANCH   1  21
BRANCH   8  30
HETATM   30  C17 UNL     1       5.379   0.084  15.839  1.00  0.00     0.270 C 
HETATM   31  N6  UNL     1       4.578  -0.714  16.730  1.00  0.00    -0.057 NA
HETATM   32  O1  UNL     1       6.599  -0.034  15.961  1.00  0.00    -0.271 OA
ENDBRANCH   8  30
TORSDOF 6
ENDMDL
