MODEL 3
REMARK VINA RESULT: -9.234318153      1.082      1.363
REMARK  6 active torsions:
REMARK  status: ('A' for Active; 'I' for Inactive)
REMARK    1  A    between atoms: C6_6  and  N1_7 
REMARK    2  A    between atoms: N1_7  and  C7_9 
REMARK    3  A    between atoms: C8_12  and  N3_13 
REMARK    4  A    between atoms: N3_13  and  C9_15 
REMARK    5  A    between atoms: C14_20  and  N4_21 
REMARK    6  A    between atoms: C16_28  and  C17_29 
ROOT
HETATM    1  C7  UNL     1       3.332   0.519  14.222  1.00  0.00     0.138 A 
HETATM    2  N2  UNL     1       2.699   1.500  13.529  1.00  0.00    -0.176 N 
ATOM      3  H2  UNL     1       1.863   1.240  13.006  1.00  0.00     0.186 HD
HETATM    4  C8  UNL     1       3.082   2.773  13.480  1.00  0.00     0.679 A 
HETATM    5  N5  UNL     1       4.187   3.081  14.182  1.00  0.00    -0.201 N 
ATOM      6  H5  UNL     1       4.511   4.048  14.169  1.00  0.00     0.183 HD
HETATM    7  C15 UNL     1       4.873   2.207  14.886  1.00  0.00     0.126 A 
HETATM    8  C16 UNL     1       4.455   0.874  14.927  1.00  0.00     0.089 A 
ENDROOT
BRANCH   4   9
HETATM    9  N3  UNL     1       2.436   3.799  12.762  1.00  0.00    -0.219 N 
ATOM     10  H3  UNL     1       2.971   4.264  12.029  1.00  0.00     0.178 HD
BRANCH   9  11
HETATM   11  C9  UNL     1       1.098   4.242  12.972  1.00  0.00     0.129 C 
HETATM   12  C10 UNL     1       0.075   3.190  12.703  1.00  0.00     0.027 C 
HETATM   13  C11 UNL     1      -1.326   3.674  12.707  1.00  0.00     0.002 C 
HETATM   14  C12 UNL     1      -1.550   5.089  13.042  1.00  0.00     0.002 C 
HETATM   15  C13 UNL     1      -0.486   6.054  12.636  1.00  0.00     0.035 C 
HETATM   16  C14 UNL     1       0.745   5.417  12.070  1.00  0.00     0.206 C 
BRANCH  16  17
HETATM   17  N4  UNL     1       0.500   5.017  10.715  1.00  0.00    -0.073 N 
ATOM     18  H43 UNL     1       1.271   4.457  10.353  1.00  0.00     0.274 HD
ATOM     19  H42 UNL     1      -0.244   4.321  10.667  1.00  0.00     0.274 HD
ATOM     20  H41 UNL     1       0.302   5.808  10.102  1.00  0.00     0.274 HD
ENDBRANCH  16  17
ENDBRANCH   9  11
ENDBRANCH   4   9
BRANCH   1  21
HETATM   21  N1  UNL     1       2.854  -0.816  14.185  1.00  0.00    -0.341 N 
ATOM     22  H1  UNL     1       3.546  -1.561  14.109  1.00  0.00     0.167 HD
BRANCH  21  23
HETATM   23  C6  UNL     1       1.482  -1.196  14.245  1.00  0.00     0.034 A 
HETATM   24  C5  UNL     1       0.603  -0.447  13.452  1.00  0.00     0.029 A 
HETATM   25  C4  UNL     1      -0.727  -0.743  13.427  1.00  0.00     0.003 A 
HETATM   26  C3  UNL     1      -1.228  -1.777  14.174  1.00  0.00     0.007 A 
HETATM   27  C2  UNL     1      -0.387  -2.517  14.952  1.00  0.00    -0.060 A 
HETATM   28  C1  UNL     1      -0.870  -3.658  15.790  1.00  0.00     0.048 C 
HETATM   29  C18 UNL     1       0.981  -2.226  14.989  1.00  0.00     0.036 A 
ENDBRANCH  21  23
ENDBRANCH   1  21
BRANCH   8  30
HETATM   30  C17 UNL     1       5.237  -0.055  15.725  1.00  0.00     0.270 C 
HETATM   31  N6  UNL     1       4.529  -0.991  16.558  1.00  0.00    -0.057 NA
HETATM   32  O1  UNL     1       6.466  -0.124  15.760  1.00  0.00    -0.271 OA
ENDBRANCH   8  30
TORSDOF 6
ENDMDL
