MODEL 5
REMARK VINA RESULT: -8.859475500      2.350      4.999
REMARK  6 active torsions:
REMARK  status: ('A' for Active; 'I' for Inactive)
REMARK    1  A    between atoms: C6_6  and  N1_7 
REMARK    2  A    between atoms: N1_7  and  C7_9 
REMARK    3  A    between atoms: C8_12  and  N3_13 
REMARK    4  A    between atoms: N3_13  and  C9_15 
REMARK    5  A    between atoms: C14_20  and  N4_21 
REMARK    6  A    between atoms: C16_28  and  C17_29 
ROOT
HETATM    1  C7  UNL     1       0.535  -1.207  13.868  1.00  0.00     0.138 A 
HETATM    2  N2  UNL     1       0.354  -0.060  13.165  1.00  0.00    -0.176 N 
ATOM      3  H2  UNL     1       1.189   0.443  12.863  1.00  0.00     0.186 HD
HETATM    4  C8  UNL     1      -0.826   0.460  12.837  1.00  0.00     0.679 A 
HETATM    5  N5  UNL     1      -1.906  -0.229  13.249  1.00  0.00    -0.201 N 
ATOM      6  H5  UNL     1      -2.828   0.138  13.016  1.00  0.00     0.183 HD
HETATM    7  C15 UNL     1      -1.840  -1.350  13.935  1.00  0.00     0.126 A 
HETATM    8  C16 UNL     1      -0.591  -1.881  14.270  1.00  0.00     0.089 A 
ENDROOT
BRANCH   4   9
HETATM    9  N3  UNL     1      -1.027   1.650  12.111  1.00  0.00    -0.219 N 
ATOM     10  H3  UNL     1      -1.977   1.850  11.796  1.00  0.00     0.178 HD
BRANCH   9  11
HETATM   11  C9  UNL     1      -0.018   2.599  11.778  1.00  0.00     0.129 C 
HETATM   12  C10 UNL     1       0.283   3.558  12.880  1.00  0.00     0.027 C 
HETATM   13  C11 UNL     1       1.170   4.681  12.499  1.00  0.00     0.002 C 
HETATM   14  C12 UNL     1       1.702   4.685  11.127  1.00  0.00     0.002 C 
HETATM   15  C13 UNL     1       0.831   4.100  10.065  1.00  0.00     0.035 C 
HETATM   16  C14 UNL     1      -0.415   3.447  10.576  1.00  0.00     0.206 C 
BRANCH  16  17
HETATM   17  N4  UNL     1      -1.383   4.451  10.907  1.00  0.00    -0.073 N 
ATOM     18  H43 UNL     1      -2.310   4.194  10.567  1.00  0.00     0.274 HD
ATOM     19  H42 UNL     1      -1.574   4.460  11.909  1.00  0.00     0.274 HD
ATOM     20  H41 UNL     1      -1.115   5.378  10.577  1.00  0.00     0.274 HD
ENDBRANCH  16  17
ENDBRANCH   9  11
ENDBRANCH   4   9
BRANCH   1  21
HETATM   21  N1  UNL     1       1.841  -1.659  14.189  1.00  0.00    -0.341 N 
ATOM     22  H1  UNL     1       2.041  -2.650  14.059  1.00  0.00     0.167 HD
BRANCH  21  23
HETATM   23  C6  UNL     1       2.895  -0.834  14.679  1.00  0.00     0.034 A 
HETATM   24  C5  UNL     1       3.565  -1.305  15.817  1.00  0.00     0.029 A 
HETATM   25  C4  UNL     1       4.599  -0.597  16.352  1.00  0.00     0.003 A 
HETATM   26  C3  UNL     1       5.003   0.586  15.788  1.00  0.00     0.007 A 
HETATM   27  C2  UNL     1       4.362   1.060  14.681  1.00  0.00    -0.060 A 
HETATM   28  C1  UNL     1       4.755   2.342  14.020  1.00  0.00     0.048 C 
HETATM   29  C18 UNL     1       3.299   0.344  14.119  1.00  0.00     0.036 A 
ENDBRANCH  21  23
ENDBRANCH   1  21
BRANCH   8  30
HETATM   30  C17 UNL     1      -0.565  -3.125  15.020  1.00  0.00     0.270 C 
HETATM   31  N6  UNL     1      -1.687  -4.018  14.885  1.00  0.00    -0.057 NA
HETATM   32  O1  UNL     1       0.334  -3.500  15.772  1.00  0.00    -0.271 OA
ENDBRANCH   8  30
TORSDOF 6
ENDMDL
