MODEL 4
REMARK VINA RESULT: -9.221558732      1.130      1.897
REMARK  6 active torsions:
REMARK  status: ('A' for Active; 'I' for Inactive)
REMARK    1  A    between atoms: C6_6  and  N1_7 
REMARK    2  A    between atoms: N1_7  and  C7_9 
REMARK    3  A    between atoms: C8_12  and  N3_13 
REMARK    4  A    between atoms: N3_13  and  C9_15 
REMARK    5  A    between atoms: C14_20  and  N4_21 
REMARK    6  A    between atoms: C16_28  and  C17_29 
ROOT
HETATM    1  C7  UNL     1       3.368   0.556  14.229  1.00  0.00     0.138 A 
HETATM    2  N2  UNL     1       2.739   1.535  13.529  1.00  0.00    -0.176 N 
ATOM      3  H2  UNL     1       1.896   1.278  13.017  1.00  0.00     0.186 HD
HETATM    4  C8  UNL     1       3.137   2.803  13.459  1.00  0.00     0.679 A 
HETATM    5  N5  UNL     1       4.253   3.107  14.148  1.00  0.00    -0.201 N 
ATOM      6  H5  UNL     1       4.588   4.070  14.118  1.00  0.00     0.183 HD
HETATM    7  C15 UNL     1       4.935   2.234  14.857  1.00  0.00     0.126 A 
HETATM    8  C16 UNL     1       4.501   0.907  14.919  1.00  0.00     0.089 A 
ENDROOT
BRANCH   4   9
HETATM    9  N3  UNL     1       2.497   3.827  12.733  1.00  0.00    -0.219 N 
ATOM     10  H3  UNL     1       3.032   4.278  11.991  1.00  0.00     0.178 HD
BRANCH   9  11
HETATM   11  C9  UNL     1       1.166   4.286  12.948  1.00  0.00     0.129 C 
HETATM   12  C10 UNL     1       0.130   3.242  12.701  1.00  0.00     0.027 C 
HETATM   13  C11 UNL     1      -1.266   3.740  12.709  1.00  0.00     0.002 C 
HETATM   14  C12 UNL     1      -1.473   5.162  13.025  1.00  0.00     0.002 C 
HETATM   15  C13 UNL     1      -0.402   6.110  12.597  1.00  0.00     0.035 C 
HETATM   16  C14 UNL     1       0.818   5.452  12.031  1.00  0.00     0.206 C 
BRANCH  16  17
HETATM   17  N4  UNL     1       0.558   5.035  10.684  1.00  0.00    -0.073 N 
ATOM     18  H43 UNL     1       1.021   4.149  10.479  1.00  0.00     0.274 HD
ATOM     19  H42 UNL     1      -0.413   4.742  10.571  1.00  0.00     0.274 HD
ATOM     20  H41 UNL     1       0.808   5.747   9.998  1.00  0.00     0.274 HD
ENDBRANCH  16  17
ENDBRANCH   9  11
ENDBRANCH   4   9
BRANCH   1  21
HETATM   21  N1  UNL     1       2.873  -0.774  14.214  1.00  0.00    -0.341 N 
ATOM     22  H1  UNL     1       3.557  -1.530  14.193  1.00  0.00     0.167 HD
BRANCH  21  23
HETATM   23  C6  UNL     1       1.495  -1.134  14.225  1.00  0.00     0.034 A 
HETATM   24  C5  UNL     1       1.179  -2.331  14.882  1.00  0.00     0.029 A 
HETATM   25  C4  UNL     1      -0.114  -2.754  14.963  1.00  0.00     0.003 A 
HETATM   26  C3  UNL     1      -1.128  -2.018  14.405  1.00  0.00     0.007 A 
HETATM   27  C2  UNL     1      -0.839  -0.850  13.762  1.00  0.00    -0.060 A 
HETATM   28  C1  UNL     1      -1.898  -0.002  13.134  1.00  0.00     0.048 C 
HETATM   29  C18 UNL     1       0.484  -0.402  13.671  1.00  0.00     0.036 A 
ENDBRANCH  21  23
ENDBRANCH   1  21
BRANCH   8  30
HETATM   30  C17 UNL     1       5.279  -0.021  15.722  1.00  0.00     0.270 C 
HETATM   31  N6  UNL     1       4.570  -0.899  16.617  1.00  0.00    -0.057 NA
HETATM   32  O1  UNL     1       6.505  -0.135  15.715  1.00  0.00    -0.271 OA
ENDBRANCH   8  30
TORSDOF 6
ENDMDL
