MODEL 6
REMARK VINA RESULT: -8.714491677      3.919      6.634
REMARK  6 active torsions:
REMARK  status: ('A' for Active; 'I' for Inactive)
REMARK    1  A    between atoms: C6_6  and  N1_7 
REMARK    2  A    between atoms: N1_7  and  C7_9 
REMARK    3  A    between atoms: C8_12  and  N3_13 
REMARK    4  A    between atoms: N3_13  and  C9_15 
REMARK    5  A    between atoms: C14_20  and  N4_21 
REMARK    6  A    between atoms: C16_28  and  C17_29 
ROOT
HETATM    1  C7  UNL     1       0.392   5.324  12.748  1.00  0.00     0.138 A 
HETATM    2  N2  UNL     1       1.349   6.260  12.520  1.00  0.00    -0.176 N 
ATOM      3  H2  UNL     1       2.140   6.289  13.163  1.00  0.00     0.186 HD
HETATM    4  C8  UNL     1       1.336   7.141  11.523  1.00  0.00     0.679 A 
HETATM    5  N5  UNL     1       0.279   7.074  10.694  1.00  0.00    -0.201 N 
ATOM      6  H5  UNL     1       0.235   7.734   9.918  1.00  0.00     0.183 HD
HETATM    7  C15 UNL     1      -0.701   6.206  10.826  1.00  0.00     0.126 A 
HETATM    8  C16 UNL     1      -0.670   5.287  11.879  1.00  0.00     0.089 A 
ENDROOT
BRANCH   4   9
HETATM    9  N3  UNL     1       2.320   8.119  11.278  1.00  0.00    -0.219 N 
ATOM     10  H3  UNL     1       2.700   8.612  12.086  1.00  0.00     0.178 HD
BRANCH   9  11
HETATM   11  C9  UNL     1       2.830   8.478   9.998  1.00  0.00     0.129 C 
HETATM   12  C10 UNL     1       4.315   8.618   9.967  1.00  0.00     0.027 C 
HETATM   13  C11 UNL     1       4.858   9.192   8.713  1.00  0.00     0.002 C 
HETATM   14  C12 UNL     1       3.900   9.484   7.635  1.00  0.00     0.002 C 
HETATM   15  C13 UNL     1       2.527   9.898   8.049  1.00  0.00     0.035 C 
HETATM   16  C14 UNL     1       2.270   9.812   9.521  1.00  0.00     0.206 C 
BRANCH  16  17
HETATM   17  N4  UNL     1       2.876  10.931  10.181  1.00  0.00    -0.073 N 
ATOM     18  H43 UNL     1       3.376  10.636  11.019  1.00  0.00     0.274 HD
ATOM     19  H42 UNL     1       3.662  11.293   9.641  1.00  0.00     0.274 HD
ATOM     20  H41 UNL     1       2.207  11.670  10.394  1.00  0.00     0.274 HD
ENDBRANCH  16  17
ENDBRANCH   9  11
ENDBRANCH   4   9
BRANCH   1  21
HETATM   21  N1  UNL     1       0.489   4.448  13.860  1.00  0.00    -0.341 N 
ATOM     22  H1  UNL     1       0.036   4.736  14.727  1.00  0.00     0.167 HD
BRANCH  21  23
HETATM   23  C6  UNL     1       1.170   3.196  13.858  1.00  0.00     0.034 A 
HETATM   24  C5  UNL     1       0.357   2.055  13.859  1.00  0.00     0.029 A 
HETATM   25  C4  UNL     1       0.914   0.811  13.840  1.00  0.00     0.003 A 
HETATM   26  C3  UNL     1       2.276   0.653  13.819  1.00  0.00     0.007 A 
HETATM   27  C2  UNL     1       3.082   1.753  13.818  1.00  0.00    -0.060 A 
HETATM   28  C1  UNL     1       4.574   1.648  13.796  1.00  0.00     0.048 C 
HETATM   29  C18 UNL     1       2.527   3.037  13.837  1.00  0.00     0.036 A 
ENDBRANCH  21  23
ENDBRANCH   1  21
BRANCH   8  30
HETATM   30  C17 UNL     1      -1.767   4.340  11.981  1.00  0.00     0.270 C 
HETATM   31  N6  UNL     1      -2.015   3.470  10.861  1.00  0.00    -0.057 NA
HETATM   32  O1  UNL     1      -2.519   4.204  12.946  1.00  0.00    -0.271 OA
ENDBRANCH   8  30
TORSDOF 6
ENDMDL
