MODEL 7
REMARK VINA RESULT: -8.674314445      2.422      5.070
REMARK  6 active torsions:
REMARK  status: ('A' for Active; 'I' for Inactive)
REMARK    1  A    between atoms: C6_6  and  N1_7 
REMARK    2  A    between atoms: N1_7  and  C7_9 
REMARK    3  A    between atoms: C8_12  and  N3_13 
REMARK    4  A    between atoms: N3_13  and  C9_15 
REMARK    5  A    between atoms: C14_20  and  N4_21 
REMARK    6  A    between atoms: C16_28  and  C17_29 
ROOT
HETATM    1  C7  UNL     1       0.679  -1.197  13.881  1.00  0.00     0.138 A 
HETATM    2  N2  UNL     1       0.522  -0.055  13.163  1.00  0.00    -0.176 N 
ATOM      3  H2  UNL     1       1.366   0.445  12.886  1.00  0.00     0.186 HD
HETATM    4  C8  UNL     1      -0.647   0.462  12.792  1.00  0.00     0.679 A 
HETATM    5  N5  UNL     1      -1.740  -0.224  13.174  1.00  0.00    -0.201 N 
ATOM      6  H5  UNL     1      -2.654   0.141  12.907  1.00  0.00     0.183 HD
HETATM    7  C15 UNL     1      -1.697  -1.340  13.870  1.00  0.00     0.126 A 
HETATM    8  C16 UNL     1      -0.460  -1.868  14.250  1.00  0.00     0.089 A 
ENDROOT
BRANCH   4   9
HETATM    9  N3  UNL     1      -0.824   1.646  12.051  1.00  0.00    -0.219 N 
ATOM     10  H3  UNL     1      -0.549   1.627  11.069  1.00  0.00     0.178 HD
BRANCH   9  11
HETATM   11  C9  UNL     1      -1.354   2.868  12.555  1.00  0.00     0.129 C 
HETATM   12  C10 UNL     1      -2.816   3.030  12.303  1.00  0.00     0.027 C 
HETATM   13  C11 UNL     1      -3.354   4.373  12.625  1.00  0.00     0.002 C 
HETATM   14  C12 UNL     1      -2.424   5.350  13.212  1.00  0.00     0.002 C 
HETATM   15  C13 UNL     1      -0.996   5.261  12.786  1.00  0.00     0.035 C 
HETATM   16  C14 UNL     1      -0.679   4.079  11.924  1.00  0.00     0.206 C 
BRANCH  16  17
HETATM   17  N4  UNL     1      -1.131   4.326  10.585  1.00  0.00    -0.073 N 
ATOM     18  H43 UNL     1      -1.662   5.195  10.532  1.00  0.00     0.274 HD
ATOM     19  H42 UNL     1      -0.351   4.572   9.975  1.00  0.00     0.274 HD
ATOM     20  H41 UNL     1      -1.664   3.546  10.202  1.00  0.00     0.274 HD
ENDBRANCH  16  17
ENDBRANCH   9  11
ENDBRANCH   4   9
BRANCH   1  21
HETATM   21  N1  UNL     1       1.973  -1.646  14.249  1.00  0.00    -0.341 N 
ATOM     22  H1  UNL     1       2.167  -2.644  14.165  1.00  0.00     0.167 HD
BRANCH  21  23
HETATM   23  C6  UNL     1       3.024  -0.811  14.727  1.00  0.00     0.034 A 
HETATM   24  C5  UNL     1       3.675  -1.247  15.889  1.00  0.00     0.029 A 
HETATM   25  C4  UNL     1       4.705  -0.526  16.415  1.00  0.00     0.003 A 
HETATM   26  C3  UNL     1       5.124   0.635  15.819  1.00  0.00     0.007 A 
HETATM   27  C2  UNL     1       4.502   1.075  14.687  1.00  0.00    -0.060 A 
HETATM   28  C1  UNL     1       4.911   2.332  13.989  1.00  0.00     0.048 C 
HETATM   29  C18 UNL     1       3.443   0.346  14.134  1.00  0.00     0.036 A 
ENDBRANCH  21  23
ENDBRANCH   1  21
BRANCH   8  30
HETATM   30  C17 UNL     1      -0.460  -3.106  15.010  1.00  0.00     0.270 C 
HETATM   31  N6  UNL     1      -1.603  -3.973  14.889  1.00  0.00    -0.057 NA
HETATM   32  O1  UNL     1       0.435  -3.497  15.760  1.00  0.00    -0.271 OA
ENDBRANCH   8  30
TORSDOF 6
ENDMDL
