MODEL 1
REMARK VINA RESULT: -9.682111813      0.000      0.000
REMARK  6 active torsions:
REMARK  status: ('A' for Active; 'I' for Inactive)
REMARK    1  A    between atoms: C6_6  and  N1_7 
REMARK    2  A    between atoms: N1_7  and  C7_9 
REMARK    3  A    between atoms: C8_12  and  N3_13 
REMARK    4  A    between atoms: N3_13  and  C9_15 
REMARK    5  A    between atoms: C14_20  and  N4_21 
REMARK    6  A    between atoms: C16_28  and  C17_29 
ROOT
HETATM    1  C7  UNL     1       3.375   0.308  14.283  1.00  0.00     0.138 A 
HETATM    2  N2  UNL     1       2.956   1.311  13.470  1.00  0.00    -0.176 N 
ATOM      3  H2  UNL     1       2.225   1.092  12.793  1.00  0.00     0.186 HD
HETATM    4  C8  UNL     1       3.423   2.557  13.486  1.00  0.00     0.679 A 
HETATM    5  N5  UNL     1       4.385   2.811  14.391  1.00  0.00    -0.201 N 
ATOM      6  H5  UNL     1       4.767   3.756  14.433  1.00  0.00     0.183 HD
HETATM    7  C15 UNL     1       4.861   1.911  15.225  1.00  0.00     0.126 A 
HETATM    8  C16 UNL     1       4.357   0.608  15.194  1.00  0.00     0.089 A 
ENDROOT
BRANCH   4   9
HETATM    9  N3  UNL     1       2.999   3.605  12.645  1.00  0.00    -0.219 N 
ATOM     10  H3  UNL     1       3.702   4.285  12.357  1.00  0.00     0.178 HD
BRANCH   9  11
HETATM   11  C9  UNL     1       1.672   3.795  12.163  1.00  0.00     0.129 C 
HETATM   12  C10 UNL     1       1.599   4.656  10.947  1.00  0.00     0.027 C 
HETATM   13  C11 UNL     1       0.227   5.046  10.545  1.00  0.00     0.002 C 
HETATM   14  C12 UNL     1      -0.888   4.492  11.329  1.00  0.00     0.002 C 
HETATM   15  C13 UNL     1      -0.635   4.247  12.779  1.00  0.00     0.035 C 
HETATM   16  C14 UNL     1       0.784   4.461  13.207  1.00  0.00     0.206 C 
BRANCH  16  17
HETATM   17  N4  UNL     1       1.041   5.866  13.333  1.00  0.00    -0.073 N 
ATOM     18  H43 UNL     1       1.592   6.210  12.546  1.00  0.00     0.274 HD
ATOM     19  H42 UNL     1       0.190   6.409  13.187  1.00  0.00     0.274 HD
ATOM     20  H41 UNL     1       1.480   6.106  14.221  1.00  0.00     0.274 HD
ENDBRANCH  16  17
ENDBRANCH   9  11
ENDBRANCH   4   9
BRANCH   1  21
HETATM   21  N1  UNL     1       2.829  -0.996  14.163  1.00  0.00    -0.341 N 
ATOM     22  H1  UNL     1       3.479  -1.767  14.016  1.00  0.00     0.167 HD
BRANCH  21  23
HETATM   23  C6  UNL     1       1.441  -1.310  14.232  1.00  0.00     0.034 A 
HETATM   24  C5  UNL     1       0.582  -0.461  13.521  1.00  0.00     0.029 A 
HETATM   25  C4  UNL     1      -0.761  -0.688  13.510  1.00  0.00     0.003 A 
HETATM   26  C3  UNL     1      -1.297  -1.750  14.192  1.00  0.00     0.007 A 
HETATM   27  C2  UNL     1      -0.477  -2.587  14.891  1.00  0.00    -0.060 A 
HETATM   28  C1  UNL     1      -0.999  -3.761  15.655  1.00  0.00     0.048 C 
HETATM   29  C18 UNL     1       0.905  -2.367  14.911  1.00  0.00     0.036 A 
ENDBRANCH  21  23
ENDBRANCH   1  21
BRANCH   8  30
HETATM   30  C17 UNL     1       4.905  -0.350  16.139  1.00  0.00     0.270 C 
HETATM   31  N6  UNL     1       6.119   0.001  16.829  1.00  0.00    -0.057 NA
HETATM   32  O1  UNL     1       4.428  -1.451  16.414  1.00  0.00    -0.271 OA
ENDBRANCH   8  30
TORSDOF 6
ENDMDL
