MODEL 4
REMARK VINA RESULT: -8.245258253      4.984      9.135
REMARK  8 active torsions:
REMARK  status: ('A' for Active; 'I' for Inactive)
REMARK       I    between atoms: N1_2  and  C2_4 
REMARK    1  A    between atoms: C2_4  and  C3_6 
REMARK    2  A    between atoms: C4_7  and  C5_8 
REMARK    3  A    between atoms: C13_18  and  N2_19 
REMARK    4  A    between atoms: N2_19  and  C14_20 
REMARK    5  A    between atoms: N2_19  and  S1_24 
REMARK    6  A    between atoms: C14_20  and  C15_21 
REMARK    7  A    between atoms: C15_21  and  O3_22 
REMARK    8  A    between atoms: C17_28  and  C18_29 
ROOT
HETATM    1  C3  UNL     1     -18.533  -5.970  12.117  1.00  0.00     0.079 A 
HETATM    2  C4  UNL     1     -19.202  -5.283  11.146  1.00  0.00     0.103 A 
HETATM    3  O2  UNL     1     -18.923  -5.852   9.963  1.00  0.00    -0.308 OA
HETATM    4  C11 UNL     1     -18.127  -6.859  10.094  1.00  0.00     0.089 A 
HETATM    5  C12 UNL     1     -17.549  -7.766   9.203  1.00  0.00     0.069 A 
HETATM    6  C13 UNL     1     -16.713  -8.782   9.583  1.00  0.00     0.054 A 
HETATM    7  C17 UNL     1     -16.442  -8.889  10.954  1.00  0.00    -0.025 A 
HETATM    8  C21 UNL     1     -17.004  -8.001  11.849  1.00  0.00     0.025 A 
HETATM    9  C22 UNL     1     -17.847  -6.988  11.409  1.00  0.00     0.017 A 
ENDROOT
BRANCH   6  10
HETATM   10  N2  UNL     1     -16.146  -9.694   8.631  1.00  0.00    -0.274 N 
BRANCH  10  11
HETATM   11  C14 UNL     1     -16.256 -11.133   8.775  1.00  0.00     0.167 C 
BRANCH  11  12
HETATM   12  C15 UNL     1     -17.559 -11.664   8.201  1.00  0.00     0.185 C 
BRANCH  12  13
HETATM   13  O3  UNL     1     -17.583 -13.036   8.463  1.00  0.00    -0.399 OA
ATOM     14  H3  UNL     1     -17.113 -13.166   9.279  1.00  0.00     0.209 HD
ENDBRANCH  12  13
ENDBRANCH  11  12
ENDBRANCH  10  11
BRANCH  10  15
HETATM   15  S1  UNL     1     -15.313  -9.026   7.278  1.00  0.00     0.229 S 
HETATM   16  C16 UNL     1     -16.324  -9.091   5.811  1.00  0.00     0.186 C 
HETATM   17  O4  UNL     1     -14.816  -7.650   7.540  1.00  0.00    -0.206 OA
HETATM   18  O5  UNL     1     -14.118  -9.892   7.002  1.00  0.00    -0.206 OA
ENDBRANCH  10  15
ENDBRANCH   6  10
BRANCH   7  19
HETATM   19  C18 UNL     1     -15.557  -9.954  11.426  1.00  0.00     0.021 A 
HETATM   20  C19 UNL     1     -14.049  -9.752  11.482  1.00  0.00     0.010 A 
HETATM   21  C20 UNL     1     -14.840  -9.753  12.711  1.00  0.00     0.010 A 
ENDBRANCH   7  19
BRANCH   2  22
HETATM   22  C5  UNL     1     -20.080  -4.133  11.274  1.00  0.00    -0.001 A 
HETATM   23  C6  UNL     1     -21.414  -4.283  10.896  1.00  0.00     0.017 A 
HETATM   24  C7  UNL     1     -22.321  -3.268  11.059  1.00  0.00     0.043 A 
HETATM   25  C8  UNL     1     -21.951  -2.047  11.608  1.00  0.00     0.116 A 
HETATM   26  F1  UNL     1     -22.835  -1.036  11.775  1.00  0.00    -0.206 F 
HETATM   27  C9  UNL     1     -20.636  -1.883  11.990  1.00  0.00     0.043 A 
HETATM   28  C10 UNL     1     -19.721  -2.929  11.817  1.00  0.00     0.017 A 
ENDBRANCH   2  22
BRANCH   1  29
HETATM   29  C2  UNL     1     -18.327  -5.769  13.526  1.00  0.00     0.255 C 
HETATM   30  N1  UNL     1     -18.985  -6.534  14.515  1.00  0.00    -0.361 N 
HETATM   31  C1  UNL     1     -18.740  -6.290  15.945  1.00  0.00     0.149 C 
ATOM     32  H1  UNL     1     -19.638  -7.265  14.233  1.00  0.00     0.162 HD
HETATM   33  O1  UNL     1     -17.536  -4.869  13.962  1.00  0.00    -0.268 OA
ENDBRANCH   1  29
TORSDOF 8
ENDMDL
