MODEL 5
REMARK VINA RESULT: -8.059710252      5.283      8.383
REMARK  8 active torsions:
REMARK  status: ('A' for Active; 'I' for Inactive)
REMARK       I    between atoms: N1_2  and  C2_4 
REMARK    1  A    between atoms: C2_4  and  C3_6 
REMARK    2  A    between atoms: C4_7  and  C5_8 
REMARK    3  A    between atoms: C13_18  and  N2_19 
REMARK    4  A    between atoms: N2_19  and  C14_20 
REMARK    5  A    between atoms: N2_19  and  S1_24 
REMARK    6  A    between atoms: C14_20  and  C15_21 
REMARK    7  A    between atoms: C15_21  and  O3_22 
REMARK    8  A    between atoms: C17_28  and  C18_29 
ROOT
HETATM    1  C3  UNL     1     -17.901  -7.265  11.816  1.00  0.00     0.079 A 
HETATM    2  C4  UNL     1     -17.936  -7.330  10.453  1.00  0.00     0.103 A 
HETATM    3  O2  UNL     1     -18.639  -6.279  10.003  1.00  0.00    -0.308 OA
HETATM    4  C11 UNL     1     -19.059  -5.536  10.970  1.00  0.00     0.089 A 
HETATM    5  C12 UNL     1     -19.809  -4.360  11.040  1.00  0.00     0.069 A 
HETATM    6  C13 UNL     1     -20.141  -3.734  12.213  1.00  0.00     0.054 A 
HETATM    7  C17 UNL     1     -19.684  -4.336  13.393  1.00  0.00    -0.025 A 
HETATM    8  C21 UNL     1     -18.941  -5.498  13.343  1.00  0.00     0.025 A 
HETATM    9  C22 UNL     1     -18.633  -6.092  12.125  1.00  0.00     0.017 A 
ENDROOT
BRANCH   6  10
HETATM   10  N2  UNL     1     -20.910  -2.523  12.235  1.00  0.00    -0.274 N 
BRANCH  10  11
HETATM   11  C14 UNL     1     -20.339  -1.248  12.622  1.00  0.00     0.167 C 
BRANCH  11  12
HETATM   12  C15 UNL     1     -19.125  -0.890  11.781  1.00  0.00     0.185 C 
BRANCH  12  13
HETATM   13  O3  UNL     1     -19.597  -0.604  10.497  1.00  0.00    -0.399 OA
ATOM     14  H3  UNL     1     -18.833  -0.473   9.948  1.00  0.00     0.209 HD
ENDBRANCH  12  13
ENDBRANCH  11  12
ENDBRANCH  10  11
BRANCH  10  15
HETATM   15  S1  UNL     1     -22.569  -2.619  11.779  1.00  0.00     0.229 S 
HETATM   16  C16 UNL     1     -23.270  -0.992  11.577  1.00  0.00     0.186 C 
HETATM   17  O4  UNL     1     -22.780  -3.460  10.571  1.00  0.00    -0.206 OA
HETATM   18  O5  UNL     1     -23.320  -3.261  12.910  1.00  0.00    -0.206 OA
ENDBRANCH  10  15
ENDBRANCH   6  10
BRANCH   7  19
HETATM   19  C18 UNL     1     -20.002  -3.717  14.680  1.00  0.00     0.021 A 
HETATM   20  C19 UNL     1     -21.049  -4.326  15.604  1.00  0.00     0.010 A 
HETATM   21  C20 UNL     1     -19.625  -4.442  15.920  1.00  0.00     0.010 A 
ENDBRANCH   7  19
BRANCH   2  22
HETATM   22  C5  UNL     1     -17.348  -8.318   9.565  1.00  0.00    -0.001 A 
HETATM   23  C6  UNL     1     -16.244  -7.937   8.803  1.00  0.00     0.017 A 
HETATM   24  C7  UNL     1     -15.588  -8.832   8.000  1.00  0.00     0.043 A 
HETATM   25  C8  UNL     1     -15.993 -10.158   7.912  1.00  0.00     0.116 A 
HETATM   26  F1  UNL     1     -15.354 -11.055   7.123  1.00  0.00    -0.206 F 
HETATM   27  C9  UNL     1     -17.081 -10.552   8.661  1.00  0.00     0.043 A 
HETATM   28  C10 UNL     1     -17.742  -9.625   9.476  1.00  0.00     0.017 A 
ENDBRANCH   2  22
BRANCH   1  29
HETATM   29  C2  UNL     1     -17.430  -8.148  12.849  1.00  0.00     0.255 C 
HETATM   30  N1  UNL     1     -18.151  -8.388  14.040  1.00  0.00    -0.361 N 
HETATM   31  C1  UNL     1     -17.627  -9.301  15.069  1.00  0.00     0.149 C 
ATOM     32  H1  UNL     1     -19.047  -7.923  14.189  1.00  0.00     0.162 HD
HETATM   33  O1  UNL     1     -16.317  -8.760  12.747  1.00  0.00    -0.268 OA
ENDBRANCH   1  29
TORSDOF 8
ENDMDL
