MODEL 2
REMARK VINA RESULT: -11.010336579      1.012      2.225
REMARK  8 active torsions:
REMARK  status: ('A' for Active; 'I' for Inactive)
REMARK       I    between atoms: N1_2  and  C2_4 
REMARK    1  A    between atoms: C2_4  and  C3_6 
REMARK    2  A    between atoms: C4_7  and  C5_8 
REMARK    3  A    between atoms: C13_18  and  N2_19 
REMARK    4  A    between atoms: N2_19  and  C14_20 
REMARK    5  A    between atoms: N2_19  and  S1_24 
REMARK    6  A    between atoms: C14_20  and  C15_21 
REMARK    7  A    between atoms: C15_21  and  O3_22 
REMARK    8  A    between atoms: C17_28  and  C18_29 
ROOT
HETATM    1  C3  UNL     1     -16.506 -14.545  10.113  1.00  0.00     0.079 A 
HETATM    2  C4  UNL     1     -17.530 -14.901   9.285  1.00  0.00     0.103 A 
HETATM    3  O2  UNL     1     -17.924 -13.808   8.613  1.00  0.00    -0.308 OA
HETATM    4  C11 UNL     1     -17.230 -12.770   8.941  1.00  0.00     0.089 A 
HETATM    5  C12 UNL     1     -17.236 -11.431   8.547  1.00  0.00     0.069 A 
HETATM    6  C13 UNL     1     -16.380 -10.485   9.046  1.00  0.00     0.054 A 
HETATM    7  C17 UNL     1     -15.458 -10.921  10.006  1.00  0.00    -0.025 A 
HETATM    8  C21 UNL     1     -15.438 -12.241  10.407  1.00  0.00     0.025 A 
HETATM    9  C22 UNL     1     -16.329 -13.160   9.869  1.00  0.00     0.017 A 
ENDROOT
BRANCH   6  10
HETATM   10  N2  UNL     1     -16.420  -9.119   8.606  1.00  0.00    -0.274 N 
BRANCH  10  11
HETATM   11  C14 UNL     1     -17.059  -8.073   9.381  1.00  0.00     0.167 C 
BRANCH  11  12
HETATM   12  C15 UNL     1     -17.795  -8.630  10.589  1.00  0.00     0.185 C 
BRANCH  12  13
HETATM   13  O3  UNL     1     -19.159  -8.458  10.340  1.00  0.00    -0.399 OA
ATOM     14  H3  UNL     1     -19.509  -9.316  10.130  1.00  0.00     0.209 HD
ENDBRANCH  12  13
ENDBRANCH  11  12
ENDBRANCH  10  11
BRANCH  10  15
HETATM   15  S1  UNL     1     -15.673  -8.740   7.100  1.00  0.00     0.229 S 
HETATM   16  C16 UNL     1     -16.845  -8.858   5.761  1.00  0.00     0.186 C 
HETATM   17  O4  UNL     1     -14.994  -7.418   7.118  1.00  0.00    -0.206 OA
HETATM   18  O5  UNL     1     -14.625  -9.781   6.833  1.00  0.00    -0.206 OA
ENDBRANCH  10  15
ENDBRANCH   6  10
BRANCH   7  19
HETATM   19  C18 UNL     1     -14.514  -9.960  10.579  1.00  0.00     0.021 A 
HETATM   20  C19 UNL     1     -14.570  -9.592  12.055  1.00  0.00     0.010 A 
HETATM   21  C20 UNL     1     -13.506 -10.458  11.548  1.00  0.00     0.010 A 
ENDBRANCH   7  19
BRANCH   2  22
HETATM   22  C5  UNL     1     -18.148 -16.202   9.095  1.00  0.00    -0.001 A 
HETATM   23  C6  UNL     1     -19.422 -16.244   8.530  1.00  0.00     0.017 A 
HETATM   24  C7  UNL     1     -20.039 -17.436   8.249  1.00  0.00     0.043 A 
HETATM   25  C8  UNL     1     -19.421 -18.651   8.514  1.00  0.00     0.116 A 
HETATM   26  F1  UNL     1     -20.018 -19.836   8.242  1.00  0.00    -0.206 F 
HETATM   27  C9  UNL     1     -18.160 -18.627   9.071  1.00  0.00     0.043 A 
HETATM   28  C10 UNL     1     -17.543 -17.402   9.352  1.00  0.00     0.017 A 
ENDBRANCH   2  22
BRANCH   1  29
HETATM   29  C2  UNL     1     -15.776 -15.221  11.151  1.00  0.00     0.255 C 
HETATM   30  N1  UNL     1     -16.341 -15.532  12.408  1.00  0.00    -0.361 N 
HETATM   31  C1  UNL     1     -15.552 -16.226  13.440  1.00  0.00     0.149 C 
ATOM     32  H1  UNL     1     -17.308 -15.273  12.603  1.00  0.00     0.162 HD
HETATM   33  O1  UNL     1     -14.560 -15.569  10.993  1.00  0.00    -0.268 OA
ENDBRANCH   1  29
TORSDOF 8
ENDMDL
