MODEL 3
REMARK VINA RESULT: -8.305833509      5.252      8.294
REMARK  8 active torsions:
REMARK  status: ('A' for Active; 'I' for Inactive)
REMARK       I    between atoms: N1_2  and  C2_4 
REMARK    1  A    between atoms: C2_4  and  C3_6 
REMARK    2  A    between atoms: C4_7  and  C5_8 
REMARK    3  A    between atoms: C13_18  and  N2_19 
REMARK    4  A    between atoms: N2_19  and  C14_20 
REMARK    5  A    between atoms: N2_19  and  S1_24 
REMARK    6  A    between atoms: C14_20  and  C15_21 
REMARK    7  A    between atoms: C15_21  and  O3_22 
REMARK    8  A    between atoms: C17_28  and  C18_29 
ROOT
HETATM    1  C3  UNL     1     -17.462  -7.482  11.425  1.00  0.00     0.079 A 
HETATM    2  C4  UNL     1     -17.575  -7.442  10.066  1.00  0.00     0.103 A 
HETATM    3  O2  UNL     1     -18.368  -6.410   9.741  1.00  0.00    -0.308 OA
HETATM    4  C11 UNL     1     -18.776  -5.774  10.788  1.00  0.00     0.089 A 
HETATM    5  C12 UNL     1     -19.593  -4.661  10.995  1.00  0.00     0.069 A 
HETATM    6  C13 UNL     1     -19.893  -4.153  12.231  1.00  0.00     0.054 A 
HETATM    7  C17 UNL     1     -19.329  -4.812  13.331  1.00  0.00    -0.025 A 
HETATM    8  C21 UNL     1     -18.519  -5.914  13.145  1.00  0.00     0.025 A 
HETATM    9  C22 UNL     1     -18.247  -6.389  11.869  1.00  0.00     0.017 A 
ENDROOT
BRANCH   6  10
HETATM   10  N2  UNL     1     -20.735  -3.001  12.394  1.00  0.00    -0.274 N 
BRANCH  10  11
HETATM   11  C14 UNL     1     -22.174  -3.107  12.529  1.00  0.00     0.167 C 
BRANCH  11  12
HETATM   12  C15 UNL     1     -22.895  -2.723  11.247  1.00  0.00     0.185 C 
BRANCH  12  13
HETATM   13  O3  UNL     1     -23.300  -1.394  11.397  1.00  0.00    -0.399 OA
ATOM     14  H3  UNL     1     -23.313  -1.216  12.331  1.00  0.00     0.209 HD
ENDBRANCH  12  13
ENDBRANCH  11  12
ENDBRANCH  10  11
BRANCH  10  15
HETATM   15  S1  UNL     1     -19.978  -1.453  12.426  1.00  0.00     0.229 S 
HETATM   16  C16 UNL     1     -18.207  -1.613  12.551  1.00  0.00     0.186 C 
HETATM   17  O4  UNL     1     -20.371  -0.604  11.271  1.00  0.00    -0.206 OA
HETATM   18  O5  UNL     1     -20.425  -0.750  13.675  1.00  0.00    -0.206 OA
ENDBRANCH  10  15
ENDBRANCH   6  10
BRANCH   7  19
HETATM   19  C18 UNL     1     -19.609  -4.319  14.680  1.00  0.00     0.021 A 
HETATM   20  C19 UNL     1     -20.582  -5.049  15.595  1.00  0.00     0.010 A 
HETATM   21  C20 UNL     1     -19.141  -5.127  15.834  1.00  0.00     0.010 A 
ENDBRANCH   7  19
BRANCH   2  22
HETATM   22  C5  UNL     1     -16.979  -8.315   9.069  1.00  0.00    -0.001 A 
HETATM   23  C6  UNL     1     -16.460  -7.732   7.914  1.00  0.00     0.017 A 
HETATM   24  C7  UNL     1     -15.815  -8.479   6.964  1.00  0.00     0.043 A 
HETATM   25  C8  UNL     1     -15.650  -9.851   7.111  1.00  0.00     0.116 A 
HETATM   26  F1  UNL     1     -15.015 -10.603   6.181  1.00  0.00    -0.206 F 
HETATM   27  C9  UNL     1     -16.156 -10.444   8.249  1.00  0.00     0.043 A 
HETATM   28  C10 UNL     1     -16.812  -9.666   9.210  1.00  0.00     0.017 A 
ENDBRANCH   2  22
BRANCH   1  29
HETATM   29  C2  UNL     1     -16.876  -8.408  12.355  1.00  0.00     0.255 C 
HETATM   30  N1  UNL     1     -15.527  -8.822  12.280  1.00  0.00    -0.361 N 
HETATM   31  C1  UNL     1     -14.973  -9.773  13.256  1.00  0.00     0.149 C 
ATOM     32  H1  UNL     1     -14.930  -8.456  11.538  1.00  0.00     0.162 HD
HETATM   33  O1  UNL     1     -17.556  -8.920  13.304  1.00  0.00    -0.268 OA
ENDBRANCH   1  29
TORSDOF 8
ENDMDL
