MODEL 7
REMARK VINA RESULT: -9.006483336      1.351      2.030
REMARK  13 active torsions:
REMARK  status: ('A' for Active; 'I' for Inactive)
REMARK    1  A    between atoms: O1_2  and  P1_3 
REMARK    2  A    between atoms: P1_3  and  C2_6 
REMARK    3  A    between atoms: C2_6  and  O4_7 
REMARK    4  A    between atoms: C2_6  and  C3_9 
REMARK    5  A    between atoms: C2_6  and  C9_15 
REMARK    6  A    between atoms: C10_17  and  C11_18 
REMARK    7  A    between atoms: C11_18  and  C12_19 
REMARK    8  A    between atoms: C12_19  and  O5_20 
REMARK    9  A    between atoms: O5_20  and  P2_21 
REMARK   10  A    between atoms: P2_21  and  O8_24 
REMARK   11  A    between atoms: O8_24  and  P3_25 
REMARK   12  A    between atoms: N1_31  and  C15_32 
REMARK   13  A    between atoms: C15_32  and  C16_33 
ROOT
HETATM    1  C9  UNL     1      25.248   5.680  23.315  1.00  0.00     0.107 A 
HETATM    2  S1  UNL     1      24.959   6.405  24.841  1.00  0.00    -0.075 SA
HETATM    3  C10 UNL     1      25.678   5.202  25.827  1.00  0.00     0.009 A 
HETATM    4  C13 UNL     1      26.098   4.301  24.901  1.00  0.00     0.022 A 
HETATM    5  C14 UNL     1      26.757   3.011  25.374  1.00  0.00     0.069 C 
HETATM    6  N1  UNL     1      25.878   4.548  23.615  1.00  0.00    -0.340 N 
ENDROOT
BRANCH   1   7
HETATM    7  C2  UNL     1      24.844   6.402  22.089  1.00  0.00     0.240 C 
BRANCH   7   8
HETATM    8  P1  UNL     1      23.231   7.216  22.211  1.00  0.00     0.296 P 
HETATM    9  O2  UNL     1      22.617   7.448  20.844  1.00  0.00    -0.644 OA
HETATM   10  O3  UNL     1      22.174   6.293  23.194  1.00  0.00    -0.644 OA
BRANCH   8  11
HETATM   11  O1  UNL     1      23.325   8.735  22.949  1.00  0.00    -0.315 OA
HETATM   12  C1  UNL     1      22.248   9.512  22.560  1.00  0.00     0.213 C 
ENDBRANCH   8  11
ENDBRANCH   7   8
BRANCH   7  13
HETATM   13  O4  UNL     1      24.969   5.714  20.907  1.00  0.00    -0.367 OA
ATOM     14  H4  UNL     1      25.643   5.047  20.964  1.00  0.00     0.212 HD
ENDBRANCH   7  13
BRANCH   7  15
HETATM   15  C3  UNL     1      25.817   7.557  21.952  1.00  0.00    -0.004 A 
HETATM   16  C4  UNL     1      25.640   8.392  20.881  1.00  0.00     0.011 A 
HETATM   17  C5  UNL     1      26.501   9.488  20.686  1.00  0.00     0.001 A 
HETATM   18  C6  UNL     1      27.520   9.714  21.575  1.00  0.00     0.000 A 
HETATM   19  C7  UNL     1      27.699   8.888  22.638  1.00  0.00     0.001 A 
HETATM   20  C8  UNL     1      26.835   7.796  22.827  1.00  0.00     0.011 A 
ENDBRANCH   7  15
ENDBRANCH   1   7
BRANCH   6  21
HETATM   21  C15 UNL     1      26.401   3.652  22.541  1.00  0.00     0.172 C 
BRANCH  21  22
HETATM   22  C16 UNL     1      27.808   3.665  22.289  1.00  0.00     0.017 A 
HETATM   23  C17 UNL     1      28.382   4.829  21.730  1.00  0.00     0.101 A 
HETATM   24  N2  UNL     1      29.659   4.939  21.398  1.00  0.00    -0.355 N 
HETATM   25  C18 UNL     1      30.488   3.899  21.592  1.00  0.00     0.078 A 
ATOM     26  H2  UNL     1      30.011   5.808  20.997  1.00  0.00     0.166 HD
HETATM   27  C19 UNL     1      31.921   4.043  21.209  1.00  0.00     0.089 C 
HETATM   28  N3  UNL     1      30.000   2.759  22.123  1.00  0.00    -0.334 N 
HETATM   29  C20 UNL     1      28.678   2.659  22.462  1.00  0.00     0.127 A 
ATOM     30  H3  UNL     1      30.622   1.964  22.273  1.00  0.00     0.168 HD
HETATM   31  N4  UNL     1      28.301   1.433  23.039  1.00  0.00    -0.082 NA
ENDBRANCH  21  22
ENDBRANCH   6  21
BRANCH   3  32
HETATM   32  C11 UNL     1      25.847   5.217  27.331  1.00  0.00     0.075 C 
BRANCH  32  33
HETATM   33  C12 UNL     1      27.102   5.989  27.629  1.00  0.00     0.186 C 
BRANCH  33  34
HETATM   34  O5  UNL     1      27.567   5.742  28.901  1.00  0.00    -0.289 OA
BRANCH  34  35
HETATM   35  P2  UNL     1      27.002   6.877  30.000  1.00  0.00     0.418 P 
HETATM   36  O6  UNL     1      27.636   6.561  31.355  1.00  0.00    -0.624 OA
HETATM   37  O7  UNL     1      27.530   8.424  29.577  1.00  0.00    -0.624 OA
BRANCH  35  38
HETATM   38  O8  UNL     1      25.306   6.841  30.130  1.00  0.00    -0.173 OA
BRANCH  38  39
HETATM   39  P3  UNL     1      24.815   8.149  31.093  1.00  0.00     0.431 P 
HETATM   40  O9  UNL     1      25.827   8.300  32.224  1.00  0.00    -0.616 OA
HETATM   41  O10 UNL     1      23.320   7.829  31.796  1.00  0.00    -0.616 OA
HETATM   42  O11 UNL     1      24.834   9.550  30.184  1.00  0.00    -0.616 OA
ENDBRANCH  38  39
ENDBRANCH  35  38
ENDBRANCH  34  35
ENDBRANCH  33  34
ENDBRANCH  32  33
ENDBRANCH   3  32
TORSDOF 13
ENDMDL
