MODEL 4
REMARK VINA RESULT: -9.280712333      0.852      1.294
REMARK  13 active torsions:
REMARK  status: ('A' for Active; 'I' for Inactive)
REMARK    1  A    between atoms: O1_2  and  P1_3 
REMARK    2  A    between atoms: P1_3  and  C2_6 
REMARK    3  A    between atoms: C2_6  and  O4_7 
REMARK    4  A    between atoms: C2_6  and  C3_9 
REMARK    5  A    between atoms: C2_6  and  C9_15 
REMARK    6  A    between atoms: C10_17  and  C11_18 
REMARK    7  A    between atoms: C11_18  and  C12_19 
REMARK    8  A    between atoms: C12_19  and  O5_20 
REMARK    9  A    between atoms: O5_20  and  P2_21 
REMARK   10  A    between atoms: P2_21  and  O8_24 
REMARK   11  A    between atoms: O8_24  and  P3_25 
REMARK   12  A    between atoms: N1_31  and  C15_32 
REMARK   13  A    between atoms: C15_32  and  C16_33 
ROOT
HETATM    1  C9  UNL     1      26.248   5.747  22.973  1.00  0.00     0.107 A 
HETATM    2  S1  UNL     1      25.767   6.374  24.494  1.00  0.00    -0.075 SA
HETATM    3  C10 UNL     1      26.007   4.959  25.431  1.00  0.00     0.009 A 
HETATM    4  C13 UNL     1      26.445   4.078  24.495  1.00  0.00     0.022 A 
HETATM    5  C14 UNL     1      26.724   2.639  24.911  1.00  0.00     0.069 C 
HETATM    6  N1  UNL     1      26.569   4.483  23.237  1.00  0.00    -0.340 N 
ENDROOT
BRANCH   1   7
HETATM    7  C2  UNL     1      26.272   6.647  21.800  1.00  0.00     0.240 C 
BRANCH   7   8
HETATM    8  P1  UNL     1      25.494   5.950  20.321  1.00  0.00     0.296 P 
HETATM    9  O2  UNL     1      24.804   7.019  19.495  1.00  0.00    -0.644 OA
HETATM   10  O3  UNL     1      26.655   5.119  19.375  1.00  0.00    -0.644 OA
BRANCH   8  11
HETATM   11  O1  UNL     1      24.307   4.803  20.691  1.00  0.00    -0.315 OA
HETATM   12  C1  UNL     1      24.281   3.824  19.713  1.00  0.00     0.213 C 
ENDBRANCH   8  11
ENDBRANCH   7   8
BRANCH   7  13
HETATM   13  O4  UNL     1      27.479   7.230  21.502  1.00  0.00    -0.367 OA
ATOM     14  H4  UNL     1      27.698   7.909  22.128  1.00  0.00     0.212 HD
ENDBRANCH   7  13
BRANCH   7  15
HETATM   15  C3  UNL     1      25.374   7.815  22.159  1.00  0.00    -0.004 A 
HETATM   16  C4  UNL     1      25.957   9.053  22.206  1.00  0.00     0.011 A 
HETATM   17  C5  UNL     1      25.189  10.186  22.530  1.00  0.00     0.001 A 
HETATM   18  C6  UNL     1      23.853  10.044  22.801  1.00  0.00     0.000 A 
HETATM   19  C7  UNL     1      23.271   8.818  22.755  1.00  0.00     0.001 A 
HETATM   20  C8  UNL     1      24.044   7.689  22.430  1.00  0.00     0.011 A 
ENDBRANCH   7  15
ENDBRANCH   1   7
BRANCH   6  21
HETATM   21  C15 UNL     1      27.139   3.598  22.178  1.00  0.00     0.172 C 
BRANCH  21  22
HETATM   22  C16 UNL     1      28.562   3.530  22.063  1.00  0.00     0.017 A 
HETATM   23  C17 UNL     1      29.251   4.648  21.542  1.00  0.00     0.101 A 
HETATM   24  N2  UNL     1      30.558   4.682  21.333  1.00  0.00    -0.355 N 
HETATM   25  C18 UNL     1      31.305   3.604  21.623  1.00  0.00     0.078 A 
ATOM     26  H2  UNL     1      30.994   5.522  20.953  1.00  0.00     0.166 HD
HETATM   27  C19 UNL     1      32.774   3.662  21.377  1.00  0.00     0.089 C 
HETATM   28  N3  UNL     1      30.707   2.503  22.123  1.00  0.00    -0.334 N 
HETATM   29  C20 UNL     1      29.355   2.483  22.335  1.00  0.00     0.127 A 
ATOM     30  H3  UNL     1      31.266   1.680  22.346  1.00  0.00     0.168 HD
HETATM   31  N4  UNL     1      28.856   1.291  22.893  1.00  0.00    -0.082 NA
ENDBRANCH  21  22
ENDBRANCH   6  21
BRANCH   3  32
HETATM   32  C11 UNL     1      25.834   4.800  26.927  1.00  0.00     0.075 C 
BRANCH  32  33
HETATM   33  C12 UNL     1      26.557   5.944  27.581  1.00  0.00     0.186 C 
BRANCH  33  34
HETATM   34  O5  UNL     1      25.813   6.514  28.589  1.00  0.00    -0.289 OA
BRANCH  34  35
HETATM   35  P2  UNL     1      26.787   7.149  29.798  1.00  0.00     0.418 P 
HETATM   36  O6  UNL     1      27.916   6.149  30.051  1.00  0.00    -0.624 OA
HETATM   37  O7  UNL     1      27.524   8.575  29.276  1.00  0.00    -0.624 OA
BRANCH  35  38
HETATM   38  O8  UNL     1      25.918   7.418  31.235  1.00  0.00    -0.173 OA
BRANCH  38  39
HETATM   39  P3  UNL     1      24.606   8.435  30.884  1.00  0.00     0.431 P 
HETATM   40  O9  UNL     1      23.501   8.134  31.890  1.00  0.00    -0.616 OA
HETATM   41  O10 UNL     1      23.996   8.096  29.352  1.00  0.00    -0.616 OA
HETATM   42  O11 UNL     1      25.068  10.029  31.076  1.00  0.00    -0.616 OA
ENDBRANCH  38  39
ENDBRANCH  35  38
ENDBRANCH  34  35
ENDBRANCH  33  34
ENDBRANCH  32  33
ENDBRANCH   3  32
TORSDOF 13
ENDMDL
