MODEL 5
REMARK VINA RESULT: -9.240288392      1.375      2.088
REMARK  13 active torsions:
REMARK  status: ('A' for Active; 'I' for Inactive)
REMARK    1  A    between atoms: O1_2  and  P1_3 
REMARK    2  A    between atoms: P1_3  and  C2_6 
REMARK    3  A    between atoms: C2_6  and  O4_7 
REMARK    4  A    between atoms: C2_6  and  C3_9 
REMARK    5  A    between atoms: C2_6  and  C9_15 
REMARK    6  A    between atoms: C10_17  and  C11_18 
REMARK    7  A    between atoms: C11_18  and  C12_19 
REMARK    8  A    between atoms: C12_19  and  O5_20 
REMARK    9  A    between atoms: O5_20  and  P2_21 
REMARK   10  A    between atoms: P2_21  and  O8_24 
REMARK   11  A    between atoms: O8_24  and  P3_25 
REMARK   12  A    between atoms: N1_31  and  C15_32 
REMARK   13  A    between atoms: C15_32  and  C16_33 
ROOT
HETATM    1  C9  UNL     1      25.263   5.567  23.172  1.00  0.00     0.107 A 
HETATM    2  S1  UNL     1      24.908   6.400  24.628  1.00  0.00    -0.075 SA
HETATM    3  C10 UNL     1      25.591   5.278  25.728  1.00  0.00     0.009 A 
HETATM    4  C13 UNL     1      26.053   4.315  24.889  1.00  0.00     0.022 A 
HETATM    5  C14 UNL     1      26.697   3.067  25.483  1.00  0.00     0.069 C 
HETATM    6  N1  UNL     1      25.885   4.465  23.581  1.00  0.00    -0.340 N 
ENDROOT
BRANCH   1   7
HETATM    7  C2  UNL     1      24.907   6.193  21.881  1.00  0.00     0.240 C 
BRANCH   7   8
HETATM    8  P1  UNL     1      23.225   6.863  21.826  1.00  0.00     0.296 P 
HETATM    9  O2  UNL     1      22.334   6.222  22.871  1.00  0.00    -0.644 OA
HETATM   10  O3  UNL     1      23.258   8.564  22.028  1.00  0.00    -0.644 OA
BRANCH   8  11
HETATM   11  O1  UNL     1      22.469   6.598  20.336  1.00  0.00    -0.315 OA
HETATM   12  C1  UNL     1      21.793   5.391  20.363  1.00  0.00     0.213 C 
ENDBRANCH   8  11
ENDBRANCH   7   8
BRANCH   7  13
HETATM   13  O4  UNL     1      25.193   5.468  20.751  1.00  0.00    -0.367 OA
ATOM     14  H4  UNL     1      25.184   4.535  20.928  1.00  0.00     0.212 HD
ENDBRANCH   7  13
BRANCH   7  15
HETATM   15  C3  UNL     1      25.785   7.424  21.765  1.00  0.00    -0.004 A 
HETATM   16  C4  UNL     1      25.683   8.151  20.608  1.00  0.00     0.011 A 
HETATM   17  C5  UNL     1      26.464   9.307  20.427  1.00  0.00     0.001 A 
HETATM   18  C6  UNL     1      27.329   9.702  21.414  1.00  0.00     0.000 A 
HETATM   19  C7  UNL     1      27.433   8.984  22.562  1.00  0.00     0.001 A 
HETATM   20  C8  UNL     1      26.649   7.830  22.738  1.00  0.00     0.011 A 
ENDBRANCH   7  15
ENDBRANCH   1   7
BRANCH   6  21
HETATM   21  C15 UNL     1      26.456   3.496  22.598  1.00  0.00     0.172 C 
BRANCH  21  22
HETATM   22  C16 UNL     1      27.874   3.490  22.415  1.00  0.00     0.017 A 
HETATM   23  C17 UNL     1      28.488   4.641  21.872  1.00  0.00     0.101 A 
HETATM   24  N2  UNL     1      29.780   4.733  21.602  1.00  0.00    -0.355 N 
HETATM   25  C18 UNL     1      30.587   3.687  21.847  1.00  0.00     0.078 A 
ATOM     26  H2  UNL     1      30.162   5.593  21.209  1.00  0.00     0.166 HD
HETATM   27  C19 UNL     1      32.039   3.810  21.533  1.00  0.00     0.089 C 
HETATM   28  N3  UNL     1      30.061   2.557  22.366  1.00  0.00    -0.334 N 
HETATM   29  C20 UNL     1      28.723   2.477  22.641  1.00  0.00     0.127 A 
ATOM     30  H3  UNL     1      30.665   1.758  22.554  1.00  0.00     0.168 HD
HETATM   31  N4  UNL     1      28.303   1.261  23.212  1.00  0.00    -0.082 NA
ENDBRANCH  21  22
ENDBRANCH   6  21
BRANCH   3  32
HETATM   32  C11 UNL     1      25.697   5.405  27.233  1.00  0.00     0.075 C 
BRANCH  32  33
HETATM   33  C12 UNL     1      27.016   6.061  27.531  1.00  0.00     0.186 C 
BRANCH  33  34
HETATM   34  O5  UNL     1      27.478   5.740  28.787  1.00  0.00    -0.289 OA
BRANCH  34  35
HETATM   35  P2  UNL     1      26.984   6.859  29.935  1.00  0.00     0.418 P 
HETATM   36  O6  UNL     1      27.751   6.566  31.224  1.00  0.00    -0.624 OA
HETATM   37  O7  UNL     1      27.421   8.421  29.465  1.00  0.00    -0.624 OA
BRANCH  35  38
HETATM   38  O8  UNL     1      25.310   6.771  30.224  1.00  0.00    -0.173 OA
BRANCH  38  39
HETATM   39  P3  UNL     1      24.850   8.130  31.129  1.00  0.00     0.431 P 
HETATM   40  O9  UNL     1      23.436   7.891  31.645  1.00  0.00    -0.616 OA
HETATM   41  O10 UNL     1      24.804   9.498  30.149  1.00  0.00    -0.616 OA
HETATM   42  O11 UNL     1      25.866   8.293  32.446  1.00  0.00    -0.616 OA
ENDBRANCH  38  39
ENDBRANCH  35  38
ENDBRANCH  34  35
ENDBRANCH  33  34
ENDBRANCH  32  33
ENDBRANCH   3  32
TORSDOF 13
ENDMDL
