MODEL 16
REMARK VINA RESULT: -7.981950475      2.579      5.280
REMARK  13 active torsions:
REMARK  status: ('A' for Active; 'I' for Inactive)
REMARK    1  A    between atoms: O1_2  and  P1_3 
REMARK    2  A    between atoms: P1_3  and  C2_6 
REMARK    3  A    between atoms: C2_6  and  O4_7 
REMARK    4  A    between atoms: C2_6  and  C3_9 
REMARK    5  A    between atoms: C2_6  and  C9_15 
REMARK    6  A    between atoms: C10_17  and  C11_18 
REMARK    7  A    between atoms: C11_18  and  C12_19 
REMARK    8  A    between atoms: C12_19  and  O5_20 
REMARK    9  A    between atoms: O5_20  and  P2_21 
REMARK   10  A    between atoms: P2_21  and  O8_24 
REMARK   11  A    between atoms: O8_24  and  P3_25 
REMARK   12  A    between atoms: N1_31  and  C15_32 
REMARK   13  A    between atoms: C15_32  and  C16_33 
ROOT
HETATM    1  C9  UNL     1      26.458   5.516  22.312  1.00  0.00     0.107 A 
HETATM    2  S1  UNL     1      26.929   4.484  23.596  1.00  0.00    -0.075 SA
HETATM    3  C10 UNL     1      25.867   5.085  24.799  1.00  0.00     0.009 A 
HETATM    4  C13 UNL     1      25.210   6.063  24.123  1.00  0.00     0.022 A 
HETATM    5  C14 UNL     1      24.187   6.913  24.867  1.00  0.00     0.069 C 
HETATM    6  N1  UNL     1      25.513   6.281  22.850  1.00  0.00    -0.340 N 
ENDROOT
BRANCH   1   7
HETATM    7  C2  UNL     1      27.079   5.336  20.981  1.00  0.00     0.240 C 
BRANCH   7   8
HETATM    8  P1  UNL     1      28.316   4.016  20.918  1.00  0.00     0.296 P 
HETATM    9  O2  UNL     1      27.837   2.766  21.629  1.00  0.00    -0.644 OA
HETATM   10  O3  UNL     1      28.722   3.661  19.291  1.00  0.00    -0.644 OA
BRANCH   8  11
HETATM   11  O1  UNL     1      29.771   4.454  21.662  1.00  0.00    -0.315 OA
HETATM   12  C1  UNL     1      30.343   3.344  22.260  1.00  0.00     0.213 C 
ENDBRANCH   8  11
ENDBRANCH   7   8
BRANCH   7  13
HETATM   13  O4  UNL     1      27.529   6.474  20.359  1.00  0.00    -0.367 OA
ATOM     14  H4  UNL     1      27.475   6.396  19.414  1.00  0.00     0.212 HD
ENDBRANCH   7  13
BRANCH   7  15
HETATM   15  C3  UNL     1      25.971   4.831  20.077  1.00  0.00    -0.004 A 
HETATM   16  C4  UNL     1      25.809   5.473  18.877  1.00  0.00     0.011 A 
HETATM   17  C5  UNL     1      24.805   5.062  17.983  1.00  0.00     0.001 A 
HETATM   18  C6  UNL     1      23.987   4.014  18.318  1.00  0.00     0.000 A 
HETATM   19  C7  UNL     1      24.145   3.375  19.506  1.00  0.00     0.001 A 
HETATM   20  C8  UNL     1      25.151   3.790  20.395  1.00  0.00     0.011 A 
ENDBRANCH   7  15
ENDBRANCH   1   7
BRANCH   6  21
HETATM   21  C15 UNL     1      24.761   7.270  22.020  1.00  0.00     0.172 C 
BRANCH  21  22
HETATM   22  C16 UNL     1      24.905   8.655  22.341  1.00  0.00     0.017 A 
HETATM   23  C17 UNL     1      23.777   9.356  22.822  1.00  0.00     0.101 A 
HETATM   24  N2  UNL     1      23.770  10.651  23.096  1.00  0.00    -0.355 N 
HETATM   25  C18 UNL     1      24.889  11.374  22.917  1.00  0.00     0.078 A 
ATOM     26  H2  UNL     1      22.921  11.098  23.441  1.00  0.00     0.166 HD
HETATM   27  C19 UNL     1      24.860  12.831  23.229  1.00  0.00     0.089 C 
HETATM   28  N3  UNL     1      26.001  10.762  22.460  1.00  0.00    -0.334 N 
HETATM   29  C20 UNL     1      25.993   9.422  22.181  1.00  0.00     0.127 A 
ATOM     30  H3  UNL     1      26.855  11.302  22.320  1.00  0.00     0.168 HD
HETATM   31  N4  UNL     1      27.223   8.896  21.745  1.00  0.00    -0.082 NA
ENDBRANCH  21  22
ENDBRANCH   6  21
BRANCH   3  32
HETATM   32  C11 UNL     1      25.689   4.577  26.214  1.00  0.00     0.075 C 
BRANCH  32  33
HETATM   33  C12 UNL     1      26.577   5.406  27.099  1.00  0.00     0.186 C 
BRANCH  33  34
HETATM   34  O5  UNL     1      25.853   6.159  27.995  1.00  0.00    -0.289 OA
BRANCH  34  35
HETATM   35  P2  UNL     1      26.777   6.601  29.324  1.00  0.00     0.418 P 
HETATM   36  O6  UNL     1      27.923   5.596  29.443  1.00  0.00    -0.624 OA
HETATM   37  O7  UNL     1      27.492   8.110  29.072  1.00  0.00    -0.624 OA
BRANCH  35  38
HETATM   38  O8  UNL     1      25.861   6.608  30.757  1.00  0.00    -0.173 OA
BRANCH  38  39
HETATM   39  P3  UNL     1      24.859   7.977  30.745  1.00  0.00     0.431 P 
HETATM   40  O9  UNL     1      23.846   7.824  31.874  1.00  0.00    -0.616 OA
HETATM   41  O10 UNL     1      23.996   8.059  29.303  1.00  0.00    -0.616 OA
HETATM   42  O11 UNL     1      25.775   9.341  31.048  1.00  0.00    -0.616 OA
ENDBRANCH  38  39
ENDBRANCH  35  38
ENDBRANCH  34  35
ENDBRANCH  33  34
ENDBRANCH  32  33
ENDBRANCH   3  32
TORSDOF 13
ENDMDL
