MODEL 14
REMARK VINA RESULT: -8.077861878      2.576      5.617
REMARK  13 active torsions:
REMARK  status: ('A' for Active; 'I' for Inactive)
REMARK    1  A    between atoms: O1_2  and  P1_3 
REMARK    2  A    between atoms: P1_3  and  C2_6 
REMARK    3  A    between atoms: C2_6  and  O4_7 
REMARK    4  A    between atoms: C2_6  and  C3_9 
REMARK    5  A    between atoms: C2_6  and  C9_15 
REMARK    6  A    between atoms: C10_17  and  C11_18 
REMARK    7  A    between atoms: C11_18  and  C12_19 
REMARK    8  A    between atoms: C12_19  and  O5_20 
REMARK    9  A    between atoms: O5_20  and  P2_21 
REMARK   10  A    between atoms: P2_21  and  O8_24 
REMARK   11  A    between atoms: O8_24  and  P3_25 
REMARK   12  A    between atoms: N1_31  and  C15_32 
REMARK   13  A    between atoms: C15_32  and  C16_33 
ROOT
HETATM    1  C9  UNL     1      26.256   3.692  23.428  1.00  0.00     0.107 A 
HETATM    2  S1  UNL     1      26.510   3.317  25.081  1.00  0.00    -0.075 SA
HETATM    3  C10 UNL     1      25.772   4.704  25.765  1.00  0.00     0.009 A 
HETATM    4  C13 UNL     1      25.375   5.381  24.657  1.00  0.00     0.022 A 
HETATM    5  C14 UNL     1      24.709   6.742  24.824  1.00  0.00     0.069 C 
HETATM    6  N1  UNL     1      25.623   4.861  23.461  1.00  0.00    -0.340 N 
ENDROOT
BRANCH   1   7
HETATM    7  C2  UNL     1      26.686   2.723  22.397  1.00  0.00     0.240 C 
BRANCH   7   8
HETATM    8  P1  UNL     1      28.434   2.854  21.945  1.00  0.00     0.296 P 
HETATM    9  O2  UNL     1      28.680   4.006  20.990  1.00  0.00    -0.644 OA
HETATM   10  O3  UNL     1      29.398   3.025  23.351  1.00  0.00    -0.644 OA
BRANCH   8  11
HETATM   11  O1  UNL     1      29.010   1.467  21.168  1.00  0.00    -0.315 OA
HETATM   12  C1  UNL     1      30.223   1.741  20.559  1.00  0.00     0.213 C 
ENDBRANCH   8  11
ENDBRANCH   7   8
BRANCH   7  13
HETATM   13  O4  UNL     1      25.888   2.621  21.284  1.00  0.00    -0.367 OA
ATOM     14  H4  UNL     1      25.423   3.432  21.117  1.00  0.00     0.212 HD
ENDBRANCH   7  13
BRANCH   7  15
HETATM   15  C3  UNL     1      26.588   1.357  23.050  1.00  0.00    -0.004 A 
HETATM   16  C4  UNL     1      25.735   0.454  22.473  1.00  0.00     0.011 A 
HETATM   17  C5  UNL     1      25.590  -0.834  23.019  1.00  0.00     0.001 A 
HETATM   18  C6  UNL     1      26.308  -1.180  24.135  1.00  0.00     0.000 A 
HETATM   19  C7  UNL     1      27.154  -0.288  24.710  1.00  0.00     0.001 A 
HETATM   20  C8  UNL     1      27.295   0.997  24.158  1.00  0.00     0.011 A 
ENDBRANCH   7  15
ENDBRANCH   1   7
BRANCH   6  21
HETATM   21  C15 UNL     1      25.126   5.501  22.207  1.00  0.00     0.172 C 
BRANCH  21  22
HETATM   22  C16 UNL     1      25.586   6.820  21.904  1.00  0.00     0.017 A 
HETATM   23  C17 UNL     1      26.973   7.082  21.974  1.00  0.00     0.101 A 
HETATM   24  N2  UNL     1      27.512   8.274  21.774  1.00  0.00    -0.355 N 
HETATM   25  C18 UNL     1      26.722   9.321  21.484  1.00  0.00     0.078 A 
ATOM     26  H2  UNL     1      28.522   8.397  21.839  1.00  0.00     0.166 HD
HETATM   27  C19 UNL     1      27.348  10.656  21.265  1.00  0.00     0.089 C 
HETATM   28  N3  UNL     1      25.387   9.136  21.402  1.00  0.00    -0.334 N 
HETATM   29  C20 UNL     1      24.844   7.898  21.611  1.00  0.00     0.127 A 
ATOM     30  H3  UNL     1      24.779   9.925  21.184  1.00  0.00     0.168 HD
HETATM   31  N4  UNL     1      23.446   7.827  21.463  1.00  0.00    -0.082 NA
ENDBRANCH  21  22
ENDBRANCH   6  21
BRANCH   3  32
HETATM   32  C11 UNL     1      25.570   5.015  27.233  1.00  0.00     0.075 C 
BRANCH  32  33
HETATM   33  C12 UNL     1      26.799   5.740  27.706  1.00  0.00     0.186 C 
BRANCH  33  34
HETATM   34  O5  UNL     1      27.109   5.430  29.011  1.00  0.00    -0.289 OA
BRANCH  34  35
HETATM   35  P2  UNL     1      26.713   6.679  30.058  1.00  0.00     0.418 P 
HETATM   36  O6  UNL     1      27.191   6.280  31.454  1.00  0.00    -0.624 OA
HETATM   37  O7  UNL     1      27.557   8.083  29.649  1.00  0.00    -0.624 OA
BRANCH  35  38
HETATM   38  O8  UNL     1      25.038   6.976  30.082  1.00  0.00    -0.173 OA
BRANCH  38  39
HETATM   39  P3  UNL     1      24.736   8.249  31.162  1.00  0.00     0.431 P 
HETATM   40  O9  UNL     1      23.314   8.085  31.689  1.00  0.00    -0.616 OA
HETATM   41  O10 UNL     1      24.808   9.727  30.361  1.00  0.00    -0.616 OA
HETATM   42  O11 UNL     1      25.788   8.144  32.456  1.00  0.00    -0.616 OA
ENDBRANCH  38  39
ENDBRANCH  35  38
ENDBRANCH  34  35
ENDBRANCH  33  34
ENDBRANCH  32  33
ENDBRANCH   3  32
TORSDOF 13
ENDMDL
