MODEL 1
REMARK VINA RESULT: -9.414812049      0.000      0.000
REMARK  13 active torsions:
REMARK  status: ('A' for Active; 'I' for Inactive)
REMARK    1  A    between atoms: O1_2  and  P1_3 
REMARK    2  A    between atoms: P1_3  and  C2_6 
REMARK    3  A    between atoms: C2_6  and  O4_7 
REMARK    4  A    between atoms: C2_6  and  C3_9 
REMARK    5  A    between atoms: C2_6  and  C9_15 
REMARK    6  A    between atoms: C10_17  and  C11_18 
REMARK    7  A    between atoms: C11_18  and  C12_19 
REMARK    8  A    between atoms: C12_19  and  O5_20 
REMARK    9  A    between atoms: O5_20  and  P2_21 
REMARK   10  A    between atoms: P2_21  and  O8_24 
REMARK   11  A    between atoms: O8_24  and  P3_25 
REMARK   12  A    between atoms: N1_31  and  C15_32 
REMARK   13  A    between atoms: C15_32  and  C16_33 
ROOT
HETATM    1  C9  UNL     1      26.197   5.933  23.063  1.00  0.00     0.107 A 
HETATM    2  S1  UNL     1      25.744   6.621  24.566  1.00  0.00    -0.075 SA
HETATM    3  C10 UNL     1      25.902   5.219  25.538  1.00  0.00     0.009 A 
HETATM    4  C13 UNL     1      26.297   4.293  24.625  1.00  0.00     0.022 A 
HETATM    5  C14 UNL     1      26.497   2.852  25.077  1.00  0.00     0.069 C 
HETATM    6  N1  UNL     1      26.448   4.661  23.359  1.00  0.00    -0.340 N 
ENDROOT
BRANCH   1   7
HETATM    7  C2  UNL     1      26.275   6.802  21.869  1.00  0.00     0.240 C 
BRANCH   7   8
HETATM    8  P1  UNL     1      25.479   6.107  20.399  1.00  0.00     0.296 P 
HETATM    9  O2  UNL     1      26.455   5.302  19.562  1.00  0.00    -0.644 OA
HETATM   10  O3  UNL     1      24.139   5.141  20.852  1.00  0.00    -0.644 OA
BRANCH   8  11
HETATM   11  O1  UNL     1      24.852   7.299  19.375  1.00  0.00    -0.315 OA
HETATM   12  C1  UNL     1      25.819   7.689  18.464  1.00  0.00     0.213 C 
ENDBRANCH   8  11
ENDBRANCH   7   8
BRANCH   7  13
HETATM   13  O4  UNL     1      27.511   7.321  21.571  1.00  0.00    -0.367 OA
ATOM     14  H4  UNL     1      28.079   6.662  21.189  1.00  0.00     0.212 HD
ENDBRANCH   7  13
BRANCH   7  15
HETATM   15  C3  UNL     1      25.429   8.019  22.191  1.00  0.00    -0.004 A 
HETATM   16  C4  UNL     1      26.060   9.236  22.166  1.00  0.00     0.011 A 
HETATM   17  C5  UNL     1      25.342  10.411  22.452  1.00  0.00     0.001 A 
HETATM   18  C6  UNL     1      24.008  10.333  22.757  1.00  0.00     0.000 A 
HETATM   19  C7  UNL     1      23.380   9.129  22.781  1.00  0.00     0.001 A 
HETATM   20  C8  UNL     1      24.102   7.958  22.494  1.00  0.00     0.011 A 
ENDBRANCH   7  15
ENDBRANCH   1   7
BRANCH   6  21
HETATM   21  C15 UNL     1      26.976   3.722  22.325  1.00  0.00     0.172 C 
BRANCH  21  22
HETATM   22  C16 UNL     1      28.392   3.545  22.245  1.00  0.00     0.017 A 
HETATM   23  C17 UNL     1      29.171   4.589  21.697  1.00  0.00     0.101 A 
HETATM   24  N2  UNL     1      30.481   4.520  21.516  1.00  0.00    -0.355 N 
HETATM   25  C18 UNL     1      31.141   3.403  21.865  1.00  0.00     0.078 A 
ATOM     26  H2  UNL     1      30.985   5.309  21.115  1.00  0.00     0.166 HD
HETATM   27  C19 UNL     1      32.615   3.344  21.652  1.00  0.00     0.089 C 
HETATM   28  N3  UNL     1      30.454   2.369  22.395  1.00  0.00    -0.334 N 
HETATM   29  C20 UNL     1      29.100   2.456  22.576  1.00  0.00     0.127 A 
ATOM     30  H3  UNL     1      30.946   1.518  22.662  1.00  0.00     0.168 HD
HETATM   31  N4  UNL     1      28.504   1.327  23.169  1.00  0.00    -0.082 NA
ENDBRANCH  21  22
ENDBRANCH   6  21
BRANCH   3  32
HETATM   32  C11 UNL     1      25.715   5.105  27.036  1.00  0.00     0.075 C 
BRANCH  32  33
HETATM   33  C12 UNL     1      26.867   5.821  27.683  1.00  0.00     0.186 C 
BRANCH  33  34
HETATM   34  O5  UNL     1      27.047   5.430  28.991  1.00  0.00    -0.289 OA
BRANCH  34  35
HETATM   35  P2  UNL     1      26.653   6.657  30.066  1.00  0.00     0.418 P 
HETATM   36  O6  UNL     1      27.149   6.234  31.448  1.00  0.00    -0.624 OA
HETATM   37  O7  UNL     1      27.482   8.074  29.675  1.00  0.00    -0.624 OA
BRANCH  35  38
HETATM   38  O8  UNL     1      24.976   6.941  30.113  1.00  0.00    -0.173 OA
BRANCH  38  39
HETATM   39  P3  UNL     1      24.685   8.254  31.148  1.00  0.00     0.431 P 
HETATM   40  O9  UNL     1      25.747   8.229  32.242  1.00  0.00    -0.616 OA
HETATM   41  O10 UNL     1      23.187   8.088  31.897  1.00  0.00    -0.616 OA
HETATM   42  O11 UNL     1      24.846   9.682  30.296  1.00  0.00    -0.616 OA
ENDBRANCH  38  39
ENDBRANCH  35  38
ENDBRANCH  34  35
ENDBRANCH  33  34
ENDBRANCH  32  33
ENDBRANCH   3  32
TORSDOF 13
ENDMDL
