MODEL 10
REMARK VINA RESULT: -8.209426049      2.675      5.009
REMARK  13 active torsions:
REMARK  status: ('A' for Active; 'I' for Inactive)
REMARK    1  A    between atoms: O1_2  and  P1_3 
REMARK    2  A    between atoms: P1_3  and  C2_6 
REMARK    3  A    between atoms: C2_6  and  O4_7 
REMARK    4  A    between atoms: C2_6  and  C3_9 
REMARK    5  A    between atoms: C2_6  and  C9_15 
REMARK    6  A    between atoms: C10_17  and  C11_18 
REMARK    7  A    between atoms: C11_18  and  C12_19 
REMARK    8  A    between atoms: C12_19  and  O5_20 
REMARK    9  A    between atoms: O5_20  and  P2_21 
REMARK   10  A    between atoms: P2_21  and  O8_24 
REMARK   11  A    between atoms: O8_24  and  P3_25 
REMARK   12  A    between atoms: N1_31  and  C15_32 
REMARK   13  A    between atoms: C15_32  and  C16_33 
ROOT
HETATM    1  C9  UNL     1      26.656   3.574  23.710  1.00  0.00     0.107 A 
HETATM    2  S1  UNL     1      26.439   3.428  25.404  1.00  0.00    -0.075 SA
HETATM    3  C10 UNL     1      25.395   4.767  25.636  1.00  0.00     0.009 A 
HETATM    4  C13 UNL     1      25.283   5.252  24.372  1.00  0.00     0.022 A 
HETATM    5  C14 UNL     1      24.466   6.517  24.139  1.00  0.00     0.069 C 
HETATM    6  N1  UNL     1      25.928   4.639  23.388  1.00  0.00    -0.340 N 
ENDROOT
BRANCH   1   7
HETATM    7  C2  UNL     1      27.469   2.563  22.999  1.00  0.00     0.240 C 
BRANCH   7   8
HETATM    8  P1  UNL     1      26.493   1.277  22.179  1.00  0.00     0.296 P 
HETATM    9  O2  UNL     1      26.128   0.157  23.134  1.00  0.00    -0.644 OA
HETATM   10  O3  UNL     1      25.081   1.956  21.485  1.00  0.00    -0.644 OA
BRANCH   8  11
HETATM   11  O1  UNL     1      27.323   0.550  20.897  1.00  0.00    -0.315 OA
HETATM   12  C1  UNL     1      27.537  -0.789  21.177  1.00  0.00     0.213 C 
ENDBRANCH   8  11
ENDBRANCH   7   8
BRANCH   7  13
HETATM   13  O4  UNL     1      28.520   2.024  23.698  1.00  0.00    -0.367 OA
ATOM     14  H4  UNL     1      29.140   1.599  23.117  1.00  0.00     0.212 HD
ENDBRANCH   7  13
BRANCH   7  15
HETATM   15  C3  UNL     1      28.126   3.300  21.849  1.00  0.00    -0.004 A 
HETATM   16  C4  UNL     1      29.274   3.993  22.132  1.00  0.00     0.011 A 
HETATM   17  C5  UNL     1      29.944   4.700  21.117  1.00  0.00     0.001 A 
HETATM   18  C6  UNL     1      29.440   4.694  19.842  1.00  0.00     0.000 A 
HETATM   19  C7  UNL     1      28.303   4.008  19.557  1.00  0.00     0.001 A 
HETATM   20  C8  UNL     1      27.639   3.303  20.575  1.00  0.00     0.011 A 
ENDBRANCH   7  15
ENDBRANCH   1   7
BRANCH   6  21
HETATM   21  C15 UNL     1      25.769   5.057  21.963  1.00  0.00     0.172 C 
BRANCH  21  22
HETATM   22  C16 UNL     1      26.047   6.420  21.633  1.00  0.00     0.017 A 
HETATM   23  C17 UNL     1      27.188   7.031  22.199  1.00  0.00     0.101 A 
HETATM   24  N2  UNL     1      27.517   8.300  22.016  1.00  0.00    -0.355 N 
HETATM   25  C18 UNL     1      26.741   9.084  21.250  1.00  0.00     0.078 A 
ATOM     26  H2  UNL     1      28.356   8.680  22.455  1.00  0.00     0.166 HD
HETATM   27  C19 UNL     1      27.127  10.511  21.059  1.00  0.00     0.089 C 
HETATM   28  N3  UNL     1      25.636   8.560  20.680  1.00  0.00    -0.334 N 
HETATM   29  C20 UNL     1      25.308   7.246  20.877  1.00  0.00     0.127 A 
ATOM     30  H3  UNL     1      25.040   9.147  20.097  1.00  0.00     0.168 HD
HETATM   31  N4  UNL     1      24.154   6.810  20.201  1.00  0.00    -0.082 NA
ENDBRANCH  21  22
ENDBRANCH   6  21
BRANCH   3  32
HETATM   32  C11 UNL     1      24.733   5.212  26.923  1.00  0.00     0.075 C 
BRANCH  32  33
HETATM   33  C12 UNL     1      25.829   5.615  27.870  1.00  0.00     0.186 C 
BRANCH  33  34
HETATM   34  O5  UNL     1      25.335   6.241  28.992  1.00  0.00    -0.289 OA
BRANCH  34  35
HETATM   35  P2  UNL     1      26.568   6.815  29.975  1.00  0.00     0.418 P 
HETATM   36  O6  UNL     1      26.433   6.123  31.332  1.00  0.00    -0.624 OA
HETATM   37  O7  UNL     1      28.074   6.364  29.359  1.00  0.00    -0.624 OA
BRANCH  35  38
HETATM   38  O8  UNL     1      26.485   8.502  30.173  1.00  0.00    -0.173 OA
BRANCH  38  39
HETATM   39  P3  UNL     1      25.185   8.857  31.203  1.00  0.00     0.431 P 
HETATM   40  O9  UNL     1      24.904  10.352  31.102  1.00  0.00    -0.616 OA
HETATM   41  O10 UNL     1      25.598   8.531  32.802  1.00  0.00    -0.616 OA
HETATM   42  O11 UNL     1      23.825   8.034  30.689  1.00  0.00    -0.616 OA
ENDBRANCH  38  39
ENDBRANCH  35  38
ENDBRANCH  34  35
ENDBRANCH  33  34
ENDBRANCH  32  33
ENDBRANCH   3  32
TORSDOF 13
ENDMDL
