MODEL 8
REMARK VINA RESULT: -8.931515055      0.856      1.488
REMARK  13 active torsions:
REMARK  status: ('A' for Active; 'I' for Inactive)
REMARK    1  A    between atoms: O1_2  and  P1_3 
REMARK    2  A    between atoms: P1_3  and  C2_6 
REMARK    3  A    between atoms: C2_6  and  O4_7 
REMARK    4  A    between atoms: C2_6  and  C3_9 
REMARK    5  A    between atoms: C2_6  and  C9_15 
REMARK    6  A    between atoms: C10_17  and  C11_18 
REMARK    7  A    between atoms: C11_18  and  C12_19 
REMARK    8  A    between atoms: C12_19  and  O5_20 
REMARK    9  A    between atoms: O5_20  and  P2_21 
REMARK   10  A    between atoms: P2_21  and  O8_24 
REMARK   11  A    between atoms: O8_24  and  P3_25 
REMARK   12  A    between atoms: N1_31  and  C15_32 
REMARK   13  A    between atoms: C15_32  and  C16_33 
ROOT
HETATM    1  C9  UNL     1      26.063   5.919  22.819  1.00  0.00     0.107 A 
HETATM    2  S1  UNL     1      25.660   6.626  24.327  1.00  0.00    -0.075 SA
HETATM    3  C10 UNL     1      25.939   5.259  25.323  1.00  0.00     0.009 A 
HETATM    4  C13 UNL     1      26.327   4.329  24.413  1.00  0.00     0.022 A 
HETATM    5  C14 UNL     1      26.620   2.910  24.888  1.00  0.00     0.069 C 
HETATM    6  N1  UNL     1      26.391   4.669  23.131  1.00  0.00    -0.340 N 
ENDROOT
BRANCH   1   7
HETATM    7  C2  UNL     1      26.034   6.758  21.601  1.00  0.00     0.240 C 
BRANCH   7   8
HETATM    8  P1  UNL     1      24.791   6.250  20.386  1.00  0.00     0.296 P 
HETATM    9  O2  UNL     1      24.430   7.384  19.448  1.00  0.00    -0.644 OA
HETATM   10  O3  UNL     1      25.348   4.893  19.500  1.00  0.00    -0.644 OA
BRANCH   8  11
HETATM   11  O1  UNL     1      23.342   5.756  21.107  1.00  0.00    -0.315 OA
HETATM   12  C1  UNL     1      22.274   6.381  20.487  1.00  0.00     0.213 C 
ENDBRANCH   8  11
ENDBRANCH   7   8
BRANCH   7  13
HETATM   13  O4  UNL     1      27.244   7.010  21.004  1.00  0.00    -0.367 OA
ATOM     14  H4  UNL     1      27.966   6.782  21.577  1.00  0.00     0.212 HD
ENDBRANCH   7  13
BRANCH   7  15
HETATM   15  C3  UNL     1      25.552   8.123  22.055  1.00  0.00    -0.004 A 
HETATM   16  C4  UNL     1      26.414   9.173  21.881  1.00  0.00     0.011 A 
HETATM   17  C5  UNL     1      26.039  10.471  22.274  1.00  0.00     0.001 A 
HETATM   18  C6  UNL     1      24.806  10.678  22.835  1.00  0.00     0.000 A 
HETATM   19  C7  UNL     1      23.948   9.640  23.009  1.00  0.00     0.001 A 
HETATM   20  C8  UNL     1      24.328   8.346  22.612  1.00  0.00     0.011 A 
ENDBRANCH   7  15
ENDBRANCH   1   7
BRANCH   6  21
HETATM   21  C15 UNL     1      26.905   3.727  22.093  1.00  0.00     0.172 C 
BRANCH  21  22
HETATM   22  C16 UNL     1      28.317   3.685  21.872  1.00  0.00     0.017 A 
HETATM   23  C17 UNL     1      29.139   3.117  22.871  1.00  0.00     0.101 A 
HETATM   24  N2  UNL     1      30.460   3.074  22.808  1.00  0.00    -0.355 N 
HETATM   25  C18 UNL     1      31.091   3.593  21.741  1.00  0.00     0.078 A 
ATOM     26  H2  UNL     1      30.996   2.650  23.564  1.00  0.00     0.166 HD
HETATM   27  C19 UNL     1      32.580   3.537  21.690  1.00  0.00     0.089 C 
HETATM   28  N3  UNL     1      30.362   4.150  20.751  1.00  0.00    -0.334 N 
HETATM   29  C20 UNL     1      28.997   4.186  20.830  1.00  0.00     0.127 A 
ATOM     30  H3  UNL     1      30.832   4.547  19.938  1.00  0.00     0.168 HD
HETATM   31  N4  UNL     1      28.350   4.761  19.720  1.00  0.00    -0.082 NA
ENDBRANCH  21  22
ENDBRANCH   6  21
BRANCH   3  32
HETATM   32  C11 UNL     1      25.839   5.177  26.832  1.00  0.00     0.075 C 
BRANCH  32  33
HETATM   33  C12 UNL     1      27.028   5.905  27.395  1.00  0.00     0.186 C 
BRANCH  33  34
HETATM   34  O5  UNL     1      27.292   5.531  28.694  1.00  0.00    -0.289 OA
BRANCH  34  35
HETATM   35  P2  UNL     1      26.865   6.733  29.784  1.00  0.00     0.418 P 
HETATM   36  O6  UNL     1      27.549   6.412  31.113  1.00  0.00    -0.624 OA
HETATM   37  O7  UNL     1      27.473   8.227  29.285  1.00  0.00    -0.624 OA
BRANCH  35  38
HETATM   38  O8  UNL     1      25.181   6.818  30.004  1.00  0.00    -0.173 OA
BRANCH  38  39
HETATM   39  P3  UNL     1      24.844   8.100  31.063  1.00  0.00     0.431 P 
HETATM   40  O9  UNL     1      25.991   8.193  32.063  1.00  0.00    -0.616 OA
HETATM   41  O10 UNL     1      23.440   7.784  31.936  1.00  0.00    -0.616 OA
HETATM   42  O11 UNL     1      24.782   9.532  30.204  1.00  0.00    -0.616 OA
ENDBRANCH  38  39
ENDBRANCH  35  38
ENDBRANCH  34  35
ENDBRANCH  33  34
ENDBRANCH  32  33
ENDBRANCH   3  32
TORSDOF 13
ENDMDL
