MODEL 10
REMARK VINA RESULT: -8.429324621      4.262      6.045
REMARK  6 active torsions:
REMARK  status: ('A' for Active; 'I' for Inactive)
REMARK    1  A    between atoms: C3_6  and  C4_7 
REMARK    2  A    between atoms: C4_7  and  C5_8 
REMARK    3  A    between atoms: C5_8  and  C6_9 
REMARK    4  A    between atoms: C6_9  and  C7_10 
REMARK    5  A    between atoms: C7_10  and  C8_11 
REMARK    6  A    between atoms: C8_11  and  P1_14 
ROOT
HETATM    1  N1  UNL     1      31.944 -15.102  23.870  1.00  0.00    -0.063 NA
HETATM    2  C1  UNL     1      31.710 -13.919  24.617  1.00  0.00     0.195 A 
HETATM    3  N2  UNL     1      32.731 -13.107  24.982  1.00  0.00    -0.328 N 
ATOM      4  H2  UNL     1      33.678 -13.365  24.706  1.00  0.00     0.168 HD
HETATM    5  C2  UNL     1      32.560 -11.979  25.688  1.00  0.00     0.074 A 
HETATM    6  C3  UNL     1      33.409 -10.994  26.180  1.00  0.00    -0.013 A 
HETATM    7  C9  UNL     1      32.637 -10.079  26.831  1.00  0.00     0.098 A 
HETATM    8  N3  UNL     1      31.342 -10.458  26.762  1.00  0.00    -0.359 N 
ATOM      9  H3  UNL     1      30.547  -9.960  27.162  1.00  0.00     0.165 HD
HETATM   10  C10 UNL     1      31.292 -11.598  26.077  1.00  0.00     0.128 A 
HETATM   11  C11 UNL     1      30.247 -12.434  25.700  1.00  0.00     0.276 A 
HETATM   12  O4  UNL     1      29.091 -12.110  26.041  1.00  0.00    -0.266 OA
HETATM   13  N4  UNL     1      30.473 -13.558  24.990  1.00  0.00    -0.295 N 
ATOM     14  H4  UNL     1      29.684 -14.149  24.730  1.00  0.00     0.171 HD
ENDROOT
BRANCH   6  15
HETATM   15  C4  UNL     1      34.900 -11.026  25.969  1.00  0.00     0.042 C 
BRANCH  15  16
HETATM   16  C5  UNL     1      35.136 -10.715  24.482  1.00  0.00     0.005 C 
BRANCH  16  17
HETATM   17  C6  UNL     1      36.170 -11.641  23.936  1.00  0.00     0.007 C 
BRANCH  17  18
HETATM   18  C7  UNL     1      36.377 -11.552  22.461  1.00  0.00     0.094 C 
BRANCH  18  19
HETATM   19  C8  UNL     1      36.063 -12.828  21.710  1.00  0.00     0.353 C 
HETATM   20  F1  UNL     1      36.649 -13.851  22.472  1.00  0.00    -0.191 F 
HETATM   21  F2  UNL     1      36.905 -12.759  20.583  1.00  0.00    -0.191 F 
BRANCH  19  22
HETATM   22  P1  UNL     1      34.423 -13.259  21.430  1.00  0.00     0.334 P 
HETATM   23  O1  UNL     1      33.967 -14.677  20.767  1.00  0.00    -0.636 OA
HETATM   24  O2  UNL     1      33.167 -12.253  22.051  1.00  0.00    -0.636 OA
HETATM   25  O3  UNL     1      34.244 -12.491  20.117  1.00  0.00    -0.636 OA
ENDBRANCH  19  22
ENDBRANCH  18  19
ENDBRANCH  17  18
ENDBRANCH  16  17
ENDBRANCH  15  16
ENDBRANCH   6  15
TORSDOF 6
ENDMDL
