MODEL 1
REMARK VINA RESULT: -9.766045544      0.000      0.000
REMARK  6 active torsions:
REMARK  status: ('A' for Active; 'I' for Inactive)
REMARK    1  A    between atoms: C3_6  and  C4_7 
REMARK    2  A    between atoms: C4_7  and  C5_8 
REMARK    3  A    between atoms: C5_8  and  C6_9 
REMARK    4  A    between atoms: C6_9  and  C7_10 
REMARK    5  A    between atoms: C7_10  and  C8_11 
REMARK    6  A    between atoms: C8_11  and  P1_14 
ROOT
HETATM    1  N1  UNL     1      29.422  -6.430  28.867  1.00  0.00    -0.063 NA
HETATM    2  C1  UNL     1      30.677  -6.916  29.315  1.00  0.00     0.195 A 
HETATM    3  N2  UNL     1      31.309  -7.926  28.671  1.00  0.00    -0.328 N 
ATOM      4  H2  UNL     1      30.860  -8.333  27.851  1.00  0.00     0.168 HD
HETATM    5  C2  UNL     1      32.495  -8.420  29.057  1.00  0.00     0.074 A 
HETATM    6  C3  UNL     1      33.337  -9.423  28.590  1.00  0.00    -0.013 A 
HETATM    7  C9  UNL     1      34.421  -9.460  29.412  1.00  0.00     0.098 A 
HETATM    8  N3  UNL     1      34.287  -8.519  30.372  1.00  0.00    -0.359 N 
ATOM      9  H3  UNL     1      34.950  -8.324  31.121  1.00  0.00     0.165 HD
HETATM   10  C10 UNL     1      33.131  -7.893  30.162  1.00  0.00     0.128 A 
HETATM   11  C11 UNL     1      32.480  -6.855  30.820  1.00  0.00     0.276 A 
HETATM   12  O4  UNL     1      33.036  -6.363  31.823  1.00  0.00    -0.266 OA
HETATM   13  N4  UNL     1      31.286  -6.396  30.391  1.00  0.00    -0.295 N 
ATOM     14  H4  UNL     1      30.836  -5.634  30.897  1.00  0.00     0.171 HD
ENDROOT
BRANCH   6  15
HETATM   15  C4  UNL     1      33.012 -10.257  27.377  1.00  0.00     0.042 C 
BRANCH  15  16
HETATM   16  C5  UNL     1      33.575  -9.498  26.164  1.00  0.00     0.005 C 
BRANCH  16  17
HETATM   17  C6  UNL     1      32.704  -9.738  24.978  1.00  0.00     0.007 C 
BRANCH  17  18
HETATM   18  C7  UNL     1      31.509 -10.594  25.238  1.00  0.00     0.094 C 
BRANCH  18  19
HETATM   19  C8  UNL     1      31.179 -11.559  24.120  1.00  0.00     0.353 C 
HETATM   20  F1  UNL     1      31.995 -11.165  23.048  1.00  0.00    -0.191 F 
HETATM   21  F2  UNL     1      29.898 -11.149  23.702  1.00  0.00    -0.191 F 
BRANCH  19  22
HETATM   22  P1  UNL     1      31.414 -13.244  24.364  1.00  0.00     0.334 P 
HETATM   23  O1  UNL     1      32.364 -13.858  25.538  1.00  0.00    -0.636 OA
HETATM   24  O2  UNL     1      30.459 -14.368  23.470  1.00  0.00    -0.636 OA
HETATM   25  O3  UNL     1      32.477 -13.448  23.281  1.00  0.00    -0.636 OA
ENDBRANCH  19  22
ENDBRANCH  18  19
ENDBRANCH  17  18
ENDBRANCH  16  17
ENDBRANCH  15  16
ENDBRANCH   6  15
TORSDOF 6
ENDMDL
