MODEL 7
REMARK VINA RESULT: -8.628887184      4.080      6.992
REMARK  6 active torsions:
REMARK  status: ('A' for Active; 'I' for Inactive)
REMARK    1  A    between atoms: C3_6  and  C4_7 
REMARK    2  A    between atoms: C4_7  and  C5_8 
REMARK    3  A    between atoms: C5_8  and  C6_9 
REMARK    4  A    between atoms: C6_9  and  C7_10 
REMARK    5  A    between atoms: C7_10  and  C8_11 
REMARK    6  A    between atoms: C8_11  and  P1_14 
ROOT
HETATM    1  N1  UNL     1      29.384 -12.338  26.080  1.00  0.00    -0.063 NA
HETATM    2  C1  UNL     1      30.442 -12.632  25.181  1.00  0.00     0.195 A 
HETATM    3  N2  UNL     1      31.485 -11.782  25.023  1.00  0.00    -0.328 N 
ATOM      4  H2  UNL     1      31.494 -10.921  25.568  1.00  0.00     0.168 HD
HETATM    5  C2  UNL     1      32.507 -12.016  24.186  1.00  0.00     0.074 A 
HETATM    6  C3  UNL     1      33.667 -11.332  23.842  1.00  0.00    -0.013 A 
HETATM    7  C9  UNL     1      34.326 -12.086  22.918  1.00  0.00     0.098 A 
HETATM    8  N3  UNL     1      33.620 -13.211  22.675  1.00  0.00    -0.359 N 
ATOM      9  H3  UNL     1      33.878 -13.956  22.027  1.00  0.00     0.165 HD
HETATM   10  C10 UNL     1      32.527 -13.173  23.434  1.00  0.00     0.128 A 
HETATM   11  C11 UNL     1      31.455 -14.043  23.600  1.00  0.00     0.276 A 
HETATM   12  O4  UNL     1      31.452 -15.096  22.930  1.00  0.00    -0.266 OA
HETATM   13  N4  UNL     1      30.452 -13.760  24.455  1.00  0.00    -0.295 N 
ATOM     14  H4  UNL     1      29.680 -14.420  24.552  1.00  0.00     0.171 HD
ENDROOT
BRANCH   6  15
HETATM   15  C4  UNL     1      34.037 -10.003  24.448  1.00  0.00     0.042 C 
BRANCH  15  16
HETATM   16  C5  UNL     1      35.152 -10.284  25.468  1.00  0.00     0.005 C 
BRANCH  16  17
HETATM   17  C6  UNL     1      35.146  -9.227  26.519  1.00  0.00     0.007 C 
BRANCH  17  18
HETATM   18  C7  UNL     1      33.934  -8.357  26.529  1.00  0.00     0.094 C 
BRANCH  18  19
HETATM   19  C8  UNL     1      32.931  -8.698  27.610  1.00  0.00     0.353 C 
HETATM   20  F1  UNL     1      32.168  -9.750  27.079  1.00  0.00    -0.191 F 
HETATM   21  F2  UNL     1      32.032  -7.614  27.575  1.00  0.00    -0.191 F 
BRANCH  19  22
HETATM   22  P1  UNL     1      33.494  -9.190  29.157  1.00  0.00     0.334 P 
HETATM   23  O1  UNL     1      34.206 -10.629  29.439  1.00  0.00    -0.636 OA
HETATM   24  O2  UNL     1      33.504  -8.052  30.454  1.00  0.00    -0.636 OA
HETATM   25  O3  UNL     1      32.145  -9.653  29.714  1.00  0.00    -0.636 OA
ENDBRANCH  19  22
ENDBRANCH  18  19
ENDBRANCH  17  18
ENDBRANCH  16  17
ENDBRANCH  15  16
ENDBRANCH   6  15
TORSDOF 6
ENDMDL
