MODEL 2
REMARK VINA RESULT: -9.690032363      0.502      1.107
REMARK  6 active torsions:
REMARK  status: ('A' for Active; 'I' for Inactive)
REMARK    1  A    between atoms: C3_6  and  C4_7 
REMARK    2  A    between atoms: C4_7  and  C5_8 
REMARK    3  A    between atoms: C5_8  and  C6_9 
REMARK    4  A    between atoms: C6_9  and  C7_10 
REMARK    5  A    between atoms: C7_10  and  C8_11 
REMARK    6  A    between atoms: C8_11  and  P1_14 
ROOT
HETATM    1  N1  UNL     1      29.411  -6.432  28.864  1.00  0.00    -0.063 NA
HETATM    2  C1  UNL     1      30.667  -6.915  29.316  1.00  0.00     0.195 A 
HETATM    3  N2  UNL     1      31.318  -7.901  28.655  1.00  0.00    -0.328 N 
ATOM      4  H2  UNL     1      30.884  -8.293  27.819  1.00  0.00     0.168 HD
HETATM    5  C2  UNL     1      32.505  -8.390  29.044  1.00  0.00     0.074 A 
HETATM    6  C3  UNL     1      33.365  -9.371  28.563  1.00  0.00    -0.013 A 
HETATM    7  C9  UNL     1      34.440  -9.415  29.398  1.00  0.00     0.098 A 
HETATM    8  N3  UNL     1      34.282  -8.500  30.379  1.00  0.00    -0.359 N 
ATOM      9  H3  UNL     1      34.933  -8.315  31.141  1.00  0.00     0.165 HD
HETATM   10  C10 UNL     1      33.121  -7.883  30.170  1.00  0.00     0.128 A 
HETATM   11  C11 UNL     1      32.449  -6.870  30.844  1.00  0.00     0.276 A 
HETATM   12  O4  UNL     1      32.988  -6.395  31.866  1.00  0.00    -0.266 OA
HETATM   13  N4  UNL     1      31.256  -6.414  30.412  1.00  0.00    -0.295 N 
ATOM     14  H4  UNL     1      30.790  -5.670  30.931  1.00  0.00     0.171 HD
ENDROOT
BRANCH   6  15
HETATM   15  C4  UNL     1      33.066 -10.179  27.327  1.00  0.00     0.042 C 
BRANCH  15  16
HETATM   16  C5  UNL     1      33.596  -9.364  26.136  1.00  0.00     0.005 C 
BRANCH  16  17
HETATM   17  C6  UNL     1      32.881  -9.773  24.893  1.00  0.00     0.007 C 
BRANCH  17  18
HETATM   18  C7  UNL     1      31.572 -10.455  25.116  1.00  0.00     0.094 C 
BRANCH  18  19
HETATM   19  C8  UNL     1      31.204 -11.461  24.047  1.00  0.00     0.353 C 
HETATM   20  F1  UNL     1      32.109 -11.226  23.000  1.00  0.00    -0.191 F 
HETATM   21  F2  UNL     1      29.994 -10.959  23.530  1.00  0.00    -0.191 F 
BRANCH  19  22
HETATM   22  P1  UNL     1      31.256 -13.139  24.415  1.00  0.00     0.334 P 
HETATM   23  O1  UNL     1      30.463 -14.273  23.554  1.00  0.00    -0.636 OA
HETATM   24  O2  UNL     1      32.348 -13.705  25.625  1.00  0.00    -0.636 OA
HETATM   25  O3  UNL     1      30.201 -13.125  25.525  1.00  0.00    -0.636 OA
ENDBRANCH  19  22
ENDBRANCH  18  19
ENDBRANCH  17  18
ENDBRANCH  16  17
ENDBRANCH  15  16
ENDBRANCH   6  15
TORSDOF 6
ENDMDL
