MODEL 4
REMARK VINA RESULT: -9.590015205      0.600      1.181
REMARK  6 active torsions:
REMARK  status: ('A' for Active; 'I' for Inactive)
REMARK    1  A    between atoms: C3_6  and  C4_7 
REMARK    2  A    between atoms: C4_7  and  C5_8 
REMARK    3  A    between atoms: C5_8  and  C6_9 
REMARK    4  A    between atoms: C6_9  and  C7_10 
REMARK    5  A    between atoms: C7_10  and  C8_11 
REMARK    6  A    between atoms: C8_11  and  P1_14 
ROOT
HETATM    1  N1  UNL     1      29.415  -6.429  28.924  1.00  0.00    -0.063 NA
HETATM    2  C1  UNL     1      30.677  -6.922  29.346  1.00  0.00     0.195 A 
HETATM    3  N2  UNL     1      31.289  -7.935  28.688  1.00  0.00    -0.328 N 
ATOM      4  H2  UNL     1      30.821  -8.339  27.878  1.00  0.00     0.168 HD
HETATM    5  C2  UNL     1      32.481  -8.435  29.049  1.00  0.00     0.074 A 
HETATM    6  C3  UNL     1      33.308  -9.442  28.564  1.00  0.00    -0.013 A 
HETATM    7  C9  UNL     1      34.409  -9.484  29.364  1.00  0.00     0.098 A 
HETATM    8  N3  UNL     1      34.299  -8.542  30.326  1.00  0.00    -0.359 N 
ATOM      9  H3  UNL     1      34.980  -8.350  31.061  1.00  0.00     0.165 HD
HETATM   10  C10 UNL     1      33.143  -7.910  30.141  1.00  0.00     0.128 A 
HETATM   11  C11 UNL     1      32.511  -6.870  30.812  1.00  0.00     0.276 A 
HETATM   12  O4  UNL     1      33.091  -6.380  31.803  1.00  0.00    -0.266 OA
HETATM   13  N4  UNL     1      31.311  -6.405  30.408  1.00  0.00    -0.295 N 
ATOM     14  H4  UNL     1      30.875  -5.640  30.924  1.00  0.00     0.171 HD
ENDROOT
BRANCH   6  15
HETATM   15  C4  UNL     1      32.954 -10.274  27.360  1.00  0.00     0.042 C 
BRANCH  15  16
HETATM   16  C5  UNL     1      33.412  -9.475  26.129  1.00  0.00     0.005 C 
BRANCH  16  17
HETATM   17  C6  UNL     1      33.122 -10.254  24.891  1.00  0.00     0.007 C 
BRANCH  17  18
HETATM   18  C7  UNL     1      31.695 -10.231  24.453  1.00  0.00     0.094 C 
BRANCH  18  19
HETATM   19  C8  UNL     1      30.986 -11.562  24.571  1.00  0.00     0.353 C 
HETATM   20  F1  UNL     1      29.869 -11.454  23.726  1.00  0.00    -0.191 F 
HETATM   21  F2  UNL     1      30.409 -11.512  25.855  1.00  0.00    -0.191 F 
BRANCH  19  22
HETATM   22  P1  UNL     1      31.822 -13.004  24.151  1.00  0.00     0.334 P 
HETATM   23  O1  UNL     1      32.527 -13.244  22.701  1.00  0.00    -0.636 OA
HETATM   24  O2  UNL     1      32.120 -14.191  25.366  1.00  0.00    -0.636 OA
HETATM   25  O3  UNL     1      30.592 -13.839  23.786  1.00  0.00    -0.636 OA
ENDBRANCH  19  22
ENDBRANCH  18  19
ENDBRANCH  17  18
ENDBRANCH  16  17
ENDBRANCH  15  16
ENDBRANCH   6  15
TORSDOF 6
ENDMDL
