MODEL 3
REMARK VINA RESULT: -9.684352765      1.009      1.236
REMARK  6 active torsions:
REMARK  status: ('A' for Active; 'I' for Inactive)
REMARK    1  A    between atoms: C3_6  and  C4_7 
REMARK    2  A    between atoms: C4_7  and  C5_8 
REMARK    3  A    between atoms: C5_8  and  C6_9 
REMARK    4  A    between atoms: C6_9  and  C7_10 
REMARK    5  A    between atoms: C7_10  and  C8_11 
REMARK    6  A    between atoms: C8_11  and  P1_14 
ROOT
HETATM    1  N1  UNL     1      29.388  -6.392  28.931  1.00  0.00    -0.063 NA
HETATM    2  C1  UNL     1      30.648  -6.876  29.368  1.00  0.00     0.195 A 
HETATM    3  N2  UNL     1      31.289  -7.864  28.700  1.00  0.00    -0.328 N 
ATOM      4  H2  UNL     1      30.845  -8.255  27.869  1.00  0.00     0.168 HD
HETATM    5  C2  UNL     1      32.480  -8.355  29.074  1.00  0.00     0.074 A 
HETATM    6  C3  UNL     1      33.332  -9.338  28.583  1.00  0.00    -0.013 A 
HETATM    7  C9  UNL     1      34.417  -9.384  29.406  1.00  0.00     0.098 A 
HETATM    8  N3  UNL     1      34.272  -8.468  30.388  1.00  0.00    -0.359 N 
ATOM      9  H3  UNL     1      34.933  -8.285  31.142  1.00  0.00     0.165 HD
HETATM   10  C10 UNL     1      33.110  -7.849  30.193  1.00  0.00     0.128 A 
HETATM   11  C11 UNL     1      32.448  -6.834  30.875  1.00  0.00     0.276 A 
HETATM   12  O4  UNL     1      33.000  -6.361  31.890  1.00  0.00    -0.266 OA
HETATM   13  N4  UNL     1      31.251  -6.377  30.457  1.00  0.00    -0.295 N 
ATOM     14  H4  UNL     1      30.793  -5.632  30.981  1.00  0.00     0.171 HD
ENDROOT
BRANCH   6  15
HETATM   15  C4  UNL     1      33.017 -10.145  27.351  1.00  0.00     0.042 C 
BRANCH  15  16
HETATM   16  C5  UNL     1      33.467  -9.299  26.149  1.00  0.00     0.005 C 
BRANCH  16  17
HETATM   17  C6  UNL     1      33.969 -10.194  25.068  1.00  0.00     0.007 C 
BRANCH  17  18
HETATM   18  C7  UNL     1      33.377 -11.564  25.060  1.00  0.00     0.094 C 
BRANCH  18  19
HETATM   19  C8  UNL     1      32.277 -11.762  24.040  1.00  0.00     0.353 C 
HETATM   20  F1  UNL     1      32.878 -12.480  22.994  1.00  0.00    -0.191 F 
HETATM   21  F2  UNL     1      32.114 -10.479  23.483  1.00  0.00    -0.191 F 
BRANCH  19  22
HETATM   22  P1  UNL     1      30.846 -12.599  24.494  1.00  0.00     0.334 P 
HETATM   23  O1  UNL     1      29.704 -11.965  25.469  1.00  0.00    -0.636 OA
HETATM   24  O2  UNL     1      30.475 -14.106  23.741  1.00  0.00    -0.636 OA
HETATM   25  O3  UNL     1      31.462 -13.435  25.619  1.00  0.00    -0.636 OA
ENDBRANCH  19  22
ENDBRANCH  18  19
ENDBRANCH  17  18
ENDBRANCH  16  17
ENDBRANCH  15  16
ENDBRANCH   6  15
TORSDOF 6
ENDMDL
