MODEL 5
REMARK VINA RESULT: -8.985482049      4.260      6.938
REMARK  6 active torsions:
REMARK  status: ('A' for Active; 'I' for Inactive)
REMARK    1  A    between atoms: C3_6  and  C4_7 
REMARK    2  A    between atoms: C4_7  and  C5_8 
REMARK    3  A    between atoms: C5_8  and  C6_9 
REMARK    4  A    between atoms: C6_9  and  C7_10 
REMARK    5  A    between atoms: C7_10  and  C8_11 
REMARK    6  A    between atoms: C8_11  and  P1_14 
ROOT
HETATM    1  N1  UNL     1      29.195 -12.296  26.305  1.00  0.00    -0.063 NA
HETATM    2  C1  UNL     1      30.289 -12.490  25.423  1.00  0.00     0.195 A 
HETATM    3  N2  UNL     1      31.285 -11.576  25.330  1.00  0.00    -0.328 N 
ATOM      4  H2  UNL     1      31.232 -10.740  25.912  1.00  0.00     0.168 HD
HETATM    5  C2  UNL     1      32.338 -11.715  24.511  1.00  0.00     0.074 A 
HETATM    6  C3  UNL     1      33.465 -10.951  24.228  1.00  0.00    -0.013 A 
HETATM    7  C9  UNL     1      34.188 -11.624  23.291  1.00  0.00     0.098 A 
HETATM    8  N3  UNL     1      33.554 -12.776  22.980  1.00  0.00    -0.359 N 
ATOM      9  H3  UNL     1      33.870 -13.475  22.308  1.00  0.00     0.165 HD
HETATM   10  C10 UNL     1      32.443 -12.834  23.710  1.00  0.00     0.128 A 
HETATM   11  C11 UNL     1      31.419 -13.769  23.810  1.00  0.00     0.276 A 
HETATM   12  O4  UNL     1      31.493 -14.790  23.095  1.00  0.00    -0.266 OA
HETATM   13  N4  UNL     1      30.381 -13.581  24.649  1.00  0.00    -0.295 N 
ATOM     14  H4  UNL     1      29.647 -14.287  24.697  1.00  0.00     0.171 HD
ENDROOT
BRANCH   6  15
HETATM   15  C4  UNL     1      33.743  -9.632  24.901  1.00  0.00     0.042 C 
BRANCH  15  16
HETATM   16  C5  UNL     1      35.053  -9.811  25.686  1.00  0.00     0.005 C 
BRANCH  16  17
HETATM   17  C6  UNL     1      34.746 -10.251  27.077  1.00  0.00     0.007 C 
BRANCH  17  18
HETATM   18  C7  UNL     1      34.734  -9.158  28.093  1.00  0.00     0.094 C 
BRANCH  18  19
HETATM   19  C8  UNL     1      33.576  -9.225  29.066  1.00  0.00     0.353 C 
HETATM   20  F1  UNL     1      33.929  -8.355  30.110  1.00  0.00    -0.191 F 
HETATM   21  F2  UNL     1      33.720 -10.495  29.658  1.00  0.00    -0.191 F 
BRANCH  19  22
HETATM   22  P1  UNL     1      32.001  -8.790  28.534  1.00  0.00     0.334 P 
HETATM   23  O1  UNL     1      31.144  -9.660  27.454  1.00  0.00    -0.636 OA
HETATM   24  O2  UNL     1      31.178  -7.486  29.308  1.00  0.00    -0.636 OA
HETATM   25  O3  UNL     1      32.431  -7.757  27.488  1.00  0.00    -0.636 OA
ENDBRANCH  19  22
ENDBRANCH  18  19
ENDBRANCH  17  18
ENDBRANCH  16  17
ENDBRANCH  15  16
ENDBRANCH   6  15
TORSDOF 6
ENDMDL
