MODEL 4
REMARK VINA RESULT: -11.094430988      0.867      1.399
REMARK  5 active torsions:
REMARK  status: ('A' for Active; 'I' for Inactive)
REMARK    1  A    between atoms: S1_2  and  N1_4 
REMARK    2  A    between atoms: S1_2  and  C16_26 
REMARK    3  A    between atoms: N1_4  and  C1_6 
REMARK    4  A    between atoms: C4_10  and  O3_11 
REMARK    5  A    between atoms: O3_11  and  C5_12 
ROOT
HETATM    1  C1  UNL     1       5.279   7.450  25.208  1.00  0.00     0.046 A 
HETATM    2  C2  UNL     1       6.440   7.650  25.911  1.00  0.00     0.057 A 
HETATM    3  C3  UNL     1       6.983   8.910  25.994  1.00  0.00     0.071 A 
HETATM    4 CL1  UNL     1       8.439   9.103  26.942  1.00  0.00    -0.081 Cl
HETATM    5  C4  UNL     1       6.362  10.003  25.366  1.00  0.00     0.119 A 
HETATM    6  C14 UNL     1       5.198   9.823  24.656  1.00  0.00     0.071 A 
HETATM    7 CL2  UNL     1       4.362  11.136  23.853  1.00  0.00    -0.081 Cl
HETATM    8  C15 UNL     1       4.667   8.546  24.584  1.00  0.00     0.057 A 
ENDROOT
BRANCH   1   9
HETATM    9  N1  UNL     1       4.695   6.185  25.028  1.00  0.00    -0.280 N 
ATOM     10  H1  UNL     1       4.007   6.138  24.277  1.00  0.00     0.179 HD
BRANCH   9  11
HETATM   11  S1  UNL     1       4.940   4.735  25.843  1.00  0.00     0.264 S 
HETATM   12  O1  UNL     1       3.980   3.655  25.354  1.00  0.00    -0.200 OA
HETATM   13  O2  UNL     1       6.310   4.134  25.540  1.00  0.00    -0.200 OA
BRANCH  11  14
HETATM   14  C16 UNL     1       4.800   4.786  27.583  1.00  0.00     0.101 A 
HETATM   15  C17 UNL     1       5.960   4.712  28.368  1.00  0.00     0.029 A 
HETATM   16  C18 UNL     1       5.934   4.707  29.738  1.00  0.00     0.025 A 
HETATM   17  C19 UNL     1       4.747   4.774  30.436  1.00  0.00     0.035 A 
HETATM   18 CL3  UNL     1       4.698   4.767  32.181  1.00  0.00    -0.084 Cl
HETATM   19  C20 UNL     1       3.605   4.847  29.675  1.00  0.00     0.049 A 
HETATM   20  C21 UNL     1       3.619   4.855  28.276  1.00  0.00     0.059 A 
HETATM   21 CL4  UNL     1       2.102   5.002  27.441  1.00  0.00    -0.083 Cl
ENDBRANCH  11  14
ENDBRANCH   9  11
ENDBRANCH   1   9
BRANCH   5  22
HETATM   22  O3  UNL     1       6.934  11.238  25.466  1.00  0.00    -0.306 OA
BRANCH  22  23
HETATM   23  C5  UNL     1       6.482  12.234  26.314  1.00  0.00     0.092 A 
HETATM   24  C6  UNL     1       5.967  11.875  27.565  1.00  0.00     0.125 A 
HETATM   25  N2  UNL     1       5.515  12.796  28.420  1.00  0.00    -0.363 N 
HETATM   26  C7  UNL     1       5.540  14.103  28.106  1.00  0.00     0.042 A 
ATOM     27  H2  UNL     1       5.144  12.503  29.325  1.00  0.00     0.165 HD
HETATM   28  C8  UNL     1       5.071  15.056  28.994  1.00  0.00     0.030 A 
HETATM   29  C12 UNL     1       6.031  14.540  26.898  1.00  0.00    -0.007 A 
HETATM   30  C9  UNL     1       5.080  16.410  28.709  1.00  0.00     0.002 A 
HETATM   31  C10 UNL     1       5.578  16.832  27.486  1.00  0.00     0.001 A 
HETATM   32  C11 UNL     1       6.051  15.884  26.587  1.00  0.00     0.014 A 
HETATM   33  C13 UNL     1       6.504  13.572  26.004  1.00  0.00     0.052 A 
ENDBRANCH  22  23
ENDBRANCH   5  22
TORSDOF 5
ENDMDL
