MODEL 1
REMARK VINA RESULT: -11.565310233      0.000      0.000
REMARK  5 active torsions:
REMARK  status: ('A' for Active; 'I' for Inactive)
REMARK    1  A    between atoms: S1_2  and  N1_4 
REMARK    2  A    between atoms: S1_2  and  C16_26 
REMARK    3  A    between atoms: N1_4  and  C1_6 
REMARK    4  A    between atoms: C4_10  and  O3_11 
REMARK    5  A    between atoms: O3_11  and  C5_12 
ROOT
HETATM    1  C1  UNL     1       5.096   7.590  25.186  1.00  0.00     0.046 A 
HETATM    2  C2  UNL     1       6.306   7.810  25.795  1.00  0.00     0.057 A 
HETATM    3  C3  UNL     1       6.919   9.035  25.679  1.00  0.00     0.071 A 
HETATM    4 CL1  UNL     1       8.437   9.262  26.516  1.00  0.00    -0.081 Cl
HETATM    5  C4  UNL     1       6.322  10.070  24.942  1.00  0.00     0.119 A 
HETATM    6  C14 UNL     1       5.109   9.869  24.324  1.00  0.00     0.071 A 
HETATM    7 CL2  UNL     1       4.299  11.114  23.394  1.00  0.00    -0.081 Cl
HETATM    8  C15 UNL     1       4.508   8.629  24.452  1.00  0.00     0.057 A 
ENDROOT
BRANCH   1   9
HETATM    9  N1  UNL     1       4.436   6.350  25.209  1.00  0.00    -0.280 N 
ATOM     10  H1  UNL     1       3.568   6.321  24.674  1.00  0.00     0.179 HD
BRANCH   9  11
HETATM   11  S1  UNL     1       4.837   4.905  25.969  1.00  0.00     0.264 S 
HETATM   12  O1  UNL     1       3.957   3.759  25.480  1.00  0.00    -0.200 OA
HETATM   13  O2  UNL     1       6.242   4.436  25.602  1.00  0.00    -0.200 OA
BRANCH  11  14
HETATM   14  C16 UNL     1       4.756   4.894  27.714  1.00  0.00     0.101 A 
HETATM   15  C17 UNL     1       5.944   4.831  28.456  1.00  0.00     0.029 A 
HETATM   16  C18 UNL     1       5.966   4.779  29.825  1.00  0.00     0.025 A 
HETATM   17  C19 UNL     1       4.802   4.786  30.564  1.00  0.00     0.035 A 
HETATM   18 CL3  UNL     1       4.815   4.720  32.310  1.00  0.00    -0.084 Cl
HETATM   19  C20 UNL     1       3.633   4.849  29.846  1.00  0.00     0.049 A 
HETATM   20  C21 UNL     1       3.598   4.903  28.449  1.00  0.00     0.059 A 
HETATM   21 CL4  UNL     1       2.049   5.030  27.670  1.00  0.00    -0.083 Cl
ENDBRANCH  11  14
ENDBRANCH   9  11
ENDBRANCH   1   9
BRANCH   5  22
HETATM   22  O3  UNL     1       6.963  11.271  24.844  1.00  0.00    -0.306 OA
BRANCH  22  23
HETATM   23  C5  UNL     1       6.750  12.334  25.703  1.00  0.00     0.092 A 
HETATM   24  C6  UNL     1       6.931  13.638  25.224  1.00  0.00     0.125 A 
HETATM   25  N2  UNL     1       6.742  14.700  26.012  1.00  0.00    -0.363 N 
HETATM   26  C7  UNL     1       6.369  14.551  27.295  1.00  0.00     0.042 A 
ATOM     27  H2  UNL     1       6.882  15.637  25.634  1.00  0.00     0.165 HD
HETATM   28  C8  UNL     1       6.174  15.653  28.110  1.00  0.00     0.030 A 
HETATM   29  C12 UNL     1       6.170  13.306  27.843  1.00  0.00    -0.007 A 
HETATM   30  C9  UNL     1       5.791  15.544  29.435  1.00  0.00     0.002 A 
HETATM   31  C10 UNL     1       5.594  14.280  29.970  1.00  0.00     0.001 A 
HETATM   32  C11 UNL     1       5.788  13.167  29.162  1.00  0.00     0.014 A 
HETATM   33  C13 UNL     1       6.369  12.195  27.016  1.00  0.00     0.052 A 
ENDBRANCH  22  23
ENDBRANCH   5  22
TORSDOF 5
ENDMDL
