MODEL 2
REMARK VINA RESULT: -11.542594493      0.093      1.645
REMARK  5 active torsions:
REMARK  status: ('A' for Active; 'I' for Inactive)
REMARK    1  A    between atoms: S1_2  and  N1_4 
REMARK    2  A    between atoms: S1_2  and  C16_26 
REMARK    3  A    between atoms: N1_4  and  C1_6 
REMARK    4  A    between atoms: C4_10  and  O3_11 
REMARK    5  A    between atoms: O3_11  and  C5_12 
ROOT
HETATM    1  C1  UNL     1       4.926   7.628  25.089  1.00  0.00     0.046 A 
HETATM    2  C2  UNL     1       4.401   8.671  24.370  1.00  0.00     0.057 A 
HETATM    3  C3  UNL     1       5.081   9.862  24.293  1.00  0.00     0.071 A 
HETATM    4 CL1  UNL     1       4.377  11.136  23.323  1.00  0.00    -0.081 Cl
HETATM    5  C4  UNL     1       6.315  10.028  24.944  1.00  0.00     0.119 A 
HETATM    6  C14 UNL     1       6.859   8.994  25.670  1.00  0.00     0.071 A 
HETATM    7 CL2  UNL     1       8.395   9.123  26.502  1.00  0.00    -0.081 Cl
HETATM    8  C15 UNL     1       6.158   7.802  25.736  1.00  0.00     0.057 A 
ENDROOT
BRANCH   1   9
HETATM    9  N1  UNL     1       4.264   6.401  25.264  1.00  0.00    -0.280 N 
ATOM     10  H1  UNL     1       3.318   6.371  24.883  1.00  0.00     0.179 HD
BRANCH   9  11
HETATM   11  S1  UNL     1       4.769   4.974  25.995  1.00  0.00     0.264 S 
HETATM   12  O1  UNL     1       3.953   3.781  25.505  1.00  0.00    -0.200 OA
HETATM   13  O2  UNL     1       6.193   4.599  25.594  1.00  0.00    -0.200 OA
BRANCH  11  14
HETATM   14  C16 UNL     1       4.724   4.934  27.741  1.00  0.00     0.101 A 
HETATM   15  C17 UNL     1       5.928   4.907  28.459  1.00  0.00     0.029 A 
HETATM   16  C18 UNL     1       5.979   4.836  29.826  1.00  0.00     0.025 A 
HETATM   17  C19 UNL     1       4.831   4.786  30.588  1.00  0.00     0.035 A 
HETATM   18 CL3  UNL     1       4.882   4.694  32.331  1.00  0.00    -0.084 Cl
HETATM   19  C20 UNL     1       3.647   4.813  29.893  1.00  0.00     0.049 A 
HETATM   20  C21 UNL     1       3.581   4.886  28.498  1.00  0.00     0.059 A 
HETATM   21 CL4  UNL     1       2.013   4.963  27.752  1.00  0.00    -0.083 Cl
ENDBRANCH  11  14
ENDBRANCH   9  11
ENDBRANCH   1   9
BRANCH   5  22
HETATM   22  O3  UNL     1       6.959  11.228  24.849  1.00  0.00    -0.306 OA
BRANCH  22  23
HETATM   23  C5  UNL     1       6.746  12.291  25.708  1.00  0.00     0.092 A 
HETATM   24  C6  UNL     1       6.909  13.595  25.225  1.00  0.00     0.125 A 
HETATM   25  N2  UNL     1       6.719  14.656  26.013  1.00  0.00    -0.363 N 
HETATM   26  C7  UNL     1       6.363  14.507  27.302  1.00  0.00     0.042 A 
ATOM     27  H2  UNL     1       6.846  15.594  25.632  1.00  0.00     0.165 HD
HETATM   28  C8  UNL     1       6.167  15.608  28.116  1.00  0.00     0.030 A 
HETATM   29  C12 UNL     1       6.182  13.261  27.854  1.00  0.00    -0.007 A 
HETATM   30  C9  UNL     1       5.801  15.497  29.446  1.00  0.00     0.002 A 
HETATM   31  C10 UNL     1       5.622  14.233  29.986  1.00  0.00     0.001 A 
HETATM   32  C11 UNL     1       5.817  13.120  29.177  1.00  0.00     0.014 A 
HETATM   33  C13 UNL     1       6.382  12.150  27.025  1.00  0.00     0.052 A 
ENDBRANCH  22  23
ENDBRANCH   5  22
TORSDOF 5
ENDMDL
