MODEL 5
REMARK VINA RESULT: -10.562957368      1.287      2.314
REMARK  5 active torsions:
REMARK  status: ('A' for Active; 'I' for Inactive)
REMARK    1  A    between atoms: S1_2  and  N1_4 
REMARK    2  A    between atoms: S1_2  and  C16_26 
REMARK    3  A    between atoms: N1_4  and  C1_6 
REMARK    4  A    between atoms: C4_10  and  O3_11 
REMARK    5  A    between atoms: O3_11  and  C5_12 
ROOT
HETATM    1  C1  UNL     1       5.240   7.391  25.176  1.00  0.00     0.046 A 
HETATM    2  C2  UNL     1       4.294   8.315  24.811  1.00  0.00     0.057 A 
HETATM    3  C3  UNL     1       4.604   9.653  24.819  1.00  0.00     0.071 A 
HETATM    4 CL1  UNL     1       3.367  10.774  24.301  1.00  0.00    -0.081 Cl
HETATM    5  C4  UNL     1       5.884  10.092  25.198  1.00  0.00     0.119 A 
HETATM    6  C14 UNL     1       6.846   9.181  25.567  1.00  0.00     0.071 A 
HETATM    7 CL2  UNL     1       8.465   9.650  26.044  1.00  0.00    -0.081 Cl
HETATM    8  C15 UNL     1       6.515   7.837  25.553  1.00  0.00     0.057 A 
ENDROOT
BRANCH   1   9
HETATM    9  N1  UNL     1       4.983   6.011  25.249  1.00  0.00    -0.280 N 
ATOM     10  H1  UNL     1       5.577   5.436  24.652  1.00  0.00     0.179 HD
BRANCH   9  11
HETATM   11  S1  UNL     1       3.860   5.149  26.156  1.00  0.00     0.264 S 
HETATM   12  O1  UNL     1       2.467   5.760  26.040  1.00  0.00    -0.200 OA
HETATM   13  O2  UNL     1       3.657   3.735  25.620  1.00  0.00    -0.200 OA
BRANCH  11  14
HETATM   14  C16 UNL     1       4.199   4.984  27.862  1.00  0.00     0.101 A 
HETATM   15  C17 UNL     1       3.137   5.000  28.777  1.00  0.00     0.029 A 
HETATM   16  C18 UNL     1       3.319   4.915  30.133  1.00  0.00     0.025 A 
HETATM   17  C19 UNL     1       4.579   4.809  30.684  1.00  0.00     0.035 A 
HETATM   18 CL3  UNL     1       4.827   4.701  32.409  1.00  0.00    -0.084 Cl
HETATM   19  C20 UNL     1       5.625   4.792  29.794  1.00  0.00     0.049 A 
HETATM   20  C21 UNL     1       5.451   4.876  28.409  1.00  0.00     0.059 A 
HETATM   21 CL4  UNL     1       6.862   4.793  27.398  1.00  0.00    -0.083 Cl
ENDBRANCH  11  14
ENDBRANCH   9  11
ENDBRANCH   1   9
BRANCH   5  22
HETATM   22  O3  UNL     1       6.153  11.430  25.200  1.00  0.00    -0.306 OA
BRANCH  22  23
HETATM   23  C5  UNL     1       6.241  12.200  26.346  1.00  0.00     0.092 A 
HETATM   24  C6  UNL     1       6.505  13.570  26.221  1.00  0.00     0.125 A 
HETATM   25  N2  UNL     1       6.604  14.358  27.295  1.00  0.00    -0.363 N 
HETATM   26  C7  UNL     1       6.452  13.861  28.535  1.00  0.00     0.042 A 
ATOM     27  H2  UNL     1       6.798  15.353  27.172  1.00  0.00     0.165 HD
HETATM   28  C8  UNL     1       6.554  14.680  29.646  1.00  0.00     0.030 A 
HETATM   29  C12 UNL     1       6.190  12.527  28.744  1.00  0.00    -0.007 A 
HETATM   30  C9  UNL     1       6.405  14.208  30.938  1.00  0.00     0.002 A 
HETATM   31  C10 UNL     1       6.141  12.860  31.129  1.00  0.00     0.001 A 
HETATM   32  C11 UNL     1       6.036  12.029  30.022  1.00  0.00     0.014 A 
HETATM   33  C13 UNL     1       6.087  11.703  27.617  1.00  0.00     0.052 A 
ENDBRANCH  22  23
ENDBRANCH   5  22
TORSDOF 5
ENDMDL
