MODEL 10
REMARK VINA RESULT: -9.202916796      3.030      4.868
REMARK  5 active torsions:
REMARK  status: ('A' for Active; 'I' for Inactive)
REMARK    1  A    between atoms: S1_2  and  N1_4 
REMARK    2  A    between atoms: S1_2  and  C16_26 
REMARK    3  A    between atoms: N1_4  and  C1_6 
REMARK    4  A    between atoms: C4_10  and  O3_11 
REMARK    5  A    between atoms: O3_11  and  C5_12 
ROOT
HETATM    1  C1  UNL     1       5.762   7.630  25.266  1.00  0.00     0.046 A 
HETATM    2  C2  UNL     1       4.590   7.857  24.590  1.00  0.00     0.057 A 
HETATM    3  C3  UNL     1       4.257   9.134  24.206  1.00  0.00     0.071 A 
HETATM    4 CL1  UNL     1       2.771   9.347  23.309  1.00  0.00    -0.081 Cl
HETATM    5  C4  UNL     1       5.103  10.216  24.499  1.00  0.00     0.119 A 
HETATM    6  C14 UNL     1       6.282  10.009  25.176  1.00  0.00     0.071 A 
HETATM    7 CL2  UNL     1       7.392  11.306  25.569  1.00  0.00    -0.081 Cl
HETATM    8  C15 UNL     1       6.601   8.716  25.554  1.00  0.00     0.057 A 
ENDROOT
BRANCH   1   9
HETATM    9  N1  UNL     1       6.145   6.364  25.743  1.00  0.00    -0.280 N 
ATOM     10  H1  UNL     1       7.150   6.194  25.736  1.00  0.00     0.179 HD
BRANCH   9  11
HETATM   11  S1  UNL     1       5.223   5.084  26.323  1.00  0.00     0.264 S 
HETATM   12  O1  UNL     1       3.818   5.098  25.729  1.00  0.00    -0.200 OA
HETATM   13  O2  UNL     1       5.770   3.733  25.869  1.00  0.00    -0.200 OA
BRANCH  11  14
HETATM   14  C16 UNL     1       5.037   4.980  28.057  1.00  0.00     0.101 A 
HETATM   15  C17 UNL     1       6.180   4.952  28.869  1.00  0.00     0.029 A 
HETATM   16  C18 UNL     1       6.122   4.833  30.233  1.00  0.00     0.025 A 
HETATM   17  C19 UNL     1       4.917   4.732  30.896  1.00  0.00     0.035 A 
HETATM   18 CL3  UNL     1       4.829   4.579  32.633  1.00  0.00    -0.084 Cl
HETATM   19  C20 UNL     1       3.793   4.759  30.108  1.00  0.00     0.049 A 
HETATM   20  C21 UNL     1       3.839   4.882  28.716  1.00  0.00     0.059 A 
HETATM   21 CL4  UNL     1       2.335   4.953  27.847  1.00  0.00    -0.083 Cl
ENDBRANCH  11  14
ENDBRANCH   9  11
ENDBRANCH   1   9
BRANCH   5  22
HETATM   22  O3  UNL     1       4.735  11.470  24.107  1.00  0.00    -0.306 OA
BRANCH  22  23
HETATM   23  C5  UNL     1       5.017  12.006  22.862  1.00  0.00     0.092 A 
HETATM   24  C6  UNL     1       6.096  12.889  22.734  1.00  0.00     0.125 A 
HETATM   25  N2  UNL     1       6.409  13.436  21.557  1.00  0.00    -0.363 N 
HETATM   26  C7  UNL     1       5.695  13.157  20.452  1.00  0.00     0.042 A 
ATOM     27  H2  UNL     1       7.201  14.076  21.495  1.00  0.00     0.165 HD
HETATM   28  C8  UNL     1       6.021  13.726  19.233  1.00  0.00     0.030 A 
HETATM   29  C12 UNL     1       4.620  12.300  20.492  1.00  0.00    -0.007 A 
HETATM   30  C9  UNL     1       5.312  13.465  18.074  1.00  0.00     0.002 A 
HETATM   31  C10 UNL     1       4.231  12.599  18.133  1.00  0.00     0.001 A 
HETATM   32  C11 UNL     1       3.895  12.022  19.352  1.00  0.00     0.014 A 
HETATM   33  C13 UNL     1       4.294  11.728  21.727  1.00  0.00     0.052 A 
ENDBRANCH  22  23
ENDBRANCH   5  22
TORSDOF 5
ENDMDL
