MODEL 9
REMARK VINA RESULT: -9.323582688      3.022      4.682
REMARK  5 active torsions:
REMARK  status: ('A' for Active; 'I' for Inactive)
REMARK    1  A    between atoms: S1_2  and  N1_4 
REMARK    2  A    between atoms: S1_2  and  C16_26 
REMARK    3  A    between atoms: N1_4  and  C1_6 
REMARK    4  A    between atoms: C4_10  and  O3_11 
REMARK    5  A    between atoms: O3_11  and  C5_12 
ROOT
HETATM    1  C1  UNL     1       5.832   7.596  25.358  1.00  0.00     0.046 A 
HETATM    2  C2  UNL     1       6.625   8.686  25.612  1.00  0.00     0.057 A 
HETATM    3  C3  UNL     1       6.223   9.936  25.208  1.00  0.00     0.071 A 
HETATM    4 CL1  UNL     1       7.260  11.287  25.603  1.00  0.00    -0.081 Cl
HETATM    5  C4  UNL     1       5.004  10.116  24.534  1.00  0.00     0.119 A 
HETATM    6  C14 UNL     1       4.194   9.036  24.269  1.00  0.00     0.071 A 
HETATM    7 CL2  UNL     1       2.658   9.181  23.441  1.00  0.00    -0.081 Cl
HETATM    8  C15 UNL     1       4.617   7.784  24.684  1.00  0.00     0.057 A 
ENDROOT
BRANCH   1   9
HETATM    9  N1  UNL     1       6.200   6.280  25.686  1.00  0.00    -0.280 N 
ATOM     10  H1  UNL     1       7.183   6.061  25.523  1.00  0.00     0.179 HD
BRANCH   9  11
HETATM   11  S1  UNL     1       5.293   5.007  26.304  1.00  0.00     0.264 S 
HETATM   12  O1  UNL     1       3.892   4.981  25.702  1.00  0.00    -0.200 OA
HETATM   13  O2  UNL     1       5.862   3.650  25.900  1.00  0.00    -0.200 OA
BRANCH  11  14
HETATM   14  C16 UNL     1       5.098   4.960  28.039  1.00  0.00     0.101 A 
HETATM   15  C17 UNL     1       6.235   4.989  28.860  1.00  0.00     0.029 A 
HETATM   16  C18 UNL     1       6.170   4.917  30.226  1.00  0.00     0.025 A 
HETATM   17  C19 UNL     1       4.964   4.808  30.885  1.00  0.00     0.035 A 
HETATM   18 CL3  UNL     1       4.867   4.714  32.626  1.00  0.00    -0.084 Cl
HETATM   19  C20 UNL     1       3.845   4.779  30.090  1.00  0.00     0.049 A 
HETATM   20  C21 UNL     1       3.898   4.854  28.694  1.00  0.00     0.059 A 
HETATM   21 CL4  UNL     1       2.399   4.856  27.814  1.00  0.00    -0.083 Cl
ENDBRANCH  11  14
ENDBRANCH   9  11
ENDBRANCH   1   9
BRANCH   5  22
HETATM   22  O3  UNL     1       4.641  11.372  24.143  1.00  0.00    -0.306 OA
BRANCH  22  23
HETATM   23  C5  UNL     1       4.898  11.897  22.889  1.00  0.00     0.092 A 
HETATM   24  C6  UNL     1       5.960  12.797  22.737  1.00  0.00     0.125 A 
HETATM   25  N2  UNL     1       6.250  13.335  21.549  1.00  0.00    -0.363 N 
HETATM   26  C7  UNL     1       5.528  13.029  20.456  1.00  0.00     0.042 A 
ATOM     27  H2  UNL     1       7.029  13.988  21.470  1.00  0.00     0.165 HD
HETATM   28  C8  UNL     1       5.829  13.588  19.227  1.00  0.00     0.030 A 
HETATM   29  C12 UNL     1       4.470  12.153  20.520  1.00  0.00    -0.007 A 
HETATM   30  C9  UNL     1       5.113  13.300  18.079  1.00  0.00     0.002 A 
HETATM   31  C10 UNL     1       4.049  12.415  18.162  1.00  0.00     0.001 A 
HETATM   32  C11 UNL     1       3.736  11.848  19.391  1.00  0.00     0.014 A 
HETATM   33  C13 UNL     1       4.168  11.591  21.766  1.00  0.00     0.052 A 
ENDBRANCH  22  23
ENDBRANCH   5  22
TORSDOF 5
ENDMDL
