MODEL 3
REMARK VINA RESULT: -11.200941823      0.855      2.150
REMARK  5 active torsions:
REMARK  status: ('A' for Active; 'I' for Inactive)
REMARK    1  A    between atoms: S1_2  and  N1_4 
REMARK    2  A    between atoms: S1_2  and  C16_26 
REMARK    3  A    between atoms: N1_4  and  C1_6 
REMARK    4  A    between atoms: C4_10  and  O3_11 
REMARK    5  A    between atoms: O3_11  and  C5_12 
ROOT
HETATM    1  C1  UNL     1       5.112   7.493  25.096  1.00  0.00     0.046 A 
HETATM    2  C2  UNL     1       4.573   8.592  24.476  1.00  0.00     0.057 A 
HETATM    3  C3  UNL     1       5.184   9.816  24.597  1.00  0.00     0.071 A 
HETATM    4 CL1  UNL     1       4.470  11.166  23.746  1.00  0.00    -0.081 Cl
HETATM    5  C4  UNL     1       6.361   9.961  25.352  1.00  0.00     0.119 A 
HETATM    6  C14 UNL     1       6.917   8.871  25.981  1.00  0.00     0.071 A 
HETATM    7 CL2  UNL     1       8.385   8.970  26.931  1.00  0.00    -0.081 Cl
HETATM    8  C15 UNL     1       6.286   7.646  25.847  1.00  0.00     0.057 A 
ENDROOT
BRANCH   1   9
HETATM    9  N1  UNL     1       4.515   6.221  25.068  1.00  0.00    -0.280 N 
ATOM     10  H1  UNL     1       3.701   6.148  24.457  1.00  0.00     0.179 HD
BRANCH   9  11
HETATM   11  S1  UNL     1       4.916   4.800  25.872  1.00  0.00     0.264 S 
HETATM   12  O1  UNL     1       4.062   3.631  25.391  1.00  0.00    -0.200 OA
HETATM   13  O2  UNL     1       6.335   4.341  25.547  1.00  0.00    -0.200 OA
BRANCH  11  14
HETATM   14  C16 UNL     1       4.797   4.830  27.614  1.00  0.00     0.101 A 
HETATM   15  C17 UNL     1       5.968   4.785  28.384  1.00  0.00     0.029 A 
HETATM   16  C18 UNL     1       5.960   4.766  29.754  1.00  0.00     0.025 A 
HETATM   17  C19 UNL     1       4.780   4.789  30.466  1.00  0.00     0.035 A 
HETATM   18 CL3  UNL     1       4.754   4.764  32.213  1.00  0.00    -0.084 Cl
HETATM   19  C20 UNL     1       3.627   4.834  29.721  1.00  0.00     0.049 A 
HETATM   20  C21 UNL     1       3.623   4.856  28.322  1.00  0.00     0.059 A 
HETATM   21 CL4  UNL     1       2.092   4.963  27.507  1.00  0.00    -0.083 Cl
ENDBRANCH  11  14
ENDBRANCH   9  11
ENDBRANCH   1   9
BRANCH   5  22
HETATM   22  O3  UNL     1       6.936  11.193  25.454  1.00  0.00    -0.306 OA
BRANCH  22  23
HETATM   23  C5  UNL     1       6.484  12.191  26.299  1.00  0.00     0.092 A 
HETATM   24  C6  UNL     1       5.950  11.834  27.544  1.00  0.00     0.125 A 
HETATM   25  N2  UNL     1       5.497  12.756  28.396  1.00  0.00    -0.363 N 
HETATM   26  C7  UNL     1       5.538  14.065  28.086  1.00  0.00     0.042 A 
ATOM     27  H2  UNL     1       5.113  12.465  29.295  1.00  0.00     0.165 HD
HETATM   28  C8  UNL     1       5.068  15.019  28.971  1.00  0.00     0.030 A 
HETATM   29  C12 UNL     1       6.048  14.500  26.885  1.00  0.00    -0.007 A 
HETATM   30  C9  UNL     1       5.093  16.374  28.690  1.00  0.00     0.002 A 
HETATM   31  C10 UNL     1       5.610  16.794  27.475  1.00  0.00     0.001 A 
HETATM   32  C11 UNL     1       6.085  15.845  26.579  1.00  0.00     0.014 A 
HETATM   33  C13 UNL     1       6.522  13.530  25.994  1.00  0.00     0.052 A 
ENDBRANCH  22  23
ENDBRANCH   5  22
TORSDOF 5
ENDMDL
