MODEL 11
REMARK VINA RESULT: -8.979498894      3.100      5.006
REMARK  5 active torsions:
REMARK  status: ('A' for Active; 'I' for Inactive)
REMARK    1  A    between atoms: S1_2  and  N1_4 
REMARK    2  A    between atoms: S1_2  and  C16_26 
REMARK    3  A    between atoms: N1_4  and  C1_6 
REMARK    4  A    between atoms: C4_10  and  O3_11 
REMARK    5  A    between atoms: O3_11  and  C5_12 
ROOT
HETATM    1  C1  UNL     1       5.206   7.621  25.089  1.00  0.00     0.046 A 
HETATM    2  C2  UNL     1       4.073   8.204  24.578  1.00  0.00     0.057 A 
HETATM    3  C3  UNL     1       4.067   9.546  24.283  1.00  0.00     0.071 A 
HETATM    4 CL1  UNL     1       2.606  10.216  23.594  1.00  0.00    -0.081 Cl
HETATM    5  C4  UNL     1       5.209  10.335  24.499  1.00  0.00     0.119 A 
HETATM    6  C14 UNL     1       6.354   9.769  25.010  1.00  0.00     0.071 A 
HETATM    7 CL2  UNL     1       7.819  10.685  25.298  1.00  0.00    -0.081 Cl
HETATM    8  C15 UNL     1       6.341   8.416  25.301  1.00  0.00     0.057 A 
ENDROOT
BRANCH   1   9
HETATM    9  N1  UNL     1       5.273   6.270  25.470  1.00  0.00    -0.280 N 
ATOM     10  H1  UNL     1       6.148   5.804  25.229  1.00  0.00     0.179 HD
BRANCH   9  11
HETATM   11  S1  UNL     1       4.154   5.293  26.257  1.00  0.00     0.264 S 
HETATM   12  O1  UNL     1       2.734   5.822  26.078  1.00  0.00    -0.200 OA
HETATM   13  O2  UNL     1       4.077   3.899  25.639  1.00  0.00    -0.200 OA
BRANCH  11  14
HETATM   14  C16 UNL     1       4.394   5.058  27.971  1.00  0.00     0.101 A 
HETATM   15  C17 UNL     1       3.277   4.937  28.810  1.00  0.00     0.029 A 
HETATM   16  C18 UNL     1       3.378   4.790  30.169  1.00  0.00     0.025 A 
HETATM   17  C19 UNL     1       4.604   4.752  30.799  1.00  0.00     0.035 A 
HETATM   18 CL3  UNL     1       4.748   4.565  32.530  1.00  0.00    -0.084 Cl
HETATM   19  C20 UNL     1       5.703   4.869  29.984  1.00  0.00     0.049 A 
HETATM   20  C21 UNL     1       5.613   5.018  28.597  1.00  0.00     0.059 A 
HETATM   21 CL4  UNL     1       7.088   5.105  27.682  1.00  0.00    -0.083 Cl
ENDBRANCH  11  14
ENDBRANCH   9  11
ENDBRANCH   1   9
BRANCH   5  22
HETATM   22  O3  UNL     1       5.162  11.665  24.199  1.00  0.00    -0.306 OA
BRANCH  22  23
HETATM   23  C5  UNL     1       5.342  12.179  22.927  1.00  0.00     0.092 A 
HETATM   24  C6  UNL     1       6.380  13.094  22.707  1.00  0.00     0.125 A 
HETATM   25  N2  UNL     1       6.595  13.622  21.500  1.00  0.00    -0.363 N 
HETATM   26  C7  UNL     1       5.821  13.292  20.452  1.00  0.00     0.042 A 
ATOM     27  H2  UNL     1       7.359  14.287  21.371  1.00  0.00     0.165 HD
HETATM   28  C8  UNL     1       6.046  13.841  19.201  1.00  0.00     0.030 A 
HETATM   29  C12 UNL     1       4.781  12.401  20.582  1.00  0.00    -0.007 A 
HETATM   30  C9  UNL     1       5.272  13.529  18.098  1.00  0.00     0.002 A 
HETATM   31  C10 UNL     1       4.229  12.628  18.249  1.00  0.00     0.001 A 
HETATM   32  C11 UNL     1       3.993  12.071  19.499  1.00  0.00     0.014 A 
HETATM   33  C13 UNL     1       4.558  11.849  21.849  1.00  0.00     0.052 A 
ENDBRANCH  22  23
ENDBRANCH   5  22
TORSDOF 5
ENDMDL
