MODEL 6
REMARK VINA RESULT: -4.923980661      2.524      5.619
REMARK  7 active torsions:
REMARK  status: ('A' for Active; 'I' for Inactive)
REMARK    1  A    between atoms: N1_2  and  C2_4 
REMARK    2  A    between atoms: C3_5  and  O1_6 
REMARK    3  A    between atoms: C7_12  and  C8_13 
REMARK    4  A    between atoms: C7_12  and  C11_22 
REMARK    5  A    between atoms: C8_13  and  C9_14 
REMARK    6  A    between atoms: C9_14  and  N2_15 
REMARK    7  A    between atoms: C9_14  and  C10_19 
ROOT
HETATM    1  C2  UNL     1      -6.061  16.264  21.159  1.00  0.00     0.138 C 
HETATM    2  C3  UNL     1      -5.921  16.386  19.666  1.00  0.00     0.166 C 
HETATM    3  C4  UNL     1      -6.388  15.132  19.006  1.00  0.00     0.202 C 
HETATM    4  O2  UNL     1      -6.925  14.198  19.847  1.00  0.00    -0.381 OA
HETATM    5  C5  UNL     1      -7.872  14.659  20.716  1.00  0.00     0.156 C 
HETATM    6  C6  UNL     1      -9.148  15.115  20.062  1.00  0.00     0.084 C 
HETATM    7  C7  UNL     1      -9.612  16.208  20.998  1.00  0.00     0.154 C 
HETATM    8  O7  UNL     1      -8.389  16.823  21.421  1.00  0.00    -0.359 OA
HETATM    9  C12 UNL     1      -7.475  15.824  21.546  1.00  0.00     0.177 C 
ENDROOT
BRANCH   7  10
HETATM   10  C8  UNL     1     -10.241  15.696  22.236  1.00  0.00     0.093 C 
BRANCH  10  11
HETATM   11  C9  UNL     1     -11.640  15.280  22.273  1.00  0.00     0.286 C 
BRANCH  11  12
HETATM   12  N2  UNL     1     -12.353  15.199  23.490  1.00  0.00    -0.065 N 
ATOM     13  H23 UNL     1     -12.504  14.212  23.701  1.00  0.00     0.275 HD
ATOM     14  H22 UNL     1     -11.723  15.481  24.242  1.00  0.00     0.275 HD
ATOM     15  H21 UNL     1     -13.238  15.688  23.621  1.00  0.00     0.275 HD
ENDBRANCH  11  12
BRANCH  11  16
HETATM   16  C10 UNL     1     -11.740  13.923  21.599  1.00  0.00     0.204 C 
HETATM   17  O3  UNL     1     -11.624  12.873  22.269  1.00  0.00    -0.646 OA
HETATM   18  O4  UNL     1     -11.959  13.811  20.239  1.00  0.00    -0.646 OA
ENDBRANCH  11  16
ENDBRANCH  10  11
ENDBRANCH   7  10
BRANCH   7  19
HETATM   19  C11 UNL     1     -10.372  17.279  20.390  1.00  0.00     0.209 C 
HETATM   20  O5  UNL     1     -10.991  17.134  19.324  1.00  0.00    -0.646 OA
HETATM   21  O6  UNL     1     -10.446  18.532  20.976  1.00  0.00    -0.646 OA
ENDBRANCH   7  19
BRANCH   1  22
HETATM   22  N1  UNL     1      -5.753  17.456  21.875  1.00  0.00    -0.416 N 
HETATM   23  C1  UNL     1      -5.034  17.276  23.090  1.00  0.00     0.140 C 
ATOM     24  H1  UNL     1      -6.031  18.378  21.539  1.00  0.00     0.153 HD
ENDBRANCH   1  22
BRANCH   2  25
HETATM   25  O1  UNL     1      -6.648  17.450  19.146  1.00  0.00    -0.391 OA
ATOM     26  H1  UNL     1      -6.167  17.934  18.486  1.00  0.00     0.210 HD
ENDBRANCH   2  25
TORSDOF 7
ENDMDL
