MODEL 8
REMARK VINA RESULT: -4.701132609      2.457      5.139
REMARK  7 active torsions:
REMARK  status: ('A' for Active; 'I' for Inactive)
REMARK    1  A    between atoms: N1_2  and  C2_4 
REMARK    2  A    between atoms: C3_5  and  O1_6 
REMARK    3  A    between atoms: C7_12  and  C8_13 
REMARK    4  A    between atoms: C7_12  and  C11_22 
REMARK    5  A    between atoms: C8_13  and  C9_14 
REMARK    6  A    between atoms: C9_14  and  N2_15 
REMARK    7  A    between atoms: C9_14  and  C10_19 
ROOT
HETATM    1  C2  UNL     1      -6.418  17.186  21.442  1.00  0.00     0.138 C 
HETATM    2  C3  UNL     1      -7.052  18.357  20.743  1.00  0.00     0.166 C 
HETATM    3  C4  UNL     1      -7.430  17.976  19.350  1.00  0.00     0.202 C 
HETATM    4  O2  UNL     1      -7.227  16.662  19.032  1.00  0.00    -0.381 OA
HETATM    5  C5  UNL     1      -7.721  15.754  19.925  1.00  0.00     0.156 C 
HETATM    6  C6  UNL     1      -9.223  15.722  20.013  1.00  0.00     0.084 C 
HETATM    7  C7  UNL     1      -9.448  15.326  21.455  1.00  0.00     0.154 C 
HETATM    8  O7  UNL     1      -8.384  15.988  22.150  1.00  0.00    -0.359 OA
HETATM    9  C12 UNL     1      -7.297  15.937  21.336  1.00  0.00     0.177 C 
ENDROOT
BRANCH   7  10
HETATM   10  C8  UNL     1      -9.241  13.883  21.709  1.00  0.00     0.093 C 
BRANCH  10  11
HETATM   11  C9  UNL     1     -10.026  12.861  21.021  1.00  0.00     0.286 C 
BRANCH  11  12
HETATM   12  N2  UNL     1     -10.914  12.017  21.724  1.00  0.00    -0.065 N 
ATOM     13  H23 UNL     1     -10.357  11.358  22.269  1.00  0.00     0.275 HD
ATOM     14  H22 UNL     1     -11.360  12.570  22.456  1.00  0.00     0.275 HD
ATOM     15  H21 UNL     1     -11.641  11.489  21.240  1.00  0.00     0.275 HD
ENDBRANCH  11  12
BRANCH  11  16
HETATM   16  C10 UNL     1      -9.061  11.970  20.259  1.00  0.00     0.204 C 
HETATM   17  O3  UNL     1      -7.834  12.219  20.258  1.00  0.00    -0.646 OA
HETATM   18  O4  UNL     1      -9.506  10.868  19.554  1.00  0.00    -0.646 OA
ENDBRANCH  11  16
ENDBRANCH  10  11
ENDBRANCH   7  10
BRANCH   7  19
HETATM   19  C11 UNL     1     -10.658  15.831  22.067  1.00  0.00     0.209 C 
HETATM   20  O5  UNL     1     -11.411  15.112  22.743  1.00  0.00    -0.646 OA
HETATM   21  O6  UNL     1     -11.040  17.156  21.925  1.00  0.00    -0.646 OA
ENDBRANCH   7  19
BRANCH   1  22
HETATM   22  N1  UNL     1      -6.130  17.412  22.819  1.00  0.00    -0.416 N 
HETATM   23  C1  UNL     1      -4.764  17.272  23.192  1.00  0.00     0.140 C 
ATOM     24  H1  UNL     1      -6.856  17.658  23.492  1.00  0.00     0.153 HD
ENDBRANCH   1  22
BRANCH   2  25
HETATM   25  O1  UNL     1      -8.191  18.815  21.394  1.00  0.00    -0.391 OA
ATOM     26  H1  UNL     1      -8.867  19.099  20.791  1.00  0.00     0.210 HD
ENDBRANCH   2  25
TORSDOF 7
ENDMDL
