MODEL 9
REMARK VINA RESULT: -4.272171637      1.426      1.665
REMARK  7 active torsions:
REMARK  status: ('A' for Active; 'I' for Inactive)
REMARK    1  A    between atoms: N1_2  and  C2_4 
REMARK    2  A    between atoms: C3_5  and  O1_6 
REMARK    3  A    between atoms: C7_12  and  C8_13 
REMARK    4  A    between atoms: C7_12  and  C11_22 
REMARK    5  A    between atoms: C8_13  and  C9_14 
REMARK    6  A    between atoms: C9_14  and  N2_15 
REMARK    7  A    between atoms: C9_14  and  C10_19 
ROOT
HETATM    1  C2  UNL     1     -10.233  13.640  20.966  1.00  0.00     0.138 C 
HETATM    2  C3  UNL     1     -11.335  14.650  21.138  1.00  0.00     0.166 C 
HETATM    3  C4  UNL     1     -11.150  15.393  22.419  1.00  0.00     0.202 C 
HETATM    4  O2  UNL     1     -10.006  15.093  23.105  1.00  0.00    -0.381 OA
HETATM    5  C5  UNL     1      -8.854  15.114  22.372  1.00  0.00     0.156 C 
HETATM    6  C6  UNL     1      -8.455  16.479  21.880  1.00  0.00     0.084 C 
HETATM    7  C7  UNL     1      -7.749  16.154  20.584  1.00  0.00     0.154 C 
HETATM    8  O7  UNL     1      -8.496  15.046  20.068  1.00  0.00    -0.359 OA
HETATM    9  C12 UNL     1      -8.858  14.290  21.137  1.00  0.00     0.177 C 
ENDROOT
BRANCH   7  10
HETATM   10  C8  UNL     1      -6.373  15.643  20.773  1.00  0.00     0.093 C 
BRANCH  10  11
HETATM   11  C9  UNL     1      -5.431  15.537  19.662  1.00  0.00     0.286 C 
BRANCH  11  12
HETATM   12  N2  UNL     1      -5.105  16.657  18.865  1.00  0.00    -0.065 N 
ATOM     13  H23 UNL     1      -5.732  17.419  19.121  1.00  0.00     0.275 HD
ATOM     14  H22 UNL     1      -4.201  17.013  19.178  1.00  0.00     0.275 HD
ATOM     15  H21 UNL     1      -5.084  16.596  17.846  1.00  0.00     0.275 HD
ENDBRANCH  11  12
BRANCH  11  16
HETATM   16  C10 UNL     1      -5.934  14.449  18.730  1.00  0.00     0.204 C 
HETATM   17  O3  UNL     1      -5.793  14.560  17.491  1.00  0.00    -0.646 OA
HETATM   18  O4  UNL     1      -6.554  13.315  19.219  1.00  0.00    -0.646 OA
ENDBRANCH  11  16
ENDBRANCH  10  11
ENDBRANCH   7  10
BRANCH   7  19
HETATM   19  C11 UNL     1      -7.829  17.165  19.551  1.00  0.00     0.209 C 
HETATM   20  O5  UNL     1      -8.248  16.917  18.408  1.00  0.00    -0.646 OA
HETATM   21  O6  UNL     1      -7.437  18.472  19.790  1.00  0.00    -0.646 OA
ENDBRANCH   7  19
BRANCH   1  22
HETATM   22  N1  UNL     1     -10.252  12.962  19.714  1.00  0.00    -0.416 N 
HETATM   23  C1  UNL     1      -9.540  11.730  19.671  1.00  0.00     0.140 C 
ATOM     24  H1  UNL     1     -10.743  13.334  18.902  1.00  0.00     0.153 HD
ENDBRANCH   1  22
BRANCH   2  25
HETATM   25  O1  UNL     1     -11.380  15.574  20.101  1.00  0.00    -0.391 OA
ATOM     26  H1  UNL     1     -11.517  16.462  20.409  1.00  0.00     0.210 HD
ENDBRANCH   2  25
TORSDOF 7
ENDMDL
