MODEL 7
REMARK VINA RESULT: -4.757063340      2.235      4.837
REMARK  7 active torsions:
REMARK  status: ('A' for Active; 'I' for Inactive)
REMARK    1  A    between atoms: N1_2  and  C2_4 
REMARK    2  A    between atoms: C3_5  and  O1_6 
REMARK    3  A    between atoms: C7_12  and  C8_13 
REMARK    4  A    between atoms: C7_12  and  C11_22 
REMARK    5  A    between atoms: C8_13  and  C9_14 
REMARK    6  A    between atoms: C9_14  and  N2_15 
REMARK    7  A    between atoms: C9_14  and  C10_19 
ROOT
HETATM    1  C2  UNL     1      -7.564  17.099  19.671  1.00  0.00     0.138 C 
HETATM    2  C3  UNL     1      -7.573  18.341  20.519  1.00  0.00     0.166 C 
HETATM    3  C4  UNL     1      -8.977  18.715  20.860  1.00  0.00     0.202 C 
HETATM    4  O2  UNL     1      -9.932  17.834  20.438  1.00  0.00    -0.381 OA
HETATM    5  C5  UNL     1      -9.702  16.522  20.741  1.00  0.00     0.156 C 
HETATM    6  C6  UNL     1      -9.755  16.205  22.212  1.00  0.00     0.084 C 
HETATM    7  C7  UNL     1      -8.769  15.065  22.325  1.00  0.00     0.154 C 
HETATM    8  O7  UNL     1      -7.752  15.410  21.377  1.00  0.00    -0.359 OA
HETATM    9  C12 UNL     1      -8.385  15.982  20.320  1.00  0.00     0.177 C 
ENDROOT
BRANCH   7  10
HETATM   10  C8  UNL     1      -9.311  13.768  21.862  1.00  0.00     0.093 C 
BRANCH  10  11
HETATM   11  C9  UNL     1      -9.488  13.471  20.443  1.00  0.00     0.286 C 
BRANCH  11  12
HETATM   12  N2  UNL     1     -10.774  13.355  19.870  1.00  0.00    -0.065 N 
ATOM     13  H23 UNL     1     -10.686  12.822  19.005  1.00  0.00     0.275 HD
ATOM     14  H22 UNL     1     -11.322  12.722  20.453  1.00  0.00     0.275 HD
ATOM     15  H21 UNL     1     -11.345  14.178  19.675  1.00  0.00     0.275 HD
ENDBRANCH  11  12
BRANCH  11  16
HETATM   16  C10 UNL     1      -8.740  12.185  20.141  1.00  0.00     0.204 C 
HETATM   17  O3  UNL     1      -7.516  12.211  19.877  1.00  0.00    -0.646 OA
HETATM   18  O4  UNL     1      -9.382  10.962  20.149  1.00  0.00    -0.646 OA
ENDBRANCH  11  16
ENDBRANCH  10  11
ENDBRANCH   7  10
BRANCH   7  19
HETATM   19  C11 UNL     1      -8.073  14.957  23.590  1.00  0.00     0.209 C 
HETATM   20  O5  UNL     1      -8.596  14.451  24.596  1.00  0.00    -0.646 OA
HETATM   21  O6  UNL     1      -6.775  15.418  23.740  1.00  0.00    -0.646 OA
ENDBRANCH   7  19
BRANCH   1  22
HETATM   22  N1  UNL     1      -6.263  16.591  19.392  1.00  0.00    -0.416 N 
HETATM   23  C1  UNL     1      -6.223  15.331  18.732  1.00  0.00     0.140 C 
ATOM     24  H1  UNL     1      -5.415  17.096  19.649  1.00  0.00     0.153 HD
ENDBRANCH   1  22
BRANCH   2  25
HETATM   25  O1  UNL     1      -6.864  18.185  21.703  1.00  0.00    -0.391 OA
ATOM     26  H1  UNL     1      -6.191  17.518  21.641  1.00  0.00     0.210 HD
ENDBRANCH   2  25
TORSDOF 7
ENDMDL
