MODEL 1
REMARK VINA RESULT: -7.726661358      0.000      0.000
REMARK  7 active torsions:
REMARK  status: ('A' for Active; 'I' for Inactive)
REMARK    1  A    between atoms: N1_2  and  C2_4 
REMARK    2  A    between atoms: C3_5  and  O1_6 
REMARK    3  A    between atoms: C7_12  and  C8_13 
REMARK    4  A    between atoms: C7_12  and  C11_22 
REMARK    5  A    between atoms: C8_13  and  C9_14 
REMARK    6  A    between atoms: C9_14  and  N2_15 
REMARK    7  A    between atoms: C9_14  and  C10_19 
ROOT
HETATM    1  C2  UNL     1      -9.503  13.150  21.289  1.00  0.00     0.138 C 
HETATM    2  C3  UNL     1     -10.552  14.053  21.880  1.00  0.00     0.166 C 
HETATM    3  C4  UNL     1      -9.973  14.830  23.016  1.00  0.00     0.202 C 
HETATM    4  O2  UNL     1      -8.634  14.650  23.220  1.00  0.00    -0.381 OA
HETATM    5  C5  UNL     1      -7.845  14.769  22.112  1.00  0.00     0.156 C 
HETATM    6  C6  UNL     1      -7.788  16.158  21.535  1.00  0.00     0.084 C 
HETATM    7  C7  UNL     1      -7.589  15.882  20.063  1.00  0.00     0.154 C 
HETATM    8  O7  UNL     1      -8.366  14.699  19.838  1.00  0.00    -0.359 OA
HETATM    9  C12 UNL     1      -8.231  13.930  20.950  1.00  0.00     0.177 C 
ENDROOT
BRANCH   7  10
HETATM   10  C8  UNL     1      -6.199  15.507  19.716  1.00  0.00     0.093 C 
BRANCH  10  11
HETATM   11  C9  UNL     1      -5.838  15.048  18.377  1.00  0.00     0.286 C 
BRANCH  11  12
HETATM   12  N2  UNL     1      -6.066  13.716  17.969  1.00  0.00    -0.065 N 
ATOM     13  H23 UNL     1      -5.626  13.098  18.652  1.00  0.00     0.275 HD
ATOM     14  H22 UNL     1      -7.056  13.510  18.107  1.00  0.00     0.275 HD
ATOM     15  H21 UNL     1      -5.804  13.392  17.038  1.00  0.00     0.275 HD
ENDBRANCH  11  12
BRANCH  11  16
HETATM   16  C10 UNL     1      -4.362  15.339  18.169  1.00  0.00     0.204 C 
HETATM   17  O3  UNL     1      -3.880  16.444  18.507  1.00  0.00    -0.646 OA
HETATM   18  O4  UNL     1      -3.518  14.400  17.608  1.00  0.00    -0.646 OA
ENDBRANCH  11  16
ENDBRANCH  10  11
ENDBRANCH   7  10
BRANCH   7  19
HETATM   19  C11 UNL     1      -8.142  16.864  19.156  1.00  0.00     0.209 C 
HETATM   20  O5  UNL     1      -7.430  17.559  18.412  1.00  0.00    -0.646 OA
HETATM   21  O6  UNL     1      -9.508  17.080  19.072  1.00  0.00    -0.646 OA
ENDBRANCH   7  19
BRANCH   1  22
HETATM   22  N1  UNL     1      -9.923  12.453  20.120  1.00  0.00    -0.416 N 
HETATM   23  C1  UNL     1      -9.148  11.311  19.773  1.00  0.00     0.140 C 
ATOM     24  H1  UNL     1     -10.727  12.753  19.568  1.00  0.00     0.153 HD
ENDBRANCH   1  22
BRANCH   2  25
HETATM   25  O1  UNL     1     -11.066  14.952  20.954  1.00  0.00    -0.391 OA
ATOM     26  H1  UNL     1     -11.915  15.293  21.209  1.00  0.00     0.210 HD
ENDBRANCH   2  25
TORSDOF 7
ENDMDL
