MODEL 1
REMARK VINA RESULT: -8.651262103      0.000      0.000
REMARK  7 active torsions:
REMARK  status: ('A' for Active; 'I' for Inactive)
REMARK    1  A    between atoms: N1_1  and  C1_5 
REMARK    2  A    between atoms: C1_5  and  C2_6 
REMARK    3  A    between atoms: C1_5  and  C11_23 
REMARK    4  A    between atoms: C2_6  and  C3_7 
REMARK    5  A    between atoms: C3_7  and  C4_8 
REMARK    6  A    between atoms: C8_15  and  O4_16 
REMARK    7  A    between atoms: C9_18  and  O5_19 
ROOT
HETATM    1  C3  UNL     1      -7.208  15.192  20.319  1.00  0.00     0.154 C 
HETATM    2  C5  UNL     1      -7.386  15.407  21.792  1.00  0.00     0.084 C 
HETATM    3  C6  UNL     1      -8.683  14.642  22.043  1.00  0.00     0.156 C 
HETATM    4  O3  UNL     1      -9.790  15.360  21.670  1.00  0.00    -0.381 OA
HETATM    5  C7  UNL     1     -10.935  14.638  21.880  1.00  0.00     0.202 C 
HETATM    6  C8  UNL     1     -10.786  13.155  21.823  1.00  0.00     0.173 C 
HETATM    7  C9  UNL     1      -9.787  12.829  20.705  1.00  0.00     0.180 C 
HETATM    8  C10 UNL     1      -8.509  13.506  21.058  1.00  0.00     0.183 C 
HETATM    9  O6  UNL     1      -7.864  14.034  19.959  1.00  0.00    -0.358 OA
ENDROOT
BRANCH   1  10
HETATM   10  C2  UNL     1      -5.798  15.254  19.828  1.00  0.00     0.093 C 
BRANCH  10  11
HETATM   11  C1  UNL     1      -5.508  14.898  18.438  1.00  0.00     0.286 C 
BRANCH  11  12
HETATM   12  N1  UNL     1      -6.022  13.648  17.968  1.00  0.00    -0.065 N 
ATOM     13  H13 UNL     1      -5.375  12.900  18.214  1.00  0.00     0.275 HD
ATOM     14  H12 UNL     1      -6.836  13.385  18.523  1.00  0.00     0.275 HD
ATOM     15  H11 UNL     1      -6.251  13.586  16.976  1.00  0.00     0.275 HD
ENDBRANCH  11  12
BRANCH  11  16
HETATM   16  C11 UNL     1      -4.104  15.059  17.993  1.00  0.00     0.204 C 
HETATM   17  O7  UNL     1      -3.516  16.140  18.254  1.00  0.00    -0.646 OA
HETATM   18  O8  UNL     1      -3.412  14.071  17.304  1.00  0.00    -0.646 OA
ENDBRANCH  11  16
ENDBRANCH  10  11
ENDBRANCH   1  10
BRANCH   1  19
HETATM   19  C4  UNL     1      -7.910  16.323  19.655  1.00  0.00     0.209 C 
HETATM   20  O1  UNL     1      -7.519  17.503  19.750  1.00  0.00    -0.646 OA
HETATM   21  O2  UNL     1      -9.036  16.063  18.905  1.00  0.00    -0.646 OA
ENDBRANCH   1  19
BRANCH   7  22
HETATM   22  O5  UNL     1     -10.302  13.346  19.539  1.00  0.00    -0.390 OA
ATOM     23  H5  UNL     1      -9.626  13.269  18.877  1.00  0.00     0.210 HD
ENDBRANCH   7  22
BRANCH   6  24
HETATM   24  O4  UNL     1     -11.968  12.504  21.471  1.00  0.00    -0.391 OA
ATOM     25  H4  UNL     1     -11.879  11.974  20.688  1.00  0.00     0.210 HD
ENDBRANCH   6  24
TORSDOF 7
ENDMDL
