MODEL 6
REMARK VINA RESULT: -5.228384576      2.722      4.990
REMARK  7 active torsions:
REMARK  status: ('A' for Active; 'I' for Inactive)
REMARK    1  A    between atoms: N1_1  and  C1_5 
REMARK    2  A    between atoms: C1_5  and  C2_6 
REMARK    3  A    between atoms: C1_5  and  C11_23 
REMARK    4  A    between atoms: C2_6  and  C3_7 
REMARK    5  A    between atoms: C3_7  and  C4_8 
REMARK    6  A    between atoms: C8_15  and  O4_16 
REMARK    7  A    between atoms: C9_18  and  O5_19 
ROOT
HETATM    1  C3  UNL     1      -9.997  14.352  20.710  1.00  0.00     0.154 C 
HETATM    2  C5  UNL     1     -10.729  15.355  19.870  1.00  0.00     0.084 C 
HETATM    3  C6  UNL     1      -9.726  16.505  19.848  1.00  0.00     0.156 C 
HETATM    4  O3  UNL     1      -9.763  17.248  21.000  1.00  0.00    -0.381 OA
HETATM    5  C7  UNL     1      -8.834  18.254  20.964  1.00  0.00     0.202 C 
HETATM    6  C8  UNL     1      -7.631  17.995  20.121  1.00  0.00     0.173 C 
HETATM    7  C9  UNL     1      -7.254  16.517  20.286  1.00  0.00     0.180 C 
HETATM    8  C10 UNL     1      -8.431  15.721  19.840  1.00  0.00     0.183 C 
HETATM    9  O6  UNL     1      -8.644  14.603  20.619  1.00  0.00    -0.358 OA
ENDROOT
BRANCH   1  10
HETATM   10  C2  UNL     1     -10.356  12.923  20.464  1.00  0.00     0.093 C 
BRANCH  10  11
HETATM   11  C1  UNL     1      -9.820  12.244  19.283  1.00  0.00     0.286 C 
BRANCH  11  12
HETATM   12  N1  UNL     1     -10.767  11.783  18.314  1.00  0.00    -0.065 N 
ATOM     13  H13 UNL     1     -10.856  12.474  17.570  1.00  0.00     0.275 HD
ATOM     14  H12 UNL     1     -10.370  10.998  17.797  1.00  0.00     0.275 HD
ATOM     15  H11 UNL     1     -11.694  11.531  18.657  1.00  0.00     0.275 HD
ENDBRANCH  11  12
BRANCH  11  16
HETATM   16  C11 UNL     1      -8.805  11.194  19.529  1.00  0.00     0.204 C 
HETATM   17  O7  UNL     1      -9.103  10.001  19.262  1.00  0.00    -0.646 OA
HETATM   18  O8  UNL     1      -7.543  11.469  20.039  1.00  0.00    -0.646 OA
ENDBRANCH  11  16
ENDBRANCH  10  11
ENDBRANCH   1  10
BRANCH   1  19
HETATM   19  C4  UNL     1     -10.404  14.627  22.115  1.00  0.00     0.209 C 
HETATM   20  O1  UNL     1     -11.577  14.908  22.431  1.00  0.00    -0.646 OA
HETATM   21  O2  UNL     1      -9.452  14.572  23.110  1.00  0.00    -0.646 OA
ENDBRANCH   1  19
BRANCH   7  22
HETATM   22  O5  UNL     1      -7.008  16.308  21.622  1.00  0.00    -0.390 OA
ATOM     23  H5  UNL     1      -7.647  16.817  22.107  1.00  0.00     0.210 HD
ENDBRANCH   7  22
BRANCH   6  24
HETATM   24  O4  UNL     1      -6.512  18.715  20.537  1.00  0.00    -0.391 OA
ATOM     25  H4  UNL     1      -5.765  18.604  19.961  1.00  0.00     0.210 HD
ENDBRANCH   6  24
TORSDOF 7
ENDMDL
