MODEL 3
REMARK VINA RESULT: -6.049176072      1.285      1.483
REMARK  7 active torsions:
REMARK  status: ('A' for Active; 'I' for Inactive)
REMARK    1  A    between atoms: N1_1  and  C1_5 
REMARK    2  A    between atoms: C1_5  and  C2_6 
REMARK    3  A    between atoms: C1_5  and  C11_23 
REMARK    4  A    between atoms: C2_6  and  C3_7 
REMARK    5  A    between atoms: C3_7  and  C4_8 
REMARK    6  A    between atoms: C8_15  and  O4_16 
REMARK    7  A    between atoms: C9_18  and  O5_19 
ROOT
HETATM    1  C3  UNL     1      -8.265  15.532  20.005  1.00  0.00     0.154 C 
HETATM    2  C5  UNL     1      -7.939  15.470  21.467  1.00  0.00     0.084 C 
HETATM    3  C6  UNL     1      -8.972  14.459  21.954  1.00  0.00     0.156 C 
HETATM    4  O3  UNL     1     -10.212  15.022  22.120  1.00  0.00    -0.381 OA
HETATM    5  C7  UNL     1     -11.124  14.086  22.530  1.00  0.00     0.202 C 
HETATM    6  C8  UNL     1     -10.843  12.682  22.113  1.00  0.00     0.173 C 
HETATM    7  C9  UNL     1     -10.271  12.722  20.690  1.00  0.00     0.180 C 
HETATM    8  C10 UNL     1      -9.032  13.547  20.747  1.00  0.00     0.183 C 
HETATM    9  O6  UNL     1      -8.875  14.351  19.638  1.00  0.00    -0.358 OA
ENDROOT
BRANCH   1  10
HETATM   10  C2  UNL     1      -7.133  15.920  19.110  1.00  0.00     0.093 C 
BRANCH  10  11
HETATM   11  C1  UNL     1      -5.768  15.534  19.474  1.00  0.00     0.286 C 
BRANCH  11  12
HETATM   12  N1  UNL     1      -5.091  16.364  20.423  1.00  0.00    -0.065 N 
ATOM     13  H13 UNL     1      -4.457  16.994  19.931  1.00  0.00     0.275 HD
ATOM     14  H12 UNL     1      -5.750  17.032  20.822  1.00  0.00     0.275 HD
ATOM     15  H11 UNL     1      -4.587  15.892  21.173  1.00  0.00     0.275 HD
ENDBRANCH  11  12
BRANCH  11  16
HETATM   16  C11 UNL     1      -4.855  15.205  18.356  1.00  0.00     0.204 C 
HETATM   17  O7  UNL     1      -5.192  14.293  17.558  1.00  0.00    -0.646 OA
HETATM   18  O8  UNL     1      -3.645  15.857  18.152  1.00  0.00    -0.646 OA
ENDBRANCH  11  16
ENDBRANCH  10  11
ENDBRANCH   1  10
BRANCH   1  19
HETATM   19  C4  UNL     1      -9.275  16.615  19.860  1.00  0.00     0.209 C 
HETATM   20  O1  UNL     1      -9.144  17.731  20.401  1.00  0.00    -0.646 OA
HETATM   21  O2  UNL     1     -10.401  16.382  19.100  1.00  0.00    -0.646 OA
ENDBRANCH   1  19
BRANCH   7  22
HETATM   22  O5  UNL     1     -11.214  13.323  19.891  1.00  0.00    -0.390 OA
ATOM     23  H5  UNL     1     -10.747  13.817  19.229  1.00  0.00     0.210 HD
ENDBRANCH   7  22
BRANCH   6  24
HETATM   24  O4  UNL     1     -11.994  11.899  22.031  1.00  0.00    -0.391 OA
ATOM     25  H4  UNL     1     -12.667  12.286  21.484  1.00  0.00     0.210 HD
ENDBRANCH   6  24
TORSDOF 7
ENDMDL
