MODEL 4
REMARK VINA RESULT: -5.438888558      2.612      5.134
REMARK  7 active torsions:
REMARK  status: ('A' for Active; 'I' for Inactive)
REMARK    1  A    between atoms: N1_1  and  C1_5 
REMARK    2  A    between atoms: C1_5  and  C2_6 
REMARK    3  A    between atoms: C1_5  and  C11_23 
REMARK    4  A    between atoms: C2_6  and  C3_7 
REMARK    5  A    between atoms: C3_7  and  C4_8 
REMARK    6  A    between atoms: C8_15  and  O4_16 
REMARK    7  A    between atoms: C9_18  and  O5_19 
ROOT
HETATM    1  C3  UNL     1      -8.393  13.744  20.608  1.00  0.00     0.154 C 
HETATM    2  C5  UNL     1      -7.867  14.019  21.984  1.00  0.00     0.084 C 
HETATM    3  C6  UNL     1      -7.558  15.511  21.886  1.00  0.00     0.156 C 
HETATM    4  O3  UNL     1      -6.373  15.754  21.241  1.00  0.00    -0.381 OA
HETATM    5  C7  UNL     1      -6.137  17.099  21.142  1.00  0.00     0.202 C 
HETATM    6  C8  UNL     1      -7.347  17.969  21.118  1.00  0.00     0.173 C 
HETATM    7  C9  UNL     1      -8.424  17.249  20.296  1.00  0.00     0.180 C 
HETATM    8  C10 UNL     1      -8.684  15.949  20.973  1.00  0.00     0.183 C 
HETATM    9  O6  UNL     1      -8.893  14.916  20.083  1.00  0.00    -0.358 OA
ENDROOT
BRANCH   1  10
HETATM   10  C2  UNL     1      -9.339  12.592  20.501  1.00  0.00     0.093 C 
BRANCH  10  11
HETATM   11  C1  UNL     1     -10.258  12.524  19.364  1.00  0.00     0.286 C 
BRANCH  11  12
HETATM   12  N1  UNL     1     -11.587  13.013  19.574  1.00  0.00    -0.065 N 
ATOM     13  H13 UNL     1     -11.579  13.709  20.319  1.00  0.00     0.275 HD
ATOM     14  H12 UNL     1     -11.867  13.589  18.780  1.00  0.00     0.275 HD
ATOM     15  H11 UNL     1     -12.310  12.320  19.764  1.00  0.00     0.275 HD
ENDBRANCH  11  12
BRANCH  11  16
HETATM   16  C11 UNL     1     -10.309  11.238  18.631  1.00  0.00     0.204 C 
HETATM   17  O7  UNL     1      -9.437  10.369  18.888  1.00  0.00    -0.646 OA
HETATM   18  O8  UNL     1     -11.277  10.952  17.676  1.00  0.00    -0.646 OA
ENDBRANCH  11  16
ENDBRANCH  10  11
ENDBRANCH   1  10
BRANCH   1  19
HETATM   19  C4  UNL     1      -7.209  13.363  19.790  1.00  0.00     0.209 C 
HETATM   20  O1  UNL     1      -6.764  12.198  19.757  1.00  0.00    -0.646 OA
HETATM   21  O2  UNL     1      -6.577  14.329  19.039  1.00  0.00    -0.646 OA
ENDBRANCH   1  19
BRANCH   7  22
HETATM   22  O5  UNL     1      -7.905  17.044  19.039  1.00  0.00    -0.390 OA
ATOM     23  H5  UNL     1      -8.639  16.968  18.442  1.00  0.00     0.210 HD
ENDBRANCH   7  22
BRANCH   6  24
HETATM   24  O4  UNL     1      -7.130  19.184  20.466  1.00  0.00    -0.391 OA
ATOM     25  H4  UNL     1      -7.873  19.462  19.945  1.00  0.00     0.210 HD
ENDBRANCH   6  24
TORSDOF 7
ENDMDL
