MODEL 7
REMARK VINA RESULT: -5.217003942      2.134      5.294
REMARK  7 active torsions:
REMARK  status: ('A' for Active; 'I' for Inactive)
REMARK    1  A    between atoms: N1_1  and  C1_5 
REMARK    2  A    between atoms: C1_5  and  C2_6 
REMARK    3  A    between atoms: C1_5  and  C11_23 
REMARK    4  A    between atoms: C2_6  and  C3_7 
REMARK    5  A    between atoms: C3_7  and  C4_8 
REMARK    6  A    between atoms: C8_15  and  O4_16 
REMARK    7  A    between atoms: C9_18  and  O5_19 
ROOT
HETATM    1  C3  UNL     1      -9.338  14.991  20.661  1.00  0.00     0.154 C 
HETATM    2  C5  UNL     1      -9.118  16.465  20.825  1.00  0.00     0.084 C 
HETATM    3  C6  UNL     1      -7.721  16.620  20.230  1.00  0.00     0.156 C 
HETATM    4  O3  UNL     1      -6.738  16.241  21.108  1.00  0.00    -0.381 OA
HETATM    5  C7  UNL     1      -5.499  16.364  20.537  1.00  0.00     0.202 C 
HETATM    6  C8  UNL     1      -5.453  16.230  19.052  1.00  0.00     0.173 C 
HETATM    7  C9  UNL     1      -6.453  15.138  18.650  1.00  0.00     0.180 C 
HETATM    8  C10 UNL     1      -7.790  15.581  19.131  1.00  0.00     0.183 C 
HETATM    9  O6  UNL     1      -8.552  14.540  19.621  1.00  0.00    -0.358 OA
ENDROOT
BRANCH   1  10
HETATM   10  C2  UNL     1     -10.765  14.563  20.558  1.00  0.00     0.093 C 
BRANCH  10  11
HETATM   11  C1  UNL     1     -11.093  13.138  20.643  1.00  0.00     0.286 C 
BRANCH  11  12
HETATM   12  N1  UNL     1     -11.086  12.548  21.946  1.00  0.00    -0.065 N 
ATOM     13  H13 UNL     1     -10.261  11.957  22.047  1.00  0.00     0.275 HD
ATOM     14  H12 UNL     1     -10.892  13.266  22.644  1.00  0.00     0.275 HD
ATOM     15  H11 UNL     1     -11.916  12.022  22.220  1.00  0.00     0.275 HD
ENDBRANCH  11  12
BRANCH  11  16
HETATM   16  C11 UNL     1     -10.404  12.243  19.685  1.00  0.00     0.204 C 
HETATM   17  O7  UNL     1     -10.796  12.233  18.489  1.00  0.00    -0.646 OA
HETATM   18  O8  UNL     1      -9.348  11.418  20.049  1.00  0.00    -0.646 OA
ENDBRANCH  11  16
ENDBRANCH  10  11
ENDBRANCH   1  10
BRANCH   1  19
HETATM   19  C4  UNL     1      -8.824  14.362  21.908  1.00  0.00     0.209 C 
HETATM   20  O1  UNL     1      -9.253  14.667  23.039  1.00  0.00    -0.646 OA
HETATM   21  O2  UNL     1      -7.836  13.407  21.817  1.00  0.00    -0.646 OA
ENDBRANCH   1  19
BRANCH   7  22
HETATM   22  O5  UNL     1      -6.068  13.982  19.289  1.00  0.00    -0.390 OA
ATOM     23  H5  UNL     1      -6.730  13.328  19.105  1.00  0.00     0.210 HD
ENDBRANCH   7  22
BRANCH   6  24
HETATM   24  O4  UNL     1      -4.214  15.794  18.584  1.00  0.00    -0.391 OA
ATOM     25  H4  UNL     1      -4.140  15.836  17.638  1.00  0.00     0.210 HD
ENDBRANCH   6  24
TORSDOF 7
ENDMDL
