MODEL 9
REMARK VINA RESULT: -6.160617885      2.489      4.554
REMARK  6 active torsions:
REMARK  status: ('A' for Active; 'I' for Inactive)
REMARK    1  A    between atoms: N1_1  and  C1_5 
REMARK    2  A    between atoms: C1_5  and  C2_6 
REMARK    3  A    between atoms: C1_5  and  C11_21 
REMARK    4  A    between atoms: C2_6  and  C3_7 
REMARK    5  A    between atoms: C3_7  and  C4_8 
REMARK    6  A    between atoms: C8_15  and  O4_16 
ROOT
HETATM    1  C3  UNL     1      -9.564  14.507  21.049  1.00  0.00     0.154 C 
HETATM    2  C5  UNL     1     -10.278  15.418  20.071  1.00  0.00     0.084 C 
HETATM    3  C6  UNL     1      -9.141  16.388  19.740  1.00  0.00     0.154 C 
HETATM    4  O3  UNL     1      -9.047  17.248  20.795  1.00  0.00    -0.381 OA
HETATM    5  C7  UNL     1      -7.868  17.897  20.960  1.00  0.00     0.200 C 
HETATM    6  C8  UNL     1      -6.647  17.044  20.825  1.00  0.00     0.144 C 
HETATM    7  C9  UNL     1      -6.723  16.123  19.635  1.00  0.00     0.068 C 
HETATM    8  C10 UNL     1      -7.999  15.364  19.705  1.00  0.00     0.154 C 
HETATM    9  O5  UNL     1      -8.213  14.677  20.868  1.00  0.00    -0.361 OA
ENDROOT
BRANCH   1  10
HETATM   10  C2  UNL     1     -10.031  13.102  20.775  1.00  0.00     0.093 C 
BRANCH  10  11
HETATM   11  C1  UNL     1      -9.573  12.583  19.435  1.00  0.00     0.286 C 
BRANCH  11  12
HETATM   12  N1  UNL     1     -10.663  12.248  18.567  1.00  0.00    -0.065 N 
ATOM     13  H13 UNL     1     -11.493  11.995  19.104  1.00  0.00     0.275 HD
ATOM     14  H12 UNL     1     -11.020  13.078  18.092  1.00  0.00     0.275 HD
ATOM     15  H11 UNL     1     -10.425  11.517  17.897  1.00  0.00     0.275 HD
ENDBRANCH  11  12
BRANCH  11  16
HETATM   16  C11 UNL     1      -8.771  11.366  19.685  1.00  0.00     0.204 C 
HETATM   17  O6  UNL     1      -7.616  11.488  20.152  1.00  0.00    -0.646 OA
HETATM   18  O7  UNL     1      -9.234  10.083  19.427  1.00  0.00    -0.646 OA
ENDBRANCH  11  16
ENDBRANCH  10  11
ENDBRANCH   1  10
BRANCH   1  19
HETATM   19  C4  UNL     1      -9.949  14.928  22.428  1.00  0.00     0.209 C 
HETATM   20  O1  UNL     1      -9.103  14.923  23.369  1.00  0.00    -0.646 OA
HETATM   21  O2  UNL     1     -11.228  15.341  22.749  1.00  0.00    -0.646 OA
ENDBRANCH   1  19
BRANCH   6  22
HETATM   22  O4  UNL     1      -6.408  16.255  21.951  1.00  0.00    -0.393 OA
ATOM     23  H4  UNL     1      -5.501  16.279  22.234  1.00  0.00     0.210 HD
ENDBRANCH   6  22
TORSDOF 6
ENDMDL
