MODEL 10
REMARK VINA RESULT: -6.139987907      2.153      5.091
REMARK  6 active torsions:
REMARK  status: ('A' for Active; 'I' for Inactive)
REMARK    1  A    between atoms: N1_1  and  C1_5 
REMARK    2  A    between atoms: C1_5  and  C2_6 
REMARK    3  A    between atoms: C1_5  and  C11_21 
REMARK    4  A    between atoms: C2_6  and  C3_7 
REMARK    5  A    between atoms: C3_7  and  C4_8 
REMARK    6  A    between atoms: C8_15  and  O4_16 
ROOT
HETATM    1  C3  UNL     1      -8.363  14.325  20.226  1.00  0.00     0.154 C 
HETATM    2  C5  UNL     1      -8.156  14.238  21.725  1.00  0.00     0.084 C 
HETATM    3  C6  UNL     1      -7.889  15.713  22.038  1.00  0.00     0.154 C 
HETATM    4  O3  UNL     1      -6.602  15.961  21.664  1.00  0.00    -0.381 OA
HETATM    5  C7  UNL     1      -6.268  17.252  21.419  1.00  0.00     0.200 C 
HETATM    6  C8  UNL     1      -7.248  18.016  20.586  1.00  0.00     0.144 C 
HETATM    7  C9  UNL     1      -8.671  17.783  21.022  1.00  0.00     0.068 C 
HETATM    8  C10 UNL     1      -8.917  16.318  21.072  1.00  0.00     0.154 C 
HETATM    9  O5  UNL     1      -8.642  15.634  19.919  1.00  0.00    -0.361 OA
ENDROOT
BRANCH   1  10
HETATM   10  C2  UNL     1      -9.479  13.378  19.873  1.00  0.00     0.093 C 
BRANCH  10  11
HETATM   11  C1  UNL     1     -10.190  12.831  21.085  1.00  0.00     0.286 C 
BRANCH  11  12
HETATM   12  N1  UNL     1     -10.324  11.405  21.054  1.00  0.00    -0.065 N 
ATOM     13  H13 UNL     1     -11.299  11.128  21.169  1.00  0.00     0.275 HD
ATOM     14  H12 UNL     1     -10.158  11.043  20.115  1.00  0.00     0.275 HD
ATOM     15  H11 UNL     1      -9.728  10.937  21.737  1.00  0.00     0.275 HD
ENDBRANCH  11  12
BRANCH  11  16
HETATM   16  C11 UNL     1     -11.539  13.437  21.115  1.00  0.00     0.204 C 
HETATM   17  O6  UNL     1     -12.155  13.596  20.037  1.00  0.00    -0.646 OA
HETATM   18  O7  UNL     1     -12.166  13.842  22.286  1.00  0.00    -0.646 OA
ENDBRANCH  11  16
ENDBRANCH  10  11
ENDBRANCH   1  10
BRANCH   1  19
HETATM   19  C4  UNL     1      -7.092  13.908  19.566  1.00  0.00     0.209 C 
HETATM   20  O1  UNL     1      -6.728  12.696  19.561  1.00  0.00    -0.646 OA
HETATM   21  O2  UNL     1      -6.255  14.806  18.932  1.00  0.00    -0.646 OA
ENDBRANCH   1  19
BRANCH   6  22
HETATM   22  O4  UNL     1      -7.169  17.703  19.229  1.00  0.00    -0.393 OA
ATOM     23  H4  UNL     1      -6.574  18.270  18.752  1.00  0.00     0.210 HD
ENDBRANCH   6  22
TORSDOF 6
ENDMDL
