MODEL 2
REMARK VINA RESULT: -8.874137764      0.124      1.041
REMARK  6 active torsions:
REMARK  status: ('A' for Active; 'I' for Inactive)
REMARK    1  A    between atoms: N1_1  and  C1_5 
REMARK    2  A    between atoms: C1_5  and  C2_6 
REMARK    3  A    between atoms: C1_5  and  C11_21 
REMARK    4  A    between atoms: C2_6  and  C3_7 
REMARK    5  A    between atoms: C3_7  and  C4_8 
REMARK    6  A    between atoms: C8_15  and  O4_16 
ROOT
HETATM    1  C3  UNL     1      -7.443  15.318  20.356  1.00  0.00     0.154 C 
HETATM    2  C5  UNL     1      -7.474  15.554  21.852  1.00  0.00     0.084 C 
HETATM    3  C6  UNL     1      -8.730  14.759  22.216  1.00  0.00     0.154 C 
HETATM    4  O3  UNL     1      -9.795  15.534  21.860  1.00  0.00    -0.381 OA
HETATM    5  C7  UNL     1     -10.979  14.904  21.661  1.00  0.00     0.200 C 
HETATM    6  C8  UNL     1     -10.904  13.652  20.847  1.00  0.00     0.144 C 
HETATM    7  C9  UNL     1      -9.757  12.767  21.263  1.00  0.00     0.068 C 
HETATM    8  C10 UNL     1      -8.511  13.577  21.262  1.00  0.00     0.154 C 
HETATM    9  O5  UNL     1      -8.228  14.223  20.089  1.00  0.00    -0.361 OA
ENDROOT
BRANCH   1  10
HETATM   10  C2  UNL     1      -6.002  15.129  19.961  1.00  0.00     0.093 C 
BRANCH  10  11
HETATM   11  C1  UNL     1      -5.829  14.847  18.490  1.00  0.00     0.286 C 
BRANCH  11  12
HETATM   12  N1  UNL     1      -6.166  13.498  18.140  1.00  0.00    -0.065 N 
ATOM     13  H13 UNL     1      -5.328  12.920  18.069  1.00  0.00     0.275 HD
ATOM     14  H12 UNL     1      -6.629  13.024  18.915  1.00  0.00     0.275 HD
ATOM     15  H11 UNL     1      -6.724  13.438  17.288  1.00  0.00     0.275 HD
ENDBRANCH  11  12
BRANCH  11  16
HETATM   16  C11 UNL     1      -4.408  15.085  18.159  1.00  0.00     0.204 C 
HETATM   17  O6  UNL     1      -3.770  14.193  17.555  1.00  0.00    -0.646 OA
HETATM   18  O7  UNL     1      -3.736  16.255  18.485  1.00  0.00    -0.646 OA
ENDBRANCH  11  16
ENDBRANCH  10  11
ENDBRANCH   1  10
BRANCH   1  19
HETATM   19  C4  UNL     1      -8.014  16.526  19.692  1.00  0.00     0.209 C 
HETATM   20  O1  UNL     1      -7.358  17.606  19.630  1.00  0.00    -0.646 OA
HETATM   21  O2  UNL     1      -9.270  16.532  19.116  1.00  0.00    -0.646 OA
ENDBRANCH   1  19
BRANCH   6  22
HETATM   22  O4  UNL     1     -10.767  13.900  19.480  1.00  0.00    -0.393 OA
ATOM     23  H4  UNL     1     -11.362  14.570  19.164  1.00  0.00     0.210 HD
ENDBRANCH   6  22
TORSDOF 6
ENDMDL
