MODEL 5
REMARK VINA RESULT: -6.731109956      1.601      1.779
REMARK  6 active torsions:
REMARK  status: ('A' for Active; 'I' for Inactive)
REMARK    1  A    between atoms: N1_1  and  C1_5 
REMARK    2  A    between atoms: C1_5  and  C2_6 
REMARK    3  A    between atoms: C1_5  and  C11_21 
REMARK    4  A    between atoms: C2_6  and  C3_7 
REMARK    5  A    between atoms: C3_7  and  C4_8 
REMARK    6  A    between atoms: C8_15  and  O4_16 
ROOT
HETATM    1  C3  UNL     1      -8.305  15.934  20.750  1.00  0.00     0.154 C 
HETATM    2  C5  UNL     1      -8.238  15.596  22.225  1.00  0.00     0.084 C 
HETATM    3  C6  UNL     1      -8.668  14.127  22.176  1.00  0.00     0.154 C 
HETATM    4  O3  UNL     1     -10.023  14.126  22.023  1.00  0.00    -0.381 OA
HETATM    5  C7  UNL     1     -10.585  13.002  21.513  1.00  0.00     0.200 C 
HETATM    6  C8  UNL     1      -9.889  12.427  20.321  1.00  0.00     0.144 C 
HETATM    7  C9  UNL     1      -8.394  12.382  20.500  1.00  0.00     0.068 C 
HETATM    8  C10 UNL     1      -7.924  13.737  20.891  1.00  0.00     0.154 C 
HETATM    9  O5  UNL     1      -8.285  14.753  20.049  1.00  0.00    -0.361 OA
ENDROOT
BRANCH   1  10
HETATM   10  C2  UNL     1      -7.135  16.831  20.442  1.00  0.00     0.093 C 
BRANCH  10  11
HETATM   11  C1  UNL     1      -6.737  16.795  18.987  1.00  0.00     0.286 C 
BRANCH  11  12
HETATM   12  N1  UNL     1      -7.835  16.493  18.118  1.00  0.00    -0.065 N 
ATOM     13  H13 UNL     1      -8.300  15.632  18.404  1.00  0.00     0.275 HD
ATOM     14  H12 UNL     1      -8.602  17.151  18.257  1.00  0.00     0.275 HD
ATOM     15  H11 UNL     1      -7.562  16.452  17.136  1.00  0.00     0.275 HD
ENDBRANCH  11  12
BRANCH  11  16
HETATM   16  C11 UNL     1      -5.707  15.744  18.838  1.00  0.00     0.204 C 
HETATM   17  O6  UNL     1      -4.789  15.672  19.686  1.00  0.00    -0.646 OA
HETATM   18  O7  UNL     1      -5.704  14.823  17.799  1.00  0.00    -0.646 OA
ENDBRANCH  11  16
ENDBRANCH  10  11
ENDBRANCH   1  10
BRANCH   1  19
HETATM   19  C4  UNL     1      -9.592  16.648  20.504  1.00  0.00     0.209 C 
HETATM   20  O1  UNL     1     -10.324  16.349  19.516  1.00  0.00    -0.646 OA
HETATM   21  O2  UNL     1     -10.049  17.659  21.328  1.00  0.00    -0.646 OA
ENDBRANCH   1  19
BRANCH   6  22
HETATM   22  O4  UNL     1     -10.150  13.132  19.146  1.00  0.00    -0.393 OA
ATOM     23  H4  UNL     1      -9.634  12.827  18.409  1.00  0.00     0.210 HD
ENDBRANCH   6  22
TORSDOF 6
ENDMDL
