MODEL 3
REMARK VINA RESULT: -7.899886337      1.179      1.480
REMARK  6 active torsions:
REMARK  status: ('A' for Active; 'I' for Inactive)
REMARK    1  A    between atoms: N1_1  and  C1_5 
REMARK    2  A    between atoms: C1_5  and  C2_6 
REMARK    3  A    between atoms: C1_5  and  C11_21 
REMARK    4  A    between atoms: C2_6  and  C3_7 
REMARK    5  A    between atoms: C3_7  and  C4_8 
REMARK    6  A    between atoms: C8_15  and  O4_16 
ROOT
HETATM    1  C3  UNL     1      -7.703  15.643  20.893  1.00  0.00     0.154 C 
HETATM    2  C5  UNL     1      -7.749  15.292  22.366  1.00  0.00     0.084 C 
HETATM    3  C6  UNL     1      -8.812  14.191  22.340  1.00  0.00     0.154 C 
HETATM    4  O3  UNL     1     -10.017  14.821  22.238  1.00  0.00    -0.381 OA
HETATM    5  C7  UNL     1     -11.055  14.093  21.754  1.00  0.00     0.200 C 
HETATM    6  C8  UNL     1     -10.747  13.276  20.540  1.00  0.00     0.144 C 
HETATM    7  C9  UNL     1      -9.438  12.541  20.663  1.00  0.00     0.068 C 
HETATM    8  C10 UNL     1      -8.380  13.518  21.031  1.00  0.00     0.154 C 
HETATM    9  O5  UNL     1      -8.257  14.596  20.198  1.00  0.00    -0.361 OA
ENDROOT
BRANCH   1  10
HETATM   10  C2  UNL     1      -6.262  15.898  20.538  1.00  0.00     0.093 C 
BRANCH  10  11
HETATM   11  C1  UNL     1      -6.083  16.361  19.114  1.00  0.00     0.286 C 
BRANCH  11  12
HETATM   12  N1  UNL     1      -7.319  16.432  18.393  1.00  0.00    -0.065 N 
ATOM     13  H13 UNL     1      -7.859  15.574  18.509  1.00  0.00     0.275 HD
ATOM     14  H12 UNL     1      -7.961  17.092  18.833  1.00  0.00     0.275 HD
ATOM     15  H11 UNL     1      -7.189  16.651  17.405  1.00  0.00     0.275 HD
ENDBRANCH  11  12
BRANCH  11  16
HETATM   16  C11 UNL     1      -5.195  15.387  18.442  1.00  0.00     0.204 C 
HETATM   17  O6  UNL     1      -5.639  14.248  18.175  1.00  0.00    -0.646 OA
HETATM   18  O7  UNL     1      -3.882  15.671  18.089  1.00  0.00    -0.646 OA
ENDBRANCH  11  16
ENDBRANCH  10  11
ENDBRANCH   1  10
BRANCH   1  19
HETATM   19  C4  UNL     1      -8.519  16.875  20.692  1.00  0.00     0.209 C 
HETATM   20  O1  UNL     1      -8.148  17.987  21.170  1.00  0.00    -0.646 OA
HETATM   21  O2  UNL     1      -9.706  16.873  19.984  1.00  0.00    -0.646 OA
ENDBRANCH   1  19
BRANCH   6  22
HETATM   22  O4  UNL     1     -10.692  14.037  19.372  1.00  0.00    -0.393 OA
ATOM     23  H4  UNL     1      -9.934  13.838  18.835  1.00  0.00     0.210 HD
ENDBRANCH   6  22
TORSDOF 6
ENDMDL
