MODEL 8
REMARK VINA RESULT: -6.182963732      2.391      4.505
REMARK  6 active torsions:
REMARK  status: ('A' for Active; 'I' for Inactive)
REMARK    1  A    between atoms: N1_1  and  C1_5 
REMARK    2  A    between atoms: C1_5  and  C2_6 
REMARK    3  A    between atoms: C1_5  and  C11_21 
REMARK    4  A    between atoms: C2_6  and  C3_7 
REMARK    5  A    between atoms: C3_7  and  C4_8 
REMARK    6  A    between atoms: C8_15  and  O4_16 
ROOT
HETATM    1  C3  UNL     1      -9.267  14.518  21.186  1.00  0.00     0.154 C 
HETATM    2  C5  UNL     1     -10.325  15.589  21.017  1.00  0.00     0.084 C 
HETATM    3  C6  UNL     1      -9.484  16.685  20.357  1.00  0.00     0.154 C 
HETATM    4  O3  UNL     1      -8.757  17.266  21.353  1.00  0.00    -0.381 OA
HETATM    5  C7  UNL     1      -7.634  17.934  20.988  1.00  0.00     0.200 C 
HETATM    6  C8  UNL     1      -6.763  17.224  20.002  1.00  0.00     0.144 C 
HETATM    7  C9  UNL     1      -7.555  16.617  18.873  1.00  0.00     0.068 C 
HETATM    8  C10 UNL     1      -8.638  15.779  19.452  1.00  0.00     0.154 C 
HETATM    9  O5  UNL     1      -8.231  14.817  20.335  1.00  0.00    -0.361 OA
ENDROOT
BRANCH   1  10
HETATM   10  C2  UNL     1      -9.919  13.193  20.889  1.00  0.00     0.093 C 
BRANCH  10  11
HETATM   11  C1  UNL     1      -9.561  12.656  19.526  1.00  0.00     0.286 C 
BRANCH  11  12
HETATM   12  N1  UNL     1     -10.712  12.367  18.723  1.00  0.00    -0.065 N 
ATOM     13  H13 UNL     1     -11.336  11.717  19.201  1.00  0.00     0.275 HD
ATOM     14  H12 UNL     1     -11.330  13.177  18.664  1.00  0.00     0.275 HD
ATOM     15  H11 UNL     1     -10.470  12.024  17.793  1.00  0.00     0.275 HD
ENDBRANCH  11  12
BRANCH  11  16
HETATM   16  C11 UNL     1      -8.796  11.407  19.731  1.00  0.00     0.204 C 
HETATM   17  O6  UNL     1      -7.648  11.475  20.226  1.00  0.00    -0.646 OA
HETATM   18  O7  UNL     1      -9.287  10.151  19.402  1.00  0.00    -0.646 OA
ENDBRANCH  11  16
ENDBRANCH  10  11
ENDBRANCH   1  10
BRANCH   1  19
HETATM   19  C4  UNL     1      -8.793  14.564  22.600  1.00  0.00     0.209 C 
HETATM   20  O1  UNL     1      -9.543  14.198  23.550  1.00  0.00    -0.646 OA
HETATM   21  O2  UNL     1      -7.528  15.002  22.945  1.00  0.00    -0.646 OA
ENDBRANCH   1  19
BRANCH   6  22
HETATM   22  O4  UNL     1      -6.008  16.203  20.580  1.00  0.00    -0.393 OA
ATOM     23  H4  UNL     1      -6.388  15.342  20.450  1.00  0.00     0.210 HD
ENDBRANCH   6  22
TORSDOF 6
ENDMDL
