MODEL 4
REMARK VINA RESULT: -6.868973103      1.501      1.722
REMARK  6 active torsions:
REMARK  status: ('A' for Active; 'I' for Inactive)
REMARK    1  A    between atoms: N1_1  and  C1_5 
REMARK    2  A    between atoms: C1_5  and  C2_6 
REMARK    3  A    between atoms: C1_5  and  C11_21 
REMARK    4  A    between atoms: C2_6  and  C3_7 
REMARK    5  A    between atoms: C3_7  and  C4_8 
REMARK    6  A    between atoms: C8_15  and  O4_16 
ROOT
HETATM    1  C3  UNL     1      -8.286  15.758  20.241  1.00  0.00     0.154 C 
HETATM    2  C5  UNL     1      -7.962  15.552  21.706  1.00  0.00     0.084 C 
HETATM    3  C6  UNL     1      -8.570  14.163  21.916  1.00  0.00     0.154 C 
HETATM    4  O3  UNL     1      -9.917  14.343  22.024  1.00  0.00    -0.381 OA
HETATM    5  C7  UNL     1     -10.706  13.270  21.767  1.00  0.00     0.200 C 
HETATM    6  C8  UNL     1     -10.343  12.491  20.543  1.00  0.00     0.144 C 
HETATM    7  C9  UNL     1      -8.860  12.248  20.440  1.00  0.00     0.068 C 
HETATM    8  C10 UNL     1      -8.157  13.552  20.570  1.00  0.00     0.154 C 
HETATM    9  O5  UNL     1      -8.554  14.526  19.696  1.00  0.00    -0.361 OA
ENDROOT
BRANCH   1  10
HETATM   10  C2  UNL     1      -7.102  16.444  19.612  1.00  0.00     0.093 C 
BRANCH  10  11
HETATM   11  C1  UNL     1      -5.791  15.784  19.958  1.00  0.00     0.286 C 
BRANCH  11  12
HETATM   12  N1  UNL     1      -4.939  16.622  20.749  1.00  0.00    -0.065 N 
ATOM     13  H13 UNL     1      -4.976  17.588  20.425  1.00  0.00     0.275 HD
ATOM     14  H12 UNL     1      -5.318  16.746  21.688  1.00  0.00     0.275 HD
ATOM     15  H11 UNL     1      -3.976  16.286  20.785  1.00  0.00     0.275 HD
ENDBRANCH  11  12
BRANCH  11  16
HETATM   16  C11 UNL     1      -5.105  15.471  18.686  1.00  0.00     0.204 C 
HETATM   17  O6  UNL     1      -5.666  14.708  17.868  1.00  0.00    -0.646 OA
HETATM   18  O7  UNL     1      -3.860  15.984  18.346  1.00  0.00    -0.646 OA
ENDBRANCH  11  16
ENDBRANCH  10  11
ENDBRANCH   1  10
BRANCH   1  19
HETATM   19  C4  UNL     1      -9.498  16.624  20.159  1.00  0.00     0.209 C 
HETATM   20  O1  UNL     1     -10.419  16.378  19.327  1.00  0.00    -0.646 OA
HETATM   21  O2  UNL     1      -9.680  17.725  20.974  1.00  0.00    -0.646 OA
ENDBRANCH   1  19
BRANCH   6  22
HETATM   22  O4  UNL     1     -10.749  13.114  19.362  1.00  0.00    -0.393 OA
ATOM     23  H4  UNL     1     -10.481  14.024  19.312  1.00  0.00     0.210 HD
ENDBRANCH   6  22
TORSDOF 6
ENDMDL
