MODEL 1
REMARK VINA RESULT: -9.050333448      0.000      0.000
REMARK  6 active torsions:
REMARK  status: ('A' for Active; 'I' for Inactive)
REMARK    1  A    between atoms: N1_1  and  C1_5 
REMARK    2  A    between atoms: C1_5  and  C2_6 
REMARK    3  A    between atoms: C1_5  and  C11_21 
REMARK    4  A    between atoms: C2_6  and  C3_7 
REMARK    5  A    between atoms: C3_7  and  C4_8 
REMARK    6  A    between atoms: C8_15  and  O4_16 
ROOT
HETATM    1  C3  UNL     1      -7.381  15.392  20.385  1.00  0.00     0.154 C 
HETATM    2  C5  UNL     1      -7.400  15.573  21.889  1.00  0.00     0.084 C 
HETATM    3  C6  UNL     1      -8.643  14.749  22.236  1.00  0.00     0.154 C 
HETATM    4  O3  UNL     1      -9.720  15.523  21.919  1.00  0.00    -0.381 OA
HETATM    5  C7  UNL     1     -10.898  14.886  21.709  1.00  0.00     0.200 C 
HETATM    6  C8  UNL     1     -10.816  13.665  20.848  1.00  0.00     0.144 C 
HETATM    7  C9  UNL     1      -9.654  12.781  21.221  1.00  0.00     0.068 C 
HETATM    8  C10 UNL     1      -8.418  13.606  21.237  1.00  0.00     0.154 C 
HETATM    9  O5  UNL     1      -8.155  14.297  20.086  1.00  0.00    -0.361 OA
ENDROOT
BRANCH   1  10
HETATM   10  C2  UNL     1      -5.942  15.236  19.970  1.00  0.00     0.093 C 
BRANCH  10  11
HETATM   11  C1  UNL     1      -5.786  14.924  18.502  1.00  0.00     0.286 C 
BRANCH  11  12
HETATM   12  N1  UNL     1      -6.156  13.578  18.178  1.00  0.00    -0.065 N 
ATOM     13  H13 UNL     1      -6.759  13.182  18.899  1.00  0.00     0.275 HD
ATOM     14  H12 UNL     1      -6.805  13.557  17.390  1.00  0.00     0.275 HD
ATOM     15  H11 UNL     1      -5.350  12.977  18.004  1.00  0.00     0.275 HD
ENDBRANCH  11  12
BRANCH  11  16
HETATM   16  C11 UNL     1      -4.361  15.123  18.159  1.00  0.00     0.204 C 
HETATM   17  O6  UNL     1      -3.806  16.198  18.480  1.00  0.00    -0.646 OA
HETATM   18  O7  UNL     1      -3.599  14.173  17.492  1.00  0.00    -0.646 OA
ENDBRANCH  11  16
ENDBRANCH  10  11
ENDBRANCH   1  10
BRANCH   1  19
HETATM   19  C4  UNL     1      -7.974  16.616  19.771  1.00  0.00     0.209 C 
HETATM   20  O1  UNL     1      -9.127  16.590  19.252  1.00  0.00    -0.646 OA
HETATM   21  O2  UNL     1      -7.308  17.826  19.736  1.00  0.00    -0.646 OA
ENDBRANCH   1  19
BRANCH   6  22
HETATM   22  O4  UNL     1     -10.696  13.964  19.491  1.00  0.00    -0.393 OA
ATOM     23  H4  UNL     1     -10.367  13.235  18.978  1.00  0.00     0.210 HD
ENDBRANCH   6  22
TORSDOF 6
ENDMDL
