MODEL 1
REMARK VINA RESULT: -7.260014136      0.000      0.000
REMARK  7 active torsions:
REMARK  status: ('A' for Active; 'I' for Inactive)
REMARK    1  A    between atoms: C1_2  and  C2_3 
REMARK    2  A    between atoms: C1_2  and  C3_6 
REMARK    3  A    between atoms: C2_3  and  O2_4 
REMARK    4  A    between atoms: C3_6  and  C4_7 
REMARK    5  A    between atoms: C4_7  and  C5_8 
REMARK    6  A    between atoms: C4_7  and  C12_15 
REMARK    7  A    between atoms: C5_8  and  C6_9 
ROOT
HETATM    1  C4  UNL     1     -24.129   1.388  -7.011  1.00  0.00     0.098 C 
ENDROOT
BRANCH   1   2
HETATM    2  C3  UNL     1     -25.541   1.805  -7.347  1.00  0.00     0.096 C 
BRANCH   2   3
HETATM    3  C1  UNL     1     -26.094   1.164  -8.554  1.00  0.00     0.150 C 
HETATM    4  O1  UNL     1     -25.665   1.509  -9.641  1.00  0.00    -0.296 OA
BRANCH   3   5
HETATM    5  C2  UNL     1     -27.142   0.124  -8.517  1.00  0.00     0.242 C 
BRANCH   5   6
HETATM    6  O2  UNL     1     -26.777  -1.017  -9.233  1.00  0.00    -0.394 OA
ATOM      7  H2  UNL     1     -26.478  -0.810 -10.111  1.00  0.00     0.209 HD
ENDBRANCH   5   6
ENDBRANCH   3   5
ENDBRANCH   2   3
ENDBRANCH   1   2
BRANCH   1   8
HETATM    8  C5  UNL     1     -23.363   2.656  -6.692  1.00  0.00     0.054 C 
BRANCH   8   9
HETATM    9  C6  UNL     1     -22.255   2.905  -7.610  1.00  0.00    -0.057 A 
HETATM   10  C7  UNL     1     -21.157   3.641  -7.244  1.00  0.00     0.007 A 
HETATM   11  C8  UNL     1     -20.145   3.843  -8.158  1.00  0.00     0.001 A 
HETATM   12  C9  UNL     1     -20.203   3.320  -9.444  1.00  0.00     0.000 A 
HETATM   13  C10 UNL     1     -21.302   2.584  -9.809  1.00  0.00     0.001 A 
HETATM   14  C11 UNL     1     -22.305   2.392  -8.884  1.00  0.00     0.007 A 
ENDBRANCH   8   9
ENDBRANCH   1   8
BRANCH   1  15
HETATM   15  C12 UNL     1     -24.018   0.373  -5.965  1.00  0.00     0.177 C 
HETATM   16  O3  UNL     1     -24.216   0.690  -4.744  1.00  0.00    -0.648 OA
HETATM   17  O4  UNL     1     -23.707  -0.961  -6.171  1.00  0.00    -0.648 OA
ENDBRANCH   1  15
TORSDOF 7
ENDMDL
