MODEL 3
REMARK VINA RESULT: -6.991143921      1.107      1.971
REMARK  7 active torsions:
REMARK  status: ('A' for Active; 'I' for Inactive)
REMARK    1  A    between atoms: C1_2  and  C2_3 
REMARK    2  A    between atoms: C1_2  and  C3_6 
REMARK    3  A    between atoms: C2_3  and  O2_4 
REMARK    4  A    between atoms: C3_6  and  C4_7 
REMARK    5  A    between atoms: C4_7  and  C5_8 
REMARK    6  A    between atoms: C4_7  and  C12_15 
REMARK    7  A    between atoms: C5_8  and  C6_9 
ROOT
HETATM    1  C4  UNL     1     -24.671   0.937  -6.492  1.00  0.00     0.098 C 
ENDROOT
BRANCH   1   2
HETATM    2  C3  UNL     1     -26.125   1.340  -6.488  1.00  0.00     0.096 C 
BRANCH   2   3
HETATM    3  C1  UNL     1     -27.027   0.373  -7.140  1.00  0.00     0.150 C 
HETATM    4  O1  UNL     1     -27.666  -0.389  -6.435  1.00  0.00    -0.296 OA
BRANCH   3   5
HETATM    5  C2  UNL     1     -27.200   0.278  -8.603  1.00  0.00     0.242 C 
BRANCH   5   6
HETATM    6  O2  UNL     1     -27.023  -1.026  -9.071  1.00  0.00    -0.394 OA
ATOM      7  H2  UNL     1     -26.365  -1.076  -9.754  1.00  0.00     0.209 HD
ENDBRANCH   5   6
ENDBRANCH   3   5
ENDBRANCH   2   3
ENDBRANCH   1   2
BRANCH   1   8
HETATM    8  C5  UNL     1     -23.873   2.170  -6.121  1.00  0.00     0.054 C 
BRANCH   8   9
HETATM    9  C6  UNL     1     -22.868   2.527  -7.119  1.00  0.00    -0.057 A 
HETATM   10  C7  UNL     1     -22.965   2.124  -8.426  1.00  0.00     0.007 A 
HETATM   11  C8  UNL     1     -21.984   2.493  -9.321  1.00  0.00     0.001 A 
HETATM   12  C9  UNL     1     -20.894   3.263  -8.936  1.00  0.00     0.000 A 
HETATM   13  C10 UNL     1     -20.797   3.666  -7.628  1.00  0.00     0.001 A 
HETATM   14  C11 UNL     1     -21.787   3.288  -6.747  1.00  0.00     0.007 A 
ENDBRANCH   8   9
ENDBRANCH   1   8
BRANCH   1  15
HETATM   15  C12 UNL     1     -24.351  -0.223  -5.662  1.00  0.00     0.177 C 
HETATM   16  O3  UNL     1     -23.592  -1.145  -6.116  1.00  0.00    -0.648 OA
HETATM   17  O4  UNL     1     -24.807  -0.437  -4.371  1.00  0.00    -0.648 OA
ENDBRANCH   1  15
TORSDOF 7
ENDMDL
