MODEL 2
REMARK VINA RESULT: -7.251236224      0.140      1.425
REMARK  7 active torsions:
REMARK  status: ('A' for Active; 'I' for Inactive)
REMARK    1  A    between atoms: C1_2  and  C2_3 
REMARK    2  A    between atoms: C1_2  and  C3_6 
REMARK    3  A    between atoms: C2_3  and  O2_4 
REMARK    4  A    between atoms: C3_6  and  C4_7 
REMARK    5  A    between atoms: C4_7  and  C5_8 
REMARK    6  A    between atoms: C4_7  and  C12_15 
REMARK    7  A    between atoms: C5_8  and  C6_9 
ROOT
HETATM    1  C4  UNL     1     -24.150   1.305  -6.976  1.00  0.00     0.098 C 
ENDROOT
BRANCH   1   2
HETATM    2  C3  UNL     1     -25.535   1.789  -7.334  1.00  0.00     0.096 C 
BRANCH   2   3
HETATM    3  C1  UNL     1     -26.102   1.170  -8.546  1.00  0.00     0.150 C 
HETATM    4  O1  UNL     1     -25.697   1.544  -9.632  1.00  0.00    -0.296 OA
BRANCH   3   5
HETATM    5  C2  UNL     1     -27.137   0.117  -8.514  1.00  0.00     0.242 C 
BRANCH   5   6
HETATM    6  O2  UNL     1     -26.760  -1.014  -9.241  1.00  0.00    -0.394 OA
ATOM      7  H2  UNL     1     -27.413  -1.260  -9.886  1.00  0.00     0.209 HD
ENDBRANCH   5   6
ENDBRANCH   3   5
ENDBRANCH   2   3
ENDBRANCH   1   2
BRANCH   1   8
HETATM    8  C5  UNL     1     -23.336   2.531  -6.620  1.00  0.00     0.054 C 
BRANCH   8   9
HETATM    9  C6  UNL     1     -22.285   2.826  -7.590  1.00  0.00    -0.057 A 
HETATM   10  C7  UNL     1     -22.334   2.361  -8.880  1.00  0.00     0.007 A 
HETATM   11  C8  UNL     1     -21.310   2.673  -9.749  1.00  0.00     0.001 A 
HETATM   12  C9  UNL     1     -20.224   3.445  -9.355  1.00  0.00     0.000 A 
HETATM   13  C10 UNL     1     -20.176   3.909  -8.064  1.00  0.00     0.001 A 
HETATM   14  C11 UNL     1     -21.207   3.589  -7.209  1.00  0.00     0.007 A 
ENDBRANCH   8   9
ENDBRANCH   1   8
BRANCH   1  15
HETATM   15  C12 UNL     1     -24.108   0.269  -5.945  1.00  0.00     0.177 C 
HETATM   16  O3  UNL     1     -23.648  -0.890  -6.223  1.00  0.00    -0.648 OA
HETATM   17  O4  UNL     1     -24.533   0.422  -4.636  1.00  0.00    -0.648 OA
ENDBRANCH   1  15
TORSDOF 7
ENDMDL
