MODEL 9
REMARK VINA RESULT: -6.587988417      1.890      4.781
REMARK  6 active torsions:
REMARK  status: ('A' for Active; 'I' for Inactive)
REMARK    1  A    between atoms: N1_1  and  C1_5 
REMARK    2  A    between atoms: C1_5  and  C2_6 
REMARK    3  A    between atoms: C1_5  and  C11_21 
REMARK    4  A    between atoms: C2_6  and  C3_7 
REMARK    5  A    between atoms: C3_7  and  C4_8 
REMARK    6  A    between atoms: C9_16  and  O4_17 
ROOT
HETATM    1  C3  UNL     1      -9.459  14.541  20.533  1.00  0.00     0.154 C 
HETATM    2  C5  UNL     1     -10.435  15.617  20.158  1.00  0.00     0.084 C 
HETATM    3  C6  UNL     1      -9.533  16.728  19.664  1.00  0.00     0.156 C 
HETATM    4  O3  UNL     1      -9.325  17.715  20.567  1.00  0.00    -0.383 OA
HETATM    5  C7  UNL     1      -8.188  17.637  21.323  1.00  0.00     0.171 C 
HETATM    6  C8  UNL     1      -6.919  17.499  20.536  1.00  0.00     0.060 C 
HETATM    7  C9  UNL     1      -7.144  16.888  19.173  1.00  0.00     0.151 C 
HETATM    8  C10 UNL     1      -8.301  15.950  19.276  1.00  0.00     0.181 C 
HETATM    9  O5  UNL     1      -8.187  15.049  20.331  1.00  0.00    -0.358 OA
ENDROOT
BRANCH   1  10
HETATM   10  C2  UNL     1      -9.632  13.298  19.671  1.00  0.00     0.093 C 
BRANCH  10  11
HETATM   11  C1  UNL     1      -8.662  12.217  20.058  1.00  0.00     0.286 C 
BRANCH  11  12
HETATM   12  N1  UNL     1      -7.375  12.361  19.453  1.00  0.00    -0.065 N 
ATOM     13  H13 UNL     1      -7.073  13.335  19.474  1.00  0.00     0.275 HD
ATOM     14  H12 UNL     1      -6.652  11.945  20.040  1.00  0.00     0.275 HD
ATOM     15  H11 UNL     1      -7.326  11.990  18.504  1.00  0.00     0.275 HD
ENDBRANCH  11  12
BRANCH  11  16
HETATM   16  C11 UNL     1      -9.250  10.920  19.675  1.00  0.00     0.204 C 
HETATM   17  O6  UNL     1      -9.065   9.918  20.396  1.00  0.00    -0.646 OA
HETATM   18  O7  UNL     1     -10.005  10.792  18.528  1.00  0.00    -0.646 OA
ENDBRANCH  11  16
ENDBRANCH  10  11
ENDBRANCH   1  10
BRANCH   1  19
HETATM   19  C4  UNL     1      -9.721  14.158  21.938  1.00  0.00     0.209 C 
HETATM   20  O1  UNL     1      -8.884  14.480  22.799  1.00  0.00    -0.646 OA
HETATM   21  O2  UNL     1     -10.843  13.461  22.354  1.00  0.00    -0.646 OA
ENDBRANCH   1  19
BRANCH   7  22
HETATM   22  O4  UNL     1      -6.003  16.303  18.656  1.00  0.00    -0.393 OA
ATOM     23  H4  UNL     1      -6.013  16.253  17.708  1.00  0.00     0.210 HD
ENDBRANCH   7  22
TORSDOF 6
ENDMDL
