MODEL 11
REMARK VINA RESULT: -6.302463177      2.516      4.852
REMARK  6 active torsions:
REMARK  status: ('A' for Active; 'I' for Inactive)
REMARK    1  A    between atoms: N1_1  and  C1_5 
REMARK    2  A    between atoms: C1_5  and  C2_6 
REMARK    3  A    between atoms: C1_5  and  C11_21 
REMARK    4  A    between atoms: C2_6  and  C3_7 
REMARK    5  A    between atoms: C3_7  and  C4_8 
REMARK    6  A    between atoms: C9_16  and  O4_17 
ROOT
HETATM    1  C3  UNL     1      -8.873  15.195  20.997  1.00  0.00     0.154 C 
HETATM    2  C5  UNL     1      -8.532  15.396  19.549  1.00  0.00     0.084 C 
HETATM    3  C6  UNL     1      -7.340  16.329  19.614  1.00  0.00     0.156 C 
HETATM    4  O3  UNL     1      -7.638  17.625  19.364  1.00  0.00    -0.383 OA
HETATM    5  C7  UNL     1      -7.855  18.433  20.447  1.00  0.00     0.171 C 
HETATM    6  C8  UNL     1      -6.751  18.433  21.461  1.00  0.00     0.060 C 
HETATM    7  C9  UNL     1      -5.931  17.164  21.428  1.00  0.00     0.151 C 
HETATM    8  C10 UNL     1      -6.829  16.049  21.005  1.00  0.00     0.181 C 
HETATM    9  O5  UNL     1      -8.011  15.986  21.738  1.00  0.00    -0.358 OA
ENDROOT
BRANCH   1  10
HETATM   10  C2  UNL     1      -8.694  13.745  21.421  1.00  0.00     0.093 C 
BRANCH  10  11
HETATM   11  C1  UNL     1      -9.633  12.832  20.684  1.00  0.00     0.286 C 
BRANCH  11  12
HETATM   12  N1  UNL     1     -10.601  12.205  21.527  1.00  0.00    -0.065 N 
ATOM     13  H13 UNL     1     -10.260  12.147  22.486  1.00  0.00     0.275 HD
ATOM     14  H12 UNL     1     -11.406  12.816  21.669  1.00  0.00     0.275 HD
ATOM     15  H11 UNL     1     -10.900  11.288  21.195  1.00  0.00     0.275 HD
ENDBRANCH  11  12
BRANCH  11  16
HETATM   16  C11 UNL     1      -8.826  11.803  20.001  1.00  0.00     0.204 C 
HETATM   17  O6  UNL     1      -7.581  11.889  20.001  1.00  0.00    -0.646 OA
HETATM   18  O7  UNL     1      -9.426  10.740  19.358  1.00  0.00    -0.646 OA
ENDBRANCH  11  16
ENDBRANCH  10  11
ENDBRANCH   1  10
BRANCH   1  19
HETATM   19  C4  UNL     1     -10.297  15.548  21.182  1.00  0.00     0.209 C 
HETATM   20  O1  UNL     1     -10.887  16.114  20.245  1.00  0.00    -0.646 OA
HETATM   21  O2  UNL     1     -11.017  15.288  22.337  1.00  0.00    -0.646 OA
ENDBRANCH   1  19
BRANCH   7  22
HETATM   22  O4  UNL     1      -5.274  16.922  22.620  1.00  0.00    -0.393 OA
ATOM     23  H4  UNL     1      -4.656  17.608  22.844  1.00  0.00     0.210 HD
ENDBRANCH   7  22
TORSDOF 6
ENDMDL
