MODEL 3
REMARK VINA RESULT: -7.692218828      1.386      1.635
REMARK  6 active torsions:
REMARK  status: ('A' for Active; 'I' for Inactive)
REMARK    1  A    between atoms: N1_1  and  C1_5 
REMARK    2  A    between atoms: C1_5  and  C2_6 
REMARK    3  A    between atoms: C1_5  and  C11_21 
REMARK    4  A    between atoms: C2_6  and  C3_7 
REMARK    5  A    between atoms: C3_7  and  C4_8 
REMARK    6  A    between atoms: C9_16  and  O4_17 
ROOT
HETATM    1  C3  UNL     1      -8.201  15.949  20.221  1.00  0.00     0.154 C 
HETATM    2  C5  UNL     1      -7.635  15.435  21.513  1.00  0.00     0.084 C 
HETATM    3  C6  UNL     1      -8.371  14.125  21.701  1.00  0.00     0.156 C 
HETATM    4  O3  UNL     1      -9.398  14.189  22.581  1.00  0.00    -0.383 OA
HETATM    5  C7  UNL     1     -10.648  14.386  22.063  1.00  0.00     0.171 C 
HETATM    6  C8  UNL     1     -11.050  13.404  21.002  1.00  0.00     0.060 C 
HETATM    7  C9  UNL     1      -9.863  12.794  20.295  1.00  0.00     0.151 C 
HETATM    8  C10 UNL     1      -8.767  13.809  20.281  1.00  0.00     0.181 C 
HETATM    9  O5  UNL     1      -9.175  15.054  19.813  1.00  0.00    -0.358 OA
ENDROOT
BRANCH   1  10
HETATM   10  C2  UNL     1      -7.137  16.043  19.138  1.00  0.00     0.093 C 
BRANCH  10  11
HETATM   11  C1  UNL     1      -5.781  15.652  19.658  1.00  0.00     0.286 C 
BRANCH  11  12
HETATM   12  N1  UNL     1      -5.159  16.664  20.451  1.00  0.00    -0.065 N 
ATOM     13  H13 UNL     1      -5.833  17.090  21.086  1.00  0.00     0.275 HD
ATOM     14  H12 UNL     1      -4.522  16.249  21.131  1.00  0.00     0.275 HD
ATOM     15  H11 UNL     1      -4.682  17.378  19.900  1.00  0.00     0.275 HD
ENDBRANCH  11  12
BRANCH  11  16
HETATM   16  C11 UNL     1      -4.926  15.329  18.500  1.00  0.00     0.204 C 
HETATM   17  O6  UNL     1      -5.246  14.400  17.731  1.00  0.00    -0.646 OA
HETATM   18  O7  UNL     1      -3.771  16.039  18.250  1.00  0.00    -0.646 OA
ENDBRANCH  11  16
ENDBRANCH  10  11
ENDBRANCH   1  10
BRANCH   1  19
HETATM   19  C4  UNL     1      -8.722  17.312  20.464  1.00  0.00     0.209 C 
HETATM   20  O1  UNL     1      -9.941  17.508  20.318  1.00  0.00    -0.646 OA
HETATM   21  O2  UNL     1      -7.935  18.387  20.844  1.00  0.00    -0.646 OA
ENDBRANCH   1  19
BRANCH   7  22
HETATM   22  O4  UNL     1     -10.181  12.308  19.041  1.00  0.00    -0.393 OA
ATOM     23  H4  UNL     1     -11.019  12.627  18.726  1.00  0.00     0.210 HD
ENDBRANCH   7  22
TORSDOF 6
ENDMDL
