MODEL 6
REMARK VINA RESULT: -6.676856652      2.191      4.651
REMARK  6 active torsions:
REMARK  status: ('A' for Active; 'I' for Inactive)
REMARK    1  A    between atoms: N1_1  and  C1_5 
REMARK    2  A    between atoms: C1_5  and  C2_6 
REMARK    3  A    between atoms: C1_5  and  C11_21 
REMARK    4  A    between atoms: C2_6  and  C3_7 
REMARK    5  A    between atoms: C3_7  and  C4_8 
REMARK    6  A    between atoms: C9_16  and  O4_17 
ROOT
HETATM    1  C3  UNL     1      -8.600  14.577  21.292  1.00  0.00     0.154 C 
HETATM    2  C5  UNL     1      -9.841  15.056  20.596  1.00  0.00     0.084 C 
HETATM    3  C6  UNL     1      -9.323  16.189  19.735  1.00  0.00     0.156 C 
HETATM    4  O3  UNL     1      -9.554  17.421  20.245  1.00  0.00    -0.383 OA
HETATM    5  C7  UNL     1      -8.540  17.999  20.957  1.00  0.00     0.171 C 
HETATM    6  C8  UNL     1      -7.227  18.071  20.236  1.00  0.00     0.060 C 
HETATM    7  C9  UNL     1      -7.093  17.012  19.166  1.00  0.00     0.151 C 
HETATM    8  C10 UNL     1      -7.868  15.814  19.607  1.00  0.00     0.181 C 
HETATM    9  O5  UNL     1      -7.562  15.406  20.903  1.00  0.00    -0.358 OA
ENDROOT
BRANCH   1  10
HETATM   10  C2  UNL     1      -8.255  13.146  20.908  1.00  0.00     0.093 C 
BRANCH  10  11
HETATM   11  C1  UNL     1      -9.430  12.439  20.292  1.00  0.00     0.286 C 
BRANCH  11  12
HETATM   12  N1  UNL     1     -10.303  11.840  21.251  1.00  0.00    -0.065 N 
ATOM     13  H13 UNL     1     -10.104  10.845  21.349  1.00  0.00     0.275 HD
ATOM     14  H12 UNL     1     -10.073  12.153  22.194  1.00  0.00     0.275 HD
ATOM     15  H11 UNL     1     -11.292  11.992  21.053  1.00  0.00     0.275 HD
ENDBRANCH  11  12
BRANCH  11  16
HETATM   16  C11 UNL     1      -8.911  11.406  19.376  1.00  0.00     0.204 C 
HETATM   17  O6  UNL     1      -7.740  11.483  18.951  1.00  0.00    -0.646 OA
HETATM   18  O7  UNL     1      -9.701  10.347  18.979  1.00  0.00    -0.646 OA
ENDBRANCH  11  16
ENDBRANCH  10  11
ENDBRANCH   1  10
BRANCH   1  19
HETATM   19  C4  UNL     1      -8.856  14.605  22.749  1.00  0.00     0.209 C 
HETATM   20  O1  UNL     1     -10.028  14.470  23.141  1.00  0.00    -0.646 OA
HETATM   21  O2  UNL     1      -7.869  14.774  23.707  1.00  0.00    -0.646 OA
ENDBRANCH   1  19
BRANCH   7  22
HETATM   22  O4  UNL     1      -5.776  16.733  18.854  1.00  0.00    -0.393 OA
ATOM     23  H4  UNL     1      -5.528  15.843  19.072  1.00  0.00     0.210 HD
ENDBRANCH   7  22
TORSDOF 6
ENDMDL
