MODEL 1
REMARK VINA RESULT: -9.758556310      0.000      0.000
REMARK  6 active torsions:
REMARK  status: ('A' for Active; 'I' for Inactive)
REMARK    1  A    between atoms: N1_1  and  C1_5 
REMARK    2  A    between atoms: C1_5  and  C2_6 
REMARK    3  A    between atoms: C1_5  and  C11_21 
REMARK    4  A    between atoms: C2_6  and  C3_7 
REMARK    5  A    between atoms: C3_7  and  C4_8 
REMARK    6  A    between atoms: C9_16  and  O4_17 
ROOT
HETATM    1  C3  UNL     1      -7.315  15.619  20.289  1.00  0.00     0.154 C 
HETATM    2  C5  UNL     1      -7.581  15.598  21.766  1.00  0.00     0.084 C 
HETATM    3  C6  UNL     1      -8.623  14.509  21.903  1.00  0.00     0.156 C 
HETATM    4  O3  UNL     1      -9.890  14.968  22.034  1.00  0.00    -0.383 OA
HETATM    5  C7  UNL     1     -10.649  15.033  20.898  1.00  0.00     0.171 C 
HETATM    6  C8  UNL     1     -10.734  13.751  20.126  1.00  0.00     0.060 C 
HETATM    7  C9  UNL     1      -9.553  12.843  20.374  1.00  0.00     0.151 C 
HETATM    8  C10 UNL     1      -8.364  13.703  20.655  1.00  0.00     0.181 C 
HETATM    9  O5  UNL     1      -8.170  14.701  19.704  1.00  0.00    -0.358 OA
ENDROOT
BRANCH   1  10
HETATM   10  C2  UNL     1      -5.881  15.226  19.969  1.00  0.00     0.093 C 
BRANCH  10  11
HETATM   11  C1  UNL     1      -5.694  14.959  18.501  1.00  0.00     0.286 C 
BRANCH  11  12
HETATM   12  N1  UNL     1      -6.045  13.630  18.113  1.00  0.00    -0.065 N 
ATOM     13  H13 UNL     1      -5.212  13.048  18.023  1.00  0.00     0.275 HD
ATOM     14  H12 UNL     1      -6.512  13.142  18.877  1.00  0.00     0.275 HD
ATOM     15  H11 UNL     1      -6.607  13.588  17.262  1.00  0.00     0.275 HD
ENDBRANCH  11  12
BRANCH  11  16
HETATM   16  C11 UNL     1      -4.281  15.219  18.167  1.00  0.00     0.204 C 
HETATM   17  O6  UNL     1      -3.755  16.303  18.494  1.00  0.00    -0.646 OA
HETATM   18  O7  UNL     1      -3.525  14.282  17.495  1.00  0.00    -0.646 OA
ENDBRANCH  11  16
ENDBRANCH  10  11
ENDBRANCH   1  10
BRANCH   1  19
HETATM   19  C4  UNL     1      -7.524  17.002  19.809  1.00  0.00     0.209 C 
HETATM   20  O1  UNL     1      -8.097  17.805  20.565  1.00  0.00    -0.646 OA
HETATM   21  O2  UNL     1      -7.120  17.460  18.565  1.00  0.00    -0.646 OA
ENDBRANCH   1  19
BRANCH   7  22
HETATM   22  O4  UNL     1      -9.350  11.938  19.349  1.00  0.00    -0.393 OA
ATOM     23  H4  UNL     1      -8.626  12.180  18.784  1.00  0.00     0.210 HD
ENDBRANCH   7  22
TORSDOF 6
ENDMDL
