MODEL 2
REMARK VINA RESULT: -8.299095674      1.292      1.521
REMARK  6 active torsions:
REMARK  status: ('A' for Active; 'I' for Inactive)
REMARK    1  A    between atoms: N1_1  and  C1_5 
REMARK    2  A    between atoms: C1_5  and  C2_6 
REMARK    3  A    between atoms: C1_5  and  C11_21 
REMARK    4  A    between atoms: C2_6  and  C3_7 
REMARK    5  A    between atoms: C3_7  and  C4_8 
REMARK    6  A    between atoms: C9_16  and  O4_17 
ROOT
HETATM    1  C3  UNL     1      -7.782  15.782  20.746  1.00  0.00     0.154 C 
HETATM    2  C5  UNL     1      -8.065  15.358  22.157  1.00  0.00     0.084 C 
HETATM    3  C6  UNL     1      -8.617  13.958  21.981  1.00  0.00     0.156 C 
HETATM    4  O3  UNL     1      -9.966  13.882  22.057  1.00  0.00    -0.383 OA
HETATM    5  C7  UNL     1     -10.657  13.899  20.877  1.00  0.00     0.171 C 
HETATM    6  C8  UNL     1     -10.223  12.867  19.880  1.00  0.00     0.060 C 
HETATM    7  C9  UNL     1      -8.793  12.426  20.084  1.00  0.00     0.151 C 
HETATM    8  C10 UNL     1      -8.032  13.584  20.642  1.00  0.00     0.181 C 
HETATM    9  O5  UNL     1      -8.204  14.758  19.915  1.00  0.00    -0.358 OA
ENDROOT
BRANCH   1  10
HETATM   10  C2  UNL     1      -6.297  16.020  20.515  1.00  0.00     0.093 C 
BRANCH  10  11
HETATM   11  C1  UNL     1      -6.023  16.486  19.113  1.00  0.00     0.286 C 
BRANCH  11  12
HETATM   12  N1  UNL     1      -7.199  16.615  18.312  1.00  0.00    -0.065 N 
ATOM     13  H13 UNL     1      -7.137  16.028  17.481  1.00  0.00     0.275 HD
ATOM     14  H12 UNL     1      -7.998  16.177  18.771  1.00  0.00     0.275 HD
ATOM     15  H11 UNL     1      -7.415  17.579  18.057  1.00  0.00     0.275 HD
ENDBRANCH  11  12
BRANCH  11  16
HETATM   16  C11 UNL     1      -5.097  15.524  18.486  1.00  0.00     0.204 C 
HETATM   17  O6  UNL     1      -5.499  14.381  18.185  1.00  0.00    -0.646 OA
HETATM   18  O7  UNL     1      -3.787  15.865  18.224  1.00  0.00    -0.646 OA
ENDBRANCH  11  16
ENDBRANCH  10  11
ENDBRANCH   1  10
BRANCH   1  19
HETATM   19  C4  UNL     1      -8.489  17.060  20.505  1.00  0.00     0.209 C 
HETATM   20  O1  UNL     1      -9.568  17.026  19.890  1.00  0.00    -0.646 OA
HETATM   21  O2  UNL     1      -8.020  18.295  20.923  1.00  0.00    -0.646 OA
ENDBRANCH   1  19
BRANCH   7  22
HETATM   22  O4  UNL     1      -8.229  11.895  18.939  1.00  0.00    -0.393 OA
ATOM     23  H4  UNL     1      -7.625  12.494  18.516  1.00  0.00     0.210 HD
ENDBRANCH   7  22
TORSDOF 6
ENDMDL
