MODEL 3
REMARK VINA RESULT: -6.079747676      3.484      5.598
REMARK  4 active torsions:
REMARK  status: ('A' for Active; 'I' for Inactive)
REMARK    1  A    between atoms: C2_2  and  N1_3 
REMARK    2  A    between atoms: N1_3  and  C3_6 
REMARK    3  A    between atoms: C8_15  and  S3_16 
REMARK    4  A    between atoms: S3_16  and  N2_17 
ROOT
HETATM    1  C3  UNL     1       1.270   7.082  19.791  1.00  0.00     0.222 C 
HETATM    2  C4  UNL     1       1.166   5.939  18.858  1.00  0.00     0.058 C 
HETATM    3  C5  UNL     1       0.178   4.876  19.208  1.00  0.00     0.112 C 
HETATM    4  C6  UNL     1      -0.180   4.158  17.902  1.00  0.00     0.026 C 
HETATM    5  S1  UNL     1      -1.311   5.511  19.890  1.00  0.00     0.186 S 
HETATM    6  O1  UNL     1      -2.517   5.155  19.051  1.00  0.00    -0.222 OA
HETATM    7  O2  UNL     1      -1.578   5.050  21.282  1.00  0.00    -0.222 OA
HETATM    8  C7  UNL     1      -1.172   7.279  19.857  1.00  0.00     0.110 A 
HETATM    9  S2  UNL     1      -2.326   8.528  19.872  1.00  0.00    -0.064 SA
HETATM   10  C8  UNL     1      -1.281   9.867  19.827  1.00  0.00     0.121 A 
HETATM   11  C9  UNL     1      -0.034   9.297  19.801  1.00  0.00     0.044 A 
HETATM   12  C10 UNL     1       0.022   7.942  19.815  1.00  0.00     0.003 A 
ENDROOT
BRANCH  10  13
HETATM   13  S3  UNL     1      -1.670  11.601  19.819  1.00  0.00     0.263 S 
HETATM   14  O3  UNL     1      -0.558  12.345  19.160  1.00  0.00    -0.200 OA
HETATM   15  O4  UNL     1      -1.815  12.060  21.219  1.00  0.00    -0.200 OA
BRANCH  13  16
HETATM   16  N2  UNL     1      -3.104  11.852  18.890  1.00  0.00    -0.324 N 
ATOM     17  H22 UNL     1      -3.358  11.318  18.059  1.00  0.00     0.169 HD
ATOM     18  H21 UNL     1      -3.642  12.611  19.309  1.00  0.00     0.169 HD
ENDBRANCH  13  16
ENDBRANCH  10  13
BRANCH   1  19
HETATM   19  N1  UNL     1       1.697   6.776  21.128  1.00  0.00    -0.067 N 
ATOM     20  H12 UNL     1       1.881   5.779  21.242  1.00  0.00     0.277 HD
ATOM     21  H11 UNL     1       0.931   6.874  21.795  1.00  0.00     0.277 HD
BRANCH  19  22
HETATM   22  C2  UNL     1       2.846   7.575  21.521  1.00  0.00     0.228 C 
HETATM   23  C1  UNL     1       4.058   7.266  20.688  1.00  0.00     0.034 C 
ENDBRANCH  19  22
ENDBRANCH   1  19
TORSDOF 4
ENDMDL
