MODEL 6
REMARK VINA RESULT: -5.919185022      3.504      5.398
REMARK  4 active torsions:
REMARK  status: ('A' for Active; 'I' for Inactive)
REMARK    1  A    between atoms: C2_2  and  N1_3 
REMARK    2  A    between atoms: N1_3  and  C3_6 
REMARK    3  A    between atoms: C8_15  and  S3_16 
REMARK    4  A    between atoms: S3_16  and  N2_17 
ROOT
HETATM    1  C3  UNL     1       1.348   6.991  19.721  1.00  0.00     0.222 C 
HETATM    2  C4  UNL     1       1.070   5.932  18.727  1.00  0.00     0.058 C 
HETATM    3  C5  UNL     1       0.033   4.924  19.095  1.00  0.00     0.112 C 
HETATM    4  C6  UNL     1      -0.496   4.333  17.783  1.00  0.00     0.026 C 
HETATM    5  S1  UNL     1      -1.333   5.615  19.954  1.00  0.00     0.186 S 
HETATM    6  O1  UNL     1      -2.633   5.414  19.209  1.00  0.00    -0.222 OA
HETATM    7  O2  UNL     1      -1.514   5.073  21.331  1.00  0.00    -0.222 OA
HETATM    8  C7  UNL     1      -1.054   7.365  20.027  1.00  0.00     0.110 A 
HETATM    9  S2  UNL     1      -2.097   8.692  20.235  1.00  0.00    -0.064 SA
HETATM   10  C8  UNL     1      -0.955   9.950  20.183  1.00  0.00     0.121 A 
HETATM   11  C9  UNL     1       0.234   9.291  20.001  1.00  0.00     0.044 A 
HETATM   12  C10 UNL     1       0.181   7.938  19.919  1.00  0.00     0.003 A 
ENDROOT
BRANCH  10  13
HETATM   13  S3  UNL     1      -1.201  11.704  20.327  1.00  0.00     0.263 S 
HETATM   14  O3  UNL     1      -2.654  11.975  20.529  1.00  0.00    -0.200 OA
HETATM   15  O4  UNL     1      -0.742  12.350  19.077  1.00  0.00    -0.200 OA
BRANCH  13  16
HETATM   16  N2  UNL     1      -0.353  12.278  21.717  1.00  0.00    -0.324 N 
ATOM     17  H22 UNL     1       0.652  12.184  21.863  1.00  0.00     0.169 HD
ATOM     18  H21 UNL     1      -1.017  12.720  22.353  1.00  0.00     0.169 HD
ENDBRANCH  13  16
ENDBRANCH  10  13
BRANCH   1  19
HETATM   19  N1  UNL     1       1.864   6.556  20.989  1.00  0.00    -0.067 N 
ATOM     20  H12 UNL     1       2.062   5.555  20.987  1.00  0.00     0.277 HD
ATOM     21  H11 UNL     1       1.143   6.575  21.711  1.00  0.00     0.277 HD
BRANCH  19  22
HETATM   22  C2  UNL     1       3.032   7.325  21.386  1.00  0.00     0.228 C 
HETATM   23  C1  UNL     1       4.188   7.118  20.449  1.00  0.00     0.034 C 
ENDBRANCH  19  22
ENDBRANCH   1  19
TORSDOF 4
ENDMDL
