MODEL 4
REMARK VINA RESULT: -6.041978066      2.405      3.086
REMARK  4 active torsions:
REMARK  status: ('A' for Active; 'I' for Inactive)
REMARK    1  A    between atoms: C2_2  and  N1_3 
REMARK    2  A    between atoms: N1_3  and  C3_6 
REMARK    3  A    between atoms: C8_15  and  S3_16 
REMARK    4  A    between atoms: S3_16  and  N2_17 
ROOT
HETATM    1  C3  UNL     1       0.114   8.971  20.023  1.00  0.00     0.222 C 
HETATM    2  C4  UNL     1      -0.046  10.269  20.713  1.00  0.00     0.058 C 
HETATM    3  C5  UNL     1       0.010  10.246  22.204  1.00  0.00     0.112 C 
HETATM    4  C6  UNL     1       0.410  11.656  22.654  1.00  0.00     0.026 C 
HETATM    5  S1  UNL     1       1.207   9.128  22.836  1.00  0.00     0.186 S 
HETATM    6  O1  UNL     1       2.260   9.831  23.664  1.00  0.00    -0.222 OA
HETATM    7  O2  UNL     1       0.629   8.039  23.674  1.00  0.00    -0.222 OA
HETATM    8  C7  UNL     1       2.042   8.432  21.435  1.00  0.00     0.110 A 
HETATM    9  S2  UNL     1       3.567   7.702  21.246  1.00  0.00    -0.064 SA
HETATM   10  C8  UNL     1       3.495   7.345  19.586  1.00  0.00     0.121 A 
HETATM   11  C9  UNL     1       2.262   7.812  19.213  1.00  0.00     0.044 A 
HETATM   12  C10 UNL     1       1.502   8.382  20.182  1.00  0.00     0.003 A 
ENDROOT
BRANCH  10  13
HETATM   13  S3  UNL     1       4.703   6.555  18.549  1.00  0.00     0.263 S 
HETATM   14  O3  UNL     1       5.480   7.602  17.824  1.00  0.00    -0.200 OA
HETATM   15  O4  UNL     1       3.998   5.692  17.574  1.00  0.00    -0.200 OA
BRANCH  13  16
HETATM   16  N2  UNL     1       5.802   5.667  19.541  1.00  0.00    -0.324 N 
ATOM     17  H22 UNL     1       5.946   5.829  20.538  1.00  0.00     0.169 HD
ATOM     18  H21 UNL     1       6.274   4.966  18.970  1.00  0.00     0.169 HD
ENDBRANCH  13  16
ENDBRANCH  10  13
BRANCH   1  19
HETATM   19  N1  UNL     1      -0.888   7.977  20.294  1.00  0.00    -0.067 N 
ATOM     20  H12 UNL     1      -1.330   8.132  21.200  1.00  0.00     0.277 HD
ATOM     21  H11 UNL     1      -0.468   7.065  20.475  1.00  0.00     0.277 HD
BRANCH  19  22
HETATM   22  C2  UNL     1      -1.874   7.905  19.228  1.00  0.00     0.228 C 
HETATM   23  C1  UNL     1      -1.806   6.601  18.485  1.00  0.00     0.034 C 
ENDBRANCH  19  22
ENDBRANCH   1  19
TORSDOF 4
ENDMDL
