MODEL 5
REMARK VINA RESULT: -5.984095235      3.095      4.957
REMARK  4 active torsions:
REMARK  status: ('A' for Active; 'I' for Inactive)
REMARK    1  A    between atoms: C2_2  and  N1_3 
REMARK    2  A    between atoms: N1_3  and  C3_6 
REMARK    3  A    between atoms: C8_15  and  S3_16 
REMARK    4  A    between atoms: S3_16  and  N2_17 
ROOT
HETATM    1  C3  UNL     1       2.373   7.486  20.168  1.00  0.00     0.222 C 
HETATM    2  C4  UNL     1       2.263   8.344  21.367  1.00  0.00     0.058 C 
HETATM    3  C5  UNL     1       1.463   9.596  21.223  1.00  0.00     0.112 C 
HETATM    4  C6  UNL     1       1.000   9.990  22.630  1.00  0.00     0.026 C 
HETATM    5  S1  UNL     1       0.030   9.394  20.230  1.00  0.00     0.186 S 
HETATM    6  O1  UNL     1      -1.239   9.692  20.996  1.00  0.00    -0.222 OA
HETATM    7  O2  UNL     1       0.025  10.242  19.003  1.00  0.00    -0.222 OA
HETATM    8  C7  UNL     1      -0.038   7.681  19.779  1.00  0.00     0.110 A 
HETATM    9  S2  UNL     1      -1.311   6.667  19.284  1.00  0.00    -0.064 SA
HETATM   10  C8  UNL     1      -0.443   5.222  19.065  1.00  0.00     0.121 A 
HETATM   11  C9  UNL     1       0.842   5.572  19.390  1.00  0.00     0.044 A 
HETATM   12  C10 UNL     1       1.053   6.860  19.764  1.00  0.00     0.003 A 
ENDROOT
BRANCH  10  13
HETATM   13  S3  UNL     1      -1.022   3.626  18.542  1.00  0.00     0.263 S 
HETATM   14  O3  UNL     1      -2.414   3.761  18.024  1.00  0.00    -0.200 OA
HETATM   15  O4  UNL     1      -1.011   2.714  19.708  1.00  0.00    -0.200 OA
BRANCH  13  16
HETATM   16  N2  UNL     1      -0.025   3.060  17.251  1.00  0.00    -0.324 N 
ATOM     17  H22 UNL     1       0.861   3.483  16.974  1.00  0.00     0.169 HD
ATOM     18  H21 UNL     1      -0.465   2.246  16.823  1.00  0.00     0.169 HD
ENDBRANCH  13  16
ENDBRANCH  10  13
BRANCH   1  19
HETATM   19  N1  UNL     1       3.025   8.067  19.026  1.00  0.00    -0.067 N 
ATOM     20  H12 UNL     1       3.448   8.966  19.257  1.00  0.00     0.277 HD
ATOM     21  H11 UNL     1       2.347   8.383  18.332  1.00  0.00     0.277 HD
BRANCH  19  22
HETATM   22  C2  UNL     1       3.997   7.157  18.443  1.00  0.00     0.228 C 
HETATM   23  C1  UNL     1       5.049   6.746  19.433  1.00  0.00     0.034 C 
ENDBRANCH  19  22
ENDBRANCH   1  19
TORSDOF 4
ENDMDL
