MODEL 9
REMARK VINA RESULT: -5.780661495      1.277      1.358
REMARK  4 active torsions:
REMARK  status: ('A' for Active; 'I' for Inactive)
REMARK    1  A    between atoms: C2_2  and  N1_3 
REMARK    2  A    between atoms: N1_3  and  C3_6 
REMARK    3  A    between atoms: C8_15  and  S3_16 
REMARK    4  A    between atoms: S3_16  and  N2_17 
ROOT
HETATM    1  C3  UNL     1      -0.530   6.913  19.493  1.00  0.00     0.222 C 
HETATM    2  C4  UNL     1      -1.352   8.137  19.609  1.00  0.00     0.058 C 
HETATM    3  C5  UNL     1      -1.441   8.757  20.964  1.00  0.00     0.112 C 
HETATM    4  C6  UNL     1      -1.800  10.232  20.752  1.00  0.00     0.026 C 
HETATM    5  S1  UNL     1       0.070   8.702  21.854  1.00  0.00     0.186 S 
HETATM    6  O1  UNL     1       0.578  10.084  22.198  1.00  0.00    -0.222 OA
HETATM    7  O2  UNL     1      -0.008   7.922  23.122  1.00  0.00    -0.222 OA
HETATM    8  C7  UNL     1       1.271   7.973  20.771  1.00  0.00     0.110 A 
HETATM    9  S2  UNL     1       2.970   8.037  20.722  1.00  0.00    -0.064 SA
HETATM   10  C8  UNL     1       3.243   7.043  19.371  1.00  0.00     0.121 A 
HETATM   11  C9  UNL     1       1.979   6.678  18.984  1.00  0.00     0.044 A 
HETATM   12  C10 UNL     1       0.947   7.167  19.718  1.00  0.00     0.003 A 
ENDROOT
BRANCH  10  13
HETATM   13  S3  UNL     1       4.778   6.565  18.614  1.00  0.00     0.263 S 
HETATM   14  O3  UNL     1       5.510   7.791  18.183  1.00  0.00    -0.200 OA
HETATM   15  O4  UNL     1       4.480   5.722  17.433  1.00  0.00    -0.200 OA
BRANCH  13  16
HETATM   16  N2  UNL     1       5.750   5.745  19.781  1.00  0.00    -0.324 N 
ATOM     17  H22 UNL     1       5.739   5.936  20.783  1.00  0.00     0.169 HD
ATOM     18  H21 UNL     1       6.325   5.050  19.306  1.00  0.00     0.169 HD
ENDBRANCH  13  16
ENDBRANCH  10  13
BRANCH   1  19
HETATM   19  N1  UNL     1      -0.968   5.777  20.257  1.00  0.00    -0.067 N 
ATOM     20  H12 UNL     1      -1.918   5.906  20.605  1.00  0.00     0.277 HD
ATOM     21  H11 UNL     1      -0.478   5.719  21.150  1.00  0.00     0.277 HD
BRANCH  19  22
HETATM   22  C2  UNL     1      -0.842   4.541  19.502  1.00  0.00     0.228 C 
HETATM   23  C1  UNL     1      -1.420   4.664  18.121  1.00  0.00     0.034 C 
ENDBRANCH  19  22
ENDBRANCH   1  19
TORSDOF 4
ENDMDL
