MODEL 5
REMARK VINA RESULT: -7.134852073      1.756      4.152
REMARK  9 active torsions:
REMARK  status: ('A' for Active; 'I' for Inactive)
REMARK    1  A    between atoms: C1_2  and  C2_4 
REMARK    2  A    between atoms: C2_4  and  C3_5 
REMARK    3  A    between atoms: C2_4  and  C10_12 
REMARK    4  A    between atoms: C3_5  and  C4_6 
REMARK    5  A    between atoms: C10_12  and  C11_13 
REMARK    6  A    between atoms: C11_13  and  O3_14 
REMARK    7  A    between atoms: C11_13  and  O4_16 
REMARK    8  A    between atoms: C11_13  and  C12_18 
REMARK    9  A    between atoms: C12_18  and  N1_19 
ROOT
HETATM    1  C2  UNL     1     -24.678   1.120  -6.402  1.00  0.00     0.096 C 
ENDROOT
BRANCH   1   2
HETATM    2  C1  UNL     1     -24.703   0.427  -5.078  1.00  0.00     0.177 C 
HETATM    3  O1  UNL     1     -24.107   0.926  -4.103  1.00  0.00    -0.648 OA
HETATM    4  O2  UNL     1     -25.373  -0.776  -4.887  1.00  0.00    -0.648 OA
ENDBRANCH   1   2
BRANCH   1   5
HETATM    5  C3  UNL     1     -24.448   2.585  -6.287  1.00  0.00     0.054 C 
BRANCH   5   6
HETATM    6  C4  UNL     1     -23.173   2.986  -6.911  1.00  0.00    -0.057 A 
HETATM    7  C5  UNL     1     -22.016   3.018  -6.123  1.00  0.00     0.007 A 
HETATM    8  C6  UNL     1     -20.804   3.418  -6.602  1.00  0.00     0.001 A 
HETATM    9  C7  UNL     1     -20.686   3.813  -7.913  1.00  0.00     0.000 A 
HETATM   10  C8  UNL     1     -21.775   3.806  -8.732  1.00  0.00     0.001 A 
HETATM   11  C9  UNL     1     -22.996   3.392  -8.209  1.00  0.00     0.007 A 
ENDBRANCH   5   6
ENDBRANCH   1   5
BRANCH   1  12
HETATM   12  C10 UNL     1     -25.673   0.580  -7.340  1.00  0.00     0.086 C 
BRANCH  12  13
HETATM   13  C11 UNL     1     -25.316   0.360  -8.747  1.00  0.00     0.182 C 
BRANCH  13  14
HETATM   14  O3  UNL     1     -25.639   1.445  -9.577  1.00  0.00    -0.364 OA
ATOM     15  H3  UNL     1     -26.532   1.749  -9.465  1.00  0.00     0.213 HD
ENDBRANCH  13  14
BRANCH  13  16
HETATM   16  O4  UNL     1     -26.139  -0.689  -9.267  1.00  0.00    -0.364 OA
ATOM     17  H4  UNL     1     -26.065  -0.689 -10.214  1.00  0.00     0.213 HD
ENDBRANCH  13  16
BRANCH  13  18
HETATM   18  C12 UNL     1     -23.922  -0.056  -9.084  1.00  0.00     0.269 C 
BRANCH  18  19
HETATM   19  N1  UNL     1     -23.718   0.394 -10.484  1.00  0.00    -0.150 N 
HETATM   20  O5  UNL     1     -22.849   1.238 -10.767  1.00  0.00    -0.536 OA
HETATM   21  O6  UNL     1     -24.475  -0.100 -11.517  1.00  0.00    -0.536 OA
ENDBRANCH  18  19
ENDBRANCH  13  18
ENDBRANCH  12  13
ENDBRANCH   1  12
TORSDOF 9
ENDMDL
