MODEL 4
REMARK VINA RESULT: -7.217230476      1.928      4.088
REMARK  9 active torsions:
REMARK  status: ('A' for Active; 'I' for Inactive)
REMARK    1  A    between atoms: C1_2  and  C2_4 
REMARK    2  A    between atoms: C2_4  and  C3_5 
REMARK    3  A    between atoms: C2_4  and  C10_12 
REMARK    4  A    between atoms: C3_5  and  C4_6 
REMARK    5  A    between atoms: C10_12  and  C11_13 
REMARK    6  A    between atoms: C11_13  and  O3_14 
REMARK    7  A    between atoms: C11_13  and  O4_16 
REMARK    8  A    between atoms: C11_13  and  C12_18 
REMARK    9  A    between atoms: C12_18  and  N1_19 
ROOT
HETATM    1  C2  UNL     1     -25.720   0.593  -6.149  1.00  0.00     0.096 C 
ENDROOT
BRANCH   1   2
HETATM    2  C1  UNL     1     -25.967  -0.246  -4.937  1.00  0.00     0.177 C 
HETATM    3  O1  UNL     1     -25.116  -0.291  -4.028  1.00  0.00    -0.648 OA
HETATM    4  O2  UNL     1     -27.127  -0.995  -4.782  1.00  0.00    -0.648 OA
ENDBRANCH   1   2
BRANCH   1   5
HETATM    5  C3  UNL     1     -25.473   2.023  -5.825  1.00  0.00     0.054 C 
BRANCH   5   6
HETATM    6  C4  UNL     1     -24.195   2.497  -6.390  1.00  0.00    -0.057 A 
HETATM    7  C5  UNL     1     -23.009   2.224  -5.699  1.00  0.00     0.007 A 
HETATM    8  C6  UNL     1     -21.788   2.660  -6.122  1.00  0.00     0.001 A 
HETATM    9  C7  UNL     1     -21.690   3.401  -7.275  1.00  0.00     0.000 A 
HETATM   10  C8  UNL     1     -22.809   3.701  -7.994  1.00  0.00     0.001 A 
HETATM   11  C9  UNL     1     -24.039   3.241  -7.532  1.00  0.00     0.007 A 
ENDBRANCH   5   6
ENDBRANCH   1   5
BRANCH   1  12
HETATM   12  C10 UNL     1     -26.572   0.209  -7.284  1.00  0.00     0.086 C 
BRANCH  12  13
HETATM   13  C11 UNL     1     -25.997   0.094  -8.631  1.00  0.00     0.182 C 
BRANCH  13  14
HETATM   14  O3  UNL     1     -26.215   1.230  -9.425  1.00  0.00    -0.364 OA
ATOM     15  H3  UNL     1     -26.652   1.035 -10.245  1.00  0.00     0.213 HD
ENDBRANCH  13  14
BRANCH  13  16
HETATM   16  O4  UNL     1     -26.706  -0.927  -9.342  1.00  0.00    -0.364 OA
ATOM     17  H4  UNL     1     -26.072  -1.495  -9.763  1.00  0.00     0.213 HD
ENDBRANCH  13  16
BRANCH  13  18
HETATM   18  C12 UNL     1     -24.559  -0.280  -8.775  1.00  0.00     0.269 C 
BRANCH  18  19
HETATM   19  N1  UNL     1     -24.166   0.229 -10.113  1.00  0.00    -0.150 N 
HETATM   20  O5  UNL     1     -23.440   1.233 -10.231  1.00  0.00    -0.536 OA
HETATM   21  O6  UNL     1     -24.583  -0.385 -11.268  1.00  0.00    -0.536 OA
ENDBRANCH  18  19
ENDBRANCH  13  18
ENDBRANCH  12  13
ENDBRANCH   1  12
TORSDOF 9
ENDMDL
