MODEL 15
REMARK VINA RESULT: -6.960639895      2.450      3.667
REMARK  9 active torsions:
REMARK  status: ('A' for Active; 'I' for Inactive)
REMARK    1  A    between atoms: C1_2  and  C2_4 
REMARK    2  A    between atoms: C2_4  and  C3_5 
REMARK    3  A    between atoms: C2_4  and  C10_12 
REMARK    4  A    between atoms: C3_5  and  C4_6 
REMARK    5  A    between atoms: C10_12  and  C11_13 
REMARK    6  A    between atoms: C11_13  and  O3_14 
REMARK    7  A    between atoms: C11_13  and  O4_16 
REMARK    8  A    between atoms: C11_13  and  C12_18 
REMARK    9  A    between atoms: C12_18  and  N1_19 
ROOT
HETATM    1  C2  UNL     1     -22.808   1.019  -9.565  1.00  0.00     0.096 C 
ENDROOT
BRANCH   1   2
HETATM    2  C1  UNL     1     -23.884   0.556 -10.492  1.00  0.00     0.177 C 
HETATM    3  O1  UNL     1     -24.669  -0.344 -10.134  1.00  0.00    -0.648 OA
HETATM    4  O2  UNL     1     -24.046   1.095 -11.763  1.00  0.00    -0.648 OA
ENDBRANCH   1   2
BRANCH   1   5
HETATM    5  C3  UNL     1     -23.279   2.038  -8.590  1.00  0.00     0.054 C 
BRANCH   5   6
HETATM    6  C4  UNL     1     -24.052   1.426  -7.492  1.00  0.00    -0.057 A 
HETATM    7  C5  UNL     1     -25.386   1.805  -7.313  1.00  0.00     0.007 A 
HETATM    8  C6  UNL     1     -26.164   1.326  -6.300  1.00  0.00     0.001 A 
HETATM    9  C7  UNL     1     -25.636   0.430  -5.402  1.00  0.00     0.000 A 
HETATM   10  C8  UNL     1     -24.342   0.020  -5.521  1.00  0.00     0.001 A 
HETATM   11  C9  UNL     1     -23.577   0.531  -6.567  1.00  0.00     0.007 A 
ENDBRANCH   5   6
ENDBRANCH   1   5
BRANCH   1  12
HETATM   12  C10 UNL     1     -21.506   1.155 -10.235  1.00  0.00     0.086 C 
BRANCH  12  13
HETATM   13  C11 UNL     1     -20.859  -0.019 -10.834  1.00  0.00     0.182 C 
BRANCH  13  14
HETATM   14  O3  UNL     1     -21.771  -0.963 -11.328  1.00  0.00    -0.364 OA
ATOM     15  H3  UNL     1     -21.939  -0.872 -12.258  1.00  0.00     0.213 HD
ENDBRANCH  13  14
BRANCH  13  16
HETATM   16  O4  UNL     1     -20.186  -0.744  -9.799  1.00  0.00    -0.364 OA
ATOM     17  H4  UNL     1     -19.249  -0.656  -9.930  1.00  0.00     0.213 HD
ENDBRANCH  13  16
BRANCH  13  18
HETATM   18  C12 UNL     1     -19.819   0.185 -11.885  1.00  0.00     0.269 C 
BRANCH  18  19
HETATM   19  N1  UNL     1     -20.515  -0.087 -13.168  1.00  0.00    -0.150 N 
HETATM   20  O5  UNL     1     -21.320   0.731 -13.648  1.00  0.00    -0.536 OA
HETATM   21  O6  UNL     1     -20.299  -1.245 -13.873  1.00  0.00    -0.536 OA
ENDBRANCH  18  19
ENDBRANCH  13  18
ENDBRANCH  12  13
ENDBRANCH   1  12
TORSDOF 9
ENDMDL
