MODEL 7
REMARK VINA RESULT: -7.091149636      3.452      5.995
REMARK  9 active torsions:
REMARK  status: ('A' for Active; 'I' for Inactive)
REMARK    1  A    between atoms: C1_2  and  C2_4 
REMARK    2  A    between atoms: C2_4  and  C3_5 
REMARK    3  A    between atoms: C2_4  and  C10_12 
REMARK    4  A    between atoms: C3_5  and  C4_6 
REMARK    5  A    between atoms: C10_12  and  C11_13 
REMARK    6  A    between atoms: C11_13  and  O3_14 
REMARK    7  A    between atoms: C11_13  and  O4_16 
REMARK    8  A    between atoms: C11_13  and  C12_18 
REMARK    9  A    between atoms: C12_18  and  N1_19 
ROOT
HETATM    1  C2  UNL     1     -25.868   0.804  -7.637  1.00  0.00     0.096 C 
ENDROOT
BRANCH   1   2
HETATM    2  C1  UNL     1     -26.639   0.003  -8.636  1.00  0.00     0.177 C 
HETATM    3  O1  UNL     1     -27.826   0.293  -8.882  1.00  0.00    -0.648 OA
HETATM    4  O2  UNL     1     -26.077  -1.073  -9.311  1.00  0.00    -0.648 OA
ENDBRANCH   1   2
BRANCH   1   5
HETATM    5  C3  UNL     1     -24.478   0.310  -7.444  1.00  0.00     0.054 C 
BRANCH   5   6
HETATM    6  C4  UNL     1     -23.494   1.405  -7.527  1.00  0.00    -0.057 A 
HETATM    7  C5  UNL     1     -22.947   1.729  -8.773  1.00  0.00     0.007 A 
HETATM    8  C6  UNL     1     -22.000   2.695  -8.939  1.00  0.00     0.001 A 
HETATM    9  C7  UNL     1     -21.544   3.397  -7.848  1.00  0.00     0.000 A 
HETATM   10  C8  UNL     1     -22.036   3.129  -6.606  1.00  0.00     0.001 A 
HETATM   11  C9  UNL     1     -23.001   2.135  -6.474  1.00  0.00     0.007 A 
ENDBRANCH   5   6
ENDBRANCH   1   5
BRANCH   1  12
HETATM   12  C10 UNL     1     -26.690   1.221  -6.492  1.00  0.00     0.086 C 
BRANCH  12  13
HETATM   13  C11 UNL     1     -27.199   0.219  -5.546  1.00  0.00     0.182 C 
BRANCH  13  14
HETATM   14  O3  UNL     1     -27.738  -0.914  -6.174  1.00  0.00    -0.364 OA
ATOM     15  H3  UNL     1     -27.604  -1.715  -5.683  1.00  0.00     0.213 HD
ENDBRANCH  13  14
BRANCH  13  16
HETATM   16  O4  UNL     1     -28.331   0.769  -4.866  1.00  0.00    -0.364 OA
ATOM     17  H4  UNL     1     -28.180   0.709  -3.930  1.00  0.00     0.213 HD
ENDBRANCH  13  16
BRANCH  13  18
HETATM   18  C12 UNL     1     -26.304  -0.264  -4.453  1.00  0.00     0.269 C 
BRANCH  18  19
HETATM   19  N1  UNL     1     -27.050  -1.376  -3.813  1.00  0.00    -0.150 N 
HETATM   20  O5  UNL     1     -26.643  -2.549  -3.886  1.00  0.00    -0.536 OA
HETATM   21  O6  UNL     1     -28.213  -1.157  -3.117  1.00  0.00    -0.536 OA
ENDBRANCH  18  19
ENDBRANCH  13  18
ENDBRANCH  12  13
ENDBRANCH   1  12
TORSDOF 9
ENDMDL
