MODEL 4
REMARK VINA RESULT: -9.899663043      6.660     10.569
REMARK  13 active torsions:
REMARK  status: ('A' for Active; 'I' for Inactive)
REMARK    1  A    between atoms: O1_2  and  P1_3 
REMARK    2  A    between atoms: P1_3  and  C2_6 
REMARK    3  A    between atoms: C2_6  and  O4_7 
REMARK    4  A    between atoms: C2_6  and  C3_9 
REMARK    5  A    between atoms: C2_6  and  C9_15 
REMARK    6  A    between atoms: C10_17  and  C11_18 
REMARK    7  A    between atoms: C11_18  and  C12_19 
REMARK    8  A    between atoms: C12_19  and  O5_20 
REMARK    9  A    between atoms: O5_20  and  P2_21 
REMARK   10  A    between atoms: P2_21  and  O8_24 
REMARK   11  A    between atoms: O8_24  and  P3_25 
REMARK   12  A    between atoms: N1_31  and  C15_32 
REMARK   13  A    between atoms: C15_32  and  C16_33 
ROOT
HETATM    1  C9  UNL     1     113.736  40.483  89.817  1.00  0.00     0.203 C 
HETATM    2  S1  UNL     1     112.155  40.952  90.771  1.00  0.00    -0.102 SA
HETATM    3  C10 UNL     1     111.440  41.656  89.291  1.00  0.00     0.004 C 
HETATM    4  C13 UNL     1     112.046  41.110  88.261  1.00  0.00     0.017 C 
HETATM    5  C14 UNL     1     111.658  41.495  86.879  1.00  0.00     0.069 C 
HETATM    6  N1  UNL     1     113.023  40.199  88.606  1.00  0.00    -0.361 N 
ENDROOT
BRANCH   1   7
HETATM    7  C2  UNL     1     114.604  41.681  89.956  1.00  0.00     0.220 C 
BRANCH   7   8
HETATM    8  P1  UNL     1     114.317  42.625  91.413  1.00  0.00     0.292 P 
HETATM    9  O2  UNL     1     113.190  43.826  91.354  1.00  0.00    -0.644 OA
HETATM   10  O3  UNL     1     115.536  43.530  91.362  1.00  0.00    -0.644 OA
BRANCH   8  11
HETATM   11  O1  UNL     1     114.900  42.103  92.913  1.00  0.00    -0.315 OA
HETATM   12  C1  UNL     1     115.748  43.133  93.310  1.00  0.00     0.213 C 
ENDBRANCH   8  11
ENDBRANCH   7   8
BRANCH   7  13
HETATM   13  O4  UNL     1     114.389  42.487  88.820  1.00  0.00    -0.370 OA
ATOM     14  H4  UNL     1     114.316  41.938  88.049  1.00  0.00     0.212 HD
ENDBRANCH   7  13
BRANCH   7  15
HETATM   15  C3  UNL     1     116.030  41.299  89.912  1.00  0.00    -0.008 A 
HETATM   16  C4  UNL     1     116.818  41.736  88.906  1.00  0.00     0.011 A 
HETATM   17  C5  UNL     1     118.161  41.342  88.798  1.00  0.00     0.001 A 
HETATM   18  C6  UNL     1     118.685  40.492  89.746  1.00  0.00     0.000 A 
HETATM   19  C7  UNL     1     117.887  40.047  90.771  1.00  0.00     0.001 A 
HETATM   20  C8  UNL     1     116.578  40.445  90.851  1.00  0.00     0.011 A 
ENDBRANCH   7  15
ENDBRANCH   1   7
BRANCH   6  21
HETATM   21  C15 UNL     1     113.308  38.938  87.899  1.00  0.00     0.167 C 
BRANCH  21  22
HETATM   22  C16 UNL     1     114.677  38.531  87.750  1.00  0.00     0.016 A 
HETATM   23  C17 UNL     1     115.465  37.834  88.593  1.00  0.00     0.101 A 
HETATM   24  N2  UNL     1     116.782  37.561  88.408  1.00  0.00    -0.355 N 
HETATM   25  C18 UNL     1     117.346  38.021  87.283  1.00  0.00     0.078 A 
ATOM     26  H2  UNL     1     117.318  37.030  89.094  1.00  0.00     0.166 HD
HETATM   27  C19 UNL     1     118.811  37.767  87.147  1.00  0.00     0.089 C 
HETATM   28  N3  UNL     1     116.639  38.708  86.407  1.00  0.00    -0.334 N 
HETATM   29  C20 UNL     1     115.329  38.984  86.587  1.00  0.00     0.126 A 
ATOM     30  H3  UNL     1     117.099  39.043  85.561  1.00  0.00     0.168 HD
HETATM   31  N4  UNL     1     114.542  39.720  85.637  1.00  0.00    -0.082 NA
ENDBRANCH  21  22
ENDBRANCH   6  21
BRANCH   3  32
HETATM   32  C11 UNL     1     110.319  42.600  89.300  1.00  0.00     0.075 C 
BRANCH  32  33
HETATM   33  C12 UNL     1     109.819  42.877  90.712  1.00  0.00     0.186 C 
BRANCH  33  34
HETATM   34  O5  UNL     1     109.096  44.107  90.598  1.00  0.00    -0.289 OA
BRANCH  34  35
HETATM   35  P2  UNL     1     109.226  44.926  92.029  1.00  0.00     0.418 P 
HETATM   36  O6  UNL     1     110.195  44.442  93.251  1.00  0.00    -0.624 OA
HETATM   37  O7  UNL     1     108.116  46.167  92.265  1.00  0.00    -0.624 OA
BRANCH  35  38
HETATM   38  O8  UNL     1     110.232  45.898  91.516  1.00  0.00    -0.173 OA
BRANCH  38  39
HETATM   39  P3  UNL     1     110.798  47.183  92.312  1.00  0.00     0.431 P 
HETATM   40  O9  UNL     1     111.835  47.513  91.241  1.00  0.00    -0.616 OA
HETATM   41  O10 UNL     1     111.870  47.120  93.528  1.00  0.00    -0.616 OA
HETATM   42  O11 UNL     1     110.073  48.701  91.979  1.00  0.00    -0.616 OA
ENDBRANCH  38  39
ENDBRANCH  35  38
ENDBRANCH  34  35
ENDBRANCH  33  34
ENDBRANCH  32  33
ENDBRANCH   3  32
TORSDOF 13
ENDMDL
