MODEL 3
REMARK VINA RESULT: -9.923830164      2.879      5.416
REMARK  13 active torsions:
REMARK  status: ('A' for Active; 'I' for Inactive)
REMARK    1  A    between atoms: O1_2  and  P1_3 
REMARK    2  A    between atoms: P1_3  and  C2_6 
REMARK    3  A    between atoms: C2_6  and  O4_7 
REMARK    4  A    between atoms: C2_6  and  C3_9 
REMARK    5  A    between atoms: C2_6  and  C9_15 
REMARK    6  A    between atoms: C10_17  and  C11_18 
REMARK    7  A    between atoms: C11_18  and  C12_19 
REMARK    8  A    between atoms: C12_19  and  O5_20 
REMARK    9  A    between atoms: O5_20  and  P2_21 
REMARK   10  A    between atoms: P2_21  and  O8_24 
REMARK   11  A    between atoms: O8_24  and  P3_25 
REMARK   12  A    between atoms: N1_31  and  C15_32 
REMARK   13  A    between atoms: C15_32  and  C16_33 
ROOT
HETATM    1  C9  UNL     1     108.211  47.333  93.958  1.00  0.00     0.203 C 
HETATM    2  S1  UNL     1     107.669  47.590  95.767  1.00  0.00    -0.102 SA
HETATM    3  C10 UNL     1     108.561  46.123  96.269  1.00  0.00     0.004 C 
HETATM    4  C13 UNL     1     109.484  45.892  95.363  1.00  0.00     0.017 C 
HETATM    5  C14 UNL     1     110.398  44.730  95.512  1.00  0.00     0.069 C 
HETATM    6  N1  UNL     1     109.490  46.803  94.327  1.00  0.00    -0.361 N 
ENDROOT
BRANCH   1   7
HETATM    7  C2  UNL     1     107.140  46.475  93.385  1.00  0.00     0.220 C 
BRANCH   7   8
HETATM    8  P1  UNL     1     105.653  47.329  92.990  1.00  0.00     0.292 P 
HETATM    9  O2  UNL     1     105.340  47.659  91.406  1.00  0.00    -0.644 OA
HETATM   10  O3  UNL     1     106.069  48.737  93.381  1.00  0.00    -0.644 OA
BRANCH   8  11
HETATM   11  O1  UNL     1     104.417  47.492  94.135  1.00  0.00    -0.315 OA
HETATM   12  C1  UNL     1     104.161  48.860  94.146  1.00  0.00     0.213 C 
ENDBRANCH   8  11
ENDBRANCH   7   8
BRANCH   7  13
HETATM   13  O4  UNL     1     106.868  45.462  94.327  1.00  0.00    -0.370 OA
ATOM     14  H4  UNL     1     106.649  44.657  93.874  1.00  0.00     0.212 HD
ENDBRANCH   7  13
BRANCH   7  15
HETATM   15  C3  UNL     1     107.622  45.778  92.176  1.00  0.00    -0.008 A 
HETATM   16  C4  UNL     1     107.652  44.428  92.138  1.00  0.00     0.011 A 
HETATM   17  C5  UNL     1     108.163  43.734  91.030  1.00  0.00     0.001 A 
HETATM   18  C6  UNL     1     108.640  44.452  89.955  1.00  0.00     0.000 A 
HETATM   19  C7  UNL     1     108.610  45.824  89.990  1.00  0.00     0.001 A 
HETATM   20  C8  UNL     1     108.108  46.476  91.087  1.00  0.00     0.011 A 
ENDBRANCH   7  15
ENDBRANCH   1   7
BRANCH   6  21
HETATM   21  C15 UNL     1     110.692  47.336  93.662  1.00  0.00     0.167 C 
BRANCH  21  22
HETATM   22  C16 UNL     1     111.611  46.408  93.063  1.00  0.00     0.016 A 
HETATM   23  C17 UNL     1     111.364  45.305  92.329  1.00  0.00     0.101 A 
HETATM   24  N2  UNL     1     112.296  44.432  91.867  1.00  0.00    -0.355 N 
HETATM   25  C18 UNL     1     113.576  44.696  92.162  1.00  0.00     0.078 A 
ATOM     26  H2  UNL     1     112.034  43.612  91.319  1.00  0.00     0.166 HD
HETATM   27  C19 UNL     1     114.566  43.679  91.703  1.00  0.00     0.089 C 
HETATM   28  N3  UNL     1     113.897  45.760  92.873  1.00  0.00    -0.334 N 
HETATM   29  C20 UNL     1     112.974  46.630  93.337  1.00  0.00     0.126 A 
ATOM     30  H3  UNL     1     114.881  45.933  93.080  1.00  0.00     0.168 HD
HETATM   31  N4  UNL     1     113.308  47.800  94.102  1.00  0.00    -0.082 NA
ENDBRANCH  21  22
ENDBRANCH   6  21
BRANCH   3  32
HETATM   32  C11 UNL     1     108.310  45.411  97.525  1.00  0.00     0.075 C 
BRANCH  32  33
HETATM   33  C12 UNL     1     107.872  43.972  97.286  1.00  0.00     0.186 C 
BRANCH  33  34
HETATM   34  O5  UNL     1     107.491  43.496  98.581  1.00  0.00    -0.289 OA
BRANCH  34  35
HETATM   35  P2  UNL     1     107.676  41.853  98.611  1.00  0.00     0.418 P 
HETATM   36  O6  UNL     1     107.592  40.919  97.275  1.00  0.00    -0.624 OA
HETATM   37  O7  UNL     1     107.713  41.149 100.139  1.00  0.00    -0.624 OA
BRANCH  35  38
HETATM   38  O8  UNL     1     109.164  41.901  98.577  1.00  0.00    -0.173 OA
BRANCH  38  39
HETATM   39  P3  UNL     1     110.159  40.687  98.954  1.00  0.00     0.431 P 
HETATM   40  O9  UNL     1     111.343  41.296  98.207  1.00  0.00    -0.616 OA
HETATM   41  O10 UNL     1     110.221  39.266  98.176  1.00  0.00    -0.616 OA
HETATM   42  O11 UNL     1     111.078  40.838 100.394  1.00  0.00    -0.616 OA
ENDBRANCH  38  39
ENDBRANCH  35  38
ENDBRANCH  34  35
ENDBRANCH  33  34
ENDBRANCH  32  33
ENDBRANCH   3  32
TORSDOF 13
ENDMDL
