MODEL 1
REMARK VINA RESULT: -10.165120702      0.000      0.000
REMARK  13 active torsions:
REMARK  status: ('A' for Active; 'I' for Inactive)
REMARK    1  A    between atoms: O1_2  and  P1_3 
REMARK    2  A    between atoms: P1_3  and  C2_6 
REMARK    3  A    between atoms: C2_6  and  O4_7 
REMARK    4  A    between atoms: C2_6  and  C3_9 
REMARK    5  A    between atoms: C2_6  and  C9_15 
REMARK    6  A    between atoms: C10_17  and  C11_18 
REMARK    7  A    between atoms: C11_18  and  C12_19 
REMARK    8  A    between atoms: C12_19  and  O5_20 
REMARK    9  A    between atoms: O5_20  and  P2_21 
REMARK   10  A    between atoms: P2_21  and  O8_24 
REMARK   11  A    between atoms: O8_24  and  P3_25 
REMARK   12  A    between atoms: N1_31  and  C15_32 
REMARK   13  A    between atoms: C15_32  and  C16_33 
ROOT
HETATM    1  C9  UNL     1     108.131  46.323  92.180  1.00  0.00     0.203 C 
HETATM    2  S1  UNL     1     107.880  44.626  93.010  1.00  0.00    -0.102 SA
HETATM    3  C10 UNL     1     108.579  45.242  94.537  1.00  0.00     0.004 C 
HETATM    4  C13 UNL     1     108.460  46.550  94.527  1.00  0.00     0.017 C 
HETATM    5  C14 UNL     1     108.951  47.350  95.679  1.00  0.00     0.069 C 
HETATM    6  N1  UNL     1     107.865  47.049  93.387  1.00  0.00    -0.361 N 
ENDROOT
BRANCH   1   7
HETATM    7  C2  UNL     1     109.497  46.235  91.600  1.00  0.00     0.220 C 
BRANCH   7   8
HETATM    8  P1  UNL     1     110.740  47.063  92.531  1.00  0.00     0.292 P 
HETATM    9  O2  UNL     1     110.530  48.662  92.865  1.00  0.00    -0.644 OA
HETATM   10  O3  UNL     1     111.779  47.250  91.440  1.00  0.00    -0.644 OA
BRANCH   8  11
HETATM   11  O1  UNL     1     111.927  46.188  93.362  1.00  0.00    -0.315 OA
HETATM   12  C1  UNL     1     112.880  47.151  93.680  1.00  0.00     0.213 C 
ENDBRANCH   8  11
ENDBRANCH   7   8
BRANCH   7  13
HETATM   13  O4  UNL     1     109.436  46.782  90.302  1.00  0.00    -0.370 OA
ATOM     14  H4  UNL     1     109.054  46.148  89.707  1.00  0.00     0.212 HD
ENDBRANCH   7  13
BRANCH   7  15
HETATM   15  C3  UNL     1     109.898  44.825  91.422  1.00  0.00    -0.008 A 
HETATM   16  C4  UNL     1     110.907  44.310  92.156  1.00  0.00     0.011 A 
HETATM   17  C5  UNL     1     111.356  42.993  91.969  1.00  0.00     0.001 A 
HETATM   18  C6  UNL     1     110.745  42.209  91.015  1.00  0.00     0.000 A 
HETATM   19  C7  UNL     1     109.718  42.730  90.269  1.00  0.00     0.001 A 
HETATM   20  C8  UNL     1     109.301  44.020  90.470  1.00  0.00     0.011 A 
ENDBRANCH   7  15
ENDBRANCH   1   7
BRANCH   6  21
HETATM   21  C15 UNL     1     106.919  48.177  93.337  1.00  0.00     0.167 C 
BRANCH  21  22
HETATM   22  C16 UNL     1     105.519  47.890  93.185  1.00  0.00     0.016 A 
HETATM   23  C17 UNL     1     104.817  47.593  92.074  1.00  0.00     0.101 A 
HETATM   24  N2  UNL     1     103.473  47.415  92.006  1.00  0.00    -0.355 N 
HETATM   25  C18 UNL     1     102.785  47.540  93.149  1.00  0.00     0.078 A 
ATOM     26  H2  UNL     1     103.007  47.196  91.125  1.00  0.00     0.166 HD
HETATM   27  C19 UNL     1     101.303  47.412  93.026  1.00  0.00     0.089 C 
HETATM   28  N3  UNL     1     103.402  47.826  94.279  1.00  0.00    -0.334 N 
HETATM   29  C20 UNL     1     104.739  48.006  94.351  1.00  0.00     0.126 A 
ATOM     30  H3  UNL     1     102.849  47.914  95.131  1.00  0.00     0.168 HD
HETATM   31  N4  UNL     1     105.428  48.305  95.576  1.00  0.00    -0.082 NA
ENDBRANCH  21  22
ENDBRANCH   6  21
BRANCH   3  32
HETATM   32  C11 UNL     1     109.093  44.375  95.601  1.00  0.00     0.075 C 
BRANCH  32  33
HETATM   33  C12 UNL     1     108.025  44.048  96.636  1.00  0.00     0.186 C 
BRANCH  33  34
HETATM   34  O5  UNL     1     108.758  43.808  97.841  1.00  0.00    -0.289 OA
BRANCH  34  35
HETATM   35  P2  UNL     1     108.175  42.429  98.544  1.00  0.00     0.418 P 
HETATM   36  O6  UNL     1     107.784  41.090  97.696  1.00  0.00    -0.624 OA
HETATM   37  O7  UNL     1     107.768  42.553 100.171  1.00  0.00    -0.624 OA
BRANCH  35  38
HETATM   38  O8  UNL     1     109.522  41.902  98.902  1.00  0.00    -0.173 OA
BRANCH  38  39
HETATM   39  P3  UNL     1     109.908  40.346  99.093  1.00  0.00     0.431 P 
HETATM   40  O9  UNL     1     110.942  40.635 100.179  1.00  0.00    -0.616 OA
HETATM   41  O10 UNL     1     110.933  39.524  98.143  1.00  0.00    -0.616 OA
HETATM   42  O11 UNL     1     109.030  39.453 100.265  1.00  0.00    -0.616 OA
ENDBRANCH  38  39
ENDBRANCH  35  38
ENDBRANCH  34  35
ENDBRANCH  33  34
ENDBRANCH  32  33
ENDBRANCH   3  32
TORSDOF 13
ENDMDL
