MODEL 5
REMARK VINA RESULT: -9.356005998      7.894     10.942
REMARK  13 active torsions:
REMARK  status: ('A' for Active; 'I' for Inactive)
REMARK    1  A    between atoms: O1_2  and  P1_3 
REMARK    2  A    between atoms: P1_3  and  C2_6 
REMARK    3  A    between atoms: C2_6  and  O4_7 
REMARK    4  A    between atoms: C2_6  and  C3_9 
REMARK    5  A    between atoms: C2_6  and  C9_15 
REMARK    6  A    between atoms: C10_17  and  C11_18 
REMARK    7  A    between atoms: C11_18  and  C12_19 
REMARK    8  A    between atoms: C12_19  and  O5_20 
REMARK    9  A    between atoms: O5_20  and  P2_21 
REMARK   10  A    between atoms: P2_21  and  O8_24 
REMARK   11  A    between atoms: O8_24  and  P3_25 
REMARK   12  A    between atoms: N1_31  and  C15_32 
REMARK   13  A    between atoms: C15_32  and  C16_33 
ROOT
HETATM    1  C9  UNL     1     116.319  40.957  89.648  1.00  0.00     0.203 C 
HETATM    2  S1  UNL     1     116.740  42.775  90.038  1.00  0.00    -0.102 SA
HETATM    3  C10 UNL     1     115.064  43.070  90.590  1.00  0.00     0.004 C 
HETATM    4  C13 UNL     1     114.547  41.909  90.922  1.00  0.00     0.017 C 
HETATM    5  C14 UNL     1     113.152  41.834  91.430  1.00  0.00     0.069 C 
HETATM    6  N1  UNL     1     115.406  40.844  90.747  1.00  0.00    -0.361 N 
ENDROOT
BRANCH   1   7
HETATM    7  C2  UNL     1     115.852  40.995  88.238  1.00  0.00     0.220 C 
BRANCH   7   8
HETATM    8  P1  UNL     1     116.765  39.969  87.138  1.00  0.00     0.292 P 
HETATM    9  O2  UNL     1     117.799  38.860  87.783  1.00  0.00    -0.644 OA
HETATM   10  O3  UNL     1     117.828  40.963  86.703  1.00  0.00    -0.644 OA
BRANCH   8  11
HETATM   11  O1  UNL     1     116.346  39.864  85.501  1.00  0.00    -0.315 OA
HETATM   12  C1  UNL     1     115.536  38.732  85.444  1.00  0.00     0.213 C 
ENDBRANCH   8  11
ENDBRANCH   7   8
BRANCH   7  13
HETATM   13  O4  UNL     1     115.928  42.335  87.808  1.00  0.00    -0.370 OA
ATOM     14  H4  UNL     1     116.385  42.853  88.460  1.00  0.00     0.212 HD
ENDBRANCH   7  13
BRANCH   7  15
HETATM   15  C3  UNL     1     114.424  40.628  88.153  1.00  0.00    -0.008 A 
HETATM   16  C4  UNL     1     114.022  39.385  88.494  1.00  0.00     0.011 A 
HETATM   17  C5  UNL     1     112.684  38.982  88.365  1.00  0.00     0.001 A 
HETATM   18  C6  UNL     1     111.759  39.883  87.883  1.00  0.00     0.000 A 
HETATM   19  C7  UNL     1     112.164  41.148  87.537  1.00  0.00     0.001 A 
HETATM   20  C8  UNL     1     113.479  41.514  87.670  1.00  0.00     0.011 A 
ENDBRANCH   7  15
ENDBRANCH   1   7
BRANCH   6  21
HETATM   21  C15 UNL     1     115.522  39.680  91.644  1.00  0.00     0.167 C 
BRANCH  21  22
HETATM   22  C16 UNL     1     116.363  39.790  92.803  1.00  0.00     0.016 A 
HETATM   23  C17 UNL     1     116.501  40.811  93.672  1.00  0.00     0.101 A 
HETATM   24  N2  UNL     1     117.385  40.865  94.701  1.00  0.00    -0.355 N 
HETATM   25  C18 UNL     1     118.187  39.804  94.870  1.00  0.00     0.078 A 
ATOM     26  H2  UNL     1     117.437  41.676  95.318  1.00  0.00     0.166 HD
HETATM   27  C19 UNL     1     119.195  39.927  95.964  1.00  0.00     0.089 C 
HETATM   28  N3  UNL     1     118.107  38.764  94.063  1.00  0.00    -0.334 N 
HETATM   29  C20 UNL     1     117.231  38.707  93.036  1.00  0.00     0.126 A 
ATOM     30  H3  UNL     1     118.732  37.973  94.219  1.00  0.00     0.168 HD
HETATM   31  N4  UNL     1     117.124  37.577  92.155  1.00  0.00    -0.082 NA
ENDBRANCH  21  22
ENDBRANCH   6  21
BRANCH   3  32
HETATM   32  C11 UNL     1     114.472  44.406  90.708  1.00  0.00     0.075 C 
BRANCH  32  33
HETATM   33  C12 UNL     1     114.332  44.840  92.160  1.00  0.00     0.186 C 
BRANCH  33  34
HETATM   34  O5  UNL     1     112.919  44.893  92.382  1.00  0.00    -0.289 OA
BRANCH  34  35
HETATM   35  P2  UNL     1     112.460  46.479  92.468  1.00  0.00     0.418 P 
HETATM   36  O6  UNL     1     112.623  47.525  91.225  1.00  0.00    -0.624 OA
HETATM   37  O7  UNL     1     112.034  47.035  93.997  1.00  0.00    -0.624 OA
BRANCH  35  38
HETATM   38  O8  UNL     1     111.031  46.205  92.149  1.00  0.00    -0.173 OA
BRANCH  38  39
HETATM   39  P3  UNL     1     109.797  47.216  92.392  1.00  0.00     0.431 P 
HETATM   40  O9  UNL     1     109.176  46.942  91.024  1.00  0.00    -0.616 OA
HETATM   41  O10 UNL     1     109.866  48.824  92.192  1.00  0.00    -0.616 OA
HETATM   42  O11 UNL     1     108.371  46.569  93.092  1.00  0.00    -0.616 OA
ENDBRANCH  38  39
ENDBRANCH  35  38
ENDBRANCH  34  35
ENDBRANCH  33  34
ENDBRANCH  32  33
ENDBRANCH   3  32
TORSDOF 13
ENDMDL
