MODEL 4
REMARK VINA RESULT: -9.025138817      3.027      7.032
REMARK  2 active torsions:
REMARK  status: ('A' for Active; 'I' for Inactive)
REMARK    1  A    between atoms: C3_5  and  C4_6 
REMARK    2  A    between atoms: C15_21  and  C16_22 
ROOT
HETATM    1  C4  UNL     1      34.639  -3.296 -78.412  1.00  0.00     0.048 C 
HETATM    2  C5  UNL     1      33.424  -2.869 -78.227  1.00  0.00     0.047 A 
HETATM    3  C6  UNL     1      32.215  -3.676 -78.130  1.00  0.00     0.257 A 
HETATM    4  O1  UNL     1      32.090  -4.924 -78.219  1.00  0.00    -0.267 OA
HETATM    5  N2  UNL     1      31.161  -2.738 -77.908  1.00  0.00    -0.322 N 
ATOM      6  H2  UNL     1      30.177  -2.982 -77.793  1.00  0.00     0.169 HD
HETATM    7  C7  UNL     1      31.684  -1.410 -77.871  1.00  0.00     0.046 A 
HETATM    8  C8  UNL     1      31.100  -0.162 -77.689  1.00  0.00     0.033 A 
HETATM    9  C9  UNL     1      31.848   0.995 -77.695  1.00  0.00     0.044 A 
HETATM   10  C10 UNL     1      33.215   0.941 -77.886  1.00  0.00     0.117 A 
HETATM   11  F1  UNL     1      33.942   2.103 -77.891  1.00  0.00    -0.206 F 
HETATM   12  C11 UNL     1      33.804  -0.287 -78.067  1.00  0.00     0.057 A 
HETATM   13  C12 UNL     1      33.049  -1.437 -78.059  1.00  0.00     0.009 A 
ENDROOT
BRANCH   1  14
HETATM   14  C3  UNL     1      34.988  -4.716 -78.550  1.00  0.00     0.040 A 
HETATM   15  N1  UNL     1      34.346  -5.789 -78.079  1.00  0.00    -0.359 N 
HETATM   16  C2  UNL     1      35.022  -6.878 -78.478  1.00  0.00     0.021 A 
ATOM     17  H1  UNL     1      33.494  -5.782 -77.518  1.00  0.00     0.166 HD
HETATM   18  C1  UNL     1      34.653  -8.283 -78.177  1.00  0.00     0.069 C 
HETATM   19  C15 UNL     1      36.113  -6.499 -79.214  1.00  0.00     0.059 A 
HETATM   20  C13 UNL     1      36.081  -5.141 -79.252  1.00  0.00    -0.018 A 
HETATM   21  C14 UNL     1      37.108  -4.301 -79.966  1.00  0.00     0.052 C 
BRANCH  19  22
HETATM   22  C16 UNL     1      37.118  -7.360 -79.832  1.00  0.00     0.267 C 
HETATM   23  N3  UNL     1      38.505  -7.204 -79.645  1.00  0.00    -0.057 NA
HETATM   24  O2  UNL     1      36.749  -8.307 -80.582  1.00  0.00    -0.271 OA
ENDBRANCH  19  22
ENDBRANCH   1  14
TORSDOF 2
ENDMDL
