MODEL 7
REMARK VINA RESULT: -8.566944323      3.308      7.587
REMARK  2 active torsions:
REMARK  status: ('A' for Active; 'I' for Inactive)
REMARK    1  A    between atoms: C3_5  and  C4_6 
REMARK    2  A    between atoms: C15_21  and  C16_22 
ROOT
HETATM    1  C4  UNL     1      33.396  -3.106 -78.357  1.00  0.00     0.048 C 
HETATM    2  C5  UNL     1      33.726  -1.848 -78.335  1.00  0.00     0.047 A 
HETATM    3  C6  UNL     1      35.045  -1.282 -78.583  1.00  0.00     0.257 A 
HETATM    4  O1  UNL     1      36.121  -1.876 -78.848  1.00  0.00    -0.267 OA
HETATM    5  N2  UNL     1      34.872   0.130 -78.461  1.00  0.00    -0.322 N 
ATOM      6  H2  UNL     1      35.612   0.822 -78.579  1.00  0.00     0.169 HD
HETATM    7  C7  UNL     1      33.511   0.433 -78.150  1.00  0.00     0.046 A 
HETATM    8  C8  UNL     1      32.829   1.624 -77.930  1.00  0.00     0.033 A 
HETATM    9  C9  UNL     1      31.481   1.641 -77.640  1.00  0.00     0.044 A 
HETATM   10  C10 UNL     1      30.769   0.461 -77.559  1.00  0.00     0.117 A 
HETATM   11  F1  UNL     1      29.431   0.499 -77.267  1.00  0.00    -0.206 F 
HETATM   12  C11 UNL     1      31.434  -0.722 -77.774  1.00  0.00     0.057 A 
HETATM   13  C12 UNL     1      32.778  -0.731 -78.064  1.00  0.00     0.009 A 
ENDROOT
BRANCH   1  14
HETATM   14  C3  UNL     1      34.343  -4.189 -78.653  1.00  0.00     0.040 A 
HETATM   15  N1  UNL     1      35.639  -4.110 -78.967  1.00  0.00    -0.359 N 
HETATM   16  C2  UNL     1      36.099  -5.361 -79.124  1.00  0.00     0.021 A 
ATOM     17  H1  UNL     1      36.182  -3.252 -79.068  1.00  0.00     0.166 HD
HETATM   18  C1  UNL     1      37.492  -5.732 -79.474  1.00  0.00     0.069 C 
HETATM   19  C15 UNL     1      35.084  -6.255 -78.908  1.00  0.00     0.059 A 
HETATM   20  C13 UNL     1      33.988  -5.508 -78.614  1.00  0.00    -0.018 A 
HETATM   21  C14 UNL     1      32.636  -6.096 -78.305  1.00  0.00     0.052 C 
BRANCH  19  22
HETATM   22  C16 UNL     1      35.146  -7.713 -78.982  1.00  0.00     0.267 C 
HETATM   23  N3  UNL     1      35.416  -8.426 -80.166  1.00  0.00    -0.057 NA
HETATM   24  O2  UNL     1      34.949  -8.397 -77.939  1.00  0.00    -0.271 OA
ENDBRANCH  19  22
ENDBRANCH   1  14
TORSDOF 2
ENDMDL
