MODEL 8
REMARK VINA RESULT: -8.399010217      2.635      4.466
REMARK  2 active torsions:
REMARK  status: ('A' for Active; 'I' for Inactive)
REMARK    1  A    between atoms: C3_5  and  C4_6 
REMARK    2  A    between atoms: C15_21  and  C16_22 
ROOT
HETATM    1  C4  UNL     1      33.732   0.402 -77.950  1.00  0.00     0.048 C 
HETATM    2  C5  UNL     1      32.967  -0.647 -77.865  1.00  0.00     0.047 A 
HETATM    3  C6  UNL     1      31.536  -0.671 -77.592  1.00  0.00     0.257 A 
HETATM    4  O1  UNL     1      30.760   0.292 -77.368  1.00  0.00    -0.267 OA
HETATM    5  N2  UNL     1      31.175  -2.053 -77.626  1.00  0.00    -0.322 N 
ATOM      6  H2  UNL     1      30.234  -2.414 -77.474  1.00  0.00     0.169 HD
HETATM    7  C7  UNL     1      32.324  -2.854 -77.905  1.00  0.00     0.046 A 
HETATM    8  C8  UNL     1      32.517  -4.223 -78.044  1.00  0.00     0.033 A 
HETATM    9  C9  UNL     1      33.759  -4.753 -78.322  1.00  0.00     0.044 A 
HETATM   10  C10 UNL     1      34.855  -3.925 -78.470  1.00  0.00     0.117 A 
HETATM   11  F1  UNL     1      36.081  -4.472 -78.744  1.00  0.00    -0.206 F 
HETATM   12  C11 UNL     1      34.675  -2.570 -78.336  1.00  0.00     0.057 A 
HETATM   13  C12 UNL     1      33.432  -2.049 -78.059  1.00  0.00     0.009 A 
ENDROOT
BRANCH   1  14
HETATM   14  C3  UNL     1      33.244   1.777 -77.781  1.00  0.00     0.040 A 
HETATM   15  N1  UNL     1      32.531   2.526 -78.627  1.00  0.00    -0.359 N 
HETATM   16  C2  UNL     1      32.296   3.706 -78.030  1.00  0.00     0.021 A 
ATOM     17  H1  UNL     1      32.221   2.252 -79.559  1.00  0.00     0.166 HD
HETATM   18  C1  UNL     1      31.533   4.834 -78.618  1.00  0.00     0.069 C 
HETATM   19  C15 UNL     1      32.865   3.713 -76.784  1.00  0.00     0.059 A 
HETATM   20  C13 UNL     1      33.457   2.499 -76.640  1.00  0.00    -0.018 A 
HETATM   21  C14 UNL     1      34.208   2.078 -75.404  1.00  0.00     0.052 C 
BRANCH  19  22
HETATM   22  C16 UNL     1      32.856   4.795 -75.803  1.00  0.00     0.267 C 
HETATM   23  N3  UNL     1      33.857   5.781 -75.715  1.00  0.00    -0.057 NA
HETATM   24  O2  UNL     1      31.906   4.874 -74.975  1.00  0.00    -0.271 OA
ENDBRANCH  19  22
ENDBRANCH   1  14
TORSDOF 2
ENDMDL
