MODEL 1
REMARK VINA RESULT: -10.317406046      0.000      0.000
REMARK  2 active torsions:
REMARK  status: ('A' for Active; 'I' for Inactive)
REMARK    1  A    between atoms: C3_5  and  C4_6 
REMARK    2  A    between atoms: C15_21  and  C16_22 
ROOT
HETATM    1  C4  UNL     1      34.637  -3.429 -78.563  1.00  0.00     0.048 C 
HETATM    2  C5  UNL     1      34.306  -4.687 -78.542  1.00  0.00     0.047 A 
HETATM    3  C6  UNL     1      33.000  -5.246 -78.220  1.00  0.00     0.257 A 
HETATM    4  O1  UNL     1      31.946  -4.647 -77.886  1.00  0.00    -0.267 OA
HETATM    5  N2  UNL     1      33.157  -6.659 -78.361  1.00  0.00    -0.322 N 
ATOM      6  H2  UNL     1      32.419  -7.346 -78.207  1.00  0.00     0.169 HD
HETATM    7  C7  UNL     1      34.495  -6.968 -78.750  1.00  0.00     0.046 A 
HETATM    8  C8  UNL     1      35.157  -8.162 -79.014  1.00  0.00     0.033 A 
HETATM    9  C9  UNL     1      36.485  -8.186 -79.381  1.00  0.00     0.044 A 
HETATM   10  C10 UNL     1      37.200  -7.010 -79.496  1.00  0.00     0.117 A 
HETATM   11  F1  UNL     1      38.520  -7.055 -79.861  1.00  0.00    -0.206 F 
HETATM   12  C11 UNL     1      36.556  -5.824 -79.238  1.00  0.00     0.057 A 
HETATM   13  C12 UNL     1      35.229  -5.808 -78.873  1.00  0.00     0.009 A 
ENDROOT
BRANCH   1  14
HETATM   14  C3  UNL     1      33.702  -2.338 -78.258  1.00  0.00     0.040 A 
HETATM   15  N1  UNL     1      32.376  -2.388 -78.097  1.00  0.00    -0.359 N 
HETATM   16  C2  UNL     1      31.953  -1.148 -77.803  1.00  0.00     0.021 A 
ATOM     17  H1  UNL     1      31.791  -3.219 -78.181  1.00  0.00     0.166 HD
HETATM   18  C1  UNL     1      30.547  -0.754 -77.543  1.00  0.00     0.069 C 
HETATM   19  C15 UNL     1      33.022  -0.291 -77.776  1.00  0.00     0.059 A 
HETATM   20  C13 UNL     1      34.112  -1.049 -78.063  1.00  0.00    -0.018 A 
HETATM   21  C14 UNL     1      35.513  -0.501 -78.138  1.00  0.00     0.052 C 
BRANCH  19  22
HETATM   22  C16 UNL     1      33.010   1.144 -77.504  1.00  0.00     0.267 C 
HETATM   23  N3  UNL     1      32.697   2.121 -78.469  1.00  0.00    -0.057 NA
HETATM   24  O2  UNL     1      33.294   1.559 -76.346  1.00  0.00    -0.271 OA
ENDBRANCH  19  22
ENDBRANCH   1  14
TORSDOF 2
ENDMDL
