MODEL 1
REMARK VINA RESULT: -5.236697421      0.000      0.000
REMARK  5 active torsions:
REMARK  status: ('A' for Active; 'I' for Inactive)
REMARK    1  A    between atoms: C2_2  and  C3_3 
REMARK    2  A    between atoms: C3_3  and  C4_4 
REMARK    3  A    between atoms: C4_4  and  C5_5 
REMARK    4  A    between atoms: C4_4  and  C8_8 
REMARK    5  A    between atoms: C5_5  and  C6_6 
ROOT
HETATM    1  C4  UNL     1      23.513  37.136  60.368  1.00  0.00     0.075 C 
ENDROOT
BRANCH   1   2
HETATM    2  C3  UNL     1      22.403  37.438  61.293  1.00  0.00     0.013 C 
BRANCH   2   3
HETATM    3  C2  UNL     1      21.739  38.739  61.196  1.00  0.00    -0.004 C 
HETATM    4  C1  UNL     1      20.576  38.594  60.200  1.00  0.00     0.005 C 
ENDBRANCH   2   3
ENDBRANCH   1   2
BRANCH   1   5
HETATM    5  C5  UNL     1      24.282  38.312  59.856  1.00  0.00     0.013 C 
BRANCH   5   6
HETATM    6  C6  UNL     1      24.931  38.007  58.520  1.00  0.00    -0.004 C 
HETATM    7  C7  UNL     1      26.437  38.143  58.728  1.00  0.00     0.005 C 
ENDBRANCH   5   6
ENDBRANCH   1   5
BRANCH   1   8
HETATM    8  C8  UNL     1      24.446  36.161  60.958  1.00  0.00     0.235 C 
HETATM    9  N1  UNL     1      24.387  34.788  60.648  1.00  0.00    -0.062 NA
HETATM   10  O1  UNL     1      25.326  36.542  61.762  1.00  0.00    -0.277 OA
ENDBRANCH   1   8
TORSDOF 5
ENDMDL
