MODEL 5
REMARK VINA RESULT: -5.190282470      1.318      3.477
REMARK  5 active torsions:
REMARK  status: ('A' for Active; 'I' for Inactive)
REMARK    1  A    between atoms: C2_2  and  C3_3 
REMARK    2  A    between atoms: C3_3  and  C4_4 
REMARK    3  A    between atoms: C4_4  and  C5_5 
REMARK    4  A    between atoms: C4_4  and  C8_8 
REMARK    5  A    between atoms: C5_5  and  C6_6 
ROOT
HETATM    1  C4  UNL     1      23.934  37.158  60.654  1.00  0.00     0.075 C 
ENDROOT
BRANCH   1   2
HETATM    2  C3  UNL     1      24.367  38.239  59.747  1.00  0.00     0.013 C 
BRANCH   2   3
HETATM    3  C2  UNL     1      24.882  39.481  60.325  1.00  0.00    -0.004 C 
HETATM    4  C1  UNL     1      26.368  39.258  60.657  1.00  0.00     0.005 C 
ENDBRANCH   2   3
ENDBRANCH   1   2
BRANCH   1   5
HETATM    5  C5  UNL     1      22.469  36.860  60.670  1.00  0.00     0.013 C 
BRANCH   5   6
HETATM    6  C6  UNL     1      21.683  37.985  61.316  1.00  0.00    -0.004 C 
HETATM    7  C7  UNL     1      20.722  38.511  60.254  1.00  0.00     0.005 C 
ENDBRANCH   5   6
ENDBRANCH   1   5
BRANCH   1   8
HETATM    8  C8  UNL     1      24.682  35.915  60.397  1.00  0.00     0.235 C 
HETATM    9  N1  UNL     1      25.693  35.841  59.418  1.00  0.00    -0.062 NA
HETATM   10  O1  UNL     1      24.428  34.883  61.056  1.00  0.00    -0.277 OA
ENDBRANCH   1   8
TORSDOF 5
ENDMDL
