MODEL 2
REMARK VINA RESULT: -5.231465732      1.800      2.205
REMARK  5 active torsions:
REMARK  status: ('A' for Active; 'I' for Inactive)
REMARK    1  A    between atoms: C2_2  and  C3_3 
REMARK    2  A    between atoms: C3_3  and  C4_4 
REMARK    3  A    between atoms: C4_4  and  C5_5 
REMARK    4  A    between atoms: C4_4  and  C8_8 
REMARK    5  A    between atoms: C5_5  and  C6_6 
ROOT
HETATM    1  C4  UNL     1      24.125  37.199  61.009  1.00  0.00     0.075 C 
ENDROOT
BRANCH   1   2
HETATM    2  C3  UNL     1      22.702  36.979  61.338  1.00  0.00     0.013 C 
BRANCH   2   3
HETATM    3  C2  UNL     1      21.681  37.463  60.408  1.00  0.00    -0.004 C 
HETATM    4  C1  UNL     1      21.157  38.804  60.950  1.00  0.00     0.005 C 
ENDBRANCH   2   3
ENDBRANCH   1   2
BRANCH   1   5
HETATM    5  C5  UNL     1      24.968  37.785  62.096  1.00  0.00     0.013 C 
BRANCH   5   6
HETATM    6  C6  UNL     1      24.523  39.192  62.443  1.00  0.00    -0.004 C 
HETATM    7  C7  UNL     1      24.808  40.054  61.217  1.00  0.00     0.005 C 
ENDBRANCH   5   6
ENDBRANCH   1   5
BRANCH   1   8
HETATM    8  C8  UNL     1      24.754  35.962  60.516  1.00  0.00     0.235 C 
HETATM    9  N1  UNL     1      25.726  35.974  59.495  1.00  0.00    -0.062 NA
HETATM   10  O1  UNL     1      24.431  34.856  61.003  1.00  0.00    -0.277 OA
ENDBRANCH   1   8
TORSDOF 5
ENDMDL
