MODEL 1
REMARK VINA RESULT: -10.262501171      0.000      0.000
REMARK  3 active torsions:
REMARK  status: ('A' for Active; 'I' for Inactive)
REMARK    1  A    between atoms: C3_3  and  N1_4 
REMARK    2  A    between atoms: C5_8  and  C6_9 
REMARK    3  A    between atoms: C8_14  and  O2_15 
ROOT
HETATM    1  C1  UNL     1      51.800   2.424   4.016  1.00  0.00     0.052 C 
HETATM    2  C2  UNL     1      52.766   3.517   3.837  1.00  0.00    -0.012 A 
HETATM    3  C3  UNL     1      54.041   3.214   3.407  1.00  0.00     0.043 A 
HETATM    4  C11 UNL     1      54.920   4.264   3.251  1.00  0.00     0.032 A 
HETATM    5  C12 UNL     1      54.523   5.574   3.521  1.00  0.00     0.027 A 
HETATM    6  C13 UNL     1      53.235   5.825   3.949  1.00  0.00     0.067 A 
HETATM    7  C14 UNL     1      52.902   7.208   4.207  1.00  0.00     0.101 C 
HETATM    8  N3  UNL     1      52.642   8.317   4.428  1.00  0.00    -0.191 NA
HETATM    9  C15 UNL     1      52.347   4.803   4.111  1.00  0.00     0.062 A 
HETATM   10 CL1  UNL     1      50.723   5.168   4.657  1.00  0.00    -0.082 Cl
ENDROOT
BRANCH   3  11
HETATM   11  N1  UNL     1      54.365   1.852   3.154  1.00  0.00    -0.322 N 
HETATM   12  C4  UNL     1      55.451   1.328   3.597  1.00  0.00     0.223 C 
HETATM   13  O1  UNL     1      56.376   2.034   4.341  1.00  0.00    -0.305 OA
HETATM   14  N2  UNL     1      55.854   0.001   3.399  1.00  0.00    -0.337 N 
HETATM   15  C5  UNL     1      57.434   1.130   4.698  1.00  0.00     0.264 C 
HETATM   16  C7  UNL     1      56.912  -0.246   4.394  1.00  0.00     0.155 C 
HETATM   17  C8  UNL     1      57.865  -1.071   3.561  1.00  0.00     0.145 C 
HETATM   18  C9  UNL     1      56.910  -2.075   2.948  1.00  0.00     0.054 C 
HETATM   19  C10 UNL     1      55.696  -1.216   2.664  1.00  0.00     0.129 C 
ATOM     20  H1  UNL     1      53.721   1.279   2.609  1.00  0.00     0.169 HD
BRANCH  15  21
HETATM   21  C6  UNL     1      57.642   1.320   6.188  1.00  0.00     0.415 C 
HETATM   22  F1  UNL     1      58.930   1.714   6.478  1.00  0.00    -0.168 F 
HETATM   23  F2  UNL     1      56.740   2.294   6.588  1.00  0.00    -0.168 F 
HETATM   24  F3  UNL     1      57.288   0.157   6.869  1.00  0.00    -0.168 F 
ENDBRANCH  15  21
BRANCH  17  25
HETATM   25  O2  UNL     1      58.873  -1.650   4.290  1.00  0.00    -0.393 OA
ATOM     26  H2  UNL     1      58.562  -2.179   5.016  1.00  0.00     0.210 HD
ENDBRANCH  17  25
ENDBRANCH   3  11
TORSDOF 3
ENDMDL
