MODEL 2
REMARK VINA RESULT: -8.646533821      3.700      7.324
REMARK  3 active torsions:
REMARK  status: ('A' for Active; 'I' for Inactive)
REMARK    1  A    between atoms: C3_3  and  N1_4 
REMARK    2  A    between atoms: C5_8  and  C6_9 
REMARK    3  A    between atoms: C8_14  and  O2_15 
ROOT
HETATM    1  C1  UNL     1      57.700   2.569   5.744  1.00  0.00     0.052 C 
HETATM    2  C2  UNL     1      57.063   1.748   4.705  1.00  0.00    -0.012 A 
HETATM    3  C3  UNL     1      56.117   2.329   3.886  1.00  0.00     0.043 A 
HETATM    4  C11 UNL     1      55.540   1.529   2.924  1.00  0.00     0.032 A 
HETATM    5  C12 UNL     1      55.906   0.189   2.794  1.00  0.00     0.027 A 
HETATM    6  C13 UNL     1      56.858  -0.345   3.639  1.00  0.00     0.067 A 
HETATM    7  C14 UNL     1      57.183  -1.740   3.440  1.00  0.00     0.101 C 
HETATM    8  N3  UNL     1      57.430  -2.864   3.289  1.00  0.00    -0.191 NA
HETATM    9  C15 UNL     1      57.444   0.425   4.598  1.00  0.00     0.062 A 
HETATM   10 CL1  UNL     1      58.647  -0.295   5.649  1.00  0.00    -0.082 Cl
ENDROOT
BRANCH   3  11
HETATM   11  N1  UNL     1      55.801   3.701   4.084  1.00  0.00    -0.322 N 
HETATM   12  C4  UNL     1      54.588   4.123   4.042  1.00  0.00     0.223 C 
HETATM   13  O1  UNL     1      53.512   3.290   3.803  1.00  0.00    -0.305 OA
HETATM   14  N2  UNL     1      54.180   5.451   4.223  1.00  0.00    -0.337 N 
HETATM   15  C5  UNL     1      52.318   4.087   3.868  1.00  0.00     0.264 C 
HETATM   16  C7  UNL     1      52.733   5.390   4.489  1.00  0.00     0.155 C 
HETATM   17  C8  UNL     1      52.274   6.595   3.702  1.00  0.00     0.145 C 
HETATM   18  C9  UNL     1      53.264   7.639   4.175  1.00  0.00     0.054 C 
HETATM   19  C10 UNL     1      54.543   6.834   4.266  1.00  0.00     0.129 C 
ATOM     20  H1  UNL     1      56.553   4.366   4.264  1.00  0.00     0.169 HD
BRANCH  15  21
HETATM   21  C6  UNL     1      51.373   3.323   4.776  1.00  0.00     0.415 C 
HETATM   22  F1  UNL     1      51.570   3.642   6.102  1.00  0.00    -0.168 F 
HETATM   23  F2  UNL     1      50.090   3.669   4.384  1.00  0.00    -0.168 F 
HETATM   24  F3  UNL     1      51.498   1.955   4.547  1.00  0.00    -0.168 F 
ENDBRANCH  15  21
BRANCH  17  25
HETATM   25  O2  UNL     1      50.965   6.938   3.934  1.00  0.00    -0.393 OA
ATOM     26  H2  UNL     1      50.864   7.761   4.398  1.00  0.00     0.210 HD
ENDBRANCH  17  25
ENDBRANCH   3  11
TORSDOF 3
ENDMDL
