MODEL 5
REMARK VINA RESULT: -5.645978948      3.399      6.923
REMARK  3 active torsions:
REMARK  status: ('A' for Active; 'I' for Inactive)
REMARK    1  A    between atoms: C3_3  and  N1_4 
REMARK    2  A    between atoms: C5_8  and  C6_9 
REMARK    3  A    between atoms: C8_14  and  O2_15 
ROOT
HETATM    1  C1  UNL     1      55.093   1.563   5.627  1.00  0.00     0.052 C 
HETATM    2  C2  UNL     1      55.389   0.670   4.499  1.00  0.00    -0.012 A 
HETATM    3  C3  UNL     1      54.453   0.531   3.496  1.00  0.00     0.043 A 
HETATM    4  C11 UNL     1      54.765  -0.315   2.455  1.00  0.00     0.032 A 
HETATM    5  C12 UNL     1      55.981  -0.997   2.427  1.00  0.00     0.027 A 
HETATM    6  C13 UNL     1      56.886  -0.824   3.456  1.00  0.00     0.067 A 
HETATM    7  C14 UNL     1      58.123  -1.566   3.354  1.00  0.00     0.101 C 
HETATM    8  N3  UNL     1      59.109  -2.174   3.279  1.00  0.00    -0.191 NA
HETATM    9  C15 UNL     1      56.600   0.007   4.497  1.00  0.00     0.062 A 
HETATM   10 CL1  UNL     1      57.778   0.196   5.781  1.00  0.00    -0.082 Cl
ENDROOT
BRANCH   3  11
HETATM   11  N1  UNL     1      53.237   1.263   3.599  1.00  0.00    -0.322 N 
HETATM   12  C4  UNL     1      53.233   2.530   3.810  1.00  0.00     0.223 C 
HETATM   13  O1  UNL     1      54.390   3.271   3.951  1.00  0.00    -0.305 OA
HETATM   14  N2  UNL     1      52.091   3.332   3.927  1.00  0.00    -0.337 N 
HETATM   15  C5  UNL     1      54.012   4.645   4.130  1.00  0.00     0.264 C 
HETATM   16  C7  UNL     1      52.558   4.718   3.757  1.00  0.00     0.155 C 
HETATM   17  C8  UNL     1      51.711   5.409   4.800  1.00  0.00     0.145 C 
HETATM   18  C9  UNL     1      50.344   4.841   4.478  1.00  0.00     0.054 C 
HETATM   19  C10 UNL     1      50.677   3.404   4.138  1.00  0.00     0.129 C 
ATOM     20  H1  UNL     1      52.349   0.770   3.504  1.00  0.00     0.169 HD
BRANCH  15  21
HETATM   21  C6  UNL     1      54.868   5.430   3.156  1.00  0.00     0.415 C 
HETATM   22  F1  UNL     1      54.135   5.883   2.081  1.00  0.00    -0.168 F 
HETATM   23  F2  UNL     1      55.390   6.499   3.867  1.00  0.00    -0.168 F 
HETATM   24  F3  UNL     1      55.957   4.659   2.754  1.00  0.00    -0.168 F 
ENDBRANCH  15  21
BRANCH  17  25
HETATM   25  O2  UNL     1      51.764   6.779   4.732  1.00  0.00    -0.393 OA
ATOM     26  H2  UNL     1      52.162   7.182   5.495  1.00  0.00     0.210 HD
ENDBRANCH  17  25
ENDBRANCH   3  11
TORSDOF 3
ENDMDL
