MODEL 3
REMARK VINA RESULT: -6.774714403      1.172      1.868
REMARK  3 active torsions:
REMARK  status: ('A' for Active; 'I' for Inactive)
REMARK    1  A    between atoms: C3_3  and  N1_4 
REMARK    2  A    between atoms: C5_8  and  C6_9 
REMARK    3  A    between atoms: C8_14  and  O2_15 
ROOT
HETATM    1  C1  UNL     1      55.304   3.906   2.965  1.00  0.00     0.052 C 
HETATM    2  C2  UNL     1      54.004   4.156   3.604  1.00  0.00    -0.012 A 
HETATM    3  C3  UNL     1      53.186   3.083   3.890  1.00  0.00     0.043 A 
HETATM    4  C11 UNL     1      51.976   3.356   4.488  1.00  0.00     0.032 A 
HETATM    5  C12 UNL     1      51.604   4.667   4.787  1.00  0.00     0.027 A 
HETATM    6  C13 UNL     1      52.459   5.707   4.479  1.00  0.00     0.067 A 
HETATM    7  C14 UNL     1      52.002   7.036   4.820  1.00  0.00     0.101 C 
HETATM    8  N3  UNL     1      51.626   8.103   5.080  1.00  0.00    -0.191 NA
HETATM    9  C15 UNL     1      53.662   5.463   3.888  1.00  0.00     0.062 A 
HETATM   10 CL1  UNL     1      54.715   6.814   3.516  1.00  0.00    -0.082 Cl
ENDROOT
BRANCH   3  11
HETATM   11  N1  UNL     1      53.640   1.778   3.554  1.00  0.00    -0.322 N 
HETATM   12  C4  UNL     1      54.798   1.356   3.915  1.00  0.00     0.223 C 
HETATM   13  O1  UNL     1      55.682   2.126   4.647  1.00  0.00    -0.305 OA
HETATM   14  N2  UNL     1      55.330   0.092   3.631  1.00  0.00    -0.337 N 
HETATM   15  C5  UNL     1      56.849   1.328   4.904  1.00  0.00     0.264 C 
HETATM   16  C7  UNL     1      56.461  -0.081   4.558  1.00  0.00     0.155 C 
HETATM   17  C8  UNL     1      57.450  -0.759   3.638  1.00  0.00     0.145 C 
HETATM   18  C9  UNL     1      56.576  -1.834   3.024  1.00  0.00     0.054 C 
HETATM   19  C10 UNL     1      55.263  -1.101   2.845  1.00  0.00     0.129 C 
ATOM     20  H1  UNL     1      53.032   1.162   3.014  1.00  0.00     0.169 HD
BRANCH  15  21
HETATM   21  C6  UNL     1      57.116   1.474   6.390  1.00  0.00     0.415 C 
HETATM   22  F1  UNL     1      57.258   0.250   7.006  1.00  0.00    -0.168 F 
HETATM   23  F2  UNL     1      58.286   2.208   6.507  1.00  0.00    -0.168 F 
HETATM   24  F3  UNL     1      56.113   2.240   6.980  1.00  0.00    -0.168 F 
ENDBRANCH  15  21
BRANCH  17  25
HETATM   25  O2  UNL     1      58.553  -1.256   4.287  1.00  0.00    -0.393 OA
ATOM     26  H2  UNL     1      59.121  -0.582   4.641  1.00  0.00     0.210 HD
ENDBRANCH  17  25
ENDBRANCH   3  11
TORSDOF 3
ENDMDL
