MODEL 4
REMARK VINA RESULT: -6.613148155      3.749      6.920
REMARK  3 active torsions:
REMARK  status: ('A' for Active; 'I' for Inactive)
REMARK    1  A    between atoms: C3_3  and  N1_4 
REMARK    2  A    between atoms: C5_8  and  C6_9 
REMARK    3  A    between atoms: C8_14  and  O2_15 
ROOT
HETATM    1  C1  UNL     1      55.503  -0.431   3.567  1.00  0.00     0.052 C 
HETATM    2  C2  UNL     1      56.216   0.437   4.513  1.00  0.00    -0.012 A 
HETATM    3  C3  UNL     1      55.542   1.499   5.079  1.00  0.00     0.043 A 
HETATM    4  C11 UNL     1      56.242   2.292   5.961  1.00  0.00     0.032 A 
HETATM    5  C12 UNL     1      57.577   2.022   6.262  1.00  0.00     0.027 A 
HETATM    6  C13 UNL     1      58.208   0.946   5.669  1.00  0.00     0.067 A 
HETATM    7  C14 UNL     1      59.590   0.732   6.032  1.00  0.00     0.101 C 
HETATM    8  N3  UNL     1      60.705   0.572   6.313  1.00  0.00    -0.191 NA
HETATM    9  C15 UNL     1      57.536   0.146   4.793  1.00  0.00     0.062 A 
HETATM   10 CL1  UNL     1      58.376  -1.208   4.064  1.00  0.00    -0.082 Cl
ENDROOT
BRANCH   3  11
HETATM   11  N1  UNL     1      54.181   1.706   4.719  1.00  0.00    -0.322 N 
HETATM   12  C4  UNL     1      53.697   2.888   4.581  1.00  0.00     0.223 C 
HETATM   13  O1  UNL     1      54.446   4.033   4.769  1.00  0.00    -0.305 OA
HETATM   14  N2  UNL     1      52.374   3.190   4.232  1.00  0.00    -0.337 N 
HETATM   15  C5  UNL     1      53.600   5.161   4.493  1.00  0.00     0.264 C 
HETATM   16  C7  UNL     1      52.387   4.600   3.807  1.00  0.00     0.155 C 
HETATM   17  C8  UNL     1      51.089   5.069   4.420  1.00  0.00     0.145 C 
HETATM   18  C9  UNL     1      50.148   3.969   3.971  1.00  0.00     0.054 C 
HETATM   19  C10 UNL     1      51.022   2.740   4.104  1.00  0.00     0.129 C 
ATOM     20  H1  UNL     1      53.577   0.899   4.567  1.00  0.00     0.169 HD
BRANCH  15  21
HETATM   21  C6  UNL     1      54.401   6.045   3.555  1.00  0.00     0.415 C 
HETATM   22  F1  UNL     1      55.221   5.305   2.732  1.00  0.00    -0.168 F 
HETATM   23  F2  UNL     1      53.478   6.753   2.802  1.00  0.00    -0.168 F 
HETATM   24  F3  UNL     1      55.115   6.990   4.289  1.00  0.00    -0.168 F 
ENDBRANCH  15  21
BRANCH  17  25
HETATM   25  O2  UNL     1      50.704   6.320   4.006  1.00  0.00    -0.393 OA
ATOM     26  H2  UNL     1      50.137   6.767   4.623  1.00  0.00     0.210 HD
ENDBRANCH  17  25
ENDBRANCH   3  11
TORSDOF 3
ENDMDL
