MODEL 2
REMARK VINA RESULT: -9.584729999      0.888      1.294
REMARK  6 active torsions:
REMARK  status: ('A' for Active; 'I' for Inactive)
REMARK    1  A    between atoms: N1_5  and  C4_6 
REMARK    2  A    between atoms: C5_8  and  C6_9 
REMARK    3  A    between atoms: C6_9  and  O3_10 
REMARK    4  A    between atoms: O3_10  and  P1_11 
REMARK    5  A    between atoms: C7_15  and  O7_16 
REMARK    6  A    between atoms: C8_18  and  O8_19 
ROOT
HETATM    1  C4  UNL     1      19.677   0.627  10.075  1.00  0.00     0.263 C 
HETATM    2  O2  UNL     1      20.985   0.604   9.641  1.00  0.00    -0.353 OA
HETATM    3  C5  UNL     1      21.726  -0.057  10.617  1.00  0.00     0.180 C 
HETATM    4  C7  UNL     1      20.825  -1.232  10.932  1.00  0.00     0.182 C 
HETATM    5  C8  UNL     1      19.474  -0.548  10.981  1.00  0.00     0.198 C 
ENDROOT
BRANCH   1   6
HETATM    6  N1  UNL     1      18.719   0.663   9.001  1.00  0.00    -0.280 N 
HETATM    7  C3  UNL     1      17.720   1.560   9.002  1.00  0.00     0.104 A 
HETATM    8  C2  UNL     1      16.782   1.632   7.998  1.00  0.00     0.092 A 
HETATM    9  C1  UNL     1      16.866   0.750   6.949  1.00  0.00     0.250 A 
HETATM   10  O1  UNL     1      16.028   0.772   5.998  1.00  0.00    -0.268 OA
HETATM   11  N2  UNL     1      17.869  -0.145   6.956  1.00  0.00    -0.275 N 
HETATM   12  C9  UNL     1      18.758  -0.177   7.953  1.00  0.00     0.331 A 
ATOM     13  H2  UNL     1      17.953  -0.811   6.188  1.00  0.00     0.173 HD
HETATM   14  O9  UNL     1      19.683  -1.027   7.929  1.00  0.00    -0.246 OA
ENDBRANCH   1   6
BRANCH   5  15
HETATM   15  O8  UNL     1      19.256  -0.167  12.311  1.00  0.00    -0.388 OA
ATOM     16  H8  UNL     1      19.445  -0.867  12.925  1.00  0.00     0.210 HD
ENDBRANCH   5  15
BRANCH   3  17
HETATM   17  C6  UNL     1      23.065  -0.499  10.081  1.00  0.00     0.217 C 
BRANCH  17  18
HETATM   18  O3  UNL     1      22.883  -1.675   9.432  1.00  0.00    -0.280 OA
BRANCH  18  19
HETATM   19  P1  UNL     1      24.229  -2.421   8.859  1.00  0.00     0.422 P 
HETATM   20  O4  UNL     1      24.945  -1.105   8.577  1.00  0.00    -0.617 OA
HETATM   21  O5  UNL     1      25.366  -2.951   9.903  1.00  0.00    -0.617 OA
HETATM   22  O6  UNL     1      24.383  -2.845   7.249  1.00  0.00    -0.617 OA
ENDBRANCH  18  19
ENDBRANCH  17  18
ENDBRANCH   3  17
BRANCH   4  23
HETATM   23  O7  UNL     1      21.155  -1.823  12.154  1.00  0.00    -0.390 OA
ATOM     24  H7  UNL     1      20.677  -2.631  12.295  1.00  0.00     0.210 HD
ENDBRANCH   4  23
TORSDOF 6
ENDMDL
