MODEL 5
REMARK VINA RESULT: -9.264503848      3.037      6.582
REMARK  6 active torsions:
REMARK  status: ('A' for Active; 'I' for Inactive)
REMARK    1  A    between atoms: N1_5  and  C4_6 
REMARK    2  A    between atoms: C5_8  and  C6_9 
REMARK    3  A    between atoms: C6_9  and  O3_10 
REMARK    4  A    between atoms: O3_10  and  P1_11 
REMARK    5  A    between atoms: C7_15  and  O7_16 
REMARK    6  A    between atoms: C8_18  and  O8_19 
ROOT
HETATM    1  C4  UNL     1      21.292  -1.581   9.556  1.00  0.00     0.263 C 
HETATM    2  O2  UNL     1      20.312  -1.020   8.767  1.00  0.00    -0.353 OA
HETATM    3  C5  UNL     1      19.292  -0.605   9.618  1.00  0.00     0.180 C 
HETATM    4  C7  UNL     1      20.080   0.047  10.734  1.00  0.00     0.182 C 
HETATM    5  C8  UNL     1      21.199  -0.957  10.916  1.00  0.00     0.198 C 
ENDROOT
BRANCH   1   6
HETATM    6  N1  UNL     1      22.612  -1.472   8.993  1.00  0.00    -0.280 N 
HETATM    7  C3  UNL     1      23.020  -0.332   8.412  1.00  0.00     0.104 A 
HETATM    8  C2  UNL     1      24.272  -0.183   7.862  1.00  0.00     0.092 A 
HETATM    9  C1  UNL     1      25.144  -1.243   7.905  1.00  0.00     0.250 A 
HETATM   10  O1  UNL     1      26.310  -1.159   7.412  1.00  0.00    -0.268 OA
HETATM   11  N2  UNL     1      24.729  -2.380   8.488  1.00  0.00    -0.275 N 
HETATM   12  C9  UNL     1      23.503  -2.479   9.010  1.00  0.00     0.331 A 
ATOM     13  H2  UNL     1      25.359  -3.181   8.532  1.00  0.00     0.173 HD
HETATM   14  O9  UNL     1      23.146  -3.556   9.548  1.00  0.00    -0.246 OA
ENDBRANCH   1   6
BRANCH   5  15
HETATM   15  O8  UNL     1      20.778  -1.866  11.894  1.00  0.00    -0.388 OA
ATOM     16  H8  UNL     1      20.999  -1.582  12.773  1.00  0.00     0.210 HD
ENDBRANCH   5  15
BRANCH   3  17
HETATM   17  C6  UNL     1      18.370   0.372   8.931  1.00  0.00     0.217 C 
BRANCH  17  18
HETATM   18  O3  UNL     1      18.037  -0.150   7.725  1.00  0.00    -0.280 OA
BRANCH  18  19
HETATM   19  P1  UNL     1      16.813   0.582   6.912  1.00  0.00     0.422 P 
HETATM   20  O4  UNL     1      16.273  -0.734   6.364  1.00  0.00    -0.617 OA
HETATM   21  O5  UNL     1      15.431   0.958   7.697  1.00  0.00    -0.617 OA
HETATM   22  O6  UNL     1      17.007   1.148   5.351  1.00  0.00    -0.617 OA
ENDBRANCH  18  19
ENDBRANCH  17  18
ENDBRANCH   3  17
BRANCH   4  23
HETATM   23  O7  UNL     1      19.313   0.189  11.893  1.00  0.00    -0.390 OA
ATOM     24  H7  UNL     1      19.609   0.919  12.423  1.00  0.00     0.210 HD
ENDBRANCH   4  23
TORSDOF 6
ENDMDL
