MODEL 3
REMARK VINA RESULT: -9.524416092      1.072      1.246
REMARK  6 active torsions:
REMARK  status: ('A' for Active; 'I' for Inactive)
REMARK    1  A    between atoms: N1_5  and  C4_6 
REMARK    2  A    between atoms: C5_8  and  C6_9 
REMARK    3  A    between atoms: C6_9  and  O3_10 
REMARK    4  A    between atoms: O3_10  and  P1_11 
REMARK    5  A    between atoms: C7_15  and  O7_16 
REMARK    6  A    between atoms: C8_18  and  O8_19 
ROOT
HETATM    1  C4  UNL     1      19.859   0.460  10.157  1.00  0.00     0.263 C 
HETATM    2  O2  UNL     1      21.158   0.201   9.779  1.00  0.00    -0.353 OA
HETATM    3  C5  UNL     1      21.785  -0.402  10.866  1.00  0.00     0.180 C 
HETATM    4  C7  UNL     1      20.726  -1.388  11.312  1.00  0.00     0.182 C 
HETATM    5  C8  UNL     1      19.480  -0.532  11.213  1.00  0.00     0.198 C 
ENDROOT
BRANCH   1   6
HETATM    6  N1  UNL     1      18.933   0.466   9.054  1.00  0.00    -0.280 N 
HETATM    7  C3  UNL     1      17.890   1.312   9.037  1.00  0.00     0.104 A 
HETATM    8  C2  UNL     1      16.982   1.353   8.005  1.00  0.00     0.092 A 
HETATM    9  C1  UNL     1      17.143   0.493   6.946  1.00  0.00     0.250 A 
HETATM   10  O1  UNL     1      16.333   0.489   5.969  1.00  0.00    -0.268 OA
HETATM   11  N2  UNL     1      18.189  -0.350   6.971  1.00  0.00    -0.275 N 
HETATM   12  C9  UNL     1      19.047  -0.354   7.995  1.00  0.00     0.331 A 
ATOM     13  H2  UNL     1      18.330  -0.998   6.196  1.00  0.00     0.173 HD
HETATM   14  O9  UNL     1      20.014  -1.156   7.987  1.00  0.00    -0.246 OA
ENDBRANCH   1   6
BRANCH   5  15
HETATM   15  O8  UNL     1      19.294   0.065  12.466  1.00  0.00    -0.388 OA
ATOM     16  H8  UNL     1      19.342  -0.563  13.178  1.00  0.00     0.210 HD
ENDBRANCH   5  15
BRANCH   3  17
HETATM   17  C6  UNL     1      23.060  -1.091  10.449  1.00  0.00     0.217 C 
BRANCH  17  18
HETATM   18  O3  UNL     1      23.261  -0.830   9.134  1.00  0.00    -0.280 OA
BRANCH  18  19
HETATM   19  P1  UNL     1      24.311  -1.807   8.336  1.00  0.00     0.422 P 
HETATM   20  O4  UNL     1      23.346  -2.986   8.330  1.00  0.00    -0.617 OA
HETATM   21  O5  UNL     1      24.411  -1.729   6.708  1.00  0.00    -0.617 OA
HETATM   22  O6  UNL     1      25.438  -2.739   9.147  1.00  0.00    -0.617 OA
ENDBRANCH  18  19
ENDBRANCH  17  18
ENDBRANCH   3  17
BRANCH   4  23
HETATM   23  O7  UNL     1      20.951  -1.833  12.618  1.00  0.00    -0.390 OA
ATOM     24  H7  UNL     1      20.282  -2.444  12.901  1.00  0.00     0.210 HD
ENDBRANCH   4  23
TORSDOF 6
ENDMDL
