MODEL 1
REMARK VINA RESULT: -9.617671730      0.000      0.000
REMARK  6 active torsions:
REMARK  status: ('A' for Active; 'I' for Inactive)
REMARK    1  A    between atoms: N1_5  and  C4_6 
REMARK    2  A    between atoms: C5_8  and  C6_9 
REMARK    3  A    between atoms: C6_9  and  O3_10 
REMARK    4  A    between atoms: O3_10  and  P1_11 
REMARK    5  A    between atoms: C7_15  and  O7_16 
REMARK    6  A    between atoms: C8_18  and  O8_19 
ROOT
HETATM    1  C4  UNL     1      19.758   0.598   9.917  1.00  0.00     0.263 C 
HETATM    2  O2  UNL     1      21.012   0.404   9.380  1.00  0.00    -0.353 OA
HETATM    3  C5  UNL     1      21.757  -0.291  10.328  1.00  0.00     0.180 C 
HETATM    4  C7  UNL     1      20.763  -1.337  10.783  1.00  0.00     0.182 C 
HETATM    5  C8  UNL     1      19.505  -0.501  10.903  1.00  0.00     0.198 C 
ENDROOT
BRANCH   1   6
HETATM    6  N1  UNL     1      18.719   0.694   8.925  1.00  0.00    -0.280 N 
HETATM    7  C3  UNL     1      17.765   1.634   9.017  1.00  0.00     0.104 A 
HETATM    8  C2  UNL     1      16.755   1.763   8.093  1.00  0.00     0.092 A 
HETATM    9  C1  UNL     1      16.715   0.895   7.030  1.00  0.00     0.250 A 
HETATM   10  O1  UNL     1      15.804   0.969   6.150  1.00  0.00    -0.268 OA
HETATM   11  N2  UNL     1      17.673  -0.044   6.945  1.00  0.00    -0.275 N 
HETATM   12  C9  UNL     1      18.636  -0.131   7.866  1.00  0.00     0.331 A 
ATOM     13  H2  UNL     1      17.665  -0.700   6.164  1.00  0.00     0.173 HD
HETATM   14  O9  UNL     1      19.518  -1.020   7.757  1.00  0.00    -0.246 OA
ENDBRANCH   1   6
BRANCH   5  15
HETATM   15  O8  UNL     1      19.449  -0.034  12.222  1.00  0.00    -0.388 OA
ATOM     16  H8  UNL     1      19.656  -0.711  12.855  1.00  0.00     0.210 HD
ENDBRANCH   5  15
BRANCH   3  17
HETATM   17  C6  UNL     1      22.987  -0.910   9.711  1.00  0.00     0.217 C 
BRANCH  17  18
HETATM   18  O3  UNL     1      23.755  -1.396  10.717  1.00  0.00    -0.280 OA
BRANCH  18  19
HETATM   19  P1  UNL     1      24.516  -2.826  10.445  1.00  0.00     0.422 P 
HETATM   20  O4  UNL     1      23.368  -3.376   9.606  1.00  0.00    -0.617 OA
HETATM   21  O5  UNL     1      25.609  -2.943   9.239  1.00  0.00    -0.617 OA
HETATM   22  O6  UNL     1      24.363  -4.118  11.495  1.00  0.00    -0.617 OA
ENDBRANCH  18  19
ENDBRANCH  17  18
ENDBRANCH   3  17
BRANCH   4  23
HETATM   23  O7  UNL     1      21.131  -1.903  12.006  1.00  0.00    -0.390 OA
ATOM     24  H7  UNL     1      21.292  -2.836  11.927  1.00  0.00     0.210 HD
ENDBRANCH   4  23
TORSDOF 6
ENDMDL
