MODEL 4
REMARK VINA RESULT: -9.316336188      1.589      2.269
REMARK  6 active torsions:
REMARK  status: ('A' for Active; 'I' for Inactive)
REMARK    1  A    between atoms: N1_5  and  C4_6 
REMARK    2  A    between atoms: C5_8  and  C6_9 
REMARK    3  A    between atoms: C6_9  and  O3_10 
REMARK    4  A    between atoms: O3_10  and  P1_11 
REMARK    5  A    between atoms: C7_15  and  O7_16 
REMARK    6  A    between atoms: C8_18  and  O8_19 
ROOT
HETATM    1  C4  UNL     1      20.535   0.643   9.966  1.00  0.00     0.263 C 
HETATM    2  O2  UNL     1      21.562   0.842   9.069  1.00  0.00    -0.353 OA
HETATM    3  C5  UNL     1      22.658   0.124   9.541  1.00  0.00     0.180 C 
HETATM    4  C7  UNL     1      22.009  -1.182   9.944  1.00  0.00     0.182 C 
HETATM    5  C8  UNL     1      20.760  -0.677  10.637  1.00  0.00     0.198 C 
ENDROOT
BRANCH   1   6
HETATM    6  N1  UNL     1      19.228   0.739   9.370  1.00  0.00    -0.280 N 
HETATM    7  C3  UNL     1      18.587  -0.360   8.940  1.00  0.00     0.104 A 
HETATM    8  C2  UNL     1      17.338  -0.317   8.365  1.00  0.00     0.092 A 
HETATM    9  C1  UNL     1      16.718   0.900   8.220  1.00  0.00     0.250 A 
HETATM   10  O1  UNL     1      15.566   0.996   7.697  1.00  0.00    -0.268 OA
HETATM   11  N2  UNL     1      17.366   1.995   8.653  1.00  0.00    -0.275 N 
HETATM   12  C9  UNL     1      18.578   1.904   9.206  1.00  0.00     0.331 A 
ATOM     13  H2  UNL     1      16.925   2.909   8.557  1.00  0.00     0.173 HD
HETATM   14  O9  UNL     1      19.157   2.947   9.600  1.00  0.00    -0.246 OA
ENDBRANCH   1   6
BRANCH   5  15
HETATM   15  O8  UNL     1      21.073  -0.542  11.995  1.00  0.00    -0.388 OA
ATOM     16  H8  UNL     1      20.766  -1.276  12.513  1.00  0.00     0.210 HD
ENDBRANCH   5  15
BRANCH   3  17
HETATM   17  C6  UNL     1      23.692  -0.068   8.459  1.00  0.00     0.217 C 
BRANCH  17  18
HETATM   18  O3  UNL     1      24.702  -0.807   8.979  1.00  0.00    -0.280 OA
BRANCH  18  19
HETATM   19  P1  UNL     1      25.256  -2.053   8.064  1.00  0.00     0.422 P 
HETATM   20  O4  UNL     1      25.394  -2.985   9.263  1.00  0.00    -0.617 OA
HETATM   21  O5  UNL     1      24.194  -3.020   7.287  1.00  0.00    -0.617 OA
HETATM   22  O6  UNL     1      26.883  -2.246   7.731  1.00  0.00    -0.617 OA
ENDBRANCH  18  19
ENDBRANCH  17  18
ENDBRANCH   3  17
BRANCH   4  23
HETATM   23  O7  UNL     1      22.823  -1.918  10.808  1.00  0.00    -0.390 OA
ATOM     24  H7  UNL     1      23.356  -1.353  11.355  1.00  0.00     0.210 HD
ENDBRANCH   4  23
TORSDOF 6
ENDMDL
