MODEL 7
REMARK VINA RESULT: -9.143915703      3.276      6.867
REMARK  6 active torsions:
REMARK  status: ('A' for Active; 'I' for Inactive)
REMARK    1  A    between atoms: N1_5  and  C4_6 
REMARK    2  A    between atoms: C5_8  and  C6_9 
REMARK    3  A    between atoms: C6_9  and  O3_10 
REMARK    4  A    between atoms: O3_10  and  P1_11 
REMARK    5  A    between atoms: C7_15  and  O7_16 
REMARK    6  A    between atoms: C8_18  and  O8_19 
ROOT
HETATM    1  C4  UNL     1      21.933  -1.420   9.605  1.00  0.00     0.263 C 
HETATM    2  O2  UNL     1      20.910  -1.593   8.699  1.00  0.00    -0.353 OA
HETATM    3  C5  UNL     1      19.828  -0.848   9.160  1.00  0.00     0.180 C 
HETATM    4  C7  UNL     1      20.506   0.442   9.569  1.00  0.00     0.182 C 
HETATM    5  C8  UNL     1      21.735  -0.094  10.274  1.00  0.00     0.198 C 
ENDROOT
BRANCH   1   6
HETATM    6  N1  UNL     1      23.243  -1.549   9.020  1.00  0.00    -0.280 N 
HETATM    7  C3  UNL     1      23.729  -0.596   8.208  1.00  0.00     0.104 A 
HETATM    8  C2  UNL     1      24.974  -0.677   7.628  1.00  0.00     0.092 A 
HETATM    9  C1  UNL     1      25.755  -1.776   7.887  1.00  0.00     0.250 A 
HETATM   10  O1  UNL     1      26.910  -1.900   7.377  1.00  0.00    -0.268 OA
HETATM   11  N2  UNL     1      25.260  -2.725   8.700  1.00  0.00    -0.275 N 
HETATM   12  C9  UNL     1      24.046  -2.604   9.242  1.00  0.00     0.331 A 
ATOM     13  H2  UNL     1      25.822  -3.551   8.907  1.00  0.00     0.173 HD
HETATM   14  O9  UNL     1      23.613  -3.509   9.998  1.00  0.00    -0.246 OA
ENDBRANCH   1   6
BRANCH   5  15
HETATM   15  O8  UNL     1      21.407  -0.222  11.629  1.00  0.00    -0.388 OA
ATOM     16  H8  UNL     1      21.604   0.563  12.126  1.00  0.00     0.210 HD
ENDBRANCH   5  15
BRANCH   3  17
HETATM   17  C6  UNL     1      18.809  -0.630   8.069  1.00  0.00     0.217 C 
BRANCH  17  18
HETATM   18  O3  UNL     1      17.771   0.058   8.604  1.00  0.00    -0.280 OA
BRANCH  18  19
HETATM   19  P1  UNL     1      16.958   1.071   7.600  1.00  0.00     0.422 P 
HETATM   20  O4  UNL     1      15.596   0.513   7.997  1.00  0.00    -0.617 OA
HETATM   21  O5  UNL     1      16.610   2.589   8.091  1.00  0.00    -0.617 OA
HETATM   22  O6  UNL     1      16.651   0.673   6.005  1.00  0.00    -0.617 OA
ENDBRANCH  18  19
ENDBRANCH  17  18
ENDBRANCH   3  17
BRANCH   4  23
HETATM   23  O7  UNL     1      19.702   1.199  10.426  1.00  0.00    -0.390 OA
ATOM     24  H7  UNL     1      20.207   1.581  11.135  1.00  0.00     0.210 HD
ENDBRANCH   4  23
TORSDOF 6
ENDMDL
