MODEL 11
REMARK VINA RESULT: -8.494251415      3.363      6.861
REMARK  6 active torsions:
REMARK  status: ('A' for Active; 'I' for Inactive)
REMARK    1  A    between atoms: N1_5  and  C4_6 
REMARK    2  A    between atoms: C5_8  and  C6_9 
REMARK    3  A    between atoms: C6_9  and  O3_10 
REMARK    4  A    between atoms: O3_10  and  P1_11 
REMARK    5  A    between atoms: C7_15  and  O7_16 
REMARK    6  A    between atoms: C8_18  and  O8_19 
ROOT
HETATM    1  C4  UNL     1      21.853  -1.479   9.641  1.00  0.00     0.263 C 
HETATM    2  O2  UNL     1      20.846  -1.608   8.710  1.00  0.00    -0.353 OA
HETATM    3  C5  UNL     1      19.777  -0.835   9.156  1.00  0.00     0.180 C 
HETATM    4  C7  UNL     1      20.485   0.428   9.598  1.00  0.00     0.182 C 
HETATM    5  C8  UNL     1      21.681  -0.156  10.323  1.00  0.00     0.198 C 
ENDROOT
BRANCH   1   6
HETATM    6  N1  UNL     1      23.171  -1.641   9.085  1.00  0.00    -0.280 N 
HETATM    7  C3  UNL     1      24.038  -2.518   9.617  1.00  0.00     0.104 A 
HETATM    8  C2  UNL     1      25.306  -2.706   9.119  1.00  0.00     0.092 A 
HETATM    9  C1  UNL     1      25.707  -1.968   8.033  1.00  0.00     0.250 A 
HETATM   10  O1  UNL     1      26.866  -2.103   7.534  1.00  0.00    -0.268 OA
HETATM   11  N2  UNL     1      24.834  -1.093   7.507  1.00  0.00    -0.275 N 
HETATM   12  C9  UNL     1      23.612  -0.944   8.024  1.00  0.00     0.331 A 
ATOM     13  H2  UNL     1      25.109  -0.533   6.699  1.00  0.00     0.173 HD
HETATM   14  O9  UNL     1      22.819  -0.116   7.508  1.00  0.00    -0.246 OA
ENDBRANCH   1   6
BRANCH   5  15
HETATM   15  O8  UNL     1      21.317  -0.290  11.669  1.00  0.00    -0.388 OA
ATOM     16  H8  UNL     1      21.555   0.469  12.187  1.00  0.00     0.210 HD
ENDBRANCH   5  15
BRANCH   3  17
HETATM   17  C6  UNL     1      18.792  -0.572   8.045  1.00  0.00     0.217 C 
BRANCH  17  18
HETATM   18  O3  UNL     1      17.732   0.084   8.579  1.00  0.00    -0.280 OA
BRANCH  18  19
HETATM   19  P1  UNL     1      16.927   1.120   7.592  1.00  0.00     0.422 P 
HETATM   20  O4  UNL     1      15.560   0.578   7.993  1.00  0.00    -0.617 OA
HETATM   21  O5  UNL     1      16.605   2.637   8.102  1.00  0.00    -0.617 OA
HETATM   22  O6  UNL     1      16.603   0.744   5.995  1.00  0.00    -0.617 OA
ENDBRANCH  18  19
ENDBRANCH  17  18
ENDBRANCH   3  17
BRANCH   4  23
HETATM   23  O7  UNL     1      19.686   1.198  10.447  1.00  0.00    -0.390 OA
ATOM     24  H7  UNL     1      19.778   0.931  11.354  1.00  0.00     0.210 HD
ENDBRANCH   4  23
TORSDOF 6
ENDMDL
