MODEL 6
REMARK VINA RESULT: -9.241106693      1.150      1.774
REMARK  6 active torsions:
REMARK  status: ('A' for Active; 'I' for Inactive)
REMARK    1  A    between atoms: N1_5  and  C4_6 
REMARK    2  A    between atoms: C5_8  and  C6_9 
REMARK    3  A    between atoms: C6_9  and  O3_10 
REMARK    4  A    between atoms: O3_10  and  P1_11 
REMARK    5  A    between atoms: C7_15  and  O7_16 
REMARK    6  A    between atoms: C8_18  and  O8_19 
ROOT
HETATM    1  C4  UNL     1      19.725   0.707  10.214  1.00  0.00     0.263 C 
HETATM    2  O2  UNL     1      20.934   0.678   9.554  1.00  0.00    -0.353 OA
HETATM    3  C5  UNL     1      21.810  -0.061  10.344  1.00  0.00     0.180 C 
HETATM    4  C7  UNL     1      20.936  -1.230  10.747  1.00  0.00     0.182 C 
HETATM    5  C8  UNL     1      19.641  -0.517  11.074  1.00  0.00     0.198 C 
ENDROOT
BRANCH   1   6
HETATM    6  N1  UNL     1      18.595   0.835   9.331  1.00  0.00    -0.280 N 
HETATM    7  C3  UNL     1      18.015  -0.251   8.796  1.00  0.00     0.104 A 
HETATM    8  C2  UNL     1      16.934  -0.178   7.949  1.00  0.00     0.092 A 
HETATM    9  C1  UNL     1      16.424   1.058   7.632  1.00  0.00     0.250 A 
HETATM   10  O1  UNL     1      15.428   1.183   6.856  1.00  0.00    -0.268 OA
HETATM   11  N2  UNL     1      17.010   2.140   8.172  1.00  0.00    -0.275 N 
HETATM   12  C9  UNL     1      18.058   2.020   8.991  1.00  0.00     0.331 A 
ATOM     13  H2  UNL     1      16.649   3.068   7.952  1.00  0.00     0.173 HD
HETATM   14  O9  UNL     1      18.584   3.052   9.478  1.00  0.00    -0.246 OA
ENDBRANCH   1   6
BRANCH   5  15
HETATM   15  O8  UNL     1      19.674  -0.214  12.441  1.00  0.00    -0.388 OA
ATOM     16  H8  UNL     1      19.232  -0.869  12.968  1.00  0.00     0.210 HD
ENDBRANCH   5  15
BRANCH   3  17
HETATM   17  C6  UNL     1      23.018  -0.503   9.555  1.00  0.00     0.217 C 
BRANCH  17  18
HETATM   18  O3  UNL     1      23.837  -1.180  10.397  1.00  0.00    -0.280 OA
BRANCH  18  19
HETATM   19  P1  UNL     1      24.303  -2.684   9.928  1.00  0.00     0.422 P 
HETATM   20  O4  UNL     1      25.162  -2.899  11.169  1.00  0.00    -0.617 OA
HETATM   21  O5  UNL     1      23.335  -3.962  10.234  1.00  0.00    -0.617 OA
HETATM   22  O6  UNL     1      25.645  -2.929   8.962  1.00  0.00    -0.617 OA
ENDBRANCH  18  19
ENDBRANCH  17  18
ENDBRANCH   3  17
BRANCH   4  23
HETATM   23  O7  UNL     1      21.454  -1.904  11.856  1.00  0.00    -0.390 OA
ATOM     24  H7  UNL     1      21.088  -1.577  12.669  1.00  0.00     0.210 HD
ENDBRANCH   4  23
TORSDOF 6
ENDMDL
