MODEL 12
REMARK VINA RESULT: -8.371175161      3.327      6.867
REMARK  6 active torsions:
REMARK  status: ('A' for Active; 'I' for Inactive)
REMARK    1  A    between atoms: N2_7  and  C3_8 
REMARK    2  A    between atoms: C4_10  and  C5_11 
REMARK    3  A    between atoms: C5_11  and  O4_12 
REMARK    4  A    between atoms: O4_12  and  P1_13 
REMARK    5  A    between atoms: C6_17  and  O8_18 
REMARK    6  A    between atoms: C7_20  and  O9_21 
ROOT
HETATM    1  C3  UNL     1       9.309   0.600   4.391  1.00  0.00     0.264 C 
HETATM    2  O3  UNL     1       8.611   1.785   4.468  1.00  0.00    -0.353 OA
HETATM    3  C4  UNL     1       9.175   2.687   3.612  1.00  0.00     0.180 C 
HETATM    4  C6  UNL     1      10.079   1.959   2.674  1.00  0.00     0.182 C 
HETATM    5  C7  UNL     1       9.713   0.515   2.954  1.00  0.00     0.198 C 
ENDROOT
BRANCH   1   6
HETATM    6  N2  UNL     1       8.438  -0.476   4.809  1.00  0.00    -0.277 N 
HETATM    7  C2  UNL     1       8.654  -1.194   5.937  1.00  0.00     0.331 A 
HETATM    8  N1  UNL     1       7.837  -2.195   6.317  1.00  0.00    -0.273 N 
HETATM    9  O2  UNL     1       9.633  -0.939   6.661  1.00  0.00    -0.246 OA
HETATM   10  C1  UNL     1       6.753  -2.553   5.610  1.00  0.00     0.289 A 
ATOM     11  H1  UNL     1       8.050  -2.701   7.176  1.00  0.00     0.173 HD
HETATM   12  O1  UNL     1       5.970  -3.474   5.929  1.00  0.00    -0.265 OA
HETATM   13  C9  UNL     1       6.502  -1.841   4.453  1.00  0.00     0.199 A 
HETATM   14  C8  UNL     1       7.355  -0.823   4.088  1.00  0.00     0.146 A 
HETATM   15  F1  UNL     1       5.410  -2.176   3.710  1.00  0.00    -0.199 F 
ENDBRANCH   1   6
BRANCH   5  16
HETATM   16  O9  UNL     1      10.889  -0.225   2.771  1.00  0.00    -0.388 OA
ATOM     17  H9  UNL     1      11.266  -0.100   1.908  1.00  0.00     0.210 HD
ENDBRANCH   5  16
BRANCH   3  18
HETATM   18  C5  UNL     1       8.125   3.446   2.825  1.00  0.00     0.217 C 
BRANCH  18  19
HETATM   19  O4  UNL     1       8.695   3.767   1.645  1.00  0.00    -0.280 OA
BRANCH  19  20
HETATM   20  P1  UNL     1       8.335   5.396   1.106  1.00  0.00     0.422 P 
HETATM   21  O5  UNL     1       7.990   5.364  -0.558  1.00  0.00    -0.617 OA
HETATM   22  O6  UNL     1       6.941   5.971   1.982  1.00  0.00    -0.617 OA
HETATM   23  O7  UNL     1       9.660   6.435   1.427  1.00  0.00    -0.617 OA
ENDBRANCH  19  20
ENDBRANCH  18  19
ENDBRANCH   3  18
BRANCH   4  24
HETATM   24  O8  UNL     1      11.394   2.144   3.114  1.00  0.00    -0.390 OA
ATOM     25  H8  UNL     1      11.681   3.002   2.822  1.00  0.00     0.210 HD
ENDBRANCH   4  24
TORSDOF 6
ENDMDL
