MODEL 4
REMARK VINA RESULT: -9.057739814      1.996      2.690
REMARK  6 active torsions:
REMARK  status: ('A' for Active; 'I' for Inactive)
REMARK    1  A    between atoms: N2_7  and  C3_8 
REMARK    2  A    between atoms: C4_10  and  C5_11 
REMARK    3  A    between atoms: C5_11  and  O4_12 
REMARK    4  A    between atoms: O4_12  and  P1_13 
REMARK    5  A    between atoms: C6_17  and  O8_18 
REMARK    6  A    between atoms: C7_20  and  O9_21 
ROOT
HETATM    1  C3  UNL     1       9.855   2.023   2.099  1.00  0.00     0.264 C 
HETATM    2  O3  UNL     1       9.015   0.942   1.947  1.00  0.00    -0.353 OA
HETATM    3  C4  UNL     1       9.539  -0.124   2.620  1.00  0.00     0.180 C 
HETATM    4  C6  UNL     1      10.604   0.367   3.544  1.00  0.00     0.182 C 
HETATM    5  C7  UNL     1      10.392   1.867   3.486  1.00  0.00     0.198 C 
ENDROOT
BRANCH   1   6
HETATM    6  N2  UNL     1       9.087   3.235   1.912  1.00  0.00    -0.277 N 
HETATM    7  C2  UNL     1       8.110   3.618   2.767  1.00  0.00     0.331 A 
HETATM    8  N1  UNL     1       7.399   4.748   2.584  1.00  0.00    -0.273 N 
HETATM    9  O2  UNL     1       7.841   2.921   3.761  1.00  0.00    -0.246 OA
HETATM   10  C1  UNL     1       7.606   5.572   1.545  1.00  0.00     0.289 A 
ATOM     11  H1  UNL     1       6.675   4.985   3.261  1.00  0.00     0.173 HD
HETATM   12  O1  UNL     1       6.970   6.629   1.339  1.00  0.00    -0.265 OA
HETATM   13  C9  UNL     1       8.597   5.211   0.651  1.00  0.00     0.199 A 
HETATM   14  C8  UNL     1       9.307   4.050   0.864  1.00  0.00     0.146 A 
HETATM   15  F1  UNL     1       8.835   6.025  -0.415  1.00  0.00    -0.199 F 
ENDBRANCH   1   6
BRANCH   5  16
HETATM   16  O9  UNL     1      11.660   2.443   3.638  1.00  0.00    -0.388 OA
ATOM     17  H9  UNL     1      12.279   1.855   4.056  1.00  0.00     0.210 HD
ENDBRANCH   5  16
BRANCH   3  18
HETATM   18  C5  UNL     1       8.478  -0.865   3.411  1.00  0.00     0.217 C 
BRANCH  18  19
HETATM   19  O4  UNL     1       9.124  -1.825   4.104  1.00  0.00    -0.280 OA
BRANCH  19  20
HETATM   20  P1  UNL     1       8.677  -1.895   5.798  1.00  0.00     0.422 P 
HETATM   21  O5  UNL     1       9.966  -2.566   6.682  1.00  0.00    -0.617 OA
HETATM   22  O6  UNL     1       8.369  -0.271   6.355  1.00  0.00    -0.617 OA
HETATM   23  O7  UNL     1       7.256  -2.832   6.000  1.00  0.00    -0.617 OA
ENDBRANCH  19  20
ENDBRANCH  18  19
ENDBRANCH   3  18
BRANCH   4  24
HETATM   24  O8  UNL     1      11.842   0.102   2.950  1.00  0.00    -0.390 OA
ATOM     25  H8  UNL     1      12.048  -0.813   3.101  1.00  0.00     0.210 HD
ENDBRANCH   4  24
TORSDOF 6
ENDMDL
