MODEL 3
REMARK VINA RESULT: -9.120994712      1.857      2.626
REMARK  6 active torsions:
REMARK  status: ('A' for Active; 'I' for Inactive)
REMARK    1  A    between atoms: N2_7  and  C3_8 
REMARK    2  A    between atoms: C4_10  and  C5_11 
REMARK    3  A    between atoms: C5_11  and  O4_12 
REMARK    4  A    between atoms: O4_12  and  P1_13 
REMARK    5  A    between atoms: C6_17  and  O8_18 
REMARK    6  A    between atoms: C7_20  and  O9_21 
ROOT
HETATM    1  C3  UNL     1       9.931   2.056   1.822  1.00  0.00     0.264 C 
HETATM    2  O3  UNL     1       8.991   1.052   1.746  1.00  0.00    -0.353 OA
HETATM    3  C4  UNL     1       9.354   0.041   2.588  1.00  0.00     0.180 C 
HETATM    4  C6  UNL     1      10.405   0.545   3.520  1.00  0.00     0.182 C 
HETATM    5  C7  UNL     1      10.359   2.038   3.255  1.00  0.00     0.198 C 
ENDROOT
BRANCH   1   6
HETATM    6  N2  UNL     1       9.310   3.300   1.423  1.00  0.00    -0.277 N 
HETATM    7  C2  UNL     1       9.369   3.771   0.155  1.00  0.00     0.331 A 
HETATM    8  N1  UNL     1       8.788   4.931  -0.207  1.00  0.00    -0.273 N 
HETATM    9  O2  UNL     1       9.974   3.129  -0.721  1.00  0.00    -0.246 OA
HETATM   10  C1  UNL     1       8.110   5.702   0.658  1.00  0.00     0.289 A 
ATOM     11  H1  UNL     1       8.866   5.236  -1.177  1.00  0.00     0.173 HD
HETATM   12  O1  UNL     1       7.557   6.783   0.363  1.00  0.00    -0.265 OA
HETATM   13  C9  UNL     1       8.030   5.252   1.962  1.00  0.00     0.199 A 
HETATM   14  C8  UNL     1       8.634   4.062   2.304  1.00  0.00     0.146 A 
HETATM   15  F1  UNL     1       7.350   6.008   2.868  1.00  0.00    -0.199 F 
ENDBRANCH   1   6
BRANCH   5  16
HETATM   16  O9  UNL     1      11.669   2.502   3.429  1.00  0.00    -0.388 OA
ATOM     17  H9  UNL     1      11.866   2.704   4.336  1.00  0.00     0.210 HD
ENDBRANCH   5  16
BRANCH   3  18
HETATM   18  C5  UNL     1       8.172  -0.479   3.383  1.00  0.00     0.217 C 
BRANCH  18  19
HETATM   19  O4  UNL     1       8.557  -1.665   3.901  1.00  0.00    -0.280 OA
BRANCH  19  20
HETATM   20  P1  UNL     1       8.208  -1.834   5.611  1.00  0.00     0.422 P 
HETATM   21  O5  UNL     1       6.854  -2.845   5.801  1.00  0.00    -0.617 OA
HETATM   22  O6  UNL     1       9.592  -2.559   6.387  1.00  0.00    -0.617 OA
HETATM   23  O7  UNL     1       7.917  -0.299   6.315  1.00  0.00    -0.617 OA
ENDBRANCH  19  20
ENDBRANCH  18  19
ENDBRANCH   3  18
BRANCH   4  24
HETATM   24  O8  UNL     1      11.643   0.083   3.062  1.00  0.00    -0.390 OA
ATOM     25  H8  UNL     1      12.321   0.521   3.562  1.00  0.00     0.210 HD
ENDBRANCH   4  24
TORSDOF 6
ENDMDL
