MODEL 13
REMARK VINA RESULT: -8.346168445      3.334      6.847
REMARK  6 active torsions:
REMARK  status: ('A' for Active; 'I' for Inactive)
REMARK    1  A    between atoms: N2_7  and  C3_8 
REMARK    2  A    between atoms: C4_10  and  C5_11 
REMARK    3  A    between atoms: C5_11  and  O4_12 
REMARK    4  A    between atoms: O4_12  and  P1_13 
REMARK    5  A    between atoms: C6_17  and  O8_18 
REMARK    6  A    between atoms: C7_20  and  O9_21 
ROOT
HETATM    1  C3  UNL     1       9.262   0.559   4.411  1.00  0.00     0.264 C 
HETATM    2  O3  UNL     1       8.573   1.748   4.524  1.00  0.00    -0.353 OA
HETATM    3  C4  UNL     1       9.126   2.662   3.674  1.00  0.00     0.180 C 
HETATM    4  C6  UNL     1      10.006   1.947   2.704  1.00  0.00     0.182 C 
HETATM    5  C7  UNL     1       9.637   0.499   2.965  1.00  0.00     0.198 C 
ENDROOT
BRANCH   1   6
HETATM    6  N2  UNL     1       8.392  -0.519   4.826  1.00  0.00    -0.277 N 
HETATM    7  C2  UNL     1       8.614  -1.245   5.947  1.00  0.00     0.331 A 
HETATM    8  N1  UNL     1       7.798  -2.248   6.325  1.00  0.00    -0.273 N 
HETATM    9  O2  UNL     1       9.597  -0.996   6.667  1.00  0.00    -0.246 OA
HETATM   10  C1  UNL     1       6.710  -2.600   5.621  1.00  0.00     0.289 A 
ATOM     11  H1  UNL     1       8.016  -2.761   7.179  1.00  0.00     0.173 HD
HETATM   12  O1  UNL     1       5.928  -3.523   5.937  1.00  0.00    -0.265 OA
HETATM   13  C9  UNL     1       6.453  -1.879   4.470  1.00  0.00     0.199 A 
HETATM   14  C8  UNL     1       7.305  -0.860   4.108  1.00  0.00     0.146 A 
HETATM   15  F1  UNL     1       5.357  -2.209   3.731  1.00  0.00    -0.199 F 
ENDBRANCH   1   6
BRANCH   5  16
HETATM   16  O9  UNL     1      10.803  -0.244   2.743  1.00  0.00    -0.388 OA
ATOM     17  H9  UNL     1      11.058  -0.257   1.828  1.00  0.00     0.210 HD
ENDBRANCH   5  16
BRANCH   3  18
HETATM   18  C5  UNL     1       8.065   3.442   2.923  1.00  0.00     0.217 C 
BRANCH  18  19
HETATM   19  O4  UNL     1       8.577   3.697   1.700  1.00  0.00    -0.280 OA
BRANCH  19  20
HETATM   20  P1  UNL     1       8.350   5.353   1.171  1.00  0.00     0.422 P 
HETATM   21  O5  UNL     1       9.723   6.261   1.597  1.00  0.00    -0.617 OA
HETATM   22  O6  UNL     1       8.162   5.356  -0.563  1.00  0.00    -0.617 OA
HETATM   23  O7  UNL     1       6.941   6.019   1.884  1.00  0.00    -0.617 OA
ENDBRANCH  19  20
ENDBRANCH  18  19
ENDBRANCH   3  18
BRANCH   4  24
HETATM   24  O8  UNL     1      11.331   2.115   3.122  1.00  0.00    -0.390 OA
ATOM     25  H8  UNL     1      11.641   1.280   3.451  1.00  0.00     0.210 HD
ENDBRANCH   4  24
TORSDOF 6
ENDMDL
