MODEL 6
REMARK VINA RESULT: -9.023089009      1.884      2.717
REMARK  6 active torsions:
REMARK  status: ('A' for Active; 'I' for Inactive)
REMARK    1  A    between atoms: N2_7  and  C3_8 
REMARK    2  A    between atoms: C4_10  and  C5_11 
REMARK    3  A    between atoms: C5_11  and  O4_12 
REMARK    4  A    between atoms: O4_12  and  P1_13 
REMARK    5  A    between atoms: C6_17  and  O8_18 
REMARK    6  A    between atoms: C7_20  and  O9_21 
ROOT
HETATM    1  C3  UNL     1       9.967   1.947   2.293  1.00  0.00     0.264 C 
HETATM    2  O3  UNL     1       9.205   1.033   2.987  1.00  0.00    -0.353 OA
HETATM    3  C4  UNL     1      10.035   0.205   3.686  1.00  0.00     0.180 C 
HETATM    4  C6  UNL     1      11.398   0.812   3.726  1.00  0.00     0.182 C 
HETATM    5  C7  UNL     1      11.127   2.207   3.199  1.00  0.00     0.198 C 
ENDROOT
BRANCH   1   6
HETATM    6  N2  UNL     1       9.161   3.121   2.038  1.00  0.00    -0.277 N 
HETATM    7  C2  UNL     1       8.180   3.529   2.877  1.00  0.00     0.331 A 
HETATM    8  N1  UNL     1       7.434   4.623   2.631  1.00  0.00    -0.273 N 
HETATM    9  O2  UNL     1       7.942   2.888   3.917  1.00  0.00    -0.246 OA
HETATM   10  C1  UNL     1       7.607   5.386   1.540  1.00  0.00     0.289 A 
ATOM     11  H1  UNL     1       6.709   4.881   3.299  1.00  0.00     0.173 HD
HETATM   12  O1  UNL     1       6.937   6.408   1.275  1.00  0.00    -0.265 OA
HETATM   13  C9  UNL     1       8.600   4.999   0.661  1.00  0.00     0.199 A 
HETATM   14  C8  UNL     1       9.347   3.875   0.938  1.00  0.00     0.146 A 
HETATM   15  F1  UNL     1       8.804   5.750  -0.457  1.00  0.00    -0.199 F 
ENDBRANCH   1   6
BRANCH   5  16
HETATM   16  O9  UNL     1      12.280   2.587   2.499  1.00  0.00    -0.388 OA
ATOM     17  H9  UNL     1      12.273   3.506   2.257  1.00  0.00     0.210 HD
ENDBRANCH   5  16
BRANCH   3  18
HETATM   18  C5  UNL     1       9.537  -0.027   5.099  1.00  0.00     0.217 C 
BRANCH  18  19
HETATM   19  O4  UNL     1       8.189  -0.021   5.031  1.00  0.00    -0.280 OA
BRANCH  19  20
HETATM   20  P1  UNL     1       7.450  -1.530   5.533  1.00  0.00     0.422 P 
HETATM   21  O5  UNL     1       8.617  -2.477   6.328  1.00  0.00    -0.617 OA
HETATM   22  O6  UNL     1       6.146  -1.166   6.632  1.00  0.00    -0.617 OA
HETATM   23  O7  UNL     1       6.818  -2.364   4.177  1.00  0.00    -0.617 OA
ENDBRANCH  19  20
ENDBRANCH  18  19
ENDBRANCH   3  18
BRANCH   4  24
HETATM   24  O8  UNL     1      12.187   0.158   2.773  1.00  0.00    -0.390 OA
ATOM     25  H8  UNL     1      12.751  -0.453   3.232  1.00  0.00     0.210 HD
ENDBRANCH   4  24
TORSDOF 6
ENDMDL
