MODEL 10
REMARK VINA RESULT: -8.815685630      3.338      6.767
REMARK  6 active torsions:
REMARK  status: ('A' for Active; 'I' for Inactive)
REMARK    1  A    between atoms: N2_7  and  C3_8 
REMARK    2  A    between atoms: C4_10  and  C5_11 
REMARK    3  A    between atoms: C5_11  and  O4_12 
REMARK    4  A    between atoms: O4_12  and  P1_13 
REMARK    5  A    between atoms: C6_17  and  O8_18 
REMARK    6  A    between atoms: C7_20  and  O9_21 
ROOT
HETATM    1  C3  UNL     1       9.612   1.109   4.132  1.00  0.00     0.264 C 
HETATM    2  O3  UNL     1       8.922   2.246   3.771  1.00  0.00    -0.353 OA
HETATM    3  C4  UNL     1       9.724   3.017   2.980  1.00  0.00     0.180 C 
HETATM    4  C6  UNL     1      10.879   2.193   2.517  1.00  0.00     0.182 C 
HETATM    5  C7  UNL     1      10.447   0.800   2.931  1.00  0.00     0.198 C 
ENDROOT
BRANCH   1   6
HETATM    6  N2  UNL     1       8.656   0.072   4.451  1.00  0.00    -0.277 N 
HETATM    7  C2  UNL     1       8.652  -0.577   5.639  1.00  0.00     0.331 A 
HETATM    8  N1  UNL     1       7.758  -1.543   5.927  1.00  0.00    -0.273 N 
HETATM    9  O2  UNL     1       9.493  -0.290   6.510  1.00  0.00    -0.246 OA
HETATM   10  C1  UNL     1       6.809  -1.931   5.060  1.00  0.00     0.289 A 
ATOM     11  H1  UNL     1       7.804  -1.997   6.838  1.00  0.00     0.173 HD
HETATM   12  O1  UNL     1       5.961  -2.821   5.288  1.00  0.00    -0.265 OA
HETATM   13  C9  UNL     1       6.783  -1.289   3.836  1.00  0.00     0.199 A 
HETATM   14  C8  UNL     1       7.710  -0.306   3.570  1.00  0.00     0.146 A 
HETATM   15  F1  UNL     1       5.833  -1.658   2.933  1.00  0.00    -0.199 F 
ENDBRANCH   1   6
BRANCH   5  16
HETATM   16  O9  UNL     1      11.623   0.112   3.258  1.00  0.00    -0.388 OA
ATOM     17  H9  UNL     1      12.400   0.644   3.141  1.00  0.00     0.210 HD
ENDBRANCH   5  16
BRANCH   3  18
HETATM   18  C5  UNL     1       8.972   3.564   1.782  1.00  0.00     0.217 C 
BRANCH  18  19
HETATM   19  O4  UNL     1       9.878   4.239   1.042  1.00  0.00    -0.280 OA
BRANCH  19  20
HETATM   20  P1  UNL     1      10.024   3.652  -0.603  1.00  0.00     0.422 P 
HETATM   21  O5  UNL     1       9.653   4.918  -1.675  1.00  0.00    -0.617 OA
HETATM   22  O6  UNL     1      11.669   3.132  -0.860  1.00  0.00    -0.617 OA
HETATM   23  O7  UNL     1       8.974   2.321  -0.857  1.00  0.00    -0.617 OA
ENDBRANCH  19  20
ENDBRANCH  18  19
ENDBRANCH   3  18
BRANCH   4  24
HETATM   24  O8  UNL     1      11.988   2.531   3.299  1.00  0.00    -0.390 OA
ATOM     25  H8  UNL     1      12.726   2.014   2.997  1.00  0.00     0.210 HD
ENDBRANCH   4  24
TORSDOF 6
ENDMDL
