MODEL 2
REMARK VINA RESULT: -9.138702729      1.860      2.493
REMARK  6 active torsions:
REMARK  status: ('A' for Active; 'I' for Inactive)
REMARK    1  A    between atoms: N2_7  and  C3_8 
REMARK    2  A    between atoms: C4_10  and  C5_11 
REMARK    3  A    between atoms: C5_11  and  O4_12 
REMARK    4  A    between atoms: O4_12  and  P1_13 
REMARK    5  A    between atoms: C6_17  and  O8_18 
REMARK    6  A    between atoms: C7_20  and  O9_21 
ROOT
HETATM    1  C3  UNL     1       9.930   2.054   1.797  1.00  0.00     0.264 C 
HETATM    2  O3  UNL     1       8.982   1.056   1.746  1.00  0.00    -0.353 OA
HETATM    3  C4  UNL     1       9.358   0.045   2.583  1.00  0.00     0.180 C 
HETATM    4  C6  UNL     1      10.433   0.545   3.489  1.00  0.00     0.182 C 
HETATM    5  C7  UNL     1      10.391   2.037   3.219  1.00  0.00     0.198 C 
ENDROOT
BRANCH   1   6
HETATM    6  N2  UNL     1       9.308   3.301   1.408  1.00  0.00    -0.277 N 
HETATM    7  C2  UNL     1       9.355   3.775   0.141  1.00  0.00     0.331 A 
HETATM    8  N1  UNL     1       8.774   4.938  -0.211  1.00  0.00    -0.273 N 
HETATM    9  O2  UNL     1       9.950   3.135  -0.743  1.00  0.00    -0.246 OA
HETATM   10  C1  UNL     1       8.107   5.708   0.663  1.00  0.00     0.289 A 
ATOM     11  H1  UNL     1       8.843   5.246  -1.181  1.00  0.00     0.173 HD
HETATM   12  O1  UNL     1       7.554   6.792   0.377  1.00  0.00    -0.265 OA
HETATM   13  C9  UNL     1       8.039   5.254   1.967  1.00  0.00     0.199 A 
HETATM   14  C8  UNL     1       8.643   4.061   2.298  1.00  0.00     0.146 A 
HETATM   15  F1  UNL     1       7.370   6.009   2.882  1.00  0.00    -0.199 F 
ENDBRANCH   1   6
BRANCH   5  16
HETATM   16  O9  UNL     1      11.708   2.493   3.362  1.00  0.00    -0.388 OA
ATOM     17  H9  UNL     1      11.782   3.198   3.994  1.00  0.00     0.210 HD
ENDBRANCH   5  16
BRANCH   3  18
HETATM   18  C5  UNL     1       8.191  -0.465   3.407  1.00  0.00     0.217 C 
BRANCH  18  19
HETATM   19  O4  UNL     1       8.576  -1.656   3.911  1.00  0.00    -0.280 OA
BRANCH  19  20
HETATM   20  P1  UNL     1       8.256  -1.833   5.626  1.00  0.00     0.422 P 
HETATM   21  O5  UNL     1       7.944  -0.299   6.290  1.00  0.00    -0.617 OA
HETATM   22  O6  UNL     1       6.854  -2.851   5.824  1.00  0.00    -0.617 OA
HETATM   23  O7  UNL     1       9.592  -2.567   6.408  1.00  0.00    -0.617 OA
ENDBRANCH  19  20
ENDBRANCH  18  19
ENDBRANCH   3  18
BRANCH   4  24
HETATM   24  O8  UNL     1      11.657   0.073   3.004  1.00  0.00    -0.390 OA
ATOM     25  H8  UNL     1      12.341   0.390   3.582  1.00  0.00     0.210 HD
ENDBRANCH   4  24
TORSDOF 6
ENDMDL
