MODEL 5
REMARK VINA RESULT: -9.048745772      2.008      2.779
REMARK  6 active torsions:
REMARK  status: ('A' for Active; 'I' for Inactive)
REMARK    1  A    between atoms: N2_7  and  C3_8 
REMARK    2  A    between atoms: C4_10  and  C5_11 
REMARK    3  A    between atoms: C5_11  and  O4_12 
REMARK    4  A    between atoms: O4_12  and  P1_13 
REMARK    5  A    between atoms: C6_17  and  O8_18 
REMARK    6  A    between atoms: C7_20  and  O9_21 
ROOT
HETATM    1  C3  UNL     1       9.859   2.037   2.102  1.00  0.00     0.264 C 
HETATM    2  O3  UNL     1       9.024   0.952   1.945  1.00  0.00    -0.353 OA
HETATM    3  C4  UNL     1       9.541  -0.108   2.634  1.00  0.00     0.180 C 
HETATM    4  C6  UNL     1      10.591   0.393   3.570  1.00  0.00     0.182 C 
HETATM    5  C7  UNL     1      10.375   1.892   3.498  1.00  0.00     0.198 C 
ENDROOT
BRANCH   1   6
HETATM    6  N2  UNL     1       9.090   3.244   1.895  1.00  0.00    -0.277 N 
HETATM    7  C2  UNL     1       8.108   3.638   2.739  1.00  0.00     0.331 A 
HETATM    8  N1  UNL     1       7.397   4.763   2.537  1.00  0.00    -0.273 N 
HETATM    9  O2  UNL     1       7.835   2.953   3.741  1.00  0.00    -0.246 OA
HETATM   10  C1  UNL     1       7.608   5.575   1.488  1.00  0.00     0.289 A 
ATOM     11  H1  UNL     1       6.668   5.009   3.207  1.00  0.00     0.173 HD
HETATM   12  O1  UNL     1       6.972   6.627   1.265  1.00  0.00    -0.265 OA
HETATM   13  C9  UNL     1       8.605   5.203   0.605  1.00  0.00     0.199 A 
HETATM   14  C8  UNL     1       9.315   4.046   0.837  1.00  0.00     0.146 A 
HETATM   15  F1  UNL     1       8.847   6.003  -0.470  1.00  0.00    -0.199 F 
ENDBRANCH   1   6
BRANCH   5  16
HETATM   16  O9  UNL     1      11.639   2.473   3.665  1.00  0.00    -0.388 OA
ATOM     17  H9  UNL     1      11.597   3.419   3.745  1.00  0.00     0.210 HD
ENDBRANCH   5  16
BRANCH   3  18
HETATM   18  C5  UNL     1       8.471  -0.846   3.413  1.00  0.00     0.217 C 
BRANCH  18  19
HETATM   19  O4  UNL     1       9.106  -1.820   4.098  1.00  0.00    -0.280 OA
BRANCH  19  20
HETATM   20  P1  UNL     1       8.685  -1.876   5.800  1.00  0.00     0.422 P 
HETATM   21  O5  UNL     1       8.391  -0.294   6.347  1.00  0.00    -0.617 OA
HETATM   22  O6  UNL     1       7.239  -2.834   5.979  1.00  0.00    -0.617 OA
HETATM   23  O7  UNL     1       9.948  -2.602   6.702  1.00  0.00    -0.617 OA
ENDBRANCH  19  20
ENDBRANCH  18  19
ENDBRANCH   3  18
BRANCH   4  24
HETATM   24  O8  UNL     1      11.839   0.128   2.996  1.00  0.00    -0.390 OA
ATOM     25  H8  UNL     1      12.462  -0.003   3.702  1.00  0.00     0.210 HD
ENDBRANCH   4  24
TORSDOF 6
ENDMDL
