MODEL 9
REMARK VINA RESULT: -6.188153042      1.566      2.486
REMARK  2 active torsions:
REMARK  status: ('A' for Active; 'I' for Inactive)
REMARK    1  A    between atoms: C2_2  and  C3_3 
REMARK    2  A    between atoms: N2_8  and  C6_9 
ROOT
HETATM    1  C3  UNL     1      -1.955  51.484  11.797  1.00  0.00     0.036 A 
HETATM    2  C4  UNL     1      -1.577  52.699  11.265  1.00  0.00     0.035 A 
HETATM    3  C5  UNL     1      -0.475  52.876  10.287  1.00  0.00     0.070 C 
HETATM    4  N1  UNL     1      -2.363  53.624  11.791  1.00  0.00    -0.280 N 
ATOM      5  H1  UNL     1      -2.303  54.618  11.570  1.00  0.00     0.188 HD
HETATM    6  N2  UNL     1      -3.245  53.103  12.642  1.00  0.00    -0.045 N 
HETATM    7  C7  UNL     1      -2.994  51.765  12.648  1.00  0.00     0.290 A 
HETATM    8  O1  UNL     1      -3.600  50.887  13.321  1.00  0.00    -0.265 OA
ENDROOT
BRANCH   6   9
HETATM    9  C6  UNL     1      -4.247  53.770  13.407  1.00  0.00     0.735 A 
HETATM   10  N3  UNL     1      -4.862  53.279  14.526  1.00  0.00    -0.116 N 
HETATM   11  N4  UNL     1      -5.720  54.189  14.944  1.00  0.00    -0.211 N 
ATOM     12  H3  UNL     1      -4.688  52.372  14.959  1.00  0.00     0.207 HD
HETATM   13  N5  UNL     1      -5.702  55.254  14.159  1.00  0.00     0.009 NA
ATOM     14  H4  UNL     1      -6.319  54.085  15.763  1.00  0.00     0.206 HD
HETATM   15  N6  UNL     1      -4.797  54.982  13.226  1.00  0.00    -0.111 N 
ATOM     16  H6  UNL     1      -4.550  55.615  12.466  1.00  0.00     0.203 HD
ENDBRANCH   6   9
BRANCH   1  17
HETATM   17  C2  UNL     1      -1.368  50.144  11.522  1.00  0.00     0.042 C 
HETATM   18  C1  UNL     1      -2.177  49.544  10.384  1.00  0.00     0.010 C 
ENDBRANCH   1  17
TORSDOF 2
ENDMDL
