MODEL 11
REMARK VINA RESULT: -6.072836847      1.604      2.181
REMARK  2 active torsions:
REMARK  status: ('A' for Active; 'I' for Inactive)
REMARK    1  A    between atoms: C2_2  and  C3_3 
REMARK    2  A    between atoms: N2_8  and  C6_9 
ROOT
HETATM    1  C3  UNL     1      -1.865  52.220  11.143  1.00  0.00     0.036 A 
HETATM    2  C4  UNL     1      -3.015  51.861  10.472  1.00  0.00     0.035 A 
HETATM    3  C5  UNL     1      -3.037  51.242   9.123  1.00  0.00     0.070 C 
HETATM    4  N1  UNL     1      -4.041  52.174  11.247  1.00  0.00    -0.280 N 
ATOM      5  H1  UNL     1      -5.017  52.014  10.996  1.00  0.00     0.188 HD
HETATM    6  N2  UNL     1      -3.647  52.722  12.395  1.00  0.00    -0.045 N 
HETATM    7  C7  UNL     1      -2.288  52.752  12.335  1.00  0.00     0.290 A 
HETATM    8  O1  UNL     1      -1.503  53.194  13.218  1.00  0.00    -0.265 OA
ENDROOT
BRANCH   6   9
HETATM    9  C6  UNL     1      -4.448  53.195  13.477  1.00  0.00     0.735 A 
HETATM   10  N3  UNL     1      -4.809  52.474  14.583  1.00  0.00    -0.116 N 
HETATM   11  N4  UNL     1      -5.542  53.258  15.350  1.00  0.00    -0.211 N 
ATOM     12  H3  UNL     1      -4.557  51.506  14.779  1.00  0.00     0.207 HD
HETATM   13  N5  UNL     1      -5.683  54.456  14.807  1.00  0.00     0.009 NA
ATOM     14  H4  UNL     1      -5.948  52.977  16.242  1.00  0.00     0.206 HD
HETATM   15  N6  UNL     1      -5.008  54.401  13.664  1.00  0.00    -0.111 N 
ATOM     16  H6  UNL     1      -4.926  55.178  13.009  1.00  0.00     0.203 HD
ENDBRANCH   6   9
BRANCH   1  17
HETATM   17  C2  UNL     1      -0.457  52.076  10.683  1.00  0.00     0.042 C 
HETATM   18  C1  UNL     1      -0.129  53.334   9.895  1.00  0.00     0.010 C 
ENDBRANCH   1  17
TORSDOF 2
ENDMDL
