MODEL 6
REMARK VINA RESULT: -6.250182053      2.835      4.870
REMARK  2 active torsions:
REMARK  status: ('A' for Active; 'I' for Inactive)
REMARK    1  A    between atoms: C2_2  and  C3_3 
REMARK    2  A    between atoms: N2_8  and  C6_9 
ROOT
HETATM    1  C3  UNL     1      -6.890  53.409  12.745  1.00  0.00     0.036 A 
HETATM    2  C4  UNL     1      -6.682  54.564  12.020  1.00  0.00     0.035 A 
HETATM    3  C5  UNL     1      -7.767  55.430  11.498  1.00  0.00     0.070 C 
HETATM    4  N1  UNL     1      -5.374  54.722  11.893  1.00  0.00    -0.280 N 
ATOM      5  H1  UNL     1      -4.938  55.501  11.399  1.00  0.00     0.188 HD
HETATM    6  N2  UNL     1      -4.694  53.744  12.488  1.00  0.00    -0.045 N 
HETATM    7  C7  UNL     1      -5.638  52.921  13.023  1.00  0.00     0.290 A 
HETATM    8  O1  UNL     1      -5.432  51.863  13.678  1.00  0.00    -0.265 OA
ENDROOT
BRANCH   6   9
HETATM    9  C6  UNL     1      -3.281  53.559  12.564  1.00  0.00     0.735 A 
HETATM   10  N3  UNL     1      -2.517  53.676  13.693  1.00  0.00    -0.116 N 
HETATM   11  N4  UNL     1      -1.266  53.428  13.357  1.00  0.00    -0.211 N 
ATOM     12  H3  UNL     1      -2.853  53.914  14.626  1.00  0.00     0.207 HD
HETATM   13  N5  UNL     1      -1.167  53.152  12.066  1.00  0.00     0.009 NA
ATOM     14  H4  UNL     1      -0.479  53.446  14.006  1.00  0.00     0.206 HD
HETATM   15  N6  UNL     1      -2.407  53.236  11.598  1.00  0.00    -0.111 N 
ATOM     16  H6  UNL     1      -2.663  53.076  10.624  1.00  0.00     0.203 HD
ENDBRANCH   6   9
BRANCH   1  17
HETATM   17  C2  UNL     1      -8.189  52.803  13.144  1.00  0.00     0.042 C 
HETATM   18  C1  UNL     1      -8.572  51.836  12.036  1.00  0.00     0.010 C 
ENDBRANCH   1  17
TORSDOF 2
ENDMDL
