MODEL 1
REMARK VINA RESULT: -6.759417200      0.000      0.000
REMARK  2 active torsions:
REMARK  status: ('A' for Active; 'I' for Inactive)
REMARK    1  A    between atoms: C2_2  and  C3_3 
REMARK    2  A    between atoms: N2_8  and  C6_9 
ROOT
HETATM    1  C3  UNL     1      -2.756  51.442  12.675  1.00  0.00     0.036 A 
HETATM    2  C4  UNL     1      -3.993  50.847  12.544  1.00  0.00     0.035 A 
HETATM    3  C5  UNL     1      -4.205  49.458  12.068  1.00  0.00     0.070 C 
HETATM    4  N1  UNL     1      -4.902  51.736  12.912  1.00  0.00    -0.280 N 
ATOM      5  H1  UNL     1      -5.907  51.558  12.914  1.00  0.00     0.188 HD
HETATM    6  N2  UNL     1      -4.349  52.890  13.280  1.00  0.00    -0.045 N 
HETATM    7  C7  UNL     1      -3.008  52.711  13.134  1.00  0.00     0.290 A 
HETATM    8  O1  UNL     1      -2.103  53.557  13.373  1.00  0.00    -0.265 OA
ENDROOT
BRANCH   6   9
HETATM    9  C6  UNL     1      -4.991  54.083  13.729  1.00  0.00     0.735 A 
HETATM   10  N3  UNL     1      -4.721  55.351  13.294  1.00  0.00    -0.116 N 
HETATM   11  N4  UNL     1      -5.521  56.175  13.941  1.00  0.00    -0.211 N 
ATOM     12  H3  UNL     1      -4.026  55.612  12.594  1.00  0.00     0.207 HD
HETATM   13  N5  UNL     1      -6.304  55.516  14.780  1.00  0.00     0.009 NA
ATOM     14  H4  UNL     1      -5.534  57.187  13.813  1.00  0.00     0.206 HD
HETATM   15  N6  UNL     1      -5.967  54.239  14.638  1.00  0.00    -0.111 N 
ATOM     16  H6  UNL     1      -6.396  53.472  15.155  1.00  0.00     0.203 HD
ENDBRANCH   6   9
BRANCH   1  17
HETATM   17  C2  UNL     1      -1.423  50.852  12.379  1.00  0.00     0.042 C 
HETATM   18  C1  UNL     1      -1.081  51.252  10.953  1.00  0.00     0.010 C 
ENDBRANCH   1  17
TORSDOF 2
ENDMDL
