MODEL 12
REMARK VINA RESULT: -6.131032570      3.440      5.212
REMARK  2 active torsions:
REMARK  status: ('A' for Active; 'I' for Inactive)
REMARK    1  A    between atoms: C3_4  and  N1_5 
REMARK    2  A    between atoms: N1_5  and  C4_7 
ROOT
HETATM    1  C4  UNL     1      -4.581  54.715  13.007  1.00  0.00     0.714 A 
HETATM    2  N2  UNL     1      -5.205  55.675  13.694  1.00  0.00    -0.115 N 
ATOM      3  H2  UNL     1      -4.907  56.073  14.583  1.00  0.00     0.207 HD
HETATM    4  N3  UNL     1      -6.280  56.011  13.006  1.00  0.00    -0.213 N 
ATOM      5  H3  UNL     1      -6.960  56.720  13.279  1.00  0.00     0.210 HD
HETATM    6  N4  UNL     1      -6.334  55.292  11.926  1.00  0.00    -0.213 N 
ATOM      7  H4  UNL     1      -7.061  55.344  11.212  1.00  0.00     0.210 HD
HETATM    8  N5  UNL     1      -5.294  54.486  11.907  1.00  0.00    -0.115 N 
ATOM      9  H5  UNL     1      -5.074  53.806  11.178  1.00  0.00     0.207 HD
ENDROOT
BRANCH   1  10
HETATM   10  N1  UNL     1      -3.378  54.074  13.400  1.00  0.00    -0.193 N 
ATOM     11  H1  UNL     1      -2.955  54.335  14.290  1.00  0.00     0.184 HD
BRANCH  10  12
HETATM   12  C3  UNL     1      -2.738  53.083  12.605  1.00  0.00     0.030 C 
HETATM   13  C2  UNL     1      -1.769  53.374  11.752  1.00  0.00     0.075 C 
HETATM   14  C1  UNL     1      -1.141  52.332  10.959  1.00  0.00     0.151 C 
HETATM   15  O1  UNL     1      -0.621  52.569   9.825  1.00  0.00    -0.293 OA
HETATM   16  C7  UNL     1      -1.102  50.948  11.484  1.00  0.00     0.083 C 
HETATM   17  C6  UNL     1      -1.984  50.749  12.667  1.00  0.00     0.014 C 
HETATM   18  C5  UNL     1      -3.159  51.687  12.726  1.00  0.00     0.058 C 
ENDBRANCH  10  12
ENDBRANCH   1  10
TORSDOF 2
ENDMDL
