MODEL 5
REMARK VINA RESULT: -6.326887295      3.389      5.058
REMARK  2 active torsions:
REMARK  status: ('A' for Active; 'I' for Inactive)
REMARK    1  A    between atoms: C3_4  and  N1_5 
REMARK    2  A    between atoms: N1_5  and  C4_7 
ROOT
HETATM    1  C4  UNL     1      -4.581  54.259  13.793  1.00  0.00     0.714 A 
HETATM    2  N2  UNL     1      -5.579  54.354  14.674  1.00  0.00    -0.115 N 
ATOM      3  H2  UNL     1      -5.939  53.604  15.263  1.00  0.00     0.207 HD
HETATM    4  N3  UNL     1      -6.014  55.599  14.639  1.00  0.00    -0.213 N 
ATOM      5  H3  UNL     1      -6.775  55.977  15.202  1.00  0.00     0.210 HD
HETATM    6  N4  UNL     1      -5.317  56.267  13.770  1.00  0.00    -0.213 N 
ATOM      7  H4  UNL     1      -5.439  57.253  13.539  1.00  0.00     0.210 HD
HETATM    8  N5  UNL     1      -4.426  55.458  13.236  1.00  0.00    -0.115 N 
ATOM      9  H5  UNL     1      -3.740  55.706  12.524  1.00  0.00     0.207 HD
ENDROOT
BRANCH   1  10
HETATM   10  N1  UNL     1      -3.836  53.083  13.521  1.00  0.00    -0.193 N 
ATOM     11  H1  UNL     1      -3.804  52.350  14.229  1.00  0.00     0.184 HD
BRANCH  10  12
HETATM   12  C3  UNL     1      -3.131  52.883  12.301  1.00  0.00     0.030 C 
HETATM   13  C2  UNL     1      -1.883  53.286  12.128  1.00  0.00     0.075 C 
HETATM   14  C1  UNL     1      -1.198  53.062  10.866  1.00  0.00     0.151 C 
HETATM   15  O1  UNL     1      -0.267  53.824  10.460  1.00  0.00    -0.293 OA
HETATM   16  C7  UNL     1      -1.595  51.910  10.024  1.00  0.00     0.083 C 
HETATM   17  C6  UNL     1      -2.868  51.277  10.464  1.00  0.00     0.014 C 
HETATM   18  C5  UNL     1      -3.802  52.207  11.190  1.00  0.00     0.058 C 
ENDBRANCH  10  12
ENDBRANCH   1  10
TORSDOF 2
ENDMDL
