MODEL 2
REMARK VINA RESULT: -6.388722896      3.376      4.923
REMARK  2 active torsions:
REMARK  status: ('A' for Active; 'I' for Inactive)
REMARK    1  A    between atoms: C3_4  and  N1_5 
REMARK    2  A    between atoms: N1_5  and  C4_7 
ROOT
HETATM    1  C4  UNL     1      -5.672  54.070  13.551  1.00  0.00     0.714 A 
HETATM    2  N2  UNL     1      -5.995  55.068  12.725  1.00  0.00    -0.115 N 
ATOM      3  H2  UNL     1      -6.091  55.008  11.712  1.00  0.00     0.207 HD
HETATM    4  N3  UNL     1      -6.167  56.147  13.466  1.00  0.00    -0.213 N 
ATOM      5  H3  UNL     1      -6.420  57.071  13.116  1.00  0.00     0.210 HD
HETATM    6  N4  UNL     1      -5.961  55.843  14.711  1.00  0.00    -0.213 N 
ATOM      7  H4  UNL     1      -6.026  56.487  15.499  1.00  0.00     0.210 HD
HETATM    8  N5  UNL     1      -5.655  54.566  14.786  1.00  0.00    -0.115 N 
ATOM      9  H5  UNL     1      -5.443  54.048  15.639  1.00  0.00     0.207 HD
ENDROOT
BRANCH   1  10
HETATM   10  N1  UNL     1      -5.403  52.734  13.158  1.00  0.00    -0.193 N 
ATOM     11  H1  UNL     1      -6.166  52.058  13.170  1.00  0.00     0.184 HD
BRANCH  10  12
HETATM   12  C3  UNL     1      -4.113  52.297  12.746  1.00  0.00     0.030 C 
HETATM   13  C2  UNL     1      -3.061  53.098  12.739  1.00  0.00     0.075 C 
HETATM   14  C1  UNL     1      -1.760  52.613  12.311  1.00  0.00     0.151 C 
HETATM   15  O1  UNL     1      -0.887  53.382  11.803  1.00  0.00    -0.293 OA
HETATM   16  C7  UNL     1      -1.438  51.176  12.470  1.00  0.00     0.083 C 
HETATM   17  C6  UNL     1      -2.627  50.345  12.802  1.00  0.00     0.014 C 
HETATM   18  C5  UNL     1      -3.932  50.911  12.312  1.00  0.00     0.058 C 
ENDBRANCH  10  12
ENDBRANCH   1  10
TORSDOF 2
ENDMDL
