MODEL 4
REMARK VINA RESULT: -6.331214165      1.440      1.949
REMARK  2 active torsions:
REMARK  status: ('A' for Active; 'I' for Inactive)
REMARK    1  A    between atoms: C3_4  and  N1_5 
REMARK    2  A    between atoms: N1_5  and  C4_7 
ROOT
HETATM    1  C4  UNL     1      -3.192  53.980  12.421  1.00  0.00     0.714 A 
HETATM    2  N2  UNL     1      -2.520  53.994  13.575  1.00  0.00    -0.115 N 
ATOM      3  H2  UNL     1      -2.856  54.357  14.466  1.00  0.00     0.207 HD
HETATM    4  N3  UNL     1      -1.340  53.451  13.345  1.00  0.00    -0.213 N 
ATOM      5  H3  UNL     1      -0.602  53.323  14.037  1.00  0.00     0.210 HD
HETATM    6  N4  UNL     1      -1.268  53.106  12.095  1.00  0.00    -0.213 N 
ATOM      7  H4  UNL     1      -0.467  52.663  11.645  1.00  0.00     0.210 HD
HETATM    8  N5  UNL     1      -2.401  53.423  11.507  1.00  0.00    -0.115 N 
ATOM      9  H5  UNL     1      -2.632  53.269  10.526  1.00  0.00     0.207 HD
ENDROOT
BRANCH   1  10
HETATM   10  N1  UNL     1      -4.509  54.473  12.233  1.00  0.00    -0.193 N 
ATOM     11  H1  UNL     1      -4.648  55.481  12.170  1.00  0.00     0.184 HD
BRANCH  10  12
HETATM   12  C3  UNL     1      -5.643  53.621  12.128  1.00  0.00     0.030 C 
HETATM   13  C2  UNL     1      -6.784  54.020  11.590  1.00  0.00     0.075 C 
HETATM   14  C1  UNL     1      -7.920  53.118  11.503  1.00  0.00     0.151 C 
HETATM   15  O1  UNL     1      -9.117  53.540  11.494  1.00  0.00    -0.293 OA
HETATM   16  C7  UNL     1      -7.678  51.659  11.419  1.00  0.00     0.083 C 
HETATM   17  C6  UNL     1      -6.271  51.283  11.725  1.00  0.00     0.014 C 
HETATM   18  C5  UNL     1      -5.556  52.249  12.630  1.00  0.00     0.058 C 
ENDBRANCH  10  12
ENDBRANCH   1  10
TORSDOF 2
ENDMDL
