MODEL 10
REMARK VINA RESULT: -5.905027732      4.271      6.629
REMARK  3 active torsions:
REMARK  status: ('A' for Active; 'I' for Inactive)
REMARK    1  A    between atoms: C1_2  and  C2_4 
REMARK    2  A    between atoms: C4_6  and  C5_7 
REMARK       I    between atoms: C5_7  and  N1_9 
REMARK    3  A    between atoms: N1_9  and  C6_11 
ROOT
HETATM    1  C5  UNL     1      23.511  42.583  94.581  1.00  0.00     0.227 C 
HETATM    2  O3  UNL     1      23.510  43.159  95.693  1.00  0.00    -0.273 OA
HETATM    3  N1  UNL     1      24.671  41.867  94.204  1.00  0.00    -0.324 N 
ATOM      4  H1  UNL     1      24.635  41.411  93.292  1.00  0.00     0.169 HD
ENDROOT
BRANCH   3   5
HETATM    5  C6  UNL     1      25.868  41.705  94.926  1.00  0.00     0.076 A 
HETATM    6  C7  UNL     1      25.982  41.966  96.251  1.00  0.00     0.074 A 
HETATM    7  C8  UNL     1      27.193  41.793  96.949  1.00  0.00     0.118 A 
HETATM    8  F1  UNL     1      27.305  42.054  98.272  1.00  0.00    -0.206 F 
HETATM    9  C9  UNL     1      28.313  41.346  96.282  1.00  0.00     0.045 A 
HETATM   10  C10 UNL     1      28.177  41.085  94.930  1.00  0.00     0.047 A 
HETATM   11  C11 UNL     1      27.002  41.250  94.243  1.00  0.00     0.143 A 
HETATM   12  F2  UNL     1      26.933  40.973  92.897  1.00  0.00    -0.204 F 
ENDBRANCH   3   5
BRANCH   1  13
HETATM   13  C4  UNL     1      22.308  42.655  93.680  1.00  0.00     0.093 A 
HETATM   14  C2  UNL     1      21.471  41.524  93.335  1.00  0.00     0.100 A 
HETATM   15  C3  UNL     1      20.927  42.587  94.345  1.00  0.00     0.031 A 
BRANCH  14  16
HETATM   16  C1  UNL     1      21.503  40.178  93.882  1.00  0.00     0.177 C 
HETATM   17  O1  UNL     1      22.373  39.725  94.654  1.00  0.00    -0.648 OA
HETATM   18  O2  UNL     1      20.496  39.241  93.560  1.00  0.00    -0.648 OA
ENDBRANCH  14  16
ENDBRANCH   1  13
TORSDOF 3
ENDMDL
