MODEL 17
REMARK VINA RESULT: -5.761617210      4.599      7.231
REMARK  3 active torsions:
REMARK  status: ('A' for Active; 'I' for Inactive)
REMARK    1  A    between atoms: C1_2  and  C2_4 
REMARK    2  A    between atoms: C4_6  and  C5_7 
REMARK       I    between atoms: C5_7  and  N1_9 
REMARK    3  A    between atoms: N1_9  and  C6_11 
ROOT
HETATM    1  C5  UNL     1      23.779  42.316  95.796  1.00  0.00     0.227 C 
HETATM    2  O3  UNL     1      24.126  43.495  96.041  1.00  0.00    -0.273 OA
HETATM    3  N1  UNL     1      24.784  41.321  95.760  1.00  0.00    -0.324 N 
ATOM      4  H1  UNL     1      24.465  40.373  95.558  1.00  0.00     0.169 HD
ENDROOT
BRANCH   3   5
HETATM    5  C6  UNL     1      26.168  41.473  95.968  1.00  0.00     0.076 A 
HETATM    6  C7  UNL     1      26.706  41.884  97.142  1.00  0.00     0.074 A 
HETATM    7  C8  UNL     1      28.097  42.026  97.322  1.00  0.00     0.118 A 
HETATM    8  F1  UNL     1      28.632  42.437  98.494  1.00  0.00    -0.206 F 
HETATM    9  C9  UNL     1      28.956  41.744  96.282  1.00  0.00     0.045 A 
HETATM   10  C10 UNL     1      28.388  41.326  95.092  1.00  0.00     0.047 A 
HETATM   11  C11 UNL     1      27.036  41.185  94.908  1.00  0.00     0.143 A 
HETATM   12  F2  UNL     1      26.534  40.765  93.698  1.00  0.00    -0.204 F 
ENDBRANCH   3   5
BRANCH   1  13
HETATM   13  C4  UNL     1      22.334  41.977  95.549  1.00  0.00     0.093 A 
HETATM   14  C2  UNL     1      21.607  42.310  94.341  1.00  0.00     0.100 A 
HETATM   15  C3  UNL     1      22.040  40.825  94.578  1.00  0.00     0.031 A 
BRANCH  14  16
HETATM   16  C1  UNL     1      22.123  42.866  93.102  1.00  0.00     0.177 C 
HETATM   17  O1  UNL     1      22.454  44.056  92.919  1.00  0.00    -0.648 OA
HETATM   18  O2  UNL     1      22.293  42.054  91.958  1.00  0.00    -0.648 OA
ENDBRANCH  14  16
ENDBRANCH   1  13
TORSDOF 3
ENDMDL
