MODEL 3
REMARK VINA RESULT: -6.065155488      4.742      7.281
REMARK  3 active torsions:
REMARK  status: ('A' for Active; 'I' for Inactive)
REMARK    1  A    between atoms: C1_2  and  C2_4 
REMARK    2  A    between atoms: C4_6  and  C5_7 
REMARK       I    between atoms: C5_7  and  N1_9 
REMARK    3  A    between atoms: N1_9  and  C6_11 
ROOT
HETATM    1  C5  UNL     1      23.934  42.107  95.848  1.00  0.00     0.227 C 
HETATM    2  O3  UNL     1      23.847  41.409  96.884  1.00  0.00    -0.273 OA
HETATM    3  N1  UNL     1      25.226  42.396  95.348  1.00  0.00    -0.324 N 
ATOM      4  H1  UNL     1      25.258  42.966  94.503  1.00  0.00     0.169 HD
ENDROOT
BRANCH   3   5
HETATM    5  C6  UNL     1      26.471  41.995  95.868  1.00  0.00     0.076 A 
HETATM    6  C7  UNL     1      26.894  42.310  97.117  1.00  0.00     0.074 A 
HETATM    7  C8  UNL     1      28.146  41.894  97.612  1.00  0.00     0.118 A 
HETATM    8  F1  UNL     1      28.567  42.209  98.859  1.00  0.00    -0.206 F 
HETATM    9  C9  UNL     1      28.985  41.143  96.817  1.00  0.00     0.045 A 
HETATM   10  C10 UNL     1      28.534  40.832  95.547  1.00  0.00     0.047 A 
HETATM   11  C11 UNL     1      27.318  41.232  95.056  1.00  0.00     0.143 A 
HETATM   12  F2  UNL     1      26.929  40.890  93.782  1.00  0.00    -0.204 F 
ENDBRANCH   3   5
BRANCH   1  13
HETATM   13  C4  UNL     1      22.698  42.619  95.161  1.00  0.00     0.093 A 
HETATM   14  C2  UNL     1      21.837  41.819  94.314  1.00  0.00     0.100 A 
HETATM   15  C3  UNL     1      21.343  42.200  95.749  1.00  0.00     0.031 A 
BRANCH  14  16
HETATM   16  C1  UNL     1      21.878  40.385  94.084  1.00  0.00     0.177 C 
HETATM   17  O1  UNL     1      22.347  39.534  94.868  1.00  0.00    -0.648 OA
HETATM   18  O2  UNL     1      21.362  39.827  92.893  1.00  0.00    -0.648 OA
ENDBRANCH  14  16
ENDBRANCH   1  13
TORSDOF 3
ENDMDL
