MODEL 1
REMARK VINA RESULT: -6.389011254      0.000      0.000
REMARK  3 active torsions:
REMARK  status: ('A' for Active; 'I' for Inactive)
REMARK    1  A    between atoms: C1_2  and  C2_4 
REMARK    2  A    between atoms: C4_6  and  C5_7 
REMARK       I    between atoms: C5_7  and  N1_9 
REMARK    3  A    between atoms: N1_9  and  C6_11 
ROOT
HETATM    1  C5  UNL     1      22.171  42.445  93.062  1.00  0.00     0.227 C 
HETATM    2  O3  UNL     1      23.063  42.405  92.185  1.00  0.00    -0.273 OA
HETATM    3  N1  UNL     1      20.963  41.752  92.814  1.00  0.00    -0.324 N 
ATOM      4  H1  UNL     1      20.259  41.806  93.550  1.00  0.00     0.169 HD
ENDROOT
BRANCH   3   5
HETATM    5  C6  UNL     1      20.609  40.997  91.679  1.00  0.00     0.076 A 
HETATM    6  C7  UNL     1      20.997  39.713  91.485  1.00  0.00     0.074 A 
HETATM    7  C8  UNL     1      20.626  38.982  90.339  1.00  0.00     0.118 A 
HETATM    8  F1  UNL     1      21.015  37.700  90.147  1.00  0.00    -0.206 F 
HETATM    9  C9  UNL     1      19.844  39.572  89.370  1.00  0.00     0.045 A 
HETATM   10  C10 UNL     1      19.458  40.883  89.587  1.00  0.00     0.047 A 
HETATM   11  C11 UNL     1      19.814  41.602  90.699  1.00  0.00     0.143 A 
HETATM   12  F2  UNL     1      19.397  42.904  90.854  1.00  0.00    -0.204 F 
ENDBRANCH   3   5
BRANCH   1  13
HETATM   13  C4  UNL     1      22.385  43.208  94.341  1.00  0.00     0.093 A 
HETATM   14  C2  UNL     1      22.517  42.600  95.649  1.00  0.00     0.100 A 
HETATM   15  C3  UNL     1      23.793  43.175  94.951  1.00  0.00     0.031 A 
BRANCH  14  16
HETATM   16  C1  UNL     1      22.632  41.190  95.981  1.00  0.00     0.177 C 
HETATM   17  O1  UNL     1      22.365  40.237  95.219  1.00  0.00    -0.648 OA
HETATM   18  O2  UNL     1      23.078  40.780  97.257  1.00  0.00    -0.648 OA
ENDBRANCH  14  16
ENDBRANCH   1  13
TORSDOF 3
ENDMDL
