MODEL 4
REMARK VINA RESULT: -6.009430640      2.488      3.305
REMARK  3 active torsions:
REMARK  status: ('A' for Active; 'I' for Inactive)
REMARK    1  A    between atoms: C1_2  and  C2_4 
REMARK    2  A    between atoms: C4_6  and  C5_7 
REMARK       I    between atoms: C5_7  and  N1_9 
REMARK    3  A    between atoms: N1_9  and  C6_11 
ROOT
HETATM    1  C5  UNL     1      24.189  42.804  93.961  1.00  0.00     0.227 C 
HETATM    2  O3  UNL     1      24.705  42.367  92.906  1.00  0.00    -0.273 OA
HETATM    3  N1  UNL     1      22.914  43.411  93.876  1.00  0.00    -0.324 N 
ATOM      4  H1  UNL     1      22.526  43.755  94.755  1.00  0.00     0.169 HD
ENDROOT
BRANCH   3   5
HETATM    5  C6  UNL     1      22.114  43.601  92.733  1.00  0.00     0.076 A 
HETATM    6  C7  UNL     1      21.049  42.819  92.430  1.00  0.00     0.074 A 
HETATM    7  C8  UNL     1      20.265  43.033  91.279  1.00  0.00     0.118 A 
HETATM    8  F1  UNL     1      19.202  42.251  90.977  1.00  0.00    -0.206 F 
HETATM    9  C9  UNL     1      20.573  44.065  90.420  1.00  0.00     0.045 A 
HETATM   10  C10 UNL     1      21.662  44.852  90.747  1.00  0.00     0.047 A 
HETATM   11  C11 UNL     1      22.431  44.651  91.865  1.00  0.00     0.143 A 
HETATM   12  F2  UNL     1      23.504  45.470  92.134  1.00  0.00    -0.204 F 
ENDBRANCH   3   5
BRANCH   1  13
HETATM   13  C4  UNL     1      24.911  42.683  95.275  1.00  0.00     0.093 A 
HETATM   14  C2  UNL     1      24.420  41.939  96.417  1.00  0.00     0.100 A 
HETATM   15  C3  UNL     1      25.599  41.345  95.578  1.00  0.00     0.031 A 
BRANCH  14  16
HETATM   16  C1  UNL     1      23.268  41.057  96.491  1.00  0.00     0.177 C 
HETATM   17  O1  UNL     1      22.535  40.733  95.534  1.00  0.00    -0.648 OA
HETATM   18  O2  UNL     1      22.878  40.475  97.719  1.00  0.00    -0.648 OA
ENDBRANCH  14  16
ENDBRANCH   1  13
TORSDOF 3
ENDMDL
