MODEL 12
REMARK VINA RESULT: -5.816212685      4.275      6.595
REMARK  3 active torsions:
REMARK  status: ('A' for Active; 'I' for Inactive)
REMARK    1  A    between atoms: C1_2  and  C2_4 
REMARK    2  A    between atoms: C4_6  and  C5_7 
REMARK       I    between atoms: C5_7  and  N1_9 
REMARK    3  A    between atoms: N1_9  and  C6_11 
ROOT
HETATM    1  C5  UNL     1      23.906  42.596  94.119  1.00  0.00     0.227 C 
HETATM    2  O3  UNL     1      24.405  42.335  93.001  1.00  0.00    -0.273 OA
HETATM    3  N1  UNL     1      24.777  42.692  95.230  1.00  0.00    -0.324 N 
ATOM      4  H1  UNL     1      24.335  42.906  96.124  1.00  0.00     0.169 HD
ENDROOT
BRANCH   3   5
HETATM    5  C6  UNL     1      26.175  42.529  95.258  1.00  0.00     0.076 A 
HETATM    6  C7  UNL     1      26.788  41.419  95.736  1.00  0.00     0.074 A 
HETATM    7  C8  UNL     1      28.190  41.283  95.750  1.00  0.00     0.118 A 
HETATM    8  F1  UNL     1      28.801  40.175  96.228  1.00  0.00    -0.206 F 
HETATM    9  C9  UNL     1      28.984  42.301  95.268  1.00  0.00     0.045 A 
HETATM   10  C10 UNL     1      28.340  43.426  94.784  1.00  0.00     0.047 A 
HETATM   11  C11 UNL     1      26.976  43.566  94.766  1.00  0.00     0.143 A 
HETATM   12  F2  UNL     1      26.396  44.712  94.271  1.00  0.00    -0.204 F 
ENDBRANCH   3   5
BRANCH   1  13
HETATM   13  C4  UNL     1      22.423  42.801  94.268  1.00  0.00     0.093 A 
HETATM   14  C2  UNL     1      21.429  41.761  94.098  1.00  0.00     0.100 A 
HETATM   15  C3  UNL     1      21.764  42.257  95.543  1.00  0.00     0.031 A 
BRANCH  14  16
HETATM   16  C1  UNL     1      21.637  40.335  93.919  1.00  0.00     0.177 C 
HETATM   17  O1  UNL     1      22.197  39.572  94.732  1.00  0.00    -0.648 OA
HETATM   18  O2  UNL     1      21.194  39.679  92.748  1.00  0.00    -0.648 OA
ENDBRANCH  14  16
ENDBRANCH   1  13
TORSDOF 3
ENDMDL
