MODEL 2
REMARK VINA RESULT: -6.184217247      1.235      2.157
REMARK  3 active torsions:
REMARK  status: ('A' for Active; 'I' for Inactive)
REMARK    1  A    between atoms: C1_2  and  C2_4 
REMARK    2  A    between atoms: C4_6  and  C5_7 
REMARK       I    between atoms: C5_7  and  N1_9 
REMARK    3  A    between atoms: N1_9  and  C6_11 
ROOT
HETATM    1  C5  UNL     1      22.535  42.820  92.828  1.00  0.00     0.227 C 
HETATM    2  O3  UNL     1      23.376  42.467  91.970  1.00  0.00    -0.273 OA
HETATM    3  N1  UNL     1      21.172  42.536  92.579  1.00  0.00    -0.324 N 
ATOM      4  H1  UNL     1      20.516  42.838  93.299  1.00  0.00     0.169 HD
ENDROOT
BRANCH   3   5
HETATM    5  C6  UNL     1      20.606  41.891  91.462  1.00  0.00     0.076 A 
HETATM    6  C7  UNL     1      20.026  42.554  90.432  1.00  0.00     0.074 A 
HETATM    7  C8  UNL     1      19.469  41.882  89.326  1.00  0.00     0.118 A 
HETATM    8  F1  UNL     1      18.890  42.545  88.298  1.00  0.00    -0.206 F 
HETATM    9  C9  UNL     1      19.502  40.505  89.270  1.00  0.00     0.045 A 
HETATM   10  C10 UNL     1      20.098  39.848  90.331  1.00  0.00     0.047 A 
HETATM   11  C11 UNL     1      20.643  40.493  91.411  1.00  0.00     0.143 A 
HETATM   12  F2  UNL     1      21.222  39.780  92.436  1.00  0.00    -0.204 F 
ENDBRANCH   3   5
BRANCH   1  13
HETATM   13  C4  UNL     1      22.970  43.523  94.085  1.00  0.00     0.093 A 
HETATM   14  C2  UNL     1      22.751  43.020  95.426  1.00  0.00     0.100 A 
HETATM   15  C3  UNL     1      24.192  42.955  94.820  1.00  0.00     0.031 A 
BRANCH  14  16
HETATM   16  C1  UNL     1      22.241  41.721  95.829  1.00  0.00     0.177 C 
HETATM   17  O1  UNL     1      21.283  41.118  95.304  1.00  0.00    -0.648 OA
HETATM   18  O2  UNL     1      22.828  41.013  96.903  1.00  0.00    -0.648 OA
ENDBRANCH  14  16
ENDBRANCH   1  13
TORSDOF 3
ENDMDL
