MODEL 14
REMARK VINA RESULT: -4.484703337      2.180      2.990
REMARK  2 active torsions:
REMARK  status: ('A' for Active; 'I' for Inactive)
REMARK    1  A    between atoms: C2_2  and  C3_3 
REMARK    2  A    between atoms: C2_2  and  N1_6 
ROOT
HETATM    1  N1  UNL     1      -1.115  41.015  23.432  1.00  0.00    -0.273 N 
HETATM    2  C4  UNL     1      -2.231  41.610  24.089  1.00  0.00     0.232 C 
HETATM    3  O3  UNL     1      -3.371  41.042  24.202  1.00  0.00    -0.272 OA
HETATM    4  C5  UNL     1      -1.911  42.946  24.614  1.00  0.00     0.096 C 
HETATM    5  C6  UNL     1      -2.068  43.057  26.098  1.00  0.00    -0.000 C 
HETATM    6  C7  UNL     1      -1.456  41.825  26.720  1.00  0.00     0.006 C 
HETATM    7  C8  UNL     1       0.059  42.033  26.678  1.00  0.00     0.006 C 
HETATM    8  C9  UNL     1       0.175  43.260  25.819  1.00  0.00    -0.000 C 
HETATM    9  C10 UNL     1      -0.976  44.095  26.415  1.00  0.00     0.011 C 
HETATM   10  C11 UNL     1      -0.393  43.035  24.434  1.00  0.00     0.096 C 
HETATM   11  C12 UNL     1       0.017  41.768  23.833  1.00  0.00     0.232 C 
HETATM   12  O4  UNL     1       1.197  41.384  23.684  1.00  0.00    -0.272 OA
ENDROOT
BRANCH   1  13
HETATM   13  C2  UNL     1      -1.153  39.868  22.535  1.00  0.00     0.192 C 
HETATM   14  C1  UNL     1      -1.916  40.219  21.261  1.00  0.00     0.044 C 
BRANCH  13  15
HETATM   15  C3  UNL     1      -1.724  38.675  23.190  1.00  0.00     0.197 C 
HETATM   16  O1  UNL     1      -1.180  38.154  24.181  1.00  0.00    -0.646 OA
HETATM   17  O2  UNL     1      -2.886  38.124  22.695  1.00  0.00    -0.646 OA
ENDBRANCH  13  15
ENDBRANCH   1  13
TORSDOF 2
ENDMDL
