MODEL 13
REMARK VINA RESULT: -4.506977963      3.320      5.471
REMARK  2 active torsions:
REMARK  status: ('A' for Active; 'I' for Inactive)
REMARK    1  A    between atoms: C2_2  and  C3_3 
REMARK    2  A    between atoms: C2_2  and  N1_6 
ROOT
HETATM    1  N1  UNL     1       1.529  42.670  27.322  1.00  0.00    -0.273 N 
HETATM    2  C4  UNL     1       0.425  43.381  27.875  1.00  0.00     0.232 C 
HETATM    3  O3  UNL     1       0.548  44.435  28.588  1.00  0.00    -0.272 OA
HETATM    4  C5  UNL     1      -0.860  42.757  27.525  1.00  0.00     0.096 C 
HETATM    5  C6  UNL     1      -1.769  43.657  26.750  1.00  0.00    -0.000 C 
HETATM    6  C7  UNL     1      -0.943  44.348  25.691  1.00  0.00     0.006 C 
HETATM    7  C8  UNL     1      -0.718  43.315  24.585  1.00  0.00     0.006 C 
HETATM    8  C9  UNL     1      -1.236  42.061  25.229  1.00  0.00    -0.000 C 
HETATM    9  C10 UNL     1      -2.512  42.623  25.886  1.00  0.00     0.011 C 
HETATM   10  C11 UNL     1      -0.464  41.708  26.482  1.00  0.00     0.096 C 
HETATM   11  C12 UNL     1       0.984  41.820  26.328  1.00  0.00     0.232 C 
HETATM   12  O4  UNL     1       1.666  41.251  25.447  1.00  0.00    -0.272 OA
ENDROOT
BRANCH   1  13
HETATM   13  C2  UNL     1       2.926  42.805  27.713  1.00  0.00     0.192 C 
HETATM   14  C1  UNL     1       3.065  42.669  29.227  1.00  0.00     0.044 C 
BRANCH  13  15
HETATM   15  C3  UNL     1       3.513  44.071  27.233  1.00  0.00     0.197 C 
HETATM   16  O1  UNL     1       3.804  44.240  26.035  1.00  0.00    -0.646 OA
HETATM   17  O2  UNL     1       3.746  45.091  28.131  1.00  0.00    -0.646 OA
ENDBRANCH  13  15
ENDBRANCH   1  13
TORSDOF 2
ENDMDL
