MODEL 8
REMARK VINA RESULT: -4.554595885      2.883      4.937
REMARK  2 active torsions:
REMARK  status: ('A' for Active; 'I' for Inactive)
REMARK    1  A    between atoms: C2_2  and  C3_3 
REMARK    2  A    between atoms: C2_2  and  N1_6 
ROOT
HETATM    1  N1  UNL     1       1.113  42.705  27.201  1.00  0.00    -0.273 N 
HETATM    2  C4  UNL     1      -0.175  42.175  27.502  1.00  0.00     0.232 C 
HETATM    3  O3  UNL     1      -0.668  42.139  28.682  1.00  0.00    -0.272 OA
HETATM    4  C5  UNL     1      -0.860  41.681  26.299  1.00  0.00     0.096 C 
HETATM    5  C6  UNL     1      -2.155  42.377  26.021  1.00  0.00    -0.000 C 
HETATM    6  C7  UNL     1      -1.935  43.858  26.220  1.00  0.00     0.006 C 
HETATM    7  C8  UNL     1      -1.190  44.350  24.978  1.00  0.00     0.006 C 
HETATM    8  C9  UNL     1      -0.846  43.056  24.297  1.00  0.00    -0.000 C 
HETATM    9  C10 UNL     1      -2.182  42.309  24.484  1.00  0.00     0.011 C 
HETATM   10  C11 UNL     1       0.034  42.179  25.161  1.00  0.00     0.096 C 
HETATM   11  C12 UNL     1       1.133  42.901  25.798  1.00  0.00     0.232 C 
HETATM   12  O4  UNL     1       1.983  43.599  25.204  1.00  0.00    -0.272 OA
ENDROOT
BRANCH   1  13
HETATM   13  C2  UNL     1       2.178  42.980  28.156  1.00  0.00     0.192 C 
HETATM   14  C1  UNL     1       2.144  41.962  29.293  1.00  0.00     0.044 C 
BRANCH  13  15
HETATM   15  C3  UNL     1       2.111  44.361  28.673  1.00  0.00     0.197 C 
HETATM   16  O1  UNL     1       1.098  44.789  29.256  1.00  0.00    -0.646 OA
HETATM   17  O2  UNL     1       3.194  45.197  28.508  1.00  0.00    -0.646 OA
ENDBRANCH  13  15
ENDBRANCH   1  13
TORSDOF 2
ENDMDL
