MODEL 5
REMARK VINA RESULT: -4.701479561      2.065      3.200
REMARK  2 active torsions:
REMARK  status: ('A' for Active; 'I' for Inactive)
REMARK    1  A    between atoms: C2_2  and  C3_3 
REMARK    2  A    between atoms: C2_2  and  N1_6 
ROOT
HETATM    1  N1  UNL     1      -1.038  40.798  23.879  1.00  0.00    -0.273 N 
HETATM    2  C4  UNL     1       0.164  41.435  24.301  1.00  0.00     0.232 C 
HETATM    3  O3  UNL     1       1.237  41.454  23.605  1.00  0.00    -0.272 OA
HETATM    4  C5  UNL     1       0.018  42.063  25.622  1.00  0.00     0.096 C 
HETATM    5  C6  UNL     1       0.249  43.542  25.609  1.00  0.00    -0.000 C 
HETATM    6  C7  UNL     1      -0.470  44.111  24.410  1.00  0.00     0.006 C 
HETATM    7  C8  UNL     1      -1.952  44.159  24.784  1.00  0.00     0.006 C 
HETATM    8  C9  UNL     1      -1.966  43.389  26.074  1.00  0.00    -0.000 C 
HETATM    9  C10 UNL     1      -0.705  43.981  26.734  1.00  0.00     0.011 C 
HETATM   10  C11 UNL     1      -1.486  41.966  25.889  1.00  0.00     0.096 C 
HETATM   11  C12 UNL     1      -2.061  41.304  24.720  1.00  0.00     0.232 C 
HETATM   12  O4  UNL     1      -3.282  41.188  24.478  1.00  0.00    -0.272 OA
ENDROOT
BRANCH   1  13
HETATM   13  C2  UNL     1      -1.168  39.826  22.802  1.00  0.00     0.192 C 
HETATM   14  C1  UNL     1      -1.849  40.464  21.595  1.00  0.00     0.044 C 
BRANCH  13  15
HETATM   15  C3  UNL     1      -1.882  38.610  23.239  1.00  0.00     0.197 C 
HETATM   16  O1  UNL     1      -2.956  38.263  22.714  1.00  0.00    -0.646 OA
HETATM   17  O2  UNL     1      -1.349  37.841  24.251  1.00  0.00    -0.646 OA
ENDBRANCH  13  15
ENDBRANCH   1  13
TORSDOF 2
ENDMDL
