MODEL 11
REMARK VINA RESULT: -4.527738943      3.197      5.107
REMARK  2 active torsions:
REMARK  status: ('A' for Active; 'I' for Inactive)
REMARK    1  A    between atoms: C2_2  and  C3_3 
REMARK    2  A    between atoms: C2_2  and  N1_6 
ROOT
HETATM    1  N1  UNL     1       1.478  43.159  26.468  1.00  0.00    -0.273 N 
HETATM    2  C4  UNL     1       1.083  43.302  25.106  1.00  0.00     0.232 C 
HETATM    3  O3  UNL     1       1.715  42.776  24.127  1.00  0.00    -0.272 OA
HETATM    4  C5  UNL     1      -0.130  44.121  24.970  1.00  0.00     0.096 C 
HETATM    5  C6  UNL     1      -1.273  43.395  24.333  1.00  0.00    -0.000 C 
HETATM    6  C7  UNL     1      -1.346  42.019  24.950  1.00  0.00     0.006 C 
HETATM    7  C8  UNL     1      -1.988  42.202  26.326  1.00  0.00     0.006 C 
HETATM    8  C9  UNL     1      -2.001  43.698  26.460  1.00  0.00    -0.000 C 
HETATM    9  C10 UNL     1      -2.460  44.075  25.037  1.00  0.00     0.011 C 
HETATM   10  C11 UNL     1      -0.605  44.281  26.416  1.00  0.00     0.096 C 
HETATM   11  C12 UNL     1       0.358  43.554  27.240  1.00  0.00     0.232 C 
HETATM   12  O4  UNL     1       0.229  43.306  28.458  1.00  0.00    -0.272 OA
ENDROOT
BRANCH   1  13
HETATM   13  C2  UNL     1       2.775  42.699  26.946  1.00  0.00     0.192 C 
HETATM   14  C1  UNL     1       2.630  41.354  27.653  1.00  0.00     0.044 C 
BRANCH  13  15
HETATM   15  C3  UNL     1       3.425  43.695  27.820  1.00  0.00     0.197 C 
HETATM   16  O1  UNL     1       3.479  43.540  29.054  1.00  0.00    -0.646 OA
HETATM   17  O2  UNL     1       3.984  44.823  27.260  1.00  0.00    -0.646 OA
ENDBRANCH  13  15
ENDBRANCH   1  13
TORSDOF 2
ENDMDL
