MODEL 2
REMARK VINA RESULT: -7.357251132      3.543      6.486
REMARK  2 active torsions:
REMARK  status: ('A' for Active; 'I' for Inactive)
REMARK    1  A    between atoms: N1_11  and  C9_12 
REMARK    2  A    between atoms: C10_13  and  C11_14 
ROOT
HETATM    1  O1  UNL     1      -2.911  49.689  12.748  1.00  0.00    -0.267 OA
HETATM    2  C1  UNL     1      -2.658  50.881  12.410  1.00  0.00     0.265 A 
HETATM    3  C2  UNL     1      -1.582  51.240  11.522  1.00  0.00     0.048 A 
HETATM    4  C3  UNL     1      -0.618  50.519  10.847  1.00  0.00     0.018 A 
HETATM    5  C4  UNL     1       0.324  51.106  10.037  1.00  0.00     0.001 A 
HETATM    6  C5  UNL     1       0.297  52.484   9.899  1.00  0.00     0.001 A 
HETATM    7  C6  UNL     1      -0.654  53.211  10.563  1.00  0.00     0.018 A 
HETATM    8  C7  UNL     1      -1.576  52.592  11.360  1.00  0.00     0.048 A 
HETATM    9  C8  UNL     1      -2.670  53.116  12.161  1.00  0.00     0.265 A 
HETATM   10  O2  UNL     1      -2.960  54.305  12.251  1.00  0.00    -0.267 OA
HETATM   11  N1  UNL     1      -3.357  52.076  12.822  1.00  0.00    -0.254 N 
ENDROOT
BRANCH  11  12
HETATM   12  C9  UNL     1      -4.454  52.030  13.690  1.00  0.00     0.107 C 
HETATM   13  C10 UNL     1      -5.161  53.205  14.139  1.00  0.00     0.069 C 
BRANCH  13  14
HETATM   14  C11 UNL     1      -5.814  54.105  13.211  1.00  0.00     0.138 A 
HETATM   15  N2  UNL     1      -5.982  53.964  11.879  1.00  0.00    -0.269 N 
HETATM   16  N3  UNL     1      -6.632  55.007  11.389  1.00  0.00    -0.227 N 
ATOM     17  H2  UNL     1      -5.655  53.169  11.331  1.00  0.00     0.190 HD
HETATM   18  N4  UNL     1      -6.883  55.820  12.396  1.00  0.00    -0.227 N 
ATOM     19  H3  UNL     1      -6.890  55.155  10.413  1.00  0.00     0.210 HD
HETATM   20  N5  UNL     1      -6.401  55.293  13.484  1.00  0.00    -0.269 N 
ATOM     21  H4  UNL     1      -7.374  56.712  12.333  1.00  0.00     0.210 HD
ATOM     22  H5  UNL     1      -6.458  55.715  14.411  1.00  0.00     0.190 HD
ENDBRANCH  13  14
ENDBRANCH  11  12
TORSDOF 2
ENDMDL
