MODEL 5
REMARK VINA RESULT: -7.205022657      3.557      6.187
REMARK  2 active torsions:
REMARK  status: ('A' for Active; 'I' for Inactive)
REMARK    1  A    between atoms: N1_11  and  C9_12 
REMARK    2  A    between atoms: C10_13  and  C11_14 
ROOT
HETATM    1  O1  UNL     1      -4.362  51.069  10.618  1.00  0.00    -0.267 OA
HETATM    2  C1  UNL     1      -3.385  51.752  11.038  1.00  0.00     0.265 A 
HETATM    3  C2  UNL     1      -2.239  52.074  10.227  1.00  0.00     0.048 A 
HETATM    4  C3  UNL     1      -1.878  51.791   8.925  1.00  0.00     0.018 A 
HETATM    5  C4  UNL     1      -0.700  52.223   8.366  1.00  0.00     0.001 A 
HETATM    6  C5  UNL     1       0.157  52.976   9.151  1.00  0.00     0.001 A 
HETATM    7  C6  UNL     1      -0.188  53.265  10.443  1.00  0.00     0.018 A 
HETATM    8  C7  UNL     1      -1.370  52.818  10.967  1.00  0.00     0.048 A 
HETATM    9  C8  UNL     1      -1.968  52.978  12.282  1.00  0.00     0.265 A 
HETATM   10  O2  UNL     1      -1.455  53.597  13.209  1.00  0.00    -0.267 OA
HETATM   11  N1  UNL     1      -3.218  52.327  12.353  1.00  0.00    -0.254 N 
ENDROOT
BRANCH  11  12
HETATM   12  C9  UNL     1      -4.182  52.175  13.355  1.00  0.00     0.107 C 
HETATM   13  C10 UNL     1      -4.886  53.283  13.955  1.00  0.00     0.069 C 
BRANCH  13  14
HETATM   14  C11 UNL     1      -5.709  54.179  13.169  1.00  0.00     0.138 A 
HETATM   15  N2  UNL     1      -6.428  55.243  13.585  1.00  0.00    -0.269 N 
HETATM   16  N3  UNL     1      -7.046  55.804  12.558  1.00  0.00    -0.227 N 
ATOM     17  H2  UNL     1      -6.487  55.567  14.550  1.00  0.00     0.190 HD
HETATM   18  N4  UNL     1      -6.730  55.109  11.483  1.00  0.00    -0.227 N 
ATOM     19  H3  UNL     1      -7.654  56.623  12.592  1.00  0.00     0.210 HD
HETATM   20  N5  UNL     1      -5.935  54.140  11.836  1.00  0.00    -0.269 N 
ATOM     21  H4  UNL     1      -7.053  55.298  10.534  1.00  0.00     0.210 HD
ATOM     22  H5  UNL     1      -5.538  53.450  11.198  1.00  0.00     0.190 HD
ENDBRANCH  13  14
ENDBRANCH  11  12
TORSDOF 2
ENDMDL
