MODEL 4
REMARK VINA RESULT: -7.210448946      2.860      5.717
REMARK  2 active torsions:
REMARK  status: ('A' for Active; 'I' for Inactive)
REMARK    1  A    between atoms: N1_11  and  C9_12 
REMARK    2  A    between atoms: C10_13  and  C11_14 
ROOT
HETATM    1  O1  UNL     1      -7.362  52.478   9.646  1.00  0.00    -0.267 OA
HETATM    2  C1  UNL     1      -7.346  53.072  10.762  1.00  0.00     0.265 A 
HETATM    3  C2  UNL     1      -6.406  52.762  11.809  1.00  0.00     0.048 A 
HETATM    4  C3  UNL     1      -5.370  51.858  11.929  1.00  0.00     0.018 A 
HETATM    5  C4  UNL     1      -4.597  51.752  13.060  1.00  0.00     0.001 A 
HETATM    6  C5  UNL     1      -4.878  52.595  14.122  1.00  0.00     0.001 A 
HETATM    7  C6  UNL     1      -5.902  53.496  14.017  1.00  0.00     0.018 A 
HETATM    8  C7  UNL     1      -6.650  53.574  12.875  1.00  0.00     0.048 A 
HETATM    9  C8  UNL     1      -7.771  54.424  12.509  1.00  0.00     0.265 A 
HETATM   10  O2  UNL     1      -8.263  55.281  13.236  1.00  0.00    -0.267 OA
HETATM   11  N1  UNL     1      -8.221  54.132  11.203  1.00  0.00    -0.254 N 
ENDROOT
BRANCH  11  12
HETATM   12  C9  UNL     1      -9.238  54.640  10.387  1.00  0.00     0.107 C 
HETATM   13  C10 UNL     1      -9.062  55.774   9.511  1.00  0.00     0.069 C 
BRANCH  13  14
HETATM   14  C11 UNL     1      -8.081  55.770   8.446  1.00  0.00     0.138 A 
HETATM   15  N2  UNL     1      -6.780  55.414   8.500  1.00  0.00    -0.269 N 
HETATM   16  N3  UNL     1      -6.220  55.551   7.310  1.00  0.00    -0.227 N 
ATOM     17  H2  UNL     1      -6.299  55.086   9.338  1.00  0.00     0.190 HD
HETATM   18  N4  UNL     1      -7.151  55.994   6.488  1.00  0.00    -0.227 N 
ATOM     19  H3  UNL     1      -5.248  55.351   7.072  1.00  0.00     0.210 HD
HETATM   20  N5  UNL     1      -8.261  56.128   7.154  1.00  0.00    -0.269 N 
ATOM     21  H4  UNL     1      -7.022  56.198   5.496  1.00  0.00     0.210 HD
ATOM     22  H5  UNL     1      -9.142  56.455   6.757  1.00  0.00     0.190 HD
ENDBRANCH  13  14
ENDBRANCH  11  12
TORSDOF 2
ENDMDL
