MODEL 7
REMARK VINA RESULT: -6.859061533      1.448      1.840
REMARK  2 active torsions:
REMARK  status: ('A' for Active; 'I' for Inactive)
REMARK    1  A    between atoms: N2_11  and  C7_12 
REMARK    2  A    between atoms: C7_12  and  C8_13 
ROOT
HETATM    1  O1  UNL     1      -4.254  50.731  13.102  1.00  0.00    -0.267 OA
HETATM    2  C1  UNL     1      -3.348  51.485  12.714  1.00  0.00     0.262 A 
HETATM    3  C2  UNL     1      -2.275  51.017  11.921  1.00  0.00     0.073 A 
HETATM    4  C3  UNL     1      -2.026  49.764  11.457  1.00  0.00    -0.026 A 
HETATM    5  C4  UNL     1      -0.897  49.596  10.702  1.00  0.00    -0.008 A 
HETATM    6  S1  UNL     1      -0.221  51.151  10.654  1.00  0.00    -0.075 SA
HETATM    7  C5  UNL     1      -1.372  51.989  11.586  1.00  0.00     0.091 A 
HETATM    8  N1  UNL     1      -1.490  53.295  11.979  1.00  0.00    -0.346 N 
ATOM      9  H1  UNL     1      -0.781  53.971  11.696  1.00  0.00     0.167 HD
HETATM   10  C6  UNL     1      -2.532  53.699  12.736  1.00  0.00     0.187 A 
HETATM   11  N2  UNL     1      -3.419  52.771  13.072  1.00  0.00    -0.303 N 
HETATM   12  C9  UNL     1      -0.443  48.309  10.101  1.00  0.00     0.047 C 
HETATM   13  C10 UNL     1      -1.311  47.147  10.507  1.00  0.00     0.005 C 
HETATM   14  C11 UNL     1      -2.751  47.679  10.479  1.00  0.00     0.005 C 
HETATM   15  C12 UNL     1      -2.893  48.518  11.703  1.00  0.00     0.041 C 
ENDROOT
BRANCH  11  16
HETATM   16  C7  UNL     1      -4.542  53.222  13.892  1.00  0.00     0.212 C 
BRANCH  16  17
HETATM   17  C8  UNL     1      -5.418  54.158  13.162  1.00  0.00     0.131 A 
HETATM   18  N3  UNL     1      -5.906  55.331  13.615  1.00  0.00    -0.271 N 
HETATM   19  N4  UNL     1      -6.652  55.883  12.669  1.00  0.00    -0.227 N 
ATOM     20  H3  UNL     1      -5.729  55.729  14.538  1.00  0.00     0.190 HD
HETATM   21  N5  UNL     1      -6.649  55.087  11.618  1.00  0.00    -0.227 N 
ATOM     22  H4  UNL     1      -7.144  56.773  12.741  1.00  0.00     0.210 HD
HETATM   23  N6  UNL     1      -5.904  54.043  11.912  1.00  0.00    -0.271 N 
ATOM     24  H5  UNL     1      -7.137  55.251  10.737  1.00  0.00     0.210 HD
ATOM     25  H6  UNL     1      -5.722  53.260  11.284  1.00  0.00     0.190 HD
ENDBRANCH  16  17
ENDBRANCH  11  16
TORSDOF 2
ENDMDL
