MODEL 2
REMARK VINA RESULT: -6.972837894      2.163      2.741
REMARK  2 active torsions:
REMARK  status: ('A' for Active; 'I' for Inactive)
REMARK    1  A    between atoms: N2_11  and  C7_12 
REMARK    2  A    between atoms: C7_12  and  C8_13 
ROOT
HETATM    1  O1  UNL     1      -4.097  51.161  13.437  1.00  0.00    -0.267 OA
HETATM    2  C1  UNL     1      -4.647  51.359  12.343  1.00  0.00     0.262 A 
HETATM    3  C2  UNL     1      -4.217  50.712  11.161  1.00  0.00     0.073 A 
HETATM    4  C3  UNL     1      -3.206  49.820  10.984  1.00  0.00    -0.026 A 
HETATM    5  C4  UNL     1      -3.011  49.349   9.714  1.00  0.00    -0.008 A 
HETATM    6  S1  UNL     1      -4.211  50.140   8.813  1.00  0.00    -0.075 SA
HETATM    7  C5  UNL     1      -4.940  51.052  10.051  1.00  0.00     0.091 A 
HETATM    8  N1  UNL     1      -5.985  51.935  10.074  1.00  0.00    -0.346 N 
ATOM      9  H1  UNL     1      -6.484  52.147   9.210  1.00  0.00     0.167 HD
HETATM   10  C6  UNL     1      -6.364  52.531  11.225  1.00  0.00     0.187 A 
HETATM   11  N2  UNL     1      -5.673  52.215  12.314  1.00  0.00    -0.303 N 
HETATM   12  C9  UNL     1      -1.962  48.370   9.307  1.00  0.00     0.047 C 
HETATM   13  C10 UNL     1      -1.034  48.018  10.440  1.00  0.00     0.005 C 
HETATM   14  C11 UNL     1      -1.929  47.894  11.682  1.00  0.00     0.005 C 
HETATM   15  C12 UNL     1      -2.262  49.292  12.078  1.00  0.00     0.041 C 
ENDROOT
BRANCH  11  16
HETATM   16  C7  UNL     1      -6.095  52.866  13.553  1.00  0.00     0.212 C 
BRANCH  16  17
HETATM   17  C8  UNL     1      -5.600  54.252  13.645  1.00  0.00     0.131 A 
HETATM   18  N3  UNL     1      -6.183  55.279  14.296  1.00  0.00    -0.271 N 
HETATM   19  N4  UNL     1      -5.436  56.364  14.148  1.00  0.00    -0.227 N 
ATOM     20  H3  UNL     1      -7.058  55.228  14.819  1.00  0.00     0.190 HD
HETATM   21  N5  UNL     1      -4.386  56.052  13.416  1.00  0.00    -0.227 N 
ATOM     22  H4  UNL     1      -5.640  57.285  14.535  1.00  0.00     0.210 HD
HETATM   23  N6  UNL     1      -4.480  54.775  13.110  1.00  0.00    -0.271 N 
ATOM     24  H5  UNL     1      -3.636  56.685  13.137  1.00  0.00     0.210 HD
ATOM     25  H6  UNL     1      -3.804  54.257  12.548  1.00  0.00     0.190 HD
ENDBRANCH  16  17
ENDBRANCH  11  16
TORSDOF 2
ENDMDL
