MODEL 1
REMARK VINA RESULT: -7.102540398      0.000      0.000
REMARK  2 active torsions:
REMARK  status: ('A' for Active; 'I' for Inactive)
REMARK    1  A    between atoms: N2_11  and  C7_12 
REMARK    2  A    between atoms: C7_12  and  C8_13 
ROOT
HETATM    1  O1  UNL     1      -6.195  51.053  12.048  1.00  0.00    -0.267 OA
HETATM    2  C1  UNL     1      -5.206  51.702  12.423  1.00  0.00     0.262 A 
HETATM    3  C2  UNL     1      -3.888  51.212  12.268  1.00  0.00     0.073 A 
HETATM    4  C3  UNL     1      -3.460  50.040  11.728  1.00  0.00    -0.026 A 
HETATM    5  C4  UNL     1      -2.109  49.825  11.707  1.00  0.00    -0.008 A 
HETATM    6  S1  UNL     1      -1.476  51.227  12.424  1.00  0.00    -0.075 SA
HETATM    7  C5  UNL     1      -2.925  52.062  12.738  1.00  0.00     0.091 A 
HETATM    8  N1  UNL     1      -3.203  53.275  13.307  1.00  0.00    -0.346 N 
ATOM      9  H1  UNL     1      -2.438  53.863  13.638  1.00  0.00     0.167 HD
HETATM   10  C6  UNL     1      -4.477  53.705  13.435  1.00  0.00     0.187 A 
HETATM   11  N2  UNL     1      -5.427  52.894  12.986  1.00  0.00    -0.303 N 
HETATM   12  C9  UNL     1      -1.435  48.611  11.162  1.00  0.00     0.047 C 
HETATM   13  C10 UNL     1      -2.418  47.558  10.722  1.00  0.00     0.005 C 
HETATM   14  C11 UNL     1      -3.560  48.321  10.036  1.00  0.00     0.005 C 
HETATM   15  C12 UNL     1      -4.353  48.934  11.140  1.00  0.00     0.041 C 
ENDROOT
BRANCH  11  16
HETATM   16  C7  UNL     1      -6.800  53.371  13.131  1.00  0.00     0.212 C 
BRANCH  16  17
HETATM   17  C8  UNL     1      -7.120  54.438  12.165  1.00  0.00     0.131 A 
HETATM   18  N3  UNL     1      -7.751  55.602  12.423  1.00  0.00    -0.271 N 
HETATM   19  N4  UNL     1      -7.851  56.297  11.298  1.00  0.00    -0.227 N 
ATOM     20  H3  UNL     1      -8.095  55.900  13.336  1.00  0.00     0.190 HD
HETATM   21  N5  UNL     1      -7.296  55.602  10.327  1.00  0.00    -0.227 N 
ATOM     22  H4  UNL     1      -8.286  57.215  11.202  1.00  0.00     0.210 HD
HETATM   23  N6  UNL     1      -6.851  54.477  10.846  1.00  0.00    -0.271 N 
ATOM     24  H5  UNL     1      -7.223  55.884   9.349  1.00  0.00     0.210 HD
ATOM     25  H6  UNL     1      -6.374  53.741  10.325  1.00  0.00     0.190 HD
ENDBRANCH  16  17
ENDBRANCH  11  16
TORSDOF 2
ENDMDL
