MODEL 6
REMARK VINA RESULT: -7.713757757      1.511      1.754
REMARK  3 active torsions:
REMARK  status: ('A' for Active; 'I' for Inactive)
REMARK       I    between atoms: C1_2  and  N1_3 
REMARK    1  A    between atoms: C1_2  and  C9_20 
REMARK    2  A    between atoms: N1_3  and  C2_5 
REMARK    3  A    between atoms: C6_9  and  C7_10 
ROOT
HETATM    1  C2  UNL     1      -6.681  54.477  12.489  1.00  0.00     0.035 A 
HETATM    2  C3  UNL     1      -7.081  53.755  13.608  1.00  0.00     0.029 A 
HETATM    3  C4  UNL     1      -6.218  52.987  14.358  1.00  0.00     0.003 A 
HETATM    4  C5  UNL     1      -4.900  52.910  14.014  1.00  0.00     0.015 A 
HETATM    5  C6  UNL     1      -4.464  53.609  12.913  1.00  0.00     0.013 A 
HETATM    6  C8  UNL     1      -5.360  54.383  12.166  1.00  0.00     0.044 A 
ENDROOT
BRANCH   1   7
HETATM    7  N1  UNL     1      -7.648  55.226  11.798  1.00  0.00    -0.323 N 
HETATM    8  C1  UNL     1      -8.668  56.024  12.328  1.00  0.00     0.256 C 
HETATM    9  O1  UNL     1      -8.763  56.108  13.592  1.00  0.00    -0.267 OA
ATOM     10  H1  UNL     1      -7.600  55.184  10.779  1.00  0.00     0.169 HD
BRANCH   8  11
HETATM   11  C9  UNL     1      -9.621  56.757  11.482  1.00  0.00     0.035 A 
HETATM   12  C10 UNL     1     -10.325  57.842  12.012  1.00  0.00     0.017 A 
HETATM   13  C11 UNL     1     -11.223  58.546  11.261  1.00  0.00     0.004 A 
HETATM   14  C12 UNL     1     -11.460  58.199   9.939  1.00  0.00     0.042 A 
HETATM   15  C13 UNL     1     -10.784  57.138   9.394  1.00  0.00     0.117 A 
HETATM   16  F1  UNL     1     -11.031  56.818   8.103  1.00  0.00    -0.206 F 
HETATM   17  C14 UNL     1      -9.869  56.436  10.190  1.00  0.00     0.059 A 
ENDBRANCH   8  11
ENDBRANCH   1   7
BRANCH   5  18
HETATM   18  C7  UNL     1      -3.053  53.545  12.520  1.00  0.00     0.147 A 
HETATM   19  N2  UNL     1      -2.588  53.485  11.275  1.00  0.00    -0.268 N 
HETATM   20  N3  UNL     1      -1.269  53.440  11.298  1.00  0.00    -0.227 N 
ATOM     21  H2  UNL     1      -3.163  53.476  10.433  1.00  0.00     0.190 HD
HETATM   22  N4  UNL     1      -0.920  53.474  12.570  1.00  0.00    -0.227 N 
ATOM     23  H3  UNL     1      -0.644  53.390  10.493  1.00  0.00     0.210 HD
HETATM   24  N5  UNL     1      -1.985  53.537  13.315  1.00  0.00    -0.268 N 
ATOM     25  H4  UNL     1       0.038  53.453  12.918  1.00  0.00     0.210 HD
ATOM     26  H5  UNL     1      -2.000  53.574  14.334  1.00  0.00     0.190 HD
ENDBRANCH   5  18
TORSDOF 3
ENDMDL
