MODEL 2
REMARK VINA RESULT: -8.230412752      0.789      1.090
REMARK  3 active torsions:
REMARK  status: ('A' for Active; 'I' for Inactive)
REMARK       I    between atoms: C1_2  and  N1_3 
REMARK    1  A    between atoms: C1_2  and  C9_20 
REMARK    2  A    between atoms: N1_3  and  C2_5 
REMARK    3  A    between atoms: C6_9  and  C7_10 
ROOT
HETATM    1  C2  UNL     1      -6.678  54.716  12.517  1.00  0.00     0.035 A 
HETATM    2  C3  UNL     1      -7.193  53.812  13.441  1.00  0.00     0.029 A 
HETATM    3  C4  UNL     1      -6.418  52.885  14.101  1.00  0.00     0.003 A 
HETATM    4  C5  UNL     1      -5.077  52.823  13.859  1.00  0.00     0.015 A 
HETATM    5  C6  UNL     1      -4.529  53.699  12.953  1.00  0.00     0.013 A 
HETATM    6  C8  UNL     1      -5.337  54.633  12.294  1.00  0.00     0.044 A 
ENDROOT
BRANCH   1   7
HETATM    7  N1  UNL     1      -7.563  55.618  11.903  1.00  0.00    -0.323 N 
HETATM    8  C1  UNL     1      -8.664  56.272  12.467  1.00  0.00     0.256 C 
HETATM    9  O1  UNL     1      -8.929  56.049  13.690  1.00  0.00    -0.267 OA
ATOM     10  H1  UNL     1      -7.379  55.823  10.920  1.00  0.00     0.169 HD
BRANCH   8  11
HETATM   11  C9  UNL     1      -9.514  57.197  11.702  1.00  0.00     0.035 A 
HETATM   12  C10 UNL     1      -9.186  57.503  10.378  1.00  0.00     0.017 A 
HETATM   13  C11 UNL     1      -9.947  58.362   9.636  1.00  0.00     0.004 A 
HETATM   14  C12 UNL     1     -11.074  58.957  10.182  1.00  0.00     0.042 A 
HETATM   15  C13 UNL     1     -11.418  58.674  11.479  1.00  0.00     0.117 A 
HETATM   16  F1  UNL     1     -12.522  59.265  11.991  1.00  0.00    -0.206 F 
HETATM   17  C14 UNL     1     -10.619  57.789  12.215  1.00  0.00     0.059 A 
ENDBRANCH   8  11
ENDBRANCH   1   7
BRANCH   5  18
HETATM   18  C7  UNL     1      -3.089  53.655  12.674  1.00  0.00     0.147 A 
HETATM   19  N2  UNL     1      -2.114  53.807  13.566  1.00  0.00    -0.268 N 
HETATM   20  N3  UNL     1      -0.944  53.708  12.962  1.00  0.00    -0.227 N 
ATOM     21  H2  UNL     1      -2.249  53.974  14.563  1.00  0.00     0.190 HD
HETATM   22  N4  UNL     1      -1.204  53.493  11.686  1.00  0.00    -0.227 N 
ATOM     23  H3  UNL     1      -0.023  53.782  13.396  1.00  0.00     0.210 HD
HETATM   24  N5  UNL     1      -2.492  53.459  11.501  1.00  0.00    -0.268 N 
ATOM     25  H4  UNL     1      -0.503  53.371  10.956  1.00  0.00     0.210 HD
ATOM     26  H5  UNL     1      -2.963  53.308  10.610  1.00  0.00     0.190 HD
ENDBRANCH   5  18
TORSDOF 3
ENDMDL
