MODEL 3
REMARK VINA RESULT: -7.860443303      1.265      1.636
REMARK  3 active torsions:
REMARK  status: ('A' for Active; 'I' for Inactive)
REMARK       I    between atoms: C1_2  and  N1_3 
REMARK    1  A    between atoms: C1_2  and  C9_20 
REMARK    2  A    between atoms: N1_3  and  C2_5 
REMARK    3  A    between atoms: C6_9  and  C7_10 
ROOT
HETATM    1  C2  UNL     1      -6.570  53.616  11.747  1.00  0.00     0.035 A 
HETATM    2  C3  UNL     1      -7.027  52.305  11.667  1.00  0.00     0.029 A 
HETATM    3  C4  UNL     1      -6.235  51.213  11.947  1.00  0.00     0.003 A 
HETATM    4  C5  UNL     1      -4.937  51.392  12.325  1.00  0.00     0.015 A 
HETATM    5  C6  UNL     1      -4.447  52.672  12.415  1.00  0.00     0.013 A 
HETATM    6  C8  UNL     1      -5.270  53.767  12.126  1.00  0.00     0.044 A 
ENDROOT
BRANCH   1   7
HETATM    7  N1  UNL     1      -7.465  54.654  11.437  1.00  0.00    -0.323 N 
HETATM    8  C1  UNL     1      -8.046  55.586  12.306  1.00  0.00     0.256 C 
HETATM    9  O1  UNL     1      -7.747  55.519  13.539  1.00  0.00    -0.267 OA
ATOM     10  H1  UNL     1      -7.726  54.739  10.454  1.00  0.00     0.169 HD
BRANCH   8  11
HETATM   11  C9  UNL     1      -8.976  56.626  11.844  1.00  0.00     0.035 A 
HETATM   12  C10 UNL     1     -10.020  57.041  12.676  1.00  0.00     0.017 A 
HETATM   13  C11 UNL     1     -10.908  58.000  12.282  1.00  0.00     0.004 A 
HETATM   14  C12 UNL     1     -10.797  58.593  11.033  1.00  0.00     0.042 A 
HETATM   15  C13 UNL     1      -9.783  58.204  10.195  1.00  0.00     0.117 A 
HETATM   16  F1  UNL     1      -9.693  58.796   8.983  1.00  0.00    -0.206 F 
HETATM   17  C14 UNL     1      -8.886  57.218  10.629  1.00  0.00     0.059 A 
ENDBRANCH   8  11
ENDBRANCH   1   7
BRANCH   5  18
HETATM   18  C7  UNL     1      -3.055  52.894  12.820  1.00  0.00     0.147 A 
HETATM   19  N2  UNL     1      -2.085  51.983  12.822  1.00  0.00    -0.268 N 
HETATM   20  N3  UNL     1      -0.962  52.535  13.245  1.00  0.00    -0.227 N 
ATOM     21  H2  UNL     1      -2.192  51.009  12.540  1.00  0.00     0.190 HD
HETATM   22  N4  UNL     1      -1.246  53.798  13.505  1.00  0.00    -0.227 N 
ATOM     23  H3  UNL     1      -0.056  52.077  13.349  1.00  0.00     0.210 HD
HETATM   24  N5  UNL     1      -2.502  54.025  13.252  1.00  0.00    -0.268 N 
ATOM     25  H4  UNL     1      -0.582  54.490  13.850  1.00  0.00     0.210 HD
ATOM     26  H5  UNL     1      -2.982  54.918  13.367  1.00  0.00     0.190 HD
ENDBRANCH   5  18
TORSDOF 3
ENDMDL
