MODEL 1
REMARK VINA RESULT: -8.697395293      0.000      0.000
REMARK  3 active torsions:
REMARK  status: ('A' for Active; 'I' for Inactive)
REMARK       I    between atoms: C1_2  and  N1_3 
REMARK    1  A    between atoms: C1_2  and  C9_20 
REMARK    2  A    between atoms: N1_3  and  C2_5 
REMARK    3  A    between atoms: C6_9  and  C7_10 
ROOT
HETATM    1  C2  UNL     1      -6.824  54.242  11.773  1.00  0.00     0.035 A 
HETATM    2  C3  UNL     1      -7.358  52.981  12.020  1.00  0.00     0.029 A 
HETATM    3  C4  UNL     1      -6.594  51.900  12.397  1.00  0.00     0.003 A 
HETATM    4  C5  UNL     1      -5.245  52.038  12.545  1.00  0.00     0.015 A 
HETATM    5  C6  UNL     1      -4.678  53.267  12.310  1.00  0.00     0.013 A 
HETATM    6  C8  UNL     1      -5.475  54.352  11.928  1.00  0.00     0.044 A 
ENDROOT
BRANCH   1   7
HETATM    7  N1  UNL     1      -7.698  55.273  11.392  1.00  0.00    -0.323 N 
HETATM    8  C1  UNL     1      -8.547  56.035  12.204  1.00  0.00     0.256 C 
HETATM    9  O1  UNL     1      -8.553  55.793  13.452  1.00  0.00    -0.267 OA
ATOM     10  H1  UNL     1      -7.717  55.496  10.396  1.00  0.00     0.169 HD
BRANCH   8  11
HETATM   11  C9  UNL     1      -9.418  57.091  11.669  1.00  0.00     0.035 A 
HETATM   12  C10 UNL     1      -9.137  57.655  10.422  1.00  0.00     0.017 A 
HETATM   13  C11 UNL     1      -9.920  58.642   9.893  1.00  0.00     0.004 A 
HETATM   14  C12 UNL     1     -11.024  59.114  10.587  1.00  0.00     0.042 A 
HETATM   15  C13 UNL     1     -11.322  58.578  11.813  1.00  0.00     0.117 A 
HETATM   16  F1  UNL     1     -12.404  59.053  12.472  1.00  0.00    -0.206 F 
HETATM   17  C14 UNL     1     -10.501  57.567  12.329  1.00  0.00     0.059 A 
ENDBRANCH   8  11
ENDBRANCH   1   7
BRANCH   5  18
HETATM   18  C7  UNL     1      -3.230  53.444  12.462  1.00  0.00     0.147 A 
HETATM   19  N2  UNL     1      -2.314  53.263  11.514  1.00  0.00    -0.268 N 
HETATM   20  N3  UNL     1      -1.114  53.513  12.005  1.00  0.00    -0.227 N 
ATOM     21  H2  UNL     1      -2.509  52.975  10.555  1.00  0.00     0.190 HD
HETATM   22  N4  UNL     1      -1.296  53.852  13.268  1.00  0.00    -0.227 N 
ATOM     23  H3  UNL     1      -0.225  53.456  11.508  1.00  0.00     0.210 HD
HETATM   24  N5  UNL     1      -2.564  53.815  13.554  1.00  0.00    -0.268 N 
ATOM     25  H4  UNL     1      -0.554  54.106  13.920  1.00  0.00     0.210 HD
ATOM     26  H5  UNL     1      -2.978  54.032  14.460  1.00  0.00     0.190 HD
ENDBRANCH   5  18
TORSDOF 3
ENDMDL
