MODEL 8
REMARK VINA RESULT: -7.486751755      3.873      5.960
REMARK  3 active torsions:
REMARK  status: ('A' for Active; 'I' for Inactive)
REMARK       I    between atoms: C1_2  and  N1_3 
REMARK    1  A    between atoms: C1_2  and  C9_20 
REMARK    2  A    between atoms: N1_3  and  C2_5 
REMARK    3  A    between atoms: C6_9  and  C7_10 
ROOT
HETATM    1  C2  UNL     1      -2.088  52.087  10.518  1.00  0.00     0.035 A 
HETATM    2  C3  UNL     1      -1.617  50.786  10.657  1.00  0.00     0.029 A 
HETATM    3  C4  UNL     1      -0.336  50.408  10.320  1.00  0.00     0.003 A 
HETATM    4  C5  UNL     1       0.537  51.331   9.822  1.00  0.00     0.015 A 
HETATM    5  C6  UNL     1       0.109  52.628   9.669  1.00  0.00     0.013 A 
HETATM    6  C8  UNL     1      -1.197  52.988  10.019  1.00  0.00     0.044 A 
ENDROOT
BRANCH   1   7
HETATM    7  N1  UNL     1      -3.415  52.359  10.894  1.00  0.00    -0.323 N 
HETATM    8  C1  UNL     1      -3.889  52.818  12.128  1.00  0.00     0.256 C 
HETATM    9  O1  UNL     1      -3.042  53.031  13.051  1.00  0.00    -0.267 OA
ATOM     10  H1  UNL     1      -4.122  52.202  10.176  1.00  0.00     0.169 HD
BRANCH   8  11
HETATM   11  C9  UNL     1      -5.316  53.060  12.388  1.00  0.00     0.035 A 
HETATM   12  C10 UNL     1      -6.245  52.042  12.157  1.00  0.00     0.017 A 
HETATM   13  C11 UNL     1      -7.579  52.229  12.380  1.00  0.00     0.004 A 
HETATM   14  C12 UNL     1      -8.051  53.447  12.847  1.00  0.00     0.042 A 
HETATM   15  C13 UNL     1      -7.162  54.464  13.082  1.00  0.00     0.117 A 
HETATM   16  F1  UNL     1      -7.644  55.643  13.537  1.00  0.00    -0.206 F 
HETATM   17  C14 UNL     1      -5.799  54.241  12.843  1.00  0.00     0.059 A 
ENDBRANCH   8  11
ENDBRANCH   1   7
BRANCH   5  18
HETATM   18  C7  UNL     1       1.027  53.641   9.137  1.00  0.00     0.147 A 
HETATM   19  N2  UNL     1       2.349  53.524   9.036  1.00  0.00    -0.268 N 
HETATM   20  N3  UNL     1       2.850  54.628   8.512  1.00  0.00    -0.227 N 
ATOM     21  H2  UNL     1       2.891  52.708   9.318  1.00  0.00     0.190 HD
HETATM   22  N4  UNL     1       1.825  55.429   8.289  1.00  0.00    -0.227 N 
ATOM     23  H3  UNL     1       3.833  54.822   8.318  1.00  0.00     0.210 HD
HETATM   24  N5  UNL     1       0.724  54.846   8.661  1.00  0.00    -0.268 N 
ATOM     25  H4  UNL     1       1.887  56.364   7.887  1.00  0.00     0.210 HD
ATOM     26  H5  UNL     1      -0.213  55.244   8.599  1.00  0.00     0.190 HD
ENDBRANCH   5  18
TORSDOF 3
ENDMDL
