MODEL 7
REMARK VINA RESULT: -7.543393684      4.635      8.492
REMARK  3 active torsions:
REMARK  status: ('A' for Active; 'I' for Inactive)
REMARK       I    between atoms: C1_2  and  N1_3 
REMARK    1  A    between atoms: C1_2  and  C9_20 
REMARK    2  A    between atoms: N1_3  and  C2_5 
REMARK    3  A    between atoms: C6_9  and  C7_10 
ROOT
HETATM    1  C2  UNL     1      -4.729  53.293  12.306  1.00  0.00     0.035 A 
HETATM    2  C3  UNL     1      -5.003  52.747  13.555  1.00  0.00     0.029 A 
HETATM    3  C4  UNL     1      -6.087  53.119  14.319  1.00  0.00     0.003 A 
HETATM    4  C5  UNL     1      -6.953  54.067  13.856  1.00  0.00     0.015 A 
HETATM    5  C6  UNL     1      -6.717  54.632  12.626  1.00  0.00     0.013 A 
HETATM    6  C8  UNL     1      -5.609  54.237  11.867  1.00  0.00     0.044 A 
ENDROOT
BRANCH   1   7
HETATM    7  N1  UNL     1      -3.593  52.839  11.614  1.00  0.00    -0.323 N 
HETATM    8  C1  UNL     1      -2.268  53.269  11.746  1.00  0.00     0.256 C 
HETATM    9  O1  UNL     1      -2.020  54.185  12.591  1.00  0.00    -0.267 OA
ATOM     10  H1  UNL     1      -3.755  52.101  10.929  1.00  0.00     0.169 HD
BRANCH   8  11
HETATM   11  C9  UNL     1      -1.169  52.704  10.951  1.00  0.00     0.035 A 
HETATM   12  C10 UNL     1      -0.427  53.534  10.106  1.00  0.00     0.017 A 
HETATM   13  C11 UNL     1       0.598  53.047   9.347  1.00  0.00     0.004 A 
HETATM   14  C12 UNL     1       0.932  51.701   9.395  1.00  0.00     0.042 A 
HETATM   15  C13 UNL     1       0.220  50.864  10.214  1.00  0.00     0.117 A 
HETATM   16  F1  UNL     1       0.564  49.556  10.245  1.00  0.00    -0.206 F 
HETATM   17  C14 UNL     1      -0.825  51.394  10.982  1.00  0.00     0.059 A 
ENDBRANCH   8  11
ENDBRANCH   1   7
BRANCH   5  18
HETATM   18  C7  UNL     1      -7.632  55.652  12.103  1.00  0.00     0.147 A 
HETATM   19  N2  UNL     1      -7.472  56.345  10.978  1.00  0.00    -0.268 N 
HETATM   20  N3  UNL     1      -8.489  57.173  10.823  1.00  0.00    -0.227 N 
ATOM     21  H2  UNL     1      -6.686  56.250  10.336  1.00  0.00     0.190 HD
HETATM   22  N4  UNL     1      -9.280  56.987  11.862  1.00  0.00    -0.227 N 
ATOM     23  H3  UNL     1      -8.633  57.827  10.052  1.00  0.00     0.210 HD
HETATM   24  N5  UNL     1      -8.774  56.074  12.639  1.00  0.00    -0.268 N 
ATOM     25  H4  UNL     1     -10.155  57.482  12.031  1.00  0.00     0.210 HD
ATOM     26  H5  UNL     1      -9.184  55.738  13.511  1.00  0.00     0.190 HD
ENDBRANCH   5  18
TORSDOF 3
ENDMDL
