MODEL 5
REMARK VINA RESULT: -7.746521707      1.155      1.579
REMARK  3 active torsions:
REMARK  status: ('A' for Active; 'I' for Inactive)
REMARK       I    between atoms: C1_2  and  N1_3 
REMARK    1  A    between atoms: C1_2  and  C9_20 
REMARK    2  A    between atoms: N1_3  and  C2_5 
REMARK    3  A    between atoms: C6_9  and  C7_10 
ROOT
HETATM    1  C2  UNL     1      -7.723  54.448  11.726  1.00  0.00     0.035 A 
HETATM    2  C3  UNL     1      -8.233  53.155  11.778  1.00  0.00     0.029 A 
HETATM    3  C4  UNL     1      -7.457  52.050  12.050  1.00  0.00     0.003 A 
HETATM    4  C5  UNL     1      -6.122  52.197  12.286  1.00  0.00     0.015 A 
HETATM    5  C6  UNL     1      -5.579  53.459  12.242  1.00  0.00     0.013 A 
HETATM    6  C8  UNL     1      -6.387  54.567  11.964  1.00  0.00     0.044 A 
ENDROOT
BRANCH   1   7
HETATM    7  N1  UNL     1      -8.608  55.502  11.438  1.00  0.00    -0.323 N 
HETATM    8  C1  UNL     1      -9.275  56.343  12.336  1.00  0.00     0.256 C 
HETATM    9  O1  UNL     1      -9.081  56.163  13.578  1.00  0.00    -0.267 OA
ATOM     10  H1  UNL     1      -8.785  55.676  10.448  1.00  0.00     0.169 HD
BRANCH   8  11
HETATM   11  C9  UNL     1     -10.182  57.413  11.894  1.00  0.00     0.035 A 
HETATM   12  C10 UNL     1     -11.499  57.442  12.361  1.00  0.00     0.017 A 
HETATM   13  C11 UNL     1     -12.373  58.415  11.970  1.00  0.00     0.004 A 
HETATM   14  C12 UNL     1     -11.972  59.411  11.091  1.00  0.00     0.042 A 
HETATM   15  C13 UNL     1     -10.685  59.406  10.616  1.00  0.00     0.117 A 
HETATM   16  F1  UNL     1     -10.317  60.386   9.761  1.00  0.00    -0.206 F 
HETATM   17  C14 UNL     1      -9.812  58.394  11.036  1.00  0.00     0.059 A 
ENDBRANCH   8  11
ENDBRANCH   1   7
BRANCH   5  18
HETATM   18  C7  UNL     1      -4.146  53.646  12.492  1.00  0.00     0.147 A 
HETATM   19  N2  UNL     1      -3.167  53.467  11.608  1.00  0.00    -0.268 N 
HETATM   20  N3  UNL     1      -2.005  53.727  12.179  1.00  0.00    -0.227 N 
ATOM     21  H2  UNL     1      -3.295  53.174  10.640  1.00  0.00     0.190 HD
HETATM   22  N4  UNL     1      -2.273  54.069  13.425  1.00  0.00    -0.227 N 
ATOM     23  H3  UNL     1      -1.084  53.674  11.743  1.00  0.00     0.210 HD
HETATM   24  N5  UNL     1      -3.558  54.024  13.624  1.00  0.00    -0.268 N 
ATOM     25  H4  UNL     1      -1.580  54.330  14.125  1.00  0.00     0.210 HD
ATOM     26  H5  UNL     1      -4.034  54.242  14.499  1.00  0.00     0.190 HD
ENDBRANCH   5  18
TORSDOF 3
ENDMDL
