MODEL 4
REMARK VINA RESULT: -7.752351892      4.474      8.439
REMARK  3 active torsions:
REMARK  status: ('A' for Active; 'I' for Inactive)
REMARK       I    between atoms: C1_2  and  N1_3 
REMARK    1  A    between atoms: C1_2  and  C9_20 
REMARK    2  A    between atoms: N1_3  and  C2_5 
REMARK    3  A    between atoms: C6_9  and  C7_10 
ROOT
HETATM    1  C2  UNL     1      -4.710  53.315  12.283  1.00  0.00     0.035 A 
HETATM    2  C3  UNL     1      -4.992  52.721  13.509  1.00  0.00     0.029 A 
HETATM    3  C4  UNL     1      -6.088  53.053  14.273  1.00  0.00     0.003 A 
HETATM    4  C5  UNL     1      -6.960  54.007  13.835  1.00  0.00     0.015 A 
HETATM    5  C6  UNL     1      -6.717  54.618  12.629  1.00  0.00     0.013 A 
HETATM    6  C8  UNL     1      -5.596  54.264  11.869  1.00  0.00     0.044 A 
ENDROOT
BRANCH   1   7
HETATM    7  N1  UNL     1      -3.562  52.898  11.589  1.00  0.00    -0.323 N 
HETATM    8  C1  UNL     1      -2.241  53.328  11.762  1.00  0.00     0.256 C 
HETATM    9  O1  UNL     1      -2.010  54.203  12.653  1.00  0.00    -0.267 OA
ATOM     10  H1  UNL     1      -3.709  52.193  10.866  1.00  0.00     0.169 HD
BRANCH   8  11
HETATM   11  C9  UNL     1      -1.126  52.805  10.957  1.00  0.00     0.035 A 
HETATM   12  C10 UNL     1      -0.769  51.458  11.061  1.00  0.00     0.017 A 
HETATM   13  C11 UNL     1       0.263  50.936  10.335  1.00  0.00     0.004 A 
HETATM   14  C12 UNL     1       0.991  51.737   9.468  1.00  0.00     0.042 A 
HETATM   15  C13 UNL     1       0.662  53.063   9.347  1.00  0.00     0.117 A 
HETATM   16  F1  UNL     1       1.385  53.825   8.495  1.00  0.00    -0.206 F 
HETATM   17  C14 UNL     1      -0.402  53.569  10.105  1.00  0.00     0.059 A 
ENDBRANCH   8  11
ENDBRANCH   1   7
BRANCH   5  18
HETATM   18  C7  UNL     1      -7.637  55.647  12.133  1.00  0.00     0.147 A 
HETATM   19  N2  UNL     1      -7.488  56.361  11.020  1.00  0.00    -0.268 N 
HETATM   20  N3  UNL     1      -8.507  57.190  10.888  1.00  0.00    -0.227 N 
ATOM     21  H2  UNL     1      -6.707  56.280  10.369  1.00  0.00     0.190 HD
HETATM   22  N4  UNL     1      -9.290  56.982  11.930  1.00  0.00    -0.227 N 
ATOM     23  H3  UNL     1      -8.659  57.858  10.131  1.00  0.00     0.210 HD
HETATM   24  N5  UNL     1      -8.776  56.056  12.685  1.00  0.00    -0.268 N 
ATOM     25  H4  UNL     1     -10.164  57.473  12.115  1.00  0.00     0.210 HD
ATOM     26  H5  UNL     1      -9.179  55.703  13.554  1.00  0.00     0.190 HD
ENDBRANCH   5  18
TORSDOF 3
ENDMDL
