MODEL 4
REMARK VINA RESULT: -8.687433877      0.143      1.785
REMARK  2 active torsions:
REMARK  status: ('A' for Active; 'I' for Inactive)
REMARK    1  A    between atoms: S1_2  and  C2_3 
REMARK    2  A    between atoms: N2_14  and  C10_15 
ROOT
HETATM    1  C2  UNL     1     -46.064 -24.932   9.351  1.00  0.00     0.154 A 
HETATM    2  N1  UNL     1     -45.334 -25.930   9.897  1.00  0.00    -0.335 N 
ATOM      3  H1  UNL     1     -45.743 -26.862   9.970  1.00  0.00     0.168 HD
HETATM    4  C3  UNL     1     -44.081 -25.728  10.347  1.00  0.00     0.049 A 
HETATM    5  C4  UNL     1     -43.324 -26.733  10.906  1.00  0.00     0.030 A 
HETATM    6  C5  UNL     1     -42.042 -26.525  11.367  1.00  0.00     0.002 A 
HETATM    7  C6  UNL     1     -41.501 -25.266  11.265  1.00  0.00     0.001 A 
HETATM    8  C7  UNL     1     -42.254 -24.260  10.708  1.00  0.00     0.019 A 
HETATM    9  C8  UNL     1     -43.537 -24.467  10.246  1.00  0.00     0.059 A 
HETATM   10  C9  UNL     1     -44.314 -23.477   9.685  1.00  0.00     0.267 A 
HETATM   11  O1  UNL     1     -43.830 -22.323   9.585  1.00  0.00    -0.267 OA
HETATM   12  N2  UNL     1     -45.561 -23.693   9.239  1.00  0.00    -0.252 N 
ENDROOT
BRANCH  12  13
HETATM   13  C10 UNL     1     -46.358 -22.669   8.661  1.00  0.00     0.121 A 
HETATM   14  C11 UNL     1     -46.346 -22.469   7.296  1.00  0.00     0.146 A 
HETATM   15  F1  UNL     1     -45.557 -23.268   6.516  1.00  0.00    -0.204 F 
HETATM   16  C12 UNL     1     -47.126 -21.468   6.730  1.00  0.00     0.045 A 
HETATM   17  C13 UNL     1     -47.934 -20.643   7.496  1.00  0.00     0.006 A 
HETATM   18  C14 UNL     1     -47.940 -20.850   8.858  1.00  0.00     0.045 A 
HETATM   19  C15 UNL     1     -47.156 -21.857   9.432  1.00  0.00     0.146 A 
HETATM   20  F2  UNL     1     -47.171 -22.051  10.764  1.00  0.00    -0.204 F 
ENDBRANCH  12  13
BRANCH   1  21
HETATM   21  S1  UNL     1     -47.716 -25.301   8.782  1.00  0.00    -0.098 SA
HETATM   22  C1  UNL     1     -47.554 -25.998   7.103  1.00  0.00     0.099 C 
ENDBRANCH   1  21
TORSDOF 2
ENDMDL
