MODEL 14
REMARK VINA RESULT: -7.856539439      2.550      4.196
REMARK  2 active torsions:
REMARK  status: ('A' for Active; 'I' for Inactive)
REMARK    1  A    between atoms: S1_2  and  C2_3 
REMARK    2  A    between atoms: N2_14  and  C10_15 
ROOT
HETATM    1  C2  UNL     1     -45.974 -25.117   9.517  1.00  0.00     0.154 A 
HETATM    2  N1  UNL     1     -45.643 -26.337   9.997  1.00  0.00    -0.335 N 
ATOM      3  H1  UNL     1     -45.019 -26.402  10.800  1.00  0.00     0.168 HD
HETATM    4  C3  UNL     1     -46.116 -27.470   9.441  1.00  0.00     0.049 A 
HETATM    5  C4  UNL     1     -45.789 -28.719   9.918  1.00  0.00     0.030 A 
HETATM    6  C5  UNL     1     -46.274 -29.878   9.349  1.00  0.00     0.002 A 
HETATM    7  C6  UNL     1     -47.113 -29.779   8.265  1.00  0.00     0.001 A 
HETATM    8  C7  UNL     1     -47.440 -28.533   7.787  1.00  0.00     0.019 A 
HETATM    9  C8  UNL     1     -46.958 -27.373   8.355  1.00  0.00     0.059 A 
HETATM   10  C9  UNL     1     -47.269 -26.112   7.897  1.00  0.00     0.267 A 
HETATM   11  O1  UNL     1     -48.036 -26.009   6.908  1.00  0.00    -0.267 OA
HETATM   12  N2  UNL     1     -46.792 -24.992   8.460  1.00  0.00    -0.252 N 
ENDROOT
BRANCH  12  13
HETATM   13  C10 UNL     1     -47.116 -23.693   7.983  1.00  0.00     0.121 A 
HETATM   14  C11 UNL     1     -46.310 -23.077   7.049  1.00  0.00     0.146 A 
HETATM   15  F1  UNL     1     -45.200 -23.733   6.595  1.00  0.00    -0.204 F 
HETATM   16  C12 UNL     1     -46.628 -21.807   6.583  1.00  0.00     0.045 A 
HETATM   17  C13 UNL     1     -47.745 -21.119   7.025  1.00  0.00     0.006 A 
HETATM   18  C14 UNL     1     -48.545 -21.742   7.958  1.00  0.00     0.045 A 
HETATM   19  C15 UNL     1     -48.229 -23.021   8.430  1.00  0.00     0.146 A 
HETATM   20  F2  UNL     1     -49.018 -23.620   9.341  1.00  0.00    -0.204 F 
ENDBRANCH  12  13
BRANCH   1  21
HETATM   21  S1  UNL     1     -45.295 -23.675  10.323  1.00  0.00    -0.098 SA
HETATM   22  C1  UNL     1     -43.480 -23.862  10.298  1.00  0.00     0.099 C 
ENDBRANCH   1  21
TORSDOF 2
ENDMDL
