MODEL 1
REMARK VINA RESULT: -8.759397147      0.000      0.000
REMARK  2 active torsions:
REMARK  status: ('A' for Active; 'I' for Inactive)
REMARK    1  A    between atoms: S1_2  and  C2_3 
REMARK    2  A    between atoms: N2_14  and  C10_15 
ROOT
HETATM    1  C2  UNL     1     -46.030 -24.992   9.422  1.00  0.00     0.154 A 
HETATM    2  N1  UNL     1     -45.268 -25.981   9.942  1.00  0.00    -0.335 N 
ATOM      3  H1  UNL     1     -45.650 -26.924  10.001  1.00  0.00     0.168 HD
HETATM    4  C3  UNL     1     -44.016 -25.752  10.384  1.00  0.00     0.049 A 
HETATM    5  C4  UNL     1     -43.226 -26.747  10.916  1.00  0.00     0.030 A 
HETATM    6  C5  UNL     1     -41.946 -26.512  11.369  1.00  0.00     0.002 A 
HETATM    7  C6  UNL     1     -41.440 -25.237  11.286  1.00  0.00     0.001 A 
HETATM    8  C7  UNL     1     -42.226 -24.242  10.756  1.00  0.00     0.019 A 
HETATM    9  C8  UNL     1     -43.508 -24.475  10.302  1.00  0.00     0.059 A 
HETATM   10  C9  UNL     1     -44.317 -23.497   9.767  1.00  0.00     0.267 A 
HETATM   11  O1  UNL     1     -43.865 -22.328   9.685  1.00  0.00    -0.267 OA
HETATM   12  N2  UNL     1     -45.561 -23.738   9.329  1.00  0.00    -0.252 N 
ENDROOT
BRANCH  12  13
HETATM   13  C10 UNL     1     -46.392 -22.726   8.778  1.00  0.00     0.121 A 
HETATM   14  C11 UNL     1     -47.204 -21.972   9.599  1.00  0.00     0.146 A 
HETATM   15  F1  UNL     1     -47.196 -22.217  10.944  1.00  0.00    -0.204 F 
HETATM   16  C12 UNL     1     -48.016 -20.982   9.060  1.00  0.00     0.045 A 
HETATM   17  C13 UNL     1     -48.045 -20.713   7.702  1.00  0.00     0.006 A 
HETATM   18  C14 UNL     1     -47.231 -21.470   6.888  1.00  0.00     0.045 A 
HETATM   19  C15 UNL     1     -46.411 -22.468   7.427  1.00  0.00     0.146 A 
HETATM   20  F2  UNL     1     -45.619 -23.201   6.623  1.00  0.00    -0.204 F 
ENDBRANCH  12  13
BRANCH   1  21
HETATM   21  S1  UNL     1     -47.677 -25.396   8.862  1.00  0.00    -0.098 SA
HETATM   22  C1  UNL     1     -47.519 -26.001   7.147  1.00  0.00     0.099 C 
ENDBRANCH   1  21
TORSDOF 2
ENDMDL
