MODEL 7
REMARK VINA RESULT: -8.140523114      2.001      3.030
REMARK  2 active torsions:
REMARK  status: ('A' for Active; 'I' for Inactive)
REMARK    1  A    between atoms: S1_2  and  C2_3 
REMARK    2  A    between atoms: N2_14  and  C10_15 
ROOT
HETATM    1  C2  UNL     1     -47.939 -24.124   9.288  1.00  0.00     0.154 A 
HETATM    2  N1  UNL     1     -47.035 -25.113   9.472  1.00  0.00    -0.335 N 
ATOM      3  H1  UNL     1     -47.312 -26.078   9.295  1.00  0.00     0.168 HD
HETATM    4  C3  UNL     1     -45.778 -24.857   9.882  1.00  0.00     0.049 A 
HETATM    5  C4  UNL     1     -44.846 -25.852  10.074  1.00  0.00     0.030 A 
HETATM    6  C5  UNL     1     -43.559 -25.589  10.494  1.00  0.00     0.002 A 
HETATM    7  C6  UNL     1     -43.196 -24.285  10.731  1.00  0.00     0.001 A 
HETATM    8  C7  UNL     1     -44.125 -23.290  10.541  1.00  0.00     0.019 A 
HETATM    9  C8  UNL     1     -45.412 -23.551  10.120  1.00  0.00     0.059 A 
HETATM   10  C9  UNL     1     -46.363 -22.573   9.922  1.00  0.00     0.267 A 
HETATM   11  O1  UNL     1     -46.042 -21.378  10.134  1.00  0.00    -0.267 OA
HETATM   12  N2  UNL     1     -47.611 -22.842   9.512  1.00  0.00    -0.252 N 
ENDROOT
BRANCH  12  13
HETATM   13  C10 UNL     1     -48.588 -21.830   9.309  1.00  0.00     0.121 A 
HETATM   14  C11 UNL     1     -48.684 -21.195   8.088  1.00  0.00     0.146 A 
HETATM   15  F1  UNL     1     -47.826 -21.553   7.085  1.00  0.00    -0.204 F 
HETATM   16  C12 UNL     1     -49.639 -20.205   7.890  1.00  0.00     0.045 A 
HETATM   17  C13 UNL     1     -50.520 -19.822   8.888  1.00  0.00     0.006 A 
HETATM   18  C14 UNL     1     -50.417 -20.462  10.104  1.00  0.00     0.045 A 
HETATM   19  C15 UNL     1     -49.456 -21.459  10.308  1.00  0.00     0.146 A 
HETATM   20  F2  UNL     1     -49.366 -22.078  11.499  1.00  0.00    -0.204 F 
ENDBRANCH  12  13
BRANCH   1  21
HETATM   21  S1  UNL     1     -49.580 -24.566   8.741  1.00  0.00    -0.098 SA
HETATM   22  C1  UNL     1     -50.515 -25.068  10.227  1.00  0.00     0.099 C 
ENDBRANCH   1  21
TORSDOF 2
ENDMDL
