MODEL 13
REMARK VINA RESULT: -7.926787230      2.482      3.775
REMARK  2 active torsions:
REMARK  status: ('A' for Active; 'I' for Inactive)
REMARK    1  A    between atoms: S1_2  and  C2_3 
REMARK    2  A    between atoms: N2_14  and  C10_15 
ROOT
HETATM    1  C2  UNL     1     -45.787 -25.042   9.581  1.00  0.00     0.154 A 
HETATM    2  N1  UNL     1     -45.449 -26.253  10.077  1.00  0.00    -0.335 N 
ATOM      3  H1  UNL     1     -44.794 -26.306  10.857  1.00  0.00     0.168 HD
HETATM    4  C3  UNL     1     -45.955 -27.394   9.569  1.00  0.00     0.049 A 
HETATM    5  C4  UNL     1     -45.623 -28.635  10.062  1.00  0.00     0.030 A 
HETATM    6  C5  UNL     1     -46.141 -29.801   9.541  1.00  0.00     0.002 A 
HETATM    7  C6  UNL     1     -47.022 -29.719   8.490  1.00  0.00     0.001 A 
HETATM    8  C7  UNL     1     -47.356 -28.481   7.995  1.00  0.00     0.019 A 
HETATM    9  C8  UNL     1     -46.839 -27.313   8.515  1.00  0.00     0.059 A 
HETATM   10  C9  UNL     1     -47.156 -26.060   8.039  1.00  0.00     0.267 A 
HETATM   11  O1  UNL     1     -47.961 -25.973   7.079  1.00  0.00    -0.267 OA
HETATM   12  N2  UNL     1     -46.645 -24.932   8.555  1.00  0.00    -0.252 N 
ENDROOT
BRANCH  12  13
HETATM   13  C10 UNL     1     -46.975 -23.642   8.060  1.00  0.00     0.121 A 
HETATM   14  C11 UNL     1     -48.020 -22.934   8.615  1.00  0.00     0.146 A 
HETATM   15  F1  UNL     1     -48.729 -23.494   9.642  1.00  0.00    -0.204 F 
HETATM   16  C12 UNL     1     -48.343 -21.672   8.131  1.00  0.00     0.045 A 
HETATM   17  C13 UNL     1     -47.643 -21.082   7.092  1.00  0.00     0.006 A 
HETATM   18  C14 UNL     1     -46.600 -21.796   6.544  1.00  0.00     0.045 A 
HETATM   19  C15 UNL     1     -46.272 -23.067   7.028  1.00  0.00     0.146 A 
HETATM   20  F2  UNL     1     -45.251 -23.755   6.485  1.00  0.00    -0.204 F 
ENDBRANCH  12  13
BRANCH   1  21
HETATM   21  S1  UNL     1     -45.062 -23.588  10.324  1.00  0.00    -0.098 SA
HETATM   22  C1  UNL     1     -43.262 -23.881  10.411  1.00  0.00     0.099 C 
ENDBRANCH   1  21
TORSDOF 2
ENDMDL
