MODEL 1
REMARK VINA RESULT: -8.657635969      0.000      0.000
REMARK  4 active torsions:
REMARK  status: ('A' for Active; 'I' for Inactive)
REMARK    1  A    between atoms: P1_2  and  N1_5 
REMARK    2  A    between atoms: N1_5  and  P2_7 
REMARK    3  A    between atoms: P2_7  and  O6_10 
REMARK    4  A    between atoms: O6_10  and  P3_11 
ROOT
HETATM    1  P2  UNL     1      11.724  15.186  15.248  1.00  0.00     0.379 P 
HETATM    2  O4  UNL     1      13.216  15.288  15.554  1.00  0.00    -0.629 OA
HETATM    3  O5  UNL     1      10.231  15.235  14.899  1.00  0.00    -0.629 OA
ENDROOT
BRANCH   1   4
HETATM    4  N1  UNL     1      11.472  16.421  16.442  1.00  0.00    -0.218 N 
ATOM      5  H1  UNL     1      10.556  16.725  16.772  1.00  0.00     0.179 HD
BRANCH   4   6
HETATM    6  P1  UNL     1      12.930  17.048  16.981  1.00  0.00     0.381 P 
HETATM    7  O1  UNL     1      13.055  16.113  18.191  1.00  0.00    -0.622 OA
HETATM    8  O2  UNL     1      12.852  18.301  18.045  1.00  0.00    -0.622 OA
HETATM    9  O3  UNL     1      13.130  18.056  15.831  1.00  0.00    -0.622 OA
ENDBRANCH   4   6
ENDBRANCH   1   4
BRANCH   1  10
HETATM   10  O6  UNL     1      11.613  13.649  15.707  1.00  0.00    -0.178 OA
BRANCH  10  11
HETATM   11  P3  UNL     1      12.165  12.486  14.649  1.00  0.00     0.431 P 
HETATM   12  O7  UNL     1      12.896  12.809  13.255  1.00  0.00    -0.616 OA
HETATM   13  O8  UNL     1      12.148  10.916  15.223  1.00  0.00    -0.616 OA
HETATM   14  O9  UNL     1      10.752  12.322  14.098  1.00  0.00    -0.616 OA
ENDBRANCH  10  11
ENDBRANCH   1  10
TORSDOF 4
ENDMDL
