MODEL 6
REMARK VINA RESULT: -7.854666626      1.404      5.046
REMARK  4 active torsions:
REMARK  status: ('A' for Active; 'I' for Inactive)
REMARK    1  A    between atoms: P1_2  and  N1_5 
REMARK    2  A    between atoms: N1_5  and  P2_7 
REMARK    3  A    between atoms: P2_7  and  O6_10 
REMARK    4  A    between atoms: O6_10  and  P3_11 
ROOT
HETATM    1  P2  UNL     1      11.535  15.810  15.635  1.00  0.00     0.379 P 
HETATM    2  O4  UNL     1      10.503  14.921  16.322  1.00  0.00    -0.629 OA
HETATM    3  O5  UNL     1      12.463  16.731  14.833  1.00  0.00    -0.629 OA
ENDROOT
BRANCH   1   4
HETATM    4  N1  UNL     1      11.410  14.760  14.257  1.00  0.00    -0.218 N 
ATOM      5  H1  UNL     1      11.010  15.032  13.359  1.00  0.00     0.179 HD
BRANCH   4   6
HETATM    6  P1  UNL     1      12.033  13.241  14.596  1.00  0.00     0.381 P 
HETATM    7  O1  UNL     1      13.393  13.746  15.093  1.00  0.00    -0.622 OA
HETATM    8  O2  UNL     1      12.838  12.479  13.379  1.00  0.00    -0.622 OA
HETATM    9  O3  UNL     1      10.764  12.441  14.237  1.00  0.00    -0.622 OA
ENDBRANCH   4   6
ENDBRANCH   1   4
BRANCH   1  10
HETATM   10  O6  UNL     1      12.687  15.514  16.716  1.00  0.00    -0.178 OA
BRANCH  10  11
HETATM   11  P3  UNL     1      13.394  16.822  17.468  1.00  0.00     0.431 P 
HETATM   12  O7  UNL     1      14.980  17.058  17.564  1.00  0.00    -0.616 OA
HETATM   13  O8  UNL     1      12.352  18.046  17.925  1.00  0.00    -0.616 OA
HETATM   14  O9  UNL     1      13.214  16.137  18.819  1.00  0.00    -0.616 OA
ENDBRANCH  10  11
ENDBRANCH   1  10
TORSDOF 4
ENDMDL
