MODEL 8
REMARK VINA RESULT: -7.733803653      1.076      1.093
REMARK  4 active torsions:
REMARK  status: ('A' for Active; 'I' for Inactive)
REMARK    1  A    between atoms: P1_2  and  N1_5 
REMARK    2  A    between atoms: N1_5  and  P2_7 
REMARK    3  A    between atoms: P2_7  and  O6_10 
REMARK    4  A    between atoms: O6_10  and  P3_11 
ROOT
HETATM    1  P2  UNL     1      11.397  14.958  15.104  1.00  0.00     0.379 P 
HETATM    2  O4  UNL     1      12.127  15.169  13.780  1.00  0.00    -0.629 OA
HETATM    3  O5  UNL     1      10.573  14.868  16.395  1.00  0.00    -0.629 OA
ENDROOT
BRANCH   1   4
HETATM    4  N1  UNL     1      11.865  16.575  15.533  1.00  0.00    -0.218 N 
ATOM      5  H1  UNL     1      11.301  17.405  15.352  1.00  0.00     0.179 HD
BRANCH   4   6
HETATM    6  P1  UNL     1      13.365  16.592  16.280  1.00  0.00     0.381 P 
HETATM    7  O1  UNL     1      12.845  16.185  17.665  1.00  0.00    -0.622 OA
HETATM    8  O2  UNL     1      13.843  18.015  16.955  1.00  0.00    -0.622 OA
HETATM    9  O3  UNL     1      14.191  16.928  15.022  1.00  0.00    -0.622 OA
ENDBRANCH   4   6
ENDBRANCH   1   4
BRANCH   1  10
HETATM   10  O6  UNL     1      12.342  13.743  15.569  1.00  0.00    -0.178 OA
BRANCH  10  11
HETATM   11  P3  UNL     1      12.398  12.393  14.595  1.00  0.00     0.431 P 
HETATM   12  O7  UNL     1      12.984  12.384  13.099  1.00  0.00    -0.616 OA
HETATM   13  O8  UNL     1      12.031  10.944  15.342  1.00  0.00    -0.616 OA
HETATM   14  O9  UNL     1      10.931  12.600  14.231  1.00  0.00    -0.616 OA
ENDBRANCH  10  11
ENDBRANCH   1  10
TORSDOF 4
ENDMDL
