MODEL 4
REMARK VINA RESULT: -8.005562975      1.460      4.975
REMARK  4 active torsions:
REMARK  status: ('A' for Active; 'I' for Inactive)
REMARK    1  A    between atoms: P1_2  and  N1_5 
REMARK    2  A    between atoms: N1_5  and  P2_7 
REMARK    3  A    between atoms: P2_7  and  O6_10 
REMARK    4  A    between atoms: O6_10  and  P3_11 
ROOT
HETATM    1  P2  UNL     1      11.308  15.168  14.976  1.00  0.00     0.379 P 
HETATM    2  O4  UNL     1      10.589  15.128  16.321  1.00  0.00    -0.629 OA
HETATM    3  O5  UNL     1      11.993  15.056  13.608  1.00  0.00    -0.629 OA
ENDROOT
BRANCH   1   4
HETATM    4  N1  UNL     1      12.365  13.935  15.591  1.00  0.00    -0.218 N 
ATOM      5  H1  UNL     1      12.883  14.004  16.466  1.00  0.00     0.179 HD
BRANCH   4   6
HETATM    6  P1  UNL     1      12.422  12.617  14.557  1.00  0.00     0.381 P 
HETATM    7  O1  UNL     1      10.914  12.580  14.280  1.00  0.00    -0.622 OA
HETATM    8  O2  UNL     1      12.262  11.128  15.241  1.00  0.00    -0.622 OA
HETATM    9  O3  UNL     1      13.954  12.442  14.570  1.00  0.00    -0.622 OA
ENDBRANCH   4   6
ENDBRANCH   1   4
BRANCH   1  10
HETATM   10  O6  UNL     1      11.760  16.703  15.128  1.00  0.00    -0.178 OA
BRANCH  10  11
HETATM   11  P3  UNL     1      13.175  17.014  15.950  1.00  0.00     0.431 P 
HETATM   12  O7  UNL     1      13.266  17.908  17.282  1.00  0.00    -0.616 OA
HETATM   13  O8  UNL     1      14.508  16.132  15.460  1.00  0.00    -0.616 OA
HETATM   14  O9  UNL     1      13.510  18.115  14.949  1.00  0.00    -0.616 OA
ENDBRANCH  10  11
ENDBRANCH   1  10
TORSDOF 4
ENDMDL
