MODEL 5
REMARK VINA RESULT: -7.928852147      1.326      1.820
REMARK  4 active torsions:
REMARK  status: ('A' for Active; 'I' for Inactive)
REMARK    1  A    between atoms: P1_2  and  N1_5 
REMARK    2  A    between atoms: N1_5  and  P2_7 
REMARK    3  A    between atoms: P2_7  and  O6_10 
REMARK    4  A    between atoms: O6_10  and  P3_11 
ROOT
HETATM    1  P2  UNL     1      11.615  16.011  15.499  1.00  0.00     0.379 P 
HETATM    2  O4  UNL     1      12.637  16.934  14.842  1.00  0.00    -0.629 OA
HETATM    3  O5  UNL     1      10.583  15.185  16.278  1.00  0.00    -0.629 OA
ENDROOT
BRANCH   1   4
HETATM    4  N1  UNL     1      12.722  15.855  16.828  1.00  0.00    -0.218 N 
ATOM      5  H1  UNL     1      12.967  14.971  17.273  1.00  0.00     0.179 HD
BRANCH   4   6
HETATM    6  P1  UNL     1      13.334  17.348  17.282  1.00  0.00     0.381 P 
HETATM    7  O1  UNL     1      14.779  17.049  16.864  1.00  0.00    -0.622 OA
HETATM    8  O2  UNL     1      13.883  17.486  18.828  1.00  0.00    -0.622 OA
HETATM    9  O3  UNL     1      11.992  17.969  17.719  1.00  0.00    -0.622 OA
ENDBRANCH   4   6
ENDBRANCH   1   4
BRANCH   1  10
HETATM   10  O6  UNL     1      11.674  14.913  14.325  1.00  0.00    -0.178 OA
BRANCH  10  11
HETATM   11  P3  UNL     1      11.835  13.316  14.770  1.00  0.00     0.431 P 
HETATM   12  O7  UNL     1      12.821  12.798  15.929  1.00  0.00    -0.616 OA
HETATM   13  O8  UNL     1      10.718  12.262  14.110  1.00  0.00    -0.616 OA
HETATM   14  O9  UNL     1      12.778  13.087  13.593  1.00  0.00    -0.616 OA
ENDBRANCH  10  11
ENDBRANCH   1  10
TORSDOF 4
ENDMDL
