MODEL 2
REMARK VINA RESULT: -8.066069841      1.305      5.089
REMARK  4 active torsions:
REMARK  status: ('A' for Active; 'I' for Inactive)
REMARK    1  A    between atoms: P1_2  and  N1_5 
REMARK    2  A    between atoms: N1_5  and  P2_7 
REMARK    3  A    between atoms: P2_7  and  O6_10 
REMARK    4  A    between atoms: O6_10  and  P3_11 
ROOT
HETATM    1  P2  UNL     1      11.318  15.309  15.244  1.00  0.00     0.379 P 
HETATM    2  O4  UNL     1      10.289  15.073  16.345  1.00  0.00    -0.629 OA
HETATM    3  O5  UNL     1      12.317  15.403  14.083  1.00  0.00    -0.629 OA
ENDROOT
BRANCH   1   4
HETATM    4  N1  UNL     1      12.166  13.917  15.842  1.00  0.00    -0.218 N 
ATOM      5  H1  UNL     1      12.505  13.815  16.799  1.00  0.00     0.179 HD
BRANCH   4   6
HETATM    6  P1  UNL     1      12.356  12.762  14.642  1.00  0.00     0.381 P 
HETATM    7  O1  UNL     1      10.872  12.705  14.256  1.00  0.00    -0.622 OA
HETATM    8  O2  UNL     1      12.227  11.187  15.100  1.00  0.00    -0.622 OA
HETATM    9  O3  UNL     1      13.891  12.649  14.740  1.00  0.00    -0.622 OA
ENDBRANCH   4   6
ENDBRANCH   1   4
BRANCH   1  10
HETATM   10  O6  UNL     1      11.750  16.758  15.792  1.00  0.00    -0.178 OA
BRANCH  10  11
HETATM   11  P3  UNL     1      12.999  16.826  16.891  1.00  0.00     0.431 P 
HETATM   12  O7  UNL     1      13.093  15.909  18.208  1.00  0.00    -0.616 OA
HETATM   13  O8  UNL     1      14.319  17.744  16.434  1.00  0.00    -0.616 OA
HETATM   14  O9  UNL     1      12.353  18.044  17.545  1.00  0.00    -0.616 OA
ENDBRANCH  10  11
ENDBRANCH   1  10
TORSDOF 4
ENDMDL
