MODEL 7
REMARK VINA RESULT: -7.854505339      1.262      1.442
REMARK  4 active torsions:
REMARK  status: ('A' for Active; 'I' for Inactive)
REMARK    1  A    between atoms: P1_2  and  N1_5 
REMARK    2  A    between atoms: N1_5  and  P2_7 
REMARK    3  A    between atoms: P2_7  and  O6_10 
REMARK    4  A    between atoms: O6_10  and  P3_11 
ROOT
HETATM    1  P2  UNL     1      11.243  15.740  15.511  1.00  0.00     0.379 P 
HETATM    2  O4  UNL     1      12.305  16.242  14.536  1.00  0.00    -0.629 OA
HETATM    3  O5  UNL     1      10.209  15.362  16.579  1.00  0.00    -0.629 OA
ENDROOT
BRANCH   1   4
HETATM    4  N1  UNL     1      12.494  15.659  16.713  1.00  0.00    -0.218 N 
ATOM      5  H1  UNL     1      12.759  14.811  17.212  1.00  0.00     0.179 HD
BRANCH   4   6
HETATM    6  P1  UNL     1      13.208  17.158  16.945  1.00  0.00     0.381 P 
HETATM    7  O1  UNL     1      14.583  16.753  16.398  1.00  0.00    -0.622 OA
HETATM    8  O2  UNL     1      13.938  17.417  18.397  1.00  0.00    -0.622 OA
HETATM    9  O3  UNL     1      11.948  17.880  17.466  1.00  0.00    -0.622 OA
ENDBRANCH   4   6
ENDBRANCH   1   4
BRANCH   1  10
HETATM   10  O6  UNL     1      10.917  14.415  14.660  1.00  0.00    -0.178 OA
BRANCH  10  11
HETATM   11  P3  UNL     1      12.107  13.255  14.554  1.00  0.00     0.431 P 
HETATM   12  O7  UNL     1      12.881  12.878  13.197  1.00  0.00    -0.616 OA
HETATM   13  O8  UNL     1      12.656  12.643  16.009  1.00  0.00    -0.616 OA
HETATM   14  O9  UNL     1      11.037  12.170  14.478  1.00  0.00    -0.616 OA
ENDBRANCH  10  11
ENDBRANCH   1  10
TORSDOF 4
ENDMDL
