MODEL 3
REMARK VINA RESULT: -8.064744470      0.683      1.471
REMARK  4 active torsions:
REMARK  status: ('A' for Active; 'I' for Inactive)
REMARK    1  A    between atoms: P1_2  and  N1_5 
REMARK    2  A    between atoms: N1_5  and  P2_7 
REMARK    3  A    between atoms: P2_7  and  O6_10 
REMARK    4  A    between atoms: O6_10  and  P3_11 
ROOT
HETATM    1  P2  UNL     1      11.901  15.079  15.269  1.00  0.00     0.379 P 
HETATM    2  O4  UNL     1      13.342  15.576  15.339  1.00  0.00    -0.629 OA
HETATM    3  O5  UNL     1      10.414  14.722  15.144  1.00  0.00    -0.629 OA
ENDROOT
BRANCH   1   4
HETATM    4  N1  UNL     1      11.487  16.356  16.371  1.00  0.00    -0.218 N 
ATOM      5  H1  UNL     1      10.534  16.657  16.573  1.00  0.00     0.179 HD
BRANCH   4   6
HETATM    6  P1  UNL     1      12.859  17.029  17.059  1.00  0.00     0.381 P 
HETATM    7  O1  UNL     1      12.963  16.014  18.205  1.00  0.00    -0.622 OA
HETATM    8  O2  UNL     1      12.625  18.191  18.201  1.00  0.00    -0.622 OA
HETATM    9  O3  UNL     1      13.070  18.132  16.002  1.00  0.00    -0.622 OA
ENDBRANCH   4   6
ENDBRANCH   1   4
BRANCH   1  10
HETATM   10  O6  UNL     1      12.245  13.631  15.875  1.00  0.00    -0.178 OA
BRANCH  10  11
HETATM   11  P3  UNL     1      12.386  12.360  14.807  1.00  0.00     0.431 P 
HETATM   12  O7  UNL     1      11.973  10.845  15.148  1.00  0.00    -0.616 OA
HETATM   13  O8  UNL     1      12.760  12.775  13.232  1.00  0.00    -0.616 OA
HETATM   14  O9  UNL     1      13.868  12.243  15.150  1.00  0.00    -0.616 OA
ENDBRANCH  10  11
ENDBRANCH   1  10
TORSDOF 4
ENDMDL
