MODEL 4
REMARK VINA RESULT: -9.556686987      7.692     10.266
REMARK  4 active torsions:
REMARK  status: ('A' for Active; 'I' for Inactive)
REMARK    1  A    between atoms: N2_10  and  C7_11 
REMARK    2  A    between atoms: C11_15  and  N3_16 
REMARK    3  A    between atoms: N4_22  and  C14_23 
REMARK    4  A    between atoms: C14_23  and  C15_24 
ROOT
HETATM    1  O1  UNL     1      30.960   5.453  11.775  1.00  0.00    -0.267 OA
HETATM    2  C1  UNL     1      29.872   5.102  11.250  1.00  0.00     0.265 A 
HETATM    3  C2  UNL     1      29.573   3.742  11.386  1.00  0.00     0.077 A 
HETATM    4  C3  UNL     1      30.414   2.867  12.042  1.00  0.00     0.022 A 
HETATM    5  C4  UNL     1      30.095   1.530  12.161  1.00  0.00     0.018 A 
HETATM    6  C5  UNL     1      28.913   1.051  11.614  1.00  0.00     0.090 A 
HETATM    7  N1  UNL     1      28.113   1.913  10.982  1.00  0.00    -0.351 N 
ATOM      8  H1  UNL     1      27.244   1.564  10.580  1.00  0.00     0.166 HD
HETATM    9  C6  UNL     1      28.401   3.223  10.853  1.00  0.00     0.132 A 
HETATM   10  N2  UNL     1      27.600   4.098  10.216  1.00  0.00    -0.248 N 
HETATM   11  C13 UNL     1      27.911   5.404  10.100  1.00  0.00     0.338 A 
HETATM   12  O4  UNL     1      27.091   6.153   9.481  1.00  0.00    -0.246 OA
HETATM   13  N4  UNL     1      29.041   5.939  10.607  1.00  0.00    -0.261 N 
ENDROOT
BRANCH  10  14
HETATM   14  C7  UNL     1      26.395   3.578   9.666  1.00  0.00     0.048 A 
HETATM   15  C8  UNL     1      26.466   3.087   8.377  1.00  0.00     0.030 A 
HETATM   16  C9  UNL     1      25.298   2.584   7.847  1.00  0.00     0.005 A 
HETATM   17  C10 UNL     1      24.115   2.559   8.534  1.00  0.00     0.036 A 
HETATM   18  C11 UNL     1      24.074   3.061   9.828  1.00  0.00     0.105 A 
HETATM   19  C12 UNL     1      25.221   3.570  10.389  1.00  0.00     0.066 A 
BRANCH  18  20
HETATM   20  N3  UNL     1      22.831   3.026  10.529  1.00  0.00    -0.116 N 
HETATM   21  O2  UNL     1      21.754   2.990   9.907  1.00  0.00    -0.532 OA
HETATM   22  O3  UNL     1      22.779   3.032  11.899  1.00  0.00    -0.532 OA
ENDBRANCH  18  20
ENDBRANCH  10  14
BRANCH  13  23
HETATM   23  C14 UNL     1      29.405   7.319  10.505  1.00  0.00     0.175 C 
BRANCH  23  24
HETATM   24  C15 UNL     1      30.354   7.646   9.435  1.00  0.00    -0.037 A 
HETATM   25  C16 UNL     1      31.612   8.099   9.787  1.00  0.00     0.026 A 
HETATM   26  C17 UNL     1      32.572   8.431   8.848  1.00  0.00     0.088 A 
HETATM   27  N5  UNL     1      32.235   8.295   7.562  1.00  0.00    -0.375 N 
HETATM   28  C18 UNL     1      31.029   7.860   7.165  1.00  0.00     0.088 A 
ATOM     29  H5  UNL     1      32.925   8.533   6.850  1.00  0.00     0.164 HD
HETATM   30  C19 UNL     1      30.074   7.529   8.096  1.00  0.00     0.026 A 
ENDBRANCH  23  24
ENDBRANCH  13  23
TORSDOF 4
ENDMDL
