MODEL 3
REMARK VINA RESULT: -9.921546730      6.845      9.823
REMARK  4 active torsions:
REMARK  status: ('A' for Active; 'I' for Inactive)
REMARK    1  A    between atoms: N2_10  and  C7_11 
REMARK    2  A    between atoms: C11_15  and  N3_16 
REMARK    3  A    between atoms: N4_22  and  C14_23 
REMARK    4  A    between atoms: C14_23  and  C15_24 
ROOT
HETATM    1  O1  UNL     1      25.823   5.204   9.197  1.00  0.00    -0.267 OA
HETATM    2  C1  UNL     1      26.955   5.752   9.216  1.00  0.00     0.265 A 
HETATM    3  C2  UNL     1      27.264   6.490   8.067  1.00  0.00     0.077 A 
HETATM    4  C3  UNL     1      26.390   6.597   7.006  1.00  0.00     0.022 A 
HETATM    5  C4  UNL     1      26.720   7.330   5.886  1.00  0.00     0.018 A 
HETATM    6  C5  UNL     1      27.948   7.972   5.817  1.00  0.00     0.090 A 
HETATM    7  N1  UNL     1      28.781   7.856   6.854  1.00  0.00    -0.351 N 
ATOM      8  H1  UNL     1      29.685   8.326   6.807  1.00  0.00     0.166 HD
HETATM    9  C6  UNL     1      28.483   7.146   7.961  1.00  0.00     0.132 A 
HETATM   10  N2  UNL     1      29.318   7.024   9.009  1.00  0.00    -0.248 N 
HETATM   11  C13 UNL     1      28.996   6.308  10.104  1.00  0.00     0.338 A 
HETATM   12  O4  UNL     1      29.850   6.251  11.045  1.00  0.00    -0.246 OA
HETATM   13  N4  UNL     1      27.820   5.659  10.240  1.00  0.00    -0.261 N 
ENDROOT
BRANCH  10  14
HETATM   14  C7  UNL     1      30.570   7.692   8.911  1.00  0.00     0.048 A 
HETATM   15  C8  UNL     1      30.660   8.929   9.518  1.00  0.00     0.030 A 
HETATM   16  C9  UNL     1      31.874   9.573   9.420  1.00  0.00     0.005 A 
HETATM   17  C10 UNL     1      32.952   9.043   8.765  1.00  0.00     0.036 A 
HETATM   18  C11 UNL     1      32.830   7.797   8.163  1.00  0.00     0.105 A 
HETATM   19  C12 UNL     1      31.634   7.126   8.241  1.00  0.00     0.066 A 
BRANCH  18  20
HETATM   20  N3  UNL     1      33.966   7.261   7.484  1.00  0.00    -0.116 N 
HETATM   21  O2  UNL     1      34.778   8.012   6.916  1.00  0.00    -0.532 OA
HETATM   22  O3  UNL     1      34.200   5.911   7.433  1.00  0.00    -0.532 OA
ENDBRANCH  18  20
ENDBRANCH  10  14
BRANCH  13  23
HETATM   23  C14 UNL     1      27.442   4.890  11.386  1.00  0.00     0.175 C 
BRANCH  23  24
HETATM   24  C15 UNL     1      26.320   5.425  12.164  1.00  0.00    -0.037 A 
HETATM   25  C16 UNL     1      25.350   4.546  12.610  1.00  0.00     0.026 A 
HETATM   26  C17 UNL     1      24.257   4.958  13.350  1.00  0.00     0.088 A 
HETATM   27  N5  UNL     1      24.169   6.262  13.626  1.00  0.00    -0.375 N 
HETATM   28  C18 UNL     1      25.081   7.159  13.219  1.00  0.00     0.088 A 
ATOM     29  H5  UNL     1      23.372   6.592  14.171  1.00  0.00     0.164 HD
HETATM   30  C19 UNL     1      26.167   6.752  12.484  1.00  0.00     0.026 A 
ENDBRANCH  23  24
ENDBRANCH  13  23
TORSDOF 4
ENDMDL
