MODEL 2
REMARK VINA RESULT: -10.442625841      0.582      1.069
REMARK  4 active torsions:
REMARK  status: ('A' for Active; 'I' for Inactive)
REMARK    1  A    between atoms: N2_10  and  C7_11 
REMARK    2  A    between atoms: C11_15  and  N3_16 
REMARK    3  A    between atoms: N4_22  and  C14_23 
REMARK    4  A    between atoms: C14_23  and  C15_24 
ROOT
HETATM    1  O1  UNL     1      22.024   5.930  16.347  1.00  0.00    -0.267 OA
HETATM    2  C1  UNL     1      23.049   6.649  16.464  1.00  0.00     0.265 A 
HETATM    3  C2  UNL     1      23.510   6.794  17.778  1.00  0.00     0.077 A 
HETATM    4  C3  UNL     1      22.880   6.194  18.848  1.00  0.00     0.022 A 
HETATM    5  C4  UNL     1      23.355   6.354  20.133  1.00  0.00     0.018 A 
HETATM    6  C5  UNL     1      24.483   7.130  20.361  1.00  0.00     0.090 A 
HETATM    7  N1  UNL     1      25.079   7.703  19.312  1.00  0.00    -0.351 N 
ATOM      8  H1  UNL     1      25.908   8.274  19.476  1.00  0.00     0.166 HD
HETATM    9  C6  UNL     1      24.635   7.562  18.047  1.00  0.00     0.132 A 
HETATM   10  N2  UNL     1      25.230   8.138  16.985  1.00  0.00    -0.248 N 
HETATM   11  C13 UNL     1      24.766   7.981  15.730  1.00  0.00     0.338 A 
HETATM   12  O4  UNL     1      25.395   8.564  14.791  1.00  0.00    -0.246 OA
HETATM   13  N4  UNL     1      23.676   7.242  15.434  1.00  0.00    -0.261 N 
ENDROOT
BRANCH  10  14
HETATM   14  C7  UNL     1      26.384   8.927  17.249  1.00  0.00     0.048 A 
HETATM   15  C8  UNL     1      27.515   8.251  17.658  1.00  0.00     0.030 A 
HETATM   16  C9  UNL     1      28.631   9.019  17.912  1.00  0.00     0.005 A 
HETATM   17  C10 UNL     1      28.649  10.380  17.777  1.00  0.00     0.036 A 
HETATM   18  C11 UNL     1      27.494  11.033  17.365  1.00  0.00     0.105 A 
HETATM   19  C12 UNL     1      26.363  10.299  17.102  1.00  0.00     0.066 A 
BRANCH  18  20
HETATM   20  N3  UNL     1      27.532  12.454  17.229  1.00  0.00    -0.116 N 
HETATM   21  O2  UNL     1      26.482  13.106  17.093  1.00  0.00    -0.532 OA
HETATM   22  O3  UNL     1      28.716  13.145  17.244  1.00  0.00    -0.532 OA
ENDBRANCH  18  20
ENDBRANCH  10  14
BRANCH  13  23
HETATM   23  C14 UNL     1      23.155   7.051  14.116  1.00  0.00     0.175 C 
BRANCH  23  24
HETATM   24  C15 UNL     1      23.941   6.172  13.245  1.00  0.00    -0.037 A 
HETATM   25  C16 UNL     1      23.592   4.836  13.171  1.00  0.00     0.026 A 
HETATM   26  C17 UNL     1      24.275   3.933  12.377  1.00  0.00     0.088 A 
HETATM   27  N5  UNL     1      25.304   4.405  11.668  1.00  0.00    -0.375 N 
HETATM   28  C18 UNL     1      25.685   5.691  11.702  1.00  0.00     0.088 A 
ATOM     29  H5  UNL     1      25.824   3.759  11.075  1.00  0.00     0.164 HD
HETATM   30  C19 UNL     1      25.009   6.591  12.490  1.00  0.00     0.026 A 
ENDBRANCH  23  24
ENDBRANCH  13  23
TORSDOF 4
ENDMDL
