MODEL 1
REMARK VINA RESULT: -11.235249415      0.000      0.000
REMARK  4 active torsions:
REMARK  status: ('A' for Active; 'I' for Inactive)
REMARK    1  A    between atoms: N2_10  and  C7_11 
REMARK    2  A    between atoms: C11_15  and  N3_16 
REMARK    3  A    between atoms: N4_22  and  C14_23 
REMARK    4  A    between atoms: C14_23  and  C15_24 
ROOT
HETATM    1  O1  UNL     1      21.794   5.870  16.919  1.00  0.00    -0.267 OA
HETATM    2  C1  UNL     1      22.829   6.583  16.973  1.00  0.00     0.265 A 
HETATM    3  C2  UNL     1      23.382   6.711  18.252  1.00  0.00     0.077 A 
HETATM    4  C3  UNL     1      22.826   6.100  19.356  1.00  0.00     0.022 A 
HETATM    5  C4  UNL     1      23.391   6.243  20.607  1.00  0.00     0.018 A 
HETATM    6  C5  UNL     1      24.536   7.011  20.763  1.00  0.00     0.090 A 
HETATM    7  N1  UNL     1      25.059   7.594  19.682  1.00  0.00    -0.351 N 
ATOM      8  H1  UNL     1      25.901   8.159  19.793  1.00  0.00     0.166 HD
HETATM    9  C6  UNL     1      24.527   7.471  18.449  1.00  0.00     0.132 A 
HETATM   10  N2  UNL     1      25.048   8.056  17.355  1.00  0.00    -0.248 N 
HETATM   11  C13 UNL     1      24.496   7.917  16.134  1.00  0.00     0.338 A 
HETATM   12  O4  UNL     1      25.060   8.508  15.160  1.00  0.00    -0.246 OA
HETATM   13  N4  UNL     1      23.384   7.186  15.908  1.00  0.00    -0.261 N 
ENDROOT
BRANCH  10  14
HETATM   14  C7  UNL     1      26.222   8.838  17.546  1.00  0.00     0.048 A 
HETATM   15  C8  UNL     1      27.336   8.174  18.018  1.00  0.00     0.030 A 
HETATM   16  C9  UNL     1      28.471   8.934  18.201  1.00  0.00     0.005 A 
HETATM   17  C10 UNL     1      28.523  10.276  17.940  1.00  0.00     0.036 A 
HETATM   18  C11 UNL     1      27.385  10.916  17.467  1.00  0.00     0.105 A 
HETATM   19  C12 UNL     1      26.236  10.189  17.271  1.00  0.00     0.066 A 
BRANCH  18  20
HETATM   20  N3  UNL     1      27.459  12.317  17.199  1.00  0.00    -0.116 N 
HETATM   21  O2  UNL     1      26.476  12.928  16.743  1.00  0.00    -0.532 OA
HETATM   22  O3  UNL     1      28.604  13.033  17.433  1.00  0.00    -0.532 OA
ENDBRANCH  18  20
ENDBRANCH  10  14
BRANCH  13  23
HETATM   23  C14 UNL     1      22.770   7.013  14.628  1.00  0.00     0.175 C 
BRANCH  23  24
HETATM   24  C15 UNL     1      23.316   5.930  13.804  1.00  0.00    -0.037 A 
HETATM   25  C16 UNL     1      24.345   6.223  12.928  1.00  0.00     0.026 A 
HETATM   26  C17 UNL     1      24.922   5.266  12.113  1.00  0.00     0.088 A 
HETATM   27  N5  UNL     1      24.442   4.023  12.203  1.00  0.00    -0.375 N 
HETATM   28  C18 UNL     1      23.446   3.683  13.036  1.00  0.00     0.088 A 
ATOM     29  H5  UNL     1      24.851   3.299  11.613  1.00  0.00     0.164 HD
HETATM   30  C19 UNL     1      22.871   4.631  13.847  1.00  0.00     0.026 A 
ENDBRANCH  23  24
ENDBRANCH  13  23
TORSDOF 4
ENDMDL
