MODEL 10
REMARK VINA RESULT: -9.101935903      1.691      2.001
REMARK  4 active torsions:
REMARK  status: ('A' for Active; 'I' for Inactive)
REMARK    1  A    between atoms: N2_10  and  C7_11 
REMARK    2  A    between atoms: C11_15  and  N3_16 
REMARK    3  A    between atoms: N4_22  and  C14_23 
REMARK    4  A    between atoms: C14_23  and  C15_24 
ROOT
HETATM    1  O1  UNL     1      22.106   5.265  16.270  1.00  0.00    -0.267 OA
HETATM    2  C1  UNL     1      22.980   6.161  16.386  1.00  0.00     0.265 A 
HETATM    3  C2  UNL     1      23.301   6.494  17.707  1.00  0.00     0.077 A 
HETATM    4  C3  UNL     1      22.698   5.881  18.786  1.00  0.00     0.022 A 
HETATM    5  C4  UNL     1      23.032   6.229  20.078  1.00  0.00     0.018 A 
HETATM    6  C5  UNL     1      23.988   7.209  20.305  1.00  0.00     0.090 A 
HETATM    7  N1  UNL     1      24.561   7.790  19.247  1.00  0.00    -0.351 N 
ATOM      8  H1  UNL     1      25.264   8.511  19.410  1.00  0.00     0.166 HD
HETATM    9  C6  UNL     1      24.252   7.469  17.975  1.00  0.00     0.132 A 
HETATM   10  N2  UNL     1      24.824   8.051  16.905  1.00  0.00    -0.248 N 
HETATM   11  C13 UNL     1      24.497   7.712  15.642  1.00  0.00     0.338 A 
HETATM   12  O4  UNL     1      25.092   8.318  14.696  1.00  0.00    -0.246 OA
HETATM   13  N4  UNL     1      23.578   6.770  15.348  1.00  0.00    -0.261 N 
ENDROOT
BRANCH  10  14
HETATM   14  C7  UNL     1      25.801   9.053  17.168  1.00  0.00     0.048 A 
HETATM   15  C8  UNL     1      25.501  10.333  16.748  1.00  0.00     0.030 A 
HETATM   16  C9  UNL     1      26.449  11.300  17.004  1.00  0.00     0.005 A 
HETATM   17  C10 UNL     1      27.633  11.038  17.637  1.00  0.00     0.036 A 
HETATM   18  C11 UNL     1      27.907   9.739  18.046  1.00  0.00     0.105 A 
HETATM   19  C12 UNL     1      26.984   8.749  17.808  1.00  0.00     0.066 A 
BRANCH  18  20
HETATM   20  N3  UNL     1      29.148   9.485  18.705  1.00  0.00    -0.116 N 
HETATM   21  O2  UNL     1      30.126   9.054  18.070  1.00  0.00    -0.532 OA
HETATM   22  O3  UNL     1      29.305   9.704  20.050  1.00  0.00    -0.532 OA
ENDBRANCH  18  20
ENDBRANCH  10  14
BRANCH  13  23
HETATM   23  C14 UNL     1      23.206   6.382  14.022  1.00  0.00     0.175 C 
BRANCH  23  24
HETATM   24  C15 UNL     1      24.256   5.727  13.236  1.00  0.00    -0.037 A 
HETATM   25  C16 UNL     1      24.777   6.399  12.145  1.00  0.00     0.026 A 
HETATM   26  C17 UNL     1      25.769   5.861  11.346  1.00  0.00     0.088 A 
HETATM   27  N5  UNL     1      26.218   4.646  11.671  1.00  0.00    -0.375 N 
HETATM   28  C18 UNL     1      25.749   3.950  12.718  1.00  0.00     0.088 A 
ATOM     29  H5  UNL     1      26.950   4.227  11.097  1.00  0.00     0.164 HD
HETATM   30  C19 UNL     1      24.763   4.481  13.513  1.00  0.00     0.026 A 
ENDBRANCH  23  24
ENDBRANCH  13  23
TORSDOF 4
ENDMDL
