MODEL 5
REMARK VINA RESULT: -9.486583777      4.727      8.060
REMARK  4 active torsions:
REMARK  status: ('A' for Active; 'I' for Inactive)
REMARK    1  A    between atoms: N2_10  and  C7_11 
REMARK    2  A    between atoms: C11_15  and  N3_16 
REMARK    3  A    between atoms: N4_22  and  C14_23 
REMARK    4  A    between atoms: C14_23  and  C15_24 
ROOT
HETATM    1  O1  UNL     1      22.728   3.403  10.518  1.00  0.00    -0.267 OA
HETATM    2  C1  UNL     1      23.947   3.611  10.750  1.00  0.00     0.265 A 
HETATM    3  C2  UNL     1      24.761   3.626   9.612  1.00  0.00     0.077 A 
HETATM    4  C3  UNL     1      24.256   3.426   8.345  1.00  0.00     0.022 A 
HETATM    5  C4  UNL     1      25.082   3.445   7.240  1.00  0.00     0.018 A 
HETATM    6  C5  UNL     1      26.442   3.669   7.398  1.00  0.00     0.090 A 
HETATM    7  N1  UNL     1      26.912   3.861   8.633  1.00  0.00    -0.351 N 
ATOM      8  H1  UNL     1      27.912   4.026   8.753  1.00  0.00     0.166 HD
HETATM    9  C6  UNL     1      26.127   3.847   9.729  1.00  0.00     0.132 A 
HETATM   10  N2  UNL     1      26.594   4.039  10.976  1.00  0.00    -0.248 N 
HETATM   11  C13 UNL     1      25.788   4.020  12.056  1.00  0.00     0.338 A 
HETATM   12  O4  UNL     1      26.320   4.212  13.194  1.00  0.00    -0.246 OA
HETATM   13  N4  UNL     1      24.457   3.809  11.977  1.00  0.00    -0.261 N 
ENDROOT
BRANCH  10  14
HETATM   14  C7  UNL     1      27.992   4.266  11.108  1.00  0.00     0.048 A 
HETATM   15  C8  UNL     1      28.779   3.157  11.342  1.00  0.00     0.030 A 
HETATM   16  C9  UNL     1      30.133   3.380  11.470  1.00  0.00     0.005 A 
HETATM   17  C10 UNL     1      30.698   4.622  11.375  1.00  0.00     0.036 A 
HETATM   18  C11 UNL     1      29.880   5.720  11.140  1.00  0.00     0.105 A 
HETATM   19  C12 UNL     1      28.526   5.534  11.007  1.00  0.00     0.066 A 
BRANCH  18  20
HETATM   20  N3  UNL     1      30.488   7.008  11.044  1.00  0.00    -0.116 N 
HETATM   21  O2  UNL     1      29.943   7.920  10.397  1.00  0.00    -0.532 OA
HETATM   22  O3  UNL     1      31.683   7.285  11.656  1.00  0.00    -0.532 OA
ENDBRANCH  18  20
ENDBRANCH  10  14
BRANCH  13  23
HETATM   23  C14 UNL     1      23.569   3.782  13.099  1.00  0.00     0.175 C 
BRANCH  23  24
HETATM   24  C15 UNL     1      23.334   5.074  13.750  1.00  0.00    -0.037 A 
HETATM   25  C16 UNL     1      22.749   5.083  15.003  1.00  0.00     0.026 A 
HETATM   26  C17 UNL     1      22.490   6.253  15.695  1.00  0.00     0.088 A 
HETATM   27  N5  UNL     1      22.832   7.398  15.099  1.00  0.00    -0.375 N 
HETATM   28  C18 UNL     1      23.402   7.448  13.885  1.00  0.00     0.088 A 
ATOM     29  H5  UNL     1      22.652   8.275  15.588  1.00  0.00     0.164 HD
HETATM   30  C19 UNL     1      23.661   6.288  13.196  1.00  0.00     0.026 A 
ENDBRANCH  23  24
ENDBRANCH  13  23
TORSDOF 4
ENDMDL
