MODEL 11
REMARK VINA RESULT: -9.226951427      2.680      4.410
REMARK  8 active torsions:
REMARK  status: ('A' for Active; 'I' for Inactive)
REMARK    1  A    between atoms: C3_5  and  N2_6 
REMARK    2  A    between atoms: N2_6  and  C4_8 
REMARK    3  A    between atoms: C6_12  and  C7_13 
REMARK       I    between atoms: C7_13  and  N4_15 
REMARK    4  A    between atoms: N4_15  and  C8_17 
REMARK    5  A    between atoms: C16_27  and  N5_28 
REMARK    6  A    between atoms: N6_31  and  C19_32 
REMARK    7  A    between atoms: C19_32  and  C20_33 
REMARK    8  A    between atoms: C20_33  and  O2_34 
ROOT
HETATM    1  N2  UNL     1      10.510 -37.545  -4.378  1.00  0.00    -0.323 N 
ATOM      2  H2  UNL     1      11.471 -37.211  -4.457  1.00  0.00     0.169 HD
ENDROOT
BRANCH   1   3
HETATM    3  C3  UNL     1      10.211 -38.680  -3.593  1.00  0.00     0.111 A 
HETATM    4  N1  UNL     1       8.979 -39.259  -3.603  1.00  0.00    -0.332 N 
HETATM    5  C2  UNL     1       8.672 -40.335  -2.862  1.00  0.00     0.080 A 
ATOM      6  H1  UNL     1       8.258 -38.857  -4.202  1.00  0.00     0.168 HD
HETATM    7  C1  UNL     1       7.288 -40.855  -2.981  1.00  0.00     0.089 C 
HETATM    8  N7  UNL     1       9.605 -40.869  -2.078  1.00  0.00    -0.332 N 
HETATM    9  C16 UNL     1      10.879 -40.374  -1.982  1.00  0.00     0.108 A 
ATOM     10  H7  UNL     1       9.359 -41.687  -1.520  1.00  0.00     0.168 HD
HETATM   11  C15 UNL     1      11.140 -39.274  -2.761  1.00  0.00     0.097 A 
BRANCH   9  12
HETATM   12  N5  UNL     1      11.823 -40.999  -1.131  1.00  0.00    -0.364 N 
HETATM   13  C17 UNL     1      13.001 -40.248  -0.734  1.00  0.00     0.154 C 
HETATM   14  C18 UNL     1      13.549 -40.785   0.595  1.00  0.00     0.292 C 
HETATM   15  N6  UNL     1      12.413 -41.194   1.355  1.00  0.00     0.093 N 
HETATM   16  C21 UNL     1      11.823 -42.393   0.875  1.00  0.00     0.292 C 
HETATM   17  C22 UNL     1      11.676 -42.338  -0.630  1.00  0.00     0.154 C 
BRANCH  15  18
HETATM   18  C19 UNL     1      11.519 -40.144   1.705  1.00  0.00     0.298 C 
BRANCH  18  19
HETATM   19  C20 UNL     1      11.771 -39.584   3.089  1.00  0.00     0.194 C 
BRANCH  19  20
HETATM   20  O2  UNL     1      11.039 -38.436   3.343  1.00  0.00    -0.399 OA
ATOM     21  H2  UNL     1      11.083 -38.167   4.252  1.00  0.00     0.209 HD
ENDBRANCH  19  20
ENDBRANCH  18  19
ENDBRANCH  15  18
ENDBRANCH   9  12
ENDBRANCH   1   3
BRANCH   1  22
HETATM   22  C4  UNL     1       9.458 -36.876  -5.057  1.00  0.00     0.150 A 
HETATM   23  N3  UNL     1       9.418 -35.684  -5.622  1.00  0.00    -0.345 N 
HETATM   24  C5  UNL     1       8.345 -35.259  -6.196  1.00  0.00     0.115 A 
ATOM     25  H3  UNL     1      10.247 -35.091  -5.604  1.00  0.00     0.167 HD
HETATM   26  C6  UNL     1       7.246 -36.087  -6.199  1.00  0.00     0.091 A 
HETATM   27  S1  UNL     1       7.850 -37.441  -5.361  1.00  0.00    -0.047 SA
BRANCH  26  28
HETATM   28  C7  UNL     1       5.915 -35.877  -6.763  1.00  0.00     0.264 C 
HETATM   29  O1  UNL     1       4.969 -36.610  -6.381  1.00  0.00    -0.267 OA
HETATM   30  N4  UNL     1       5.679 -34.863  -7.732  1.00  0.00    -0.320 N 
ATOM     31  H4  UNL     1       6.468 -34.284  -8.024  1.00  0.00     0.169 HD
BRANCH  30  32
HETATM   32  C8  UNL     1       4.420 -34.612  -8.312  1.00  0.00     0.062 A 
HETATM   33  C9  UNL     1       4.063 -35.170  -9.512  1.00  0.00    -0.034 A 
HETATM   34  C10 UNL     1       4.945 -36.061 -10.290  1.00  0.00     0.050 C 
HETATM   35  C11 UNL     1       2.800 -34.895 -10.049  1.00  0.00     0.009 A 
HETATM   36  C12 UNL     1       1.935 -34.068  -9.365  1.00  0.00     0.002 A 
HETATM   37  C13 UNL     1       2.273 -33.506  -8.172  1.00  0.00     0.026 A 
HETATM   38  C14 UNL     1       3.529 -33.798  -7.666  1.00  0.00     0.061 A 
HETATM   39 CL1  UNL     1       3.940 -33.057  -6.120  1.00  0.00    -0.082 Cl
ENDBRANCH  30  32
ENDBRANCH  26  28
ENDBRANCH   1  22
TORSDOF 8
ENDMDL
