MODEL 20
REMARK VINA RESULT: -9.095100677      2.315      4.437
REMARK  8 active torsions:
REMARK  status: ('A' for Active; 'I' for Inactive)
REMARK    1  A    between atoms: C3_5  and  N2_6 
REMARK    2  A    between atoms: N2_6  and  C4_8 
REMARK    3  A    between atoms: C6_12  and  C7_13 
REMARK       I    between atoms: C7_13  and  N4_15 
REMARK    4  A    between atoms: N4_15  and  C8_17 
REMARK    5  A    between atoms: C16_27  and  N5_28 
REMARK    6  A    between atoms: N6_31  and  C19_32 
REMARK    7  A    between atoms: C19_32  and  C20_33 
REMARK    8  A    between atoms: C20_33  and  O2_34 
ROOT
HETATM    1  N2  UNL     1      10.287 -36.775  -4.712  1.00  0.00    -0.323 N 
ATOM      2  H2  UNL     1      11.210 -36.345  -4.774  1.00  0.00     0.169 HD
ENDROOT
BRANCH   1   3
HETATM    3  C3  UNL     1      10.086 -37.926  -3.920  1.00  0.00     0.111 A 
HETATM    4  N1  UNL     1       8.853 -38.283  -3.467  1.00  0.00    -0.332 N 
HETATM    5  C2  UNL     1       8.640 -39.371  -2.709  1.00  0.00     0.080 A 
ATOM      6  H1  UNL     1       8.055 -37.697  -3.714  1.00  0.00     0.168 HD
HETATM    7  C1  UNL     1       7.240 -39.631  -2.292  1.00  0.00     0.089 C 
HETATM    8  N7  UNL     1       9.672 -40.143  -2.380  1.00  0.00    -0.332 N 
HETATM    9  C16 UNL     1      10.959 -39.887  -2.777  1.00  0.00     0.108 A 
ATOM     10  H7  UNL     1       9.497 -40.967  -1.805  1.00  0.00     0.168 HD
HETATM   11  C15 UNL     1      11.120 -38.763  -3.549  1.00  0.00     0.097 A 
BRANCH   9  12
HETATM   12  N5  UNL     1      12.008 -40.758  -2.395  1.00  0.00    -0.364 N 
HETATM   13  C17 UNL     1      13.376 -40.278  -2.489  1.00  0.00     0.154 C 
HETATM   14  C18 UNL     1      14.275 -41.042  -1.508  1.00  0.00     0.292 C 
HETATM   15  N6  UNL     1      13.468 -41.318  -0.364  1.00  0.00     0.093 N 
HETATM   16  C21 UNL     1      12.502 -42.333  -0.594  1.00  0.00     0.292 C 
HETATM   17  C22 UNL     1      11.794 -42.093  -1.910  1.00  0.00     0.154 C 
BRANCH  15  18
HETATM   18  C19 UNL     1      13.020 -40.167   0.343  1.00  0.00     0.298 C 
BRANCH  18  19
HETATM   19  C20 UNL     1      12.066 -40.496   1.472  1.00  0.00     0.194 C 
BRANCH  19  20
HETATM   20  O2  UNL     1      11.616 -39.368   2.137  1.00  0.00    -0.399 OA
ATOM     21  H2  UNL     1      11.118 -39.578   2.919  1.00  0.00     0.209 HD
ENDBRANCH  19  20
ENDBRANCH  18  19
ENDBRANCH  15  18
ENDBRANCH   9  12
ENDBRANCH   1   3
BRANCH   1  22
HETATM   22  C4  UNL     1       9.188 -36.223  -5.422  1.00  0.00     0.150 A 
HETATM   23  N3  UNL     1       9.056 -35.065  -6.041  1.00  0.00    -0.345 N 
HETATM   24  C5  UNL     1       7.956 -34.753  -6.635  1.00  0.00     0.115 A 
ATOM     25  H3  UNL     1       9.836 -34.408  -6.049  1.00  0.00     0.167 HD
HETATM   26  C6  UNL     1       6.927 -35.665  -6.603  1.00  0.00     0.091 A 
HETATM   27  S1  UNL     1       7.632 -36.928  -5.703  1.00  0.00    -0.047 SA
BRANCH  26  28
HETATM   28  C7  UNL     1       5.585 -35.589  -7.178  1.00  0.00     0.264 C 
HETATM   29  O1  UNL     1       4.730 -36.446  -6.846  1.00  0.00    -0.267 OA
HETATM   30  N4  UNL     1       5.241 -34.563  -8.101  1.00  0.00    -0.320 N 
ATOM     31  H4  UNL     1       5.957 -33.881  -8.352  1.00  0.00     0.169 HD
BRANCH  30  32
HETATM   32  C8  UNL     1       3.966 -34.435  -8.688  1.00  0.00     0.062 A 
HETATM   33  C9  UNL     1       3.683 -34.996  -9.907  1.00  0.00    -0.034 A 
HETATM   34  C10 UNL     1       4.664 -35.764 -10.698  1.00  0.00     0.050 C 
HETATM   35  C11 UNL     1       2.402 -34.846 -10.451  1.00  0.00     0.009 A 
HETATM   36  C12 UNL     1       1.446 -34.138  -9.755  1.00  0.00     0.002 A 
HETATM   37  C13 UNL     1       1.710 -33.575  -8.545  1.00  0.00     0.026 A 
HETATM   38  C14 UNL     1       2.986 -33.741  -8.032  1.00  0.00     0.061 A 
HETATM   39 CL1  UNL     1       3.299 -33.002  -6.462  1.00  0.00    -0.082 Cl
ENDBRANCH  30  32
ENDBRANCH  26  28
ENDBRANCH   1  22
TORSDOF 8
ENDMDL
