MODEL 3
REMARK VINA RESULT: -9.510599650      1.460      1.752
REMARK  8 active torsions:
REMARK  status: ('A' for Active; 'I' for Inactive)
REMARK    1  A    between atoms: C3_5  and  N2_6 
REMARK    2  A    between atoms: N2_6  and  C4_8 
REMARK    3  A    between atoms: C6_12  and  C7_13 
REMARK       I    between atoms: C7_13  and  N4_15 
REMARK    4  A    between atoms: N4_15  and  C8_17 
REMARK    5  A    between atoms: C16_27  and  N5_28 
REMARK    6  A    between atoms: N6_31  and  C19_32 
REMARK    7  A    between atoms: C19_32  and  C20_33 
REMARK    8  A    between atoms: C20_33  and  O2_34 
ROOT
HETATM    1  N2  UNL     1       9.806 -37.948  -4.000  1.00  0.00    -0.323 N 
ATOM      2  H2  UNL     1      10.813 -37.860  -3.866  1.00  0.00     0.169 HD
ENDROOT
BRANCH   1   3
HETATM    3  C3  UNL     1       9.083 -38.970  -3.346  1.00  0.00     0.111 A 
HETATM    4  N1  UNL     1       9.699 -40.063  -2.818  1.00  0.00    -0.332 N 
HETATM    5  C2  UNL     1       9.031 -41.048  -2.195  1.00  0.00     0.080 A 
ATOM      6  H1  UNL     1      10.713 -40.137  -2.898  1.00  0.00     0.168 HD
HETATM    7  C1  UNL     1       9.839 -42.174  -1.670  1.00  0.00     0.089 C 
HETATM    8  N7  UNL     1       7.708 -40.963  -2.084  1.00  0.00    -0.332 N 
HETATM    9  C16 UNL     1       6.978 -39.912  -2.576  1.00  0.00     0.108 A 
ATOM     10  H7  UNL     1       7.212 -41.717  -1.609  1.00  0.00     0.168 HD
HETATM   11  C15 UNL     1       7.710 -38.934  -3.202  1.00  0.00     0.097 A 
BRANCH   9  12
HETATM   12  N5  UNL     1       5.571 -39.885  -2.415  1.00  0.00    -0.364 N 
HETATM   13  C17 UNL     1       5.031 -39.765  -1.072  1.00  0.00     0.154 C 
HETATM   14  C18 UNL     1       3.627 -39.147  -1.119  1.00  0.00     0.292 C 
HETATM   15  N6  UNL     1       3.642 -38.213  -2.197  1.00  0.00     0.093 N 
HETATM   16  C21 UNL     1       3.637 -38.834  -3.474  1.00  0.00     0.292 C 
HETATM   17  C22 UNL     1       4.645 -39.962  -3.511  1.00  0.00     0.154 C 
BRANCH  15  18
HETATM   18  C19 UNL     1       4.537 -37.119  -2.028  1.00  0.00     0.298 C 
BRANCH  18  19
HETATM   19  C20 UNL     1       3.830 -35.809  -1.750  1.00  0.00     0.194 C 
BRANCH  19  20
HETATM   20  O2  UNL     1       4.188 -35.257  -0.531  1.00  0.00    -0.399 OA
ATOM     21  H2  UNL     1       4.908 -34.642  -0.605  1.00  0.00     0.209 HD
ENDBRANCH  19  20
ENDBRANCH  18  19
ENDBRANCH  15  18
ENDBRANCH   9  12
ENDBRANCH   1   3
BRANCH   1  22
HETATM   22  C4  UNL     1       9.112 -37.044  -4.847  1.00  0.00     0.150 A 
HETATM   23  N3  UNL     1       9.533 -35.969  -5.488  1.00  0.00    -0.345 N 
HETATM   24  C5  UNL     1       8.728 -35.276  -6.218  1.00  0.00     0.115 A 
ATOM     25  H3  UNL     1      10.508 -35.684  -5.405  1.00  0.00     0.167 HD
HETATM   26  C6  UNL     1       7.419 -35.693  -6.304  1.00  0.00     0.091 A 
HETATM   27  S1  UNL     1       7.445 -37.076  -5.312  1.00  0.00    -0.047 SA
BRANCH  26  28
HETATM   28  C7  UNL     1       6.297 -35.116  -7.043  1.00  0.00     0.264 C 
HETATM   29  O1  UNL     1       6.378 -33.928  -7.443  1.00  0.00    -0.267 OA
HETATM   30  N4  UNL     1       5.127 -35.878  -7.311  1.00  0.00    -0.320 N 
ATOM     31  H4  UNL     1       5.090 -36.840  -6.973  1.00  0.00     0.169 HD
BRANCH  30  32
HETATM   32  C8  UNL     1       4.014 -35.379  -8.018  1.00  0.00     0.062 A 
HETATM   33  C9  UNL     1       3.951 -35.444  -9.386  1.00  0.00    -0.034 A 
HETATM   34  C10 UNL     1       5.015 -36.027 -10.224  1.00  0.00     0.050 C 
HETATM   35  C11 UNL     1       2.824 -34.938 -10.046  1.00  0.00     0.009 A 
HETATM   36  C12 UNL     1       1.798 -34.382  -9.312  1.00  0.00     0.002 A 
HETATM   37  C13 UNL     1       1.846 -34.309  -7.954  1.00  0.00     0.026 A 
HETATM   38  C14 UNL     1       2.972 -34.819  -7.329  1.00  0.00     0.061 A 
HETATM   39 CL1  UNL     1       3.006 -34.712  -5.570  1.00  0.00    -0.082 Cl
ENDBRANCH  30  32
ENDBRANCH  26  28
ENDBRANCH   1  22
TORSDOF 8
ENDMDL
