MODEL 8
REMARK VINA RESULT: -9.255672518      2.352      4.641
REMARK  8 active torsions:
REMARK  status: ('A' for Active; 'I' for Inactive)
REMARK    1  A    between atoms: C3_5  and  N2_6 
REMARK    2  A    between atoms: N2_6  and  C4_8 
REMARK    3  A    between atoms: C6_12  and  C7_13 
REMARK       I    between atoms: C7_13  and  N4_15 
REMARK    4  A    between atoms: N4_15  and  C8_17 
REMARK    5  A    between atoms: C16_27  and  N5_28 
REMARK    6  A    between atoms: N6_31  and  C19_32 
REMARK    7  A    between atoms: C19_32  and  C20_33 
REMARK    8  A    between atoms: C20_33  and  O2_34 
ROOT
HETATM    1  N2  UNL     1      10.247 -37.517  -4.373  1.00  0.00    -0.323 N 
ATOM      2  H2  UNL     1      11.224 -37.261  -4.517  1.00  0.00     0.169 HD
ENDROOT
BRANCH   1   3
HETATM    3  C3  UNL     1       9.901 -38.530  -3.452  1.00  0.00     0.111 A 
HETATM    4  N1  UNL     1       8.702 -38.540  -2.809  1.00  0.00    -0.332 N 
HETATM    5  C2  UNL     1       8.354 -39.492  -1.928  1.00  0.00     0.080 A 
ATOM      6  H1  UNL     1       8.038 -37.791  -3.006  1.00  0.00     0.168 HD
HETATM    7  C1  UNL     1       7.012 -39.369  -1.308  1.00  0.00     0.089 C 
HETATM    8  N7  UNL     1       9.211 -40.474  -1.663  1.00  0.00    -0.332 N 
HETATM    9  C16 UNL     1      10.447 -40.570  -2.247  1.00  0.00     0.108 A 
ATOM     10  H7  UNL     1       8.935 -41.191  -0.992  1.00  0.00     0.168 HD
HETATM   11  C15 UNL     1      10.752 -39.572  -3.140  1.00  0.00     0.097 A 
BRANCH   9  12
HETATM   12  N5  UNL     1      11.306 -41.648  -1.923  1.00  0.00    -0.364 N 
HETATM   13  C17 UNL     1      11.533 -42.678  -2.921  1.00  0.00     0.154 C 
HETATM   14  C18 UNL     1      12.880 -43.370  -2.672  1.00  0.00     0.292 C 
HETATM   15  N6  UNL     1      13.754 -42.364  -2.165  1.00  0.00     0.093 N 
HETATM   16  C21 UNL     1      13.461 -41.993  -0.826  1.00  0.00     0.292 C 
HETATM   17  C22 UNL     1      11.973 -41.778  -0.656  1.00  0.00     0.154 C 
BRANCH  15  18
HETATM   18  C19 UNL     1      14.031 -41.301  -3.070  1.00  0.00     0.298 C 
BRANCH  18  19
HETATM   19  C20 UNL     1      14.847 -40.187  -2.448  1.00  0.00     0.194 C 
BRANCH  19  20
HETATM   20  O2  UNL     1      14.186 -38.970  -2.460  1.00  0.00    -0.399 OA
ATOM     21  H2  UNL     1      14.288 -38.490  -1.646  1.00  0.00     0.209 HD
ENDBRANCH  19  20
ENDBRANCH  18  19
ENDBRANCH  15  18
ENDBRANCH   9  12
ENDBRANCH   1   3
BRANCH   1  22
HETATM   22  C4  UNL     1       9.218 -36.858  -5.096  1.00  0.00     0.150 A 
HETATM   23  N3  UNL     1       9.213 -35.696  -5.721  1.00  0.00    -0.345 N 
HETATM   24  C5  UNL     1       8.156 -35.275  -6.327  1.00  0.00     0.115 A 
ATOM     25  H3  UNL     1      10.056 -35.123  -5.724  1.00  0.00     0.167 HD
HETATM   26  C6  UNL     1       7.038 -36.075  -6.301  1.00  0.00     0.091 A 
HETATM   27  S1  UNL     1       7.600 -37.400  -5.389  1.00  0.00    -0.047 SA
BRANCH  26  28
HETATM   28  C7  UNL     1       5.717 -35.863  -6.889  1.00  0.00     0.264 C 
HETATM   29  O1  UNL     1       4.770 -36.615  -6.548  1.00  0.00    -0.267 OA
HETATM   30  N4  UNL     1       5.493 -34.825  -7.836  1.00  0.00    -0.320 N 
ATOM     31  H4  UNL     1       6.282 -34.231  -8.093  1.00  0.00     0.169 HD
BRANCH  30  32
HETATM   32  C8  UNL     1       4.244 -34.570  -8.437  1.00  0.00     0.062 A 
HETATM   33  C9  UNL     1       3.919 -35.104  -9.657  1.00  0.00    -0.034 A 
HETATM   34  C10 UNL     1       4.823 -35.971 -10.435  1.00  0.00     0.050 C 
HETATM   35  C11 UNL     1       2.665 -34.826 -10.215  1.00  0.00     0.009 A 
HETATM   36  C12 UNL     1       1.779 -34.020  -9.531  1.00  0.00     0.002 A 
HETATM   37  C13 UNL     1       2.087 -33.483  -8.320  1.00  0.00     0.026 A 
HETATM   38  C14 UNL     1       3.334 -33.777  -7.793  1.00  0.00     0.061 A 
HETATM   39 CL1  UNL     1       3.706 -33.068  -6.222  1.00  0.00    -0.082 Cl
ENDBRANCH  30  32
ENDBRANCH  26  28
ENDBRANCH   1  22
TORSDOF 8
ENDMDL
