MODEL 18
REMARK VINA RESULT: -9.106408751      2.631      4.783
REMARK  8 active torsions:
REMARK  status: ('A' for Active; 'I' for Inactive)
REMARK    1  A    between atoms: C3_5  and  N2_6 
REMARK    2  A    between atoms: N2_6  and  C4_8 
REMARK    3  A    between atoms: C6_12  and  C7_13 
REMARK       I    between atoms: C7_13  and  N4_15 
REMARK    4  A    between atoms: N4_15  and  C8_17 
REMARK    5  A    between atoms: C16_27  and  N5_28 
REMARK    6  A    between atoms: N6_31  and  C19_32 
REMARK    7  A    between atoms: C19_32  and  C20_33 
REMARK    8  A    between atoms: C20_33  and  O2_34 
ROOT
HETATM    1  N2  UNL     1      10.255 -36.834  -4.687  1.00  0.00    -0.323 N 
ATOM      2  H2  UNL     1      11.186 -36.426  -4.768  1.00  0.00     0.169 HD
ENDROOT
BRANCH   1   3
HETATM    3  C3  UNL     1      10.036 -37.961  -3.865  1.00  0.00     0.111 A 
HETATM    4  N1  UNL     1       8.812 -38.245  -3.342  1.00  0.00    -0.332 N 
HETATM    5  C2  UNL     1       8.583 -39.308  -2.555  1.00  0.00     0.080 A 
ATOM      6  H1  UNL     1       8.034 -37.622  -3.559  1.00  0.00     0.168 HD
HETATM    7  C1  UNL     1       7.195 -39.488  -2.062  1.00  0.00     0.089 C 
HETATM    8  N7  UNL     1       9.589 -40.129  -2.266  1.00  0.00    -0.332 N 
HETATM    9  C16 UNL     1      10.865 -39.946  -2.733  1.00  0.00     0.108 A 
ATOM     10  H7  UNL     1       9.402 -40.934  -1.668  1.00  0.00     0.168 HD
HETATM   11  C15 UNL     1      11.044 -38.844  -3.532  1.00  0.00     0.097 A 
BRANCH   9  12
HETATM   12  N5  UNL     1      11.886 -40.865  -2.389  1.00  0.00    -0.364 N 
HETATM   13  C17 UNL     1      13.263 -40.517  -2.695  1.00  0.00     0.154 C 
HETATM   14  C18 UNL     1      14.220 -41.260  -1.754  1.00  0.00     0.292 C 
HETATM   15  N6  UNL     1      13.546 -41.356  -0.500  1.00  0.00     0.093 N 
HETATM   16  C21 UNL     1      12.486 -42.300  -0.506  1.00  0.00     0.292 C 
HETATM   17  C22 UNL     1      11.636 -42.125  -1.746  1.00  0.00     0.154 C 
BRANCH  15  18
HETATM   18  C19 UNL     1      13.279 -40.108   0.131  1.00  0.00     0.298 C 
BRANCH  18  19
HETATM   19  C20 UNL     1      12.396 -40.238   1.355  1.00  0.00     0.194 C 
BRANCH  19  20
HETATM   20  O2  UNL     1      12.825 -39.448   2.409  1.00  0.00    -0.399 OA
ATOM     21  H2  UNL     1      12.254 -38.706   2.567  1.00  0.00     0.209 HD
ENDBRANCH  19  20
ENDBRANCH  18  19
ENDBRANCH  15  18
ENDBRANCH   9  12
ENDBRANCH   1   3
BRANCH   1  22
HETATM   22  C4  UNL     1       9.161 -36.275  -5.400  1.00  0.00     0.150 A 
HETATM   23  N3  UNL     1       9.058 -35.143  -6.070  1.00  0.00    -0.345 N 
HETATM   24  C5  UNL     1       7.957 -34.818  -6.656  1.00  0.00     0.115 A 
ATOM     25  H3  UNL     1       9.861 -34.517  -6.126  1.00  0.00     0.167 HD
HETATM   26  C6  UNL     1       6.896 -35.688  -6.559  1.00  0.00     0.091 A 
HETATM   27  S1  UNL     1       7.574 -36.933  -5.614  1.00  0.00    -0.047 SA
BRANCH  26  28
HETATM   28  C7  UNL     1       5.546 -35.588  -7.109  1.00  0.00     0.264 C 
HETATM   29  O1  UNL     1       4.697 -36.462  -6.805  1.00  0.00    -0.267 OA
HETATM   30  N4  UNL     1       5.185 -34.521  -7.978  1.00  0.00    -0.320 N 
ATOM     31  H4  UNL     1       5.897 -33.827  -8.208  1.00  0.00     0.169 HD
BRANCH  30  32
HETATM   32  C8  UNL     1       3.902 -34.370  -8.540  1.00  0.00     0.062 A 
HETATM   33  C9  UNL     1       2.926 -33.647  -7.904  1.00  0.00    -0.034 A 
HETATM   34  C10 UNL     1       3.125 -32.977  -6.604  1.00  0.00     0.050 C 
HETATM   35  C11 UNL     1       1.665 -33.521  -8.500  1.00  0.00     0.009 A 
HETATM   36  C12 UNL     1       1.424 -34.126  -9.715  1.00  0.00     0.002 A 
HETATM   37  C13 UNL     1       2.381 -34.847 -10.359  1.00  0.00     0.026 A 
HETATM   38  C14 UNL     1       3.619 -34.953  -9.745  1.00  0.00     0.061 A 
HETATM   39 CL1  UNL     1       4.839 -35.893 -10.602  1.00  0.00    -0.082 Cl
ENDBRANCH  30  32
ENDBRANCH  26  28
ENDBRANCH   1  22
TORSDOF 8
ENDMDL
