MODEL 2
REMARK VINA RESULT: -9.706141124      0.980      1.541
REMARK  8 active torsions:
REMARK  status: ('A' for Active; 'I' for Inactive)
REMARK    1  A    between atoms: C3_5  and  N2_6 
REMARK    2  A    between atoms: N2_6  and  C4_8 
REMARK    3  A    between atoms: C6_12  and  C7_13 
REMARK       I    between atoms: C7_13  and  N4_15 
REMARK    4  A    between atoms: N4_15  and  C8_17 
REMARK    5  A    between atoms: C16_27  and  N5_28 
REMARK    6  A    between atoms: N6_31  and  C19_32 
REMARK    7  A    between atoms: C19_32  and  C20_33 
REMARK    8  A    between atoms: C20_33  and  O2_34 
ROOT
HETATM    1  N2  UNL     1      10.291 -36.850  -4.713  1.00  0.00    -0.323 N 
ATOM      2  H2  UNL     1      11.216 -36.424  -4.774  1.00  0.00     0.169 HD
ENDROOT
BRANCH   1   3
HETATM    3  C3  UNL     1      10.089 -38.012  -3.936  1.00  0.00     0.111 A 
HETATM    4  N1  UNL     1      11.122 -38.804  -3.543  1.00  0.00    -0.332 N 
HETATM    5  C2  UNL     1      10.953 -39.915  -2.808  1.00  0.00     0.080 A 
ATOM      6  H1  UNL     1      12.069 -38.542  -3.818  1.00  0.00     0.168 HD
HETATM    7  C1  UNL     1      12.176 -40.676  -2.454  1.00  0.00     0.089 C 
HETATM    8  N7  UNL     1       9.723 -40.268  -2.442  1.00  0.00    -0.332 N 
HETATM    9  C16 UNL     1       8.605 -39.550  -2.778  1.00  0.00     0.108 A 
ATOM     10  H7  UNL     1       9.607 -41.113  -1.883  1.00  0.00     0.168 HD
HETATM   11  C15 UNL     1       8.835 -38.424  -3.529  1.00  0.00     0.097 A 
BRANCH   9  12
HETATM   12  N5  UNL     1       7.326 -39.982  -2.347  1.00  0.00    -0.364 N 
HETATM   13  C17 UNL     1       6.821 -39.490  -1.077  1.00  0.00     0.154 C 
HETATM   14  C18 UNL     1       5.287 -39.531  -1.065  1.00  0.00     0.292 C 
HETATM   15  N6  UNL     1       4.873 -39.244  -2.399  1.00  0.00     0.093 N 
HETATM   16  C21 UNL     1       5.102 -40.319  -3.298  1.00  0.00     0.292 C 
HETATM   17  C22 UNL     1       6.495 -40.877  -3.102  1.00  0.00     0.154 C 
BRANCH  15  18
HETATM   18  C19 UNL     1       5.218 -37.944  -2.866  1.00  0.00     0.298 C 
BRANCH  18  19
HETATM   19  C20 UNL     1       4.036 -36.997  -2.916  1.00  0.00     0.194 C 
BRANCH  19  20
HETATM   20  O2  UNL     1       4.166 -36.034  -3.903  1.00  0.00    -0.399 OA
ATOM     21  H2  UNL     1       3.558 -35.313  -3.792  1.00  0.00     0.209 HD
ENDBRANCH  19  20
ENDBRANCH  18  19
ENDBRANCH  15  18
ENDBRANCH   9  12
ENDBRANCH   1   3
BRANCH   1  22
HETATM   22  C4  UNL     1       9.190 -36.281  -5.406  1.00  0.00     0.150 A 
HETATM   23  N3  UNL     1       9.070 -35.125  -6.032  1.00  0.00    -0.345 N 
HETATM   24  C5  UNL     1       7.966 -34.795  -6.608  1.00  0.00     0.115 A 
ATOM     25  H3  UNL     1       9.863 -34.485  -6.060  1.00  0.00     0.167 HD
HETATM   26  C6  UNL     1       6.918 -35.686  -6.547  1.00  0.00     0.091 A 
HETATM   27  S1  UNL     1       7.614 -36.956  -5.651  1.00  0.00    -0.047 SA
BRANCH  26  28
HETATM   28  C7  UNL     1       5.568 -35.586  -7.097  1.00  0.00     0.264 C 
HETATM   29  O1  UNL     1       4.715 -36.451  -6.779  1.00  0.00    -0.267 OA
HETATM   30  N4  UNL     1       5.212 -34.529  -7.981  1.00  0.00    -0.320 N 
ATOM     31  H4  UNL     1       5.927 -33.842  -8.222  1.00  0.00     0.169 HD
BRANCH  30  32
HETATM   32  C8  UNL     1       3.928 -34.379  -8.543  1.00  0.00     0.062 A 
HETATM   33  C9  UNL     1       2.951 -33.659  -7.906  1.00  0.00    -0.034 A 
HETATM   34  C10 UNL     1       3.148 -32.992  -6.604  1.00  0.00     0.050 C 
HETATM   35  C11 UNL     1       1.691 -33.534  -8.502  1.00  0.00     0.009 A 
HETATM   36  C12 UNL     1       1.451 -34.136  -9.719  1.00  0.00     0.002 A 
HETATM   37  C13 UNL     1       2.410 -34.854 -10.364  1.00  0.00     0.026 A 
HETATM   38  C14 UNL     1       3.647 -34.959  -9.750  1.00  0.00     0.061 A 
HETATM   39 CL1  UNL     1       4.870 -35.895 -10.609  1.00  0.00    -0.082 Cl
ENDBRANCH  30  32
ENDBRANCH  26  28
ENDBRANCH   1  22
TORSDOF 8
ENDMDL
