MODEL 1
REMARK VINA RESULT: -9.730516444      0.000      0.000
REMARK  8 active torsions:
REMARK  status: ('A' for Active; 'I' for Inactive)
REMARK    1  A    between atoms: C3_5  and  N2_6 
REMARK    2  A    between atoms: N2_6  and  C4_8 
REMARK    3  A    between atoms: C6_12  and  C7_13 
REMARK       I    between atoms: C7_13  and  N4_15 
REMARK    4  A    between atoms: N4_15  and  C8_17 
REMARK    5  A    between atoms: C16_27  and  N5_28 
REMARK    6  A    between atoms: N6_31  and  C19_32 
REMARK    7  A    between atoms: C19_32  and  C20_33 
REMARK    8  A    between atoms: C20_33  and  O2_34 
ROOT
HETATM    1  N2  UNL     1      10.295 -36.783  -4.736  1.00  0.00    -0.323 N 
ATOM      2  H2  UNL     1      11.214 -36.345  -4.793  1.00  0.00     0.169 HD
ENDROOT
BRANCH   1   3
HETATM    3  C3  UNL     1      10.105 -37.951  -3.966  1.00  0.00     0.111 A 
HETATM    4  N1  UNL     1      11.145 -38.743  -3.590  1.00  0.00    -0.332 N 
HETATM    5  C2  UNL     1      10.987 -39.860  -2.861  1.00  0.00     0.080 A 
ATOM      6  H1  UNL     1      12.088 -38.477  -3.875  1.00  0.00     0.168 HD
HETATM    7  C1  UNL     1      12.216 -40.619  -2.527  1.00  0.00     0.089 C 
HETATM    8  N7  UNL     1       9.763 -40.218  -2.482  1.00  0.00    -0.332 N 
HETATM    9  C16 UNL     1       8.638 -39.501  -2.800  1.00  0.00     0.108 A 
ATOM     10  H7  UNL     1       9.655 -41.067  -1.928  1.00  0.00     0.168 HD
HETATM   11  C15 UNL     1       8.857 -38.369  -3.547  1.00  0.00     0.097 A 
BRANCH   9  12
HETATM   12  N5  UNL     1       7.367 -39.938  -2.357  1.00  0.00    -0.364 N 
HETATM   13  C17 UNL     1       6.749 -39.251  -1.237  1.00  0.00     0.154 C 
HETATM   14  C18 UNL     1       5.224 -39.408  -1.293  1.00  0.00     0.292 C 
HETATM   15  N6  UNL     1       4.878 -39.418  -2.677  1.00  0.00     0.093 N 
HETATM   16  C21 UNL     1       5.235 -40.626  -3.333  1.00  0.00     0.292 C 
HETATM   17  C22 UNL     1       6.647 -41.026  -2.961  1.00  0.00     0.154 C 
BRANCH  15  18
HETATM   18  C19 UNL     1       5.165 -38.211  -3.374  1.00  0.00     0.298 C 
BRANCH  18  19
HETATM   19  C20 UNL     1       4.254 -37.066  -2.981  1.00  0.00     0.194 C 
BRANCH  19  20
HETATM   20  O2  UNL     1       4.253 -36.040  -3.911  1.00  0.00    -0.399 OA
ATOM     21  H2  UNL     1       3.470 -36.034  -4.448  1.00  0.00     0.209 HD
ENDBRANCH  19  20
ENDBRANCH  18  19
ENDBRANCH  15  18
ENDBRANCH   9  12
ENDBRANCH   1   3
BRANCH   1  22
HETATM   22  C4  UNL     1       9.189 -36.225  -5.431  1.00  0.00     0.150 A 
HETATM   23  N3  UNL     1       9.043 -35.052  -6.018  1.00  0.00    -0.345 N 
HETATM   24  C5  UNL     1       7.939 -34.737  -6.603  1.00  0.00     0.115 A 
ATOM     25  H3  UNL     1       9.815 -34.386  -6.009  1.00  0.00     0.167 HD
HETATM   26  C6  UNL     1       6.920 -35.661  -6.594  1.00  0.00     0.091 A 
HETATM   27  S1  UNL     1       7.640 -36.940  -5.729  1.00  0.00    -0.047 SA
BRANCH  26  28
HETATM   28  C7  UNL     1       5.578 -35.585  -7.167  1.00  0.00     0.264 C 
HETATM   29  O1  UNL     1       4.719 -36.435  -6.823  1.00  0.00    -0.267 OA
HETATM   30  N4  UNL     1       5.235 -34.567  -8.100  1.00  0.00    -0.320 N 
ATOM     31  H4  UNL     1       5.953 -33.891  -8.360  1.00  0.00     0.169 HD
BRANCH  30  32
HETATM   32  C8  UNL     1       3.959 -34.441  -8.685  1.00  0.00     0.062 A 
HETATM   33  C9  UNL     1       3.675 -34.999  -9.904  1.00  0.00    -0.034 A 
HETATM   34  C10 UNL     1       4.656 -35.764 -10.698  1.00  0.00     0.050 C 
HETATM   35  C11 UNL     1       2.393 -34.849 -10.446  1.00  0.00     0.009 A 
HETATM   36  C12 UNL     1       1.437 -34.144  -9.747  1.00  0.00     0.002 A 
HETATM   37  C13 UNL     1       1.702 -33.584  -8.536  1.00  0.00     0.026 A 
HETATM   38  C14 UNL     1       2.979 -33.749  -8.025  1.00  0.00     0.061 A 
HETATM   39 CL1  UNL     1       3.294 -33.014  -6.454  1.00  0.00    -0.082 Cl
ENDBRANCH  30  32
ENDBRANCH  26  28
ENDBRANCH   1  22
TORSDOF 8
ENDMDL
