MODEL 1
REMARK VINA RESULT: -8.115295895      0.000      0.000
REMARK  13 active torsions:
REMARK  status: ('A' for Active; 'I' for Inactive)
REMARK    1  A    between atoms: C2_2  and  C3_3 
REMARK    2  A    between atoms: C3_3  and  C4_4 
REMARK    3  A    between atoms: C4_4  and  C5_5 
REMARK    4  A    between atoms: C5_5  and  C6_6 
REMARK    5  A    between atoms: C6_6  and  C7_7 
REMARK    6  A    between atoms: C6_6  and  C9_14 
REMARK    7  A    between atoms: C7_7  and  C8_8 
REMARK       I    between atoms: C8_8  and  N1_10 
REMARK    8  A    between atoms: N1_10  and  O2_12 
REMARK       I    between atoms: C9_14  and  N2_16 
REMARK    9  A    between atoms: N2_16  and  C10_18 
REMARK   10  A    between atoms: C10_18  and  C11_19 
REMARK   11  A    between atoms: C10_18  and  C17_29 
REMARK       I    between atoms: C11_19  and  N3_21 
REMARK   12  A    between atoms: C15_25  and  C16_26 
REMARK   13  A    between atoms: C16_26  and  O5_27 
ROOT
HETATM    1  C9  UNL     1      35.321  11.125  11.028  1.00  0.00     0.223 C 
HETATM    2  O3  UNL     1      36.457  11.651  10.876  1.00  0.00    -0.273 OA
HETATM    3  N2  UNL     1      35.303   9.838  11.639  1.00  0.00    -0.347 N 
ATOM      4  H2  UNL     1      34.415   9.360  11.792  1.00  0.00     0.163 HD
ENDROOT
BRANCH   3   5
HETATM    5  C10 UNL     1      36.555   9.203  12.049  1.00  0.00     0.180 C 
BRANCH   5   6
HETATM    6  C11 UNL     1      37.006   8.207  11.060  1.00  0.00     0.243 C 
HETATM    7  O4  UNL     1      36.255   7.161  10.959  1.00  0.00    -0.271 OA
HETATM    8  N3  UNL     1      38.154   8.326  10.257  1.00  0.00    -0.344 N 
HETATM    9  C12 UNL     1      38.637   7.300   9.318  1.00  0.00     0.126 C 
HETATM   10  C15 UNL     1      39.089   9.402  10.095  1.00  0.00     0.111 C 
HETATM   11  C13 UNL     1      40.144   7.419   9.440  1.00  0.00     0.022 C 
HETATM   12  C14 UNL     1      40.435   8.701  10.196  1.00  0.00     0.029 C 
BRANCH  10  13
HETATM   13  C16 UNL     1      39.050   9.928   8.641  1.00  0.00     0.189 C 
BRANCH  13  14
HETATM   14  O5  UNL     1      37.815  10.431   8.309  1.00  0.00    -0.399 OA
ATOM     15  H5  UNL     1      37.442  10.951   9.011  1.00  0.00     0.209 HD
ENDBRANCH  13  14
ENDBRANCH  10  13
ENDBRANCH   5   6
BRANCH   5  16
HETATM   16  C17 UNL     1      36.336   8.517  13.395  1.00  0.00     0.009 C 
HETATM   17  C18 UNL     1      37.629   8.354  14.140  1.00  0.00     0.012 C 
HETATM   18  C19 UNL     1      35.311   9.291  14.201  1.00  0.00     0.012 C 
ENDBRANCH   5  16
ENDBRANCH   3   5
BRANCH   1  19
HETATM   19  C6  UNL     1      34.131  11.853  10.575  1.00  0.00     0.086 C 
BRANCH  19  20
HETATM   20  C5  UNL     1      34.392  12.461   9.229  1.00  0.00     0.014 C 
BRANCH  20  21
HETATM   21  C4  UNL     1      33.542  11.956   8.137  1.00  0.00     0.001 C 
BRANCH  21  22
HETATM   22  C3  UNL     1      33.441  10.459   8.097  1.00  0.00    -0.000 C 
BRANCH  22  23
HETATM   23  C2  UNL     1      33.665   9.952   6.708  1.00  0.00    -0.005 C 
HETATM   24  C1  UNL     1      34.979   9.183   6.730  1.00  0.00     0.005 C 
ENDBRANCH  22  23
ENDBRANCH  21  22
ENDBRANCH  20  21
ENDBRANCH  19  20
BRANCH  19  25
HETATM   25  C7  UNL     1      33.631  12.757  11.628  1.00  0.00     0.119 C 
BRANCH  25  26
HETATM   26  C8  UNL     1      32.178  12.659  11.813  1.00  0.00     0.241 C 
HETATM   27  O1  UNL     1      31.591  11.620  12.204  1.00  0.00    -0.271 OA
HETATM   28  N1  UNL     1      31.386  13.817  11.530  1.00  0.00    -0.237 N 
ATOM     29  H1  UNL     1      31.819  14.683  11.210  1.00  0.00     0.197 HD
BRANCH  28  30
HETATM   30  O2  UNL     1      30.054  13.731  11.699  1.00  0.00    -0.287 OA
ATOM     31  H2  UNL     1      29.525  13.467  10.955  1.00  0.00     0.244 HD
ENDBRANCH  28  30
ENDBRANCH  25  26
ENDBRANCH  19  25
ENDBRANCH   1  19
TORSDOF 13
ENDMDL
