MODEL 9
REMARK VINA RESULT: -7.254806971      2.660      5.076
REMARK  13 active torsions:
REMARK  status: ('A' for Active; 'I' for Inactive)
REMARK    1  A    between atoms: C2_2  and  C3_3 
REMARK    2  A    between atoms: C3_3  and  C4_4 
REMARK    3  A    between atoms: C4_4  and  C5_5 
REMARK    4  A    between atoms: C5_5  and  C6_6 
REMARK    5  A    between atoms: C6_6  and  C7_7 
REMARK    6  A    between atoms: C6_6  and  C9_14 
REMARK    7  A    between atoms: C7_7  and  C8_8 
REMARK       I    between atoms: C8_8  and  N1_10 
REMARK    8  A    between atoms: N1_10  and  O2_12 
REMARK       I    between atoms: C9_14  and  N2_16 
REMARK    9  A    between atoms: N2_16  and  C10_18 
REMARK   10  A    between atoms: C10_18  and  C11_19 
REMARK   11  A    between atoms: C10_18  and  C17_29 
REMARK       I    between atoms: C11_19  and  N3_21 
REMARK   12  A    between atoms: C15_25  and  C16_26 
REMARK   13  A    between atoms: C16_26  and  O5_27 
ROOT
HETATM    1  C9  UNL     1      36.223   9.073  11.294  1.00  0.00     0.223 C 
HETATM    2  O3  UNL     1      35.871   7.866  11.189  1.00  0.00    -0.273 OA
HETATM    3  N2  UNL     1      36.979   9.406  12.455  1.00  0.00    -0.347 N 
ATOM      4  H2  UNL     1      37.295  10.365  12.599  1.00  0.00     0.163 HD
ENDROOT
BRANCH   3   5
HETATM    5  C10 UNL     1      37.302   8.375  13.442  1.00  0.00     0.180 C 
BRANCH   5   6
HETATM    6  C11 UNL     1      37.181   8.885  14.818  1.00  0.00     0.243 C 
HETATM    7  O4  UNL     1      37.794  10.000  15.042  1.00  0.00    -0.271 OA
HETATM    8  N3  UNL     1      36.467   8.257  15.855  1.00  0.00    -0.344 N 
HETATM    9  C12 UNL     1      36.403   8.736  17.245  1.00  0.00     0.126 C 
HETATM   10  C15 UNL     1      35.630   7.093  15.857  1.00  0.00     0.111 C 
HETATM   11  C13 UNL     1      36.388   7.445  18.041  1.00  0.00     0.022 C 
HETATM   12  C14 UNL     1      36.133   6.315  17.064  1.00  0.00     0.029 C 
BRANCH  10  13
HETATM   13  C16 UNL     1      34.181   7.477  16.237  1.00  0.00     0.189 C 
BRANCH  13  14
HETATM   14  O5  UNL     1      33.410   6.373  16.512  1.00  0.00    -0.399 OA
ATOM     15  H5  UNL     1      32.507   6.604  16.690  1.00  0.00     0.209 HD
ENDBRANCH  13  14
ENDBRANCH  10  13
ENDBRANCH   5   6
BRANCH   5  16
HETATM   16  C17 UNL     1      38.733   7.903  13.200  1.00  0.00     0.009 C 
HETATM   17  C18 UNL     1      38.763   6.483  12.714  1.00  0.00     0.012 C 
HETATM   18  C19 UNL     1      39.427   8.846  12.238  1.00  0.00     0.012 C 
ENDBRANCH   5  16
ENDBRANCH   3   5
BRANCH   1  19
HETATM   19  C6  UNL     1      35.838  10.023  10.245  1.00  0.00     0.086 C 
BRANCH  19  20
HETATM   20  C5  UNL     1      36.539   9.675   8.966  1.00  0.00     0.014 C 
BRANCH  20  21
HETATM   21  C4  UNL     1      35.874  10.146   7.739  1.00  0.00     0.001 C 
BRANCH  21  22
HETATM   22  C3  UNL     1      35.035   9.096   7.070  1.00  0.00    -0.000 C 
BRANCH  22  23
HETATM   23  C2  UNL     1      33.601   9.517   7.021  1.00  0.00    -0.005 C 
HETATM   24  C1  UNL     1      33.562  10.979   7.444  1.00  0.00     0.005 C 
ENDBRANCH  22  23
ENDBRANCH  21  22
ENDBRANCH  20  21
ENDBRANCH  19  20
BRANCH  19  25
HETATM   25  C7  UNL     1      35.968  11.415  10.718  1.00  0.00     0.119 C 
BRANCH  25  26
HETATM   26  C8  UNL     1      34.678  12.113  10.779  1.00  0.00     0.241 C 
HETATM   27  O1  UNL     1      34.532  13.336  10.538  1.00  0.00    -0.271 OA
HETATM   28  N1  UNL     1      33.519  11.351  11.134  1.00  0.00    -0.237 N 
ATOM     29  H1  UNL     1      33.589  10.354  11.338  1.00  0.00     0.197 HD
BRANCH  28  30
HETATM   30  O2  UNL     1      32.335  11.987  11.191  1.00  0.00    -0.287 OA
ATOM     31  H2  UNL     1      31.987  12.211  12.046  1.00  0.00     0.244 HD
ENDBRANCH  28  30
ENDBRANCH  25  26
ENDBRANCH  19  25
ENDBRANCH   1  19
TORSDOF 13
ENDMDL
