MODEL 12
REMARK VINA RESULT: -7.112722394      2.538      6.324
REMARK  13 active torsions:
REMARK  status: ('A' for Active; 'I' for Inactive)
REMARK    1  A    between atoms: C2_2  and  C3_3 
REMARK    2  A    between atoms: C3_3  and  C4_4 
REMARK    3  A    between atoms: C4_4  and  C5_5 
REMARK    4  A    between atoms: C5_5  and  C6_6 
REMARK    5  A    between atoms: C6_6  and  C7_7 
REMARK    6  A    between atoms: C6_6  and  C9_14 
REMARK    7  A    between atoms: C7_7  and  C8_8 
REMARK       I    between atoms: C8_8  and  N1_10 
REMARK    8  A    between atoms: N1_10  and  O2_12 
REMARK       I    between atoms: C9_14  and  N2_16 
REMARK    9  A    between atoms: N2_16  and  C10_18 
REMARK   10  A    between atoms: C10_18  and  C11_19 
REMARK   11  A    between atoms: C10_18  and  C17_29 
REMARK       I    between atoms: C11_19  and  N3_21 
REMARK   12  A    between atoms: C15_25  and  C16_26 
REMARK   13  A    between atoms: C16_26  and  O5_27 
ROOT
HETATM    1  C9  UNL     1      36.420   9.722  13.112  1.00  0.00     0.223 C 
HETATM    2  O3  UNL     1      35.816  10.804  12.874  1.00  0.00    -0.273 OA
HETATM    3  N2  UNL     1      37.039   9.091  11.995  1.00  0.00    -0.347 N 
ATOM      4  H2  UNL     1      37.544   8.214  12.122  1.00  0.00     0.163 HD
ENDROOT
BRANCH   3   5
HETATM    5  C10 UNL     1      36.951   9.698  10.667  1.00  0.00     0.180 C 
BRANCH   5   6
HETATM    6  C11 UNL     1      35.811   9.164   9.901  1.00  0.00     0.243 C 
HETATM    7  O4  UNL     1      35.822   7.884   9.731  1.00  0.00    -0.271 OA
HETATM    8  N3  UNL     1      34.760   9.933   9.371  1.00  0.00    -0.344 N 
HETATM    9  C12 UNL     1      33.658   9.404   8.551  1.00  0.00     0.126 C 
HETATM   10  C15 UNL     1      34.452  11.328   9.495  1.00  0.00     0.111 C 
HETATM   11  C13 UNL     1      33.413  10.526   7.560  1.00  0.00     0.022 C 
HETATM   12  C14 UNL     1      34.166  11.742   8.060  1.00  0.00     0.029 C 
BRANCH  10  13
HETATM   13  C16 UNL     1      33.096  11.514  10.215  1.00  0.00     0.189 C 
BRANCH  13  14
HETATM   14  O5  UNL     1      33.158  11.132  11.534  1.00  0.00    -0.399 OA
ATOM     15  H5  UNL     1      32.334  11.275  11.985  1.00  0.00     0.209 HD
ENDBRANCH  13  14
ENDBRANCH  10  13
ENDBRANCH   5   6
BRANCH   5  16
HETATM   16  C17 UNL     1      38.247   9.411   9.914  1.00  0.00     0.009 C 
HETATM   17  C18 UNL     1      38.401  10.319   8.728  1.00  0.00     0.012 C 
HETATM   18  C19 UNL     1      39.424   9.514  10.864  1.00  0.00     0.012 C 
ENDBRANCH   5  16
ENDBRANCH   3   5
BRANCH   1  19
HETATM   19  C6  UNL     1      36.440   9.203  14.484  1.00  0.00     0.086 C 
BRANCH  19  20
HETATM   20  C5  UNL     1      37.824   9.322  15.049  1.00  0.00     0.014 C 
BRANCH  20  21
HETATM   21  C4  UNL     1      38.514   8.043  15.290  1.00  0.00     0.001 C 
BRANCH  21  22
HETATM   22  C3  UNL     1      39.462   7.655  14.192  1.00  0.00    -0.000 C 
BRANCH  22  23
HETATM   23  C2  UNL     1      39.084   6.332  13.610  1.00  0.00    -0.005 C 
HETATM   24  C1  UNL     1      38.750   5.419  14.782  1.00  0.00     0.005 C 
ENDBRANCH  22  23
ENDBRANCH  21  22
ENDBRANCH  20  21
ENDBRANCH  19  20
BRANCH  19  25
HETATM   25  C7  UNL     1      35.803   7.874  14.555  1.00  0.00     0.119 C 
BRANCH  25  26
HETATM   26  C8  UNL     1      34.797   7.787  15.621  1.00  0.00     0.241 C 
HETATM   27  O1  UNL     1      34.517   8.733  16.398  1.00  0.00    -0.271 OA
HETATM   28  N1  UNL     1      34.095   6.550  15.781  1.00  0.00    -0.237 N 
ATOM     29  H1  UNL     1      34.288   5.755  15.173  1.00  0.00     0.197 HD
BRANCH  28  30
HETATM   30  O2  UNL     1      33.172   6.467  16.757  1.00  0.00    -0.287 OA
ATOM     31  H2  UNL     1      33.297   5.816  17.437  1.00  0.00     0.244 HD
ENDBRANCH  28  30
ENDBRANCH  25  26
ENDBRANCH  19  25
ENDBRANCH   1  19
TORSDOF 13
ENDMDL
