MODEL 10
REMARK VINA RESULT: -7.237155131      2.086      4.500
REMARK  13 active torsions:
REMARK  status: ('A' for Active; 'I' for Inactive)
REMARK    1  A    between atoms: C2_2  and  C3_3 
REMARK    2  A    between atoms: C3_3  and  C4_4 
REMARK    3  A    between atoms: C4_4  and  C5_5 
REMARK    4  A    between atoms: C5_5  and  C6_6 
REMARK    5  A    between atoms: C6_6  and  C7_7 
REMARK    6  A    between atoms: C6_6  and  C9_14 
REMARK    7  A    between atoms: C7_7  and  C8_8 
REMARK       I    between atoms: C8_8  and  N1_10 
REMARK    8  A    between atoms: N1_10  and  O2_12 
REMARK       I    between atoms: C9_14  and  N2_16 
REMARK    9  A    between atoms: N2_16  and  C10_18 
REMARK   10  A    between atoms: C10_18  and  C11_19 
REMARK   11  A    between atoms: C10_18  and  C17_29 
REMARK       I    between atoms: C11_19  and  N3_21 
REMARK   12  A    between atoms: C15_25  and  C16_26 
REMARK   13  A    between atoms: C16_26  and  O5_27 
ROOT
HETATM    1  C9  UNL     1      36.553   8.925  10.781  1.00  0.00     0.223 C 
HETATM    2  O3  UNL     1      35.789   7.925  10.855  1.00  0.00    -0.273 OA
HETATM    3  N2  UNL     1      37.774   8.836  11.511  1.00  0.00    -0.347 N 
ATOM      4  H2  UNL     1      38.436   9.612  11.491  1.00  0.00     0.163 HD
ENDROOT
BRANCH   3   5
HETATM    5  C10 UNL     1      38.077   7.636  12.290  1.00  0.00     0.180 C 
BRANCH   5   6
HETATM    6  C11 UNL     1      38.153   7.930  13.732  1.00  0.00     0.243 C 
HETATM    7  O4  UNL     1      39.350   8.084  14.194  1.00  0.00    -0.271 OA
HETATM    8  N3  UNL     1      37.048   8.048  14.593  1.00  0.00    -0.344 N 
HETATM    9  C12 UNL     1      37.131   8.276  16.045  1.00  0.00     0.126 C 
HETATM   10  C15 UNL     1      35.638   8.026  14.333  1.00  0.00     0.111 C 
HETATM   11  C13 UNL     1      35.970   7.460  16.578  1.00  0.00     0.022 C 
HETATM   12  C14 UNL     1      35.112   7.069  15.390  1.00  0.00     0.029 C 
BRANCH  10  13
HETATM   13  C16 UNL     1      35.004   9.386  14.710  1.00  0.00     0.189 C 
BRANCH  13  14
HETATM   14  O5  UNL     1      34.309   9.938  13.660  1.00  0.00    -0.399 OA
ATOM     15  H5  UNL     1      33.584   9.389  13.387  1.00  0.00     0.209 HD
ENDBRANCH  13  14
ENDBRANCH  10  13
ENDBRANCH   5   6
BRANCH   5  16
HETATM   16  C17 UNL     1      39.415   7.074  11.816  1.00  0.00     0.009 C 
HETATM   17  C18 UNL     1      39.291   5.631  11.421  1.00  0.00     0.012 C 
HETATM   18  C19 UNL     1      39.955   7.927  10.685  1.00  0.00     0.012 C 
ENDBRANCH   5  16
ENDBRANCH   3   5
BRANCH   1  19
HETATM   19  C6  UNL     1      36.144  10.078   9.973  1.00  0.00     0.086 C 
BRANCH  19  20
HETATM   20  C5  UNL     1      36.924  10.100   8.692  1.00  0.00     0.014 C 
BRANCH  20  21
HETATM   21  C4  UNL     1      36.111  10.131   7.463  1.00  0.00     0.001 C 
BRANCH  21  22
HETATM   22  C3  UNL     1      34.940   9.193   7.494  1.00  0.00    -0.000 C 
BRANCH  22  23
HETATM   23  C2  UNL     1      33.751   9.809   6.829  1.00  0.00    -0.005 C 
HETATM   24  C1  UNL     1      33.513  11.147   7.514  1.00  0.00     0.005 C 
ENDBRANCH  22  23
ENDBRANCH  21  22
ENDBRANCH  20  21
ENDBRANCH  19  20
BRANCH  19  25
HETATM   25  C7  UNL     1      36.149  11.316  10.776  1.00  0.00     0.119 C 
BRANCH  25  26
HETATM   26  C8  UNL     1      34.843  11.987  10.786  1.00  0.00     0.241 C 
HETATM   27  O1  UNL     1      34.680  13.204  10.526  1.00  0.00    -0.271 OA
HETATM   28  N1  UNL     1      33.689  11.205  11.112  1.00  0.00    -0.237 N 
ATOM     29  H1  UNL     1      33.773  10.212  11.329  1.00  0.00     0.197 HD
BRANCH  28  30
HETATM   30  O2  UNL     1      32.491  11.816  11.122  1.00  0.00    -0.287 OA
ATOM     31  H2  UNL     1      31.961  11.750  11.908  1.00  0.00     0.244 HD
ENDBRANCH  28  30
ENDBRANCH  25  26
ENDBRANCH  19  25
ENDBRANCH   1  19
TORSDOF 13
ENDMDL
