MODEL 11
REMARK VINA RESULT: -8.981085574      3.336      4.837
REMARK  9 active torsions:
REMARK  status: ('A' for Active; 'I' for Inactive)
REMARK    1  A    between atoms: O1_2  and  C2_3 
REMARK    2  A    between atoms: C2_3  and  C3_4 
REMARK    3  A    between atoms: C2_3  and  C24_30 
REMARK    4  A    between atoms: C3_4  and  C4_5 
REMARK    5  A    between atoms: C7_8  and  O2_9 
REMARK    6  A    between atoms: O2_9  and  C8_10 
REMARK    7  A    between atoms: C8_10  and  C9_11 
REMARK    8  A    between atoms: C9_11  and  C10_12 
REMARK    9  A    between atoms: C11_15  and  C12_16 
ROOT
HETATM    1  C4  UNL     1       3.132  28.321  20.610  1.00  0.00    -0.037 A 
HETATM    2  C5  UNL     1       2.975  26.935  20.671  1.00  0.00     0.011 A 
HETATM    3  C6  UNL     1       4.072  26.173  20.351  1.00  0.00     0.038 A 
HETATM    4  C7  UNL     1       5.275  26.675  19.987  1.00  0.00     0.080 A 
HETATM    5  C20 UNL     1       5.451  28.088  19.921  1.00  0.00     0.015 A 
HETATM    6  C21 UNL     1       6.581  28.760  19.595  1.00  0.00     0.023 A 
HETATM    7  C22 UNL     1       6.536  30.126  19.614  1.00  0.00     0.051 A 
HETATM    8  S1  UNL     1       4.935  30.450  20.079  1.00  0.00    -0.101 SA
HETATM    9  C23 UNL     1       4.350  28.841  20.241  1.00  0.00     0.024 A 
ENDROOT
BRANCH   4  10
HETATM   10  O2  UNL     1       6.314  25.900  19.682  1.00  0.00    -0.350 OA
BRANCH  10  11
HETATM   11  C8  UNL     1       6.766  25.039  18.749  1.00  0.00     0.181 C 
BRANCH  11  12
HETATM   12  C9  UNL     1       5.718  24.583  17.813  1.00  0.00     0.086 C 
BRANCH  12  13
HETATM   13  C10 UNL     1       6.197  23.603  16.804  1.00  0.00     0.043 A 
HETATM   14  N1  UNL     1       6.356  23.939  15.511  1.00  0.00    -0.337 N 
HETATM   15  C11 UNL     1       6.788  22.870  14.820  1.00  0.00     0.158 A 
ATOM     16  H1  UNL     1       6.176  24.863  15.116  1.00  0.00     0.168 HD
HETATM   17  O3  UNL     1       6.886  21.904  15.694  1.00  0.00    -0.296 OA
HETATM   18  C18 UNL     1       6.542  22.297  16.897  1.00  0.00     0.074 A 
HETATM   19  C19 UNL     1       6.514  21.511  18.159  1.00  0.00     0.079 C 
BRANCH  15  20
HETATM   20  C12 UNL     1       7.088  22.806  13.371  1.00  0.00     0.015 A 
HETATM   21  C13 UNL     1       7.381  23.920  12.649  1.00  0.00     0.016 A 
HETATM   22  C14 UNL     1       7.645  23.791  11.299  1.00  0.00     0.001 A 
HETATM   23  C15 UNL     1       7.610  22.551  10.698  1.00  0.00     0.000 A 
HETATM   24  C16 UNL     1       7.317  21.410  11.404  1.00  0.00     0.001 A 
HETATM   25  C17 UNL     1       7.055  21.568  12.767  1.00  0.00     0.016 A 
ENDBRANCH  15  20
ENDBRANCH  12  13
ENDBRANCH  11  12
ENDBRANCH  10  11
ENDBRANCH   4  10
BRANCH   1  26
HETATM   26  C3  UNL     1       1.985  29.164  20.903  1.00  0.00     0.083 C 
BRANCH  26  27
HETATM   27  C2  UNL     1       0.954  29.148  19.805  1.00  0.00     0.225 C 
BRANCH  27  28
HETATM   28  O1  UNL     1       1.500  29.937  18.781  1.00  0.00    -0.380 OA
HETATM   29  C1  UNL     1       0.741  29.951  17.634  1.00  0.00     0.202 C 
ENDBRANCH  27  28
BRANCH  27  30
HETATM   30  C24 UNL     1      -0.362  29.534  20.259  1.00  0.00     0.203 C 
HETATM   31  O4  UNL     1      -0.525  30.613  20.909  1.00  0.00    -0.646 OA
HETATM   32  O5  UNL     1      -1.489  28.771  20.017  1.00  0.00    -0.646 OA
ENDBRANCH  27  30
ENDBRANCH  26  27
ENDBRANCH   1  26
TORSDOF 9
ENDMDL
