MODEL 8
REMARK VINA RESULT: -9.127829405      2.501      3.967
REMARK  9 active torsions:
REMARK  status: ('A' for Active; 'I' for Inactive)
REMARK    1  A    between atoms: O1_2  and  C2_3 
REMARK    2  A    between atoms: C2_3  and  C3_4 
REMARK    3  A    between atoms: C2_3  and  C24_30 
REMARK    4  A    between atoms: C3_4  and  C4_5 
REMARK    5  A    between atoms: C7_8  and  O2_9 
REMARK    6  A    between atoms: O2_9  and  C8_10 
REMARK    7  A    between atoms: C8_10  and  C9_11 
REMARK    8  A    between atoms: C9_11  and  C10_12 
REMARK    9  A    between atoms: C11_15  and  C12_16 
ROOT
HETATM    1  C4  UNL     1       3.123  28.684  20.495  1.00  0.00    -0.037 A 
HETATM    2  C5  UNL     1       3.086  27.290  20.560  1.00  0.00     0.011 A 
HETATM    3  C6  UNL     1       4.256  26.625  20.284  1.00  0.00     0.038 A 
HETATM    4  C7  UNL     1       5.422  27.228  19.958  1.00  0.00     0.080 A 
HETATM    5  C20 UNL     1       5.477  28.651  19.887  1.00  0.00     0.015 A 
HETATM    6  C21 UNL     1       6.554  29.418  19.596  1.00  0.00     0.023 A 
HETATM    7  C22 UNL     1       6.390  30.775  19.602  1.00  0.00     0.051 A 
HETATM    8  S1  UNL     1       4.752  30.960  20.009  1.00  0.00    -0.101 SA
HETATM    9  C23 UNL     1       4.304  29.307  20.164  1.00  0.00     0.024 A 
ENDROOT
BRANCH   4  10
HETATM   10  O2  UNL     1       6.535  26.546  19.695  1.00  0.00    -0.350 OA
BRANCH  10  11
HETATM   11  C8  UNL     1       7.167  25.872  18.714  1.00  0.00     0.181 C 
BRANCH  11  12
HETATM   12  C9  UNL     1       8.135  24.874  19.214  1.00  0.00     0.086 C 
BRANCH  12  13
HETATM   13  C10 UNL     1       7.569  23.936  20.217  1.00  0.00     0.043 A 
HETATM   14  N1  UNL     1       7.186  24.352  21.438  1.00  0.00    -0.337 N 
HETATM   15  C11 UNL     1       6.722  23.306  22.143  1.00  0.00     0.158 A 
ATOM     16  H1  UNL     1       7.241  25.313  21.777  1.00  0.00     0.168 HD
HETATM   17  O3  UNL     1       6.827  22.274  21.349  1.00  0.00    -0.296 OA
HETATM   18  C18 UNL     1       7.329  22.604  20.183  1.00  0.00     0.074 A 
HETATM   19  C19 UNL     1       7.607  21.733  19.010  1.00  0.00     0.079 C 
BRANCH  15  20
HETATM   20  C12 UNL     1       6.203  23.324  23.530  1.00  0.00     0.015 A 
HETATM   21  C13 UNL     1       6.810  22.635  24.532  1.00  0.00     0.016 A 
HETATM   22  C14 UNL     1       6.271  22.690  25.803  1.00  0.00     0.001 A 
HETATM   23  C15 UNL     1       5.136  23.432  26.046  1.00  0.00     0.000 A 
HETATM   24  C16 UNL     1       4.502  24.138  25.052  1.00  0.00     0.001 A 
HETATM   25  C17 UNL     1       5.068  24.066  23.776  1.00  0.00     0.016 A 
ENDBRANCH  15  20
ENDBRANCH  12  13
ENDBRANCH  11  12
ENDBRANCH  10  11
ENDBRANCH   4  10
BRANCH   1  26
HETATM   26  C3  UNL     1       1.898  29.425  20.741  1.00  0.00     0.083 C 
BRANCH  26  27
HETATM   27  C2  UNL     1       0.784  29.039  19.804  1.00  0.00     0.225 C 
BRANCH  27  28
HETATM   28  O1  UNL     1       1.204  29.475  18.539  1.00  0.00    -0.380 OA
HETATM   29  C1  UNL     1       0.237  29.357  17.567  1.00  0.00     0.202 C 
ENDBRANCH  27  28
BRANCH  27  30
HETATM   30  C24 UNL     1      -0.509  29.517  20.235  1.00  0.00     0.203 C 
HETATM   31  O4  UNL     1      -0.618  30.653  20.792  1.00  0.00    -0.646 OA
HETATM   32  O5  UNL     1      -1.671  28.786  20.067  1.00  0.00    -0.646 OA
ENDBRANCH  27  30
ENDBRANCH  26  27
ENDBRANCH   1  26
TORSDOF 9
ENDMDL
