MODEL 13
REMARK VINA RESULT: -8.859032469      2.536      7.652
REMARK  9 active torsions:
REMARK  status: ('A' for Active; 'I' for Inactive)
REMARK    1  A    between atoms: O1_2  and  C2_3 
REMARK    2  A    between atoms: C2_3  and  C3_4 
REMARK    3  A    between atoms: C2_3  and  C24_30 
REMARK    4  A    between atoms: C3_4  and  C4_5 
REMARK    5  A    between atoms: C7_8  and  O2_9 
REMARK    6  A    between atoms: O2_9  and  C8_10 
REMARK    7  A    between atoms: C8_10  and  C9_11 
REMARK    8  A    between atoms: C9_11  and  C10_12 
REMARK    9  A    between atoms: C11_15  and  C12_16 
ROOT
HETATM    1  C4  UNL     1       5.929  26.219  19.674  1.00  0.00    -0.037 A 
HETATM    2  C5  UNL     1       6.981  27.070  19.333  1.00  0.00     0.011 A 
HETATM    3  C6  UNL     1       6.795  28.411  19.566  1.00  0.00     0.038 A 
HETATM    4  C7  UNL     1       5.672  28.948  20.097  1.00  0.00     0.080 A 
HETATM    5  C20 UNL     1       4.588  28.092  20.451  1.00  0.00     0.015 A 
HETATM    6  C21 UNL     1       3.406  28.451  21.005  1.00  0.00     0.023 A 
HETATM    7  C22 UNL     1       2.508  27.459  21.284  1.00  0.00     0.051 A 
HETATM    8  S1  UNL     1       3.316  26.056  20.775  1.00  0.00    -0.101 SA
HETATM    9  C23 UNL     1       4.783  26.755  20.214  1.00  0.00     0.024 A 
ENDROOT
BRANCH   4  10
HETATM   10  O2  UNL     1       5.530  30.255  20.305  1.00  0.00    -0.350 OA
BRANCH  10  11
HETATM   11  C8  UNL     1       5.260  31.414  19.671  1.00  0.00     0.181 C 
BRANCH  11  12
HETATM   12  C9  UNL     1       5.213  31.283  18.200  1.00  0.00     0.086 C 
BRANCH  12  13
HETATM   13  C10 UNL     1       3.852  31.035  17.660  1.00  0.00     0.043 A 
HETATM   14  N1  UNL     1       2.814  30.740  18.465  1.00  0.00    -0.337 N 
HETATM   15  C11 UNL     1       1.709  30.557  17.721  1.00  0.00     0.158 A 
ATOM     16  H1  UNL     1       2.860  30.667  19.481  1.00  0.00     0.168 HD
HETATM   17  O3  UNL     1       2.085  30.740  16.483  1.00  0.00    -0.296 OA
HETATM   18  C18 UNL     1       3.361  31.030  16.398  1.00  0.00     0.074 A 
HETATM   19  C19 UNL     1       4.173  31.308  15.183  1.00  0.00     0.079 C 
BRANCH  15  20
HETATM   20  C12 UNL     1       0.353  30.216  18.208  1.00  0.00     0.015 A 
HETATM   21  C13 UNL     1       0.159  29.475  19.332  1.00  0.00     0.016 A 
HETATM   22  C14 UNL     1      -1.133  29.187  19.728  1.00  0.00     0.001 A 
HETATM   23  C15 UNL     1      -2.205  29.646  18.993  1.00  0.00     0.000 A 
HETATM   24  C16 UNL     1      -2.037  30.396  17.855  1.00  0.00     0.001 A 
HETATM   25  C17 UNL     1      -0.721  30.673  17.476  1.00  0.00     0.016 A 
ENDBRANCH  15  20
ENDBRANCH  12  13
ENDBRANCH  11  12
ENDBRANCH  10  11
ENDBRANCH   4  10
BRANCH   1  26
HETATM   26  C3  UNL     1       6.069  24.797  19.407  1.00  0.00     0.083 C 
BRANCH  26  27
HETATM   27  C2  UNL     1       7.250  24.186  20.114  1.00  0.00     0.225 C 
BRANCH  27  28
HETATM   28  O1  UNL     1       7.906  23.423  19.136  1.00  0.00    -0.380 OA
HETATM   29  C1  UNL     1       7.089  23.042  18.097  1.00  0.00     0.202 C 
ENDBRANCH  27  28
BRANCH  27  30
HETATM   30  C24 UNL     1       6.884  23.478  21.319  1.00  0.00     0.203 C 
HETATM   31  O4  UNL     1       7.168  22.247  21.451  1.00  0.00    -0.646 OA
HETATM   32  O5  UNL     1       6.223  24.085  22.371  1.00  0.00    -0.646 OA
ENDBRANCH  27  30
ENDBRANCH  26  27
ENDBRANCH   1  26
TORSDOF 9
ENDMDL
