MODEL 2
REMARK VINA RESULT: -9.560630065      2.555      3.720
REMARK  9 active torsions:
REMARK  status: ('A' for Active; 'I' for Inactive)
REMARK    1  A    between atoms: O1_2  and  C2_3 
REMARK    2  A    between atoms: C2_3  and  C3_4 
REMARK    3  A    between atoms: C2_3  and  C24_30 
REMARK    4  A    between atoms: C3_4  and  C4_5 
REMARK    5  A    between atoms: C7_8  and  O2_9 
REMARK    6  A    between atoms: O2_9  and  C8_10 
REMARK    7  A    between atoms: C8_10  and  C9_11 
REMARK    8  A    between atoms: C9_11  and  C10_12 
REMARK    9  A    between atoms: C11_15  and  C12_16 
ROOT
HETATM    1  C4  UNL     1       2.424  28.820  20.556  1.00  0.00    -0.037 A 
HETATM    2  C5  UNL     1       2.233  27.474  20.876  1.00  0.00     0.011 A 
HETATM    3  C6  UNL     1       3.334  26.657  20.805  1.00  0.00     0.038 A 
HETATM    4  C7  UNL     1       4.573  27.070  20.450  1.00  0.00     0.080 A 
HETATM    5  C20 UNL     1       4.785  28.441  20.121  1.00  0.00     0.015 A 
HETATM    6  C21 UNL     1       5.952  29.029  19.764  1.00  0.00     0.023 A 
HETATM    7  C22 UNL     1       5.936  30.371  19.509  1.00  0.00     0.051 A 
HETATM    8  S1  UNL     1       4.311  30.790  19.767  1.00  0.00    -0.101 SA
HETATM    9  C23 UNL     1       3.679  29.249  20.194  1.00  0.00     0.024 A 
ENDROOT
BRANCH   4  10
HETATM   10  O2  UNL     1       5.616  26.244  20.391  1.00  0.00    -0.350 OA
BRANCH  10  11
HETATM   11  C8  UNL     1       6.225  25.349  19.588  1.00  0.00     0.181 C 
BRANCH  11  12
HETATM   12  C9  UNL     1       7.589  25.751  19.185  1.00  0.00     0.086 C 
BRANCH  12  13
HETATM   13  C10 UNL     1       7.790  25.809  17.715  1.00  0.00     0.043 A 
HETATM   14  N1  UNL     1       7.384  24.814  16.905  1.00  0.00    -0.337 N 
HETATM   15  C11 UNL     1       7.696  25.117  15.633  1.00  0.00     0.158 A 
ATOM     16  H1  UNL     1       6.914  23.961  17.209  1.00  0.00     0.168 HD
HETATM   17  O3  UNL     1       8.283  26.283  15.683  1.00  0.00    -0.296 OA
HETATM   18  C18 UNL     1       8.362  26.737  16.911  1.00  0.00     0.074 A 
HETATM   19  C19 UNL     1       8.951  28.014  17.395  1.00  0.00     0.079 C 
BRANCH  15  20
HETATM   20  C12 UNL     1       7.429  24.296  14.429  1.00  0.00     0.015 A 
HETATM   21  C13 UNL     1       7.558  24.801  13.174  1.00  0.00     0.016 A 
HETATM   22  C14 UNL     1       7.288  23.983  12.093  1.00  0.00     0.001 A 
HETATM   23  C15 UNL     1       6.895  22.677  12.290  1.00  0.00     0.000 A 
HETATM   24  C16 UNL     1       6.758  22.141  13.548  1.00  0.00     0.001 A 
HETATM   25  C17 UNL     1       7.037  22.989  14.623  1.00  0.00     0.016 A 
ENDBRANCH  15  20
ENDBRANCH  12  13
ENDBRANCH  11  12
ENDBRANCH  10  11
ENDBRANCH   4  10
BRANCH   1  26
HETATM   26  C3  UNL     1       1.276  29.711  20.581  1.00  0.00     0.083 C 
BRANCH  26  27
HETATM   27  C2  UNL     1       0.339  29.487  19.424  1.00  0.00     0.225 C 
BRANCH  27  28
HETATM   28  O1  UNL     1       0.871  30.247  18.372  1.00  0.00    -0.380 OA
HETATM   29  C1  UNL     1       0.547  29.763  17.125  1.00  0.00     0.202 C 
ENDBRANCH  27  28
BRANCH  27  30
HETATM   30  C24 UNL     1      -1.041  29.753  19.754  1.00  0.00     0.203 C 
HETATM   31  O4  UNL     1      -1.763  28.845  20.270  1.00  0.00    -0.646 OA
HETATM   32  O5  UNL     1      -1.640  30.980  19.534  1.00  0.00    -0.646 OA
ENDBRANCH  27  30
ENDBRANCH  26  27
ENDBRANCH   1  26
TORSDOF 9
ENDMDL
