MODEL 15
REMARK VINA RESULT: -8.786334243      2.642      8.600
REMARK  9 active torsions:
REMARK  status: ('A' for Active; 'I' for Inactive)
REMARK    1  A    between atoms: O1_2  and  C2_3 
REMARK    2  A    between atoms: C2_3  and  C3_4 
REMARK    3  A    between atoms: C2_3  and  C24_30 
REMARK    4  A    between atoms: C3_4  and  C4_5 
REMARK    5  A    between atoms: C7_8  and  O2_9 
REMARK    6  A    between atoms: O2_9  and  C8_10 
REMARK    7  A    between atoms: C8_10  and  C9_11 
REMARK    8  A    between atoms: C9_11  and  C10_12 
REMARK    9  A    between atoms: C11_15  and  C12_16 
ROOT
HETATM    1  C4  UNL     1       7.452  24.842  18.994  1.00  0.00    -0.037 A 
HETATM    2  C5  UNL     1       6.492  25.034  19.989  1.00  0.00     0.011 A 
HETATM    3  C6  UNL     1       6.106  26.329  20.238  1.00  0.00     0.038 A 
HETATM    4  C7  UNL     1       6.593  27.411  19.589  1.00  0.00     0.080 A 
HETATM    5  C20 UNL     1       7.574  27.232  18.569  1.00  0.00     0.015 A 
HETATM    6  C21 UNL     1       8.154  28.193  17.810  1.00  0.00     0.023 A 
HETATM    7  C22 UNL     1       9.062  27.797  16.869  1.00  0.00     0.051 A 
HETATM    8  S1  UNL     1       9.095  26.110  17.055  1.00  0.00    -0.101 SA
HETATM    9  C23 UNL     1       7.952  25.936  18.328  1.00  0.00     0.024 A 
ENDROOT
BRANCH   4  10
HETATM   10  O2  UNL     1       6.195  28.652  19.862  1.00  0.00    -0.350 OA
BRANCH  10  11
HETATM   11  C8  UNL     1       5.118  29.462  19.815  1.00  0.00     0.181 C 
BRANCH  11  12
HETATM   12  C9  UNL     1       4.188  29.272  20.947  1.00  0.00     0.086 C 
BRANCH  12  13
HETATM   13  C10 UNL     1       2.831  28.825  20.543  1.00  0.00     0.043 A 
HETATM   14  N1  UNL     1       1.958  29.660  19.949  1.00  0.00    -0.337 N 
HETATM   15  C11 UNL     1       0.810  29.006  19.700  1.00  0.00     0.158 A 
ATOM     16  H1  UNL     1       2.139  30.639  19.724  1.00  0.00     0.168 HD
HETATM   17  O3  UNL     1       0.997  27.790  20.142  1.00  0.00    -0.296 OA
HETATM   18  C18 UNL     1       2.194  27.635  20.655  1.00  0.00     0.074 A 
HETATM   19  C19 UNL     1       2.796  26.417  21.259  1.00  0.00     0.079 C 
BRANCH  15  20
HETATM   20  C12 UNL     1      -0.408  29.553  19.060  1.00  0.00     0.015 A 
HETATM   21  C13 UNL     1      -1.632  29.450  19.643  1.00  0.00     0.016 A 
HETATM   22  C14 UNL     1      -2.730  29.977  18.990  1.00  0.00     0.001 A 
HETATM   23  C15 UNL     1      -2.581  30.597  17.768  1.00  0.00     0.000 A 
HETATM   24  C16 UNL     1      -1.356  30.716  17.157  1.00  0.00     0.001 A 
HETATM   25  C17 UNL     1      -0.263  30.174  17.839  1.00  0.00     0.016 A 
ENDBRANCH  15  20
ENDBRANCH  12  13
ENDBRANCH  11  12
ENDBRANCH  10  11
ENDBRANCH   4  10
BRANCH   1  26
HETATM   26  C3  UNL     1       7.916  23.491  18.725  1.00  0.00     0.083 C 
BRANCH  26  27
HETATM   27  C2  UNL     1       6.786  22.518  18.513  1.00  0.00     0.225 C 
BRANCH  27  28
HETATM   28  O1  UNL     1       7.189  21.344  19.165  1.00  0.00    -0.380 OA
HETATM   29  C1  UNL     1       7.539  21.538  20.481  1.00  0.00     0.202 C 
ENDBRANCH  27  28
BRANCH  27  30
HETATM   30  C24 UNL     1       6.421  22.370  17.123  1.00  0.00     0.203 C 
HETATM   31  O4  UNL     1       6.587  21.258  16.532  1.00  0.00    -0.646 OA
HETATM   32  O5  UNL     1       5.883  23.403  16.377  1.00  0.00    -0.646 OA
ENDBRANCH  27  30
ENDBRANCH  26  27
ENDBRANCH   1  26
TORSDOF 9
ENDMDL
