MODEL 2
REMARK VINA RESULT: -6.974042710      0.875      1.147
REMARK  11 active torsions:
REMARK  status: ('A' for Active; 'I' for Inactive)
REMARK    1  A    between atoms: O1_1  and  C1_3 
REMARK    2  A    between atoms: C1_3  and  C2_4 
REMARK    3  A    between atoms: C2_4  and  O2_5 
REMARK    4  A    between atoms: C2_4  and  C3_7 
REMARK    5  A    between atoms: C3_7  and  O3_8 
REMARK    6  A    between atoms: O3_8  and  C4_9 
REMARK    7  A    between atoms: C5_11  and  C6_12 
REMARK    8  A    between atoms: C6_12  and  O5_13 
REMARK    9  A    between atoms: C7_15  and  O6_16 
REMARK   10  A    between atoms: C8_18  and  O7_19 
REMARK   11  A    between atoms: C9_21  and  O8_22 
ROOT
HETATM    1  C4  UNL     1      -0.905  -4.332   2.377  1.00  0.00     0.291 C 
HETATM    2  O4  UNL     1      -1.839  -3.435   2.820  1.00  0.00    -0.348 OA
HETATM    3  C5  UNL     1      -1.435  -2.521   3.737  1.00  0.00     0.179 C 
HETATM    4  C7  UNL     1      -0.773  -3.105   4.962  1.00  0.00     0.180 C 
HETATM    5  C8  UNL     1      -0.526  -4.603   4.763  1.00  0.00     0.183 C 
HETATM    6  C9  UNL     1       0.133  -4.708   3.402  1.00  0.00     0.204 C 
ENDROOT
BRANCH   1   7
HETATM    7  O3  UNL     1      -0.234  -3.915   1.231  1.00  0.00    -0.356 OA
BRANCH   7   8
HETATM    8  C3  UNL     1      -1.043  -4.038   0.107  1.00  0.00     0.205 C 
BRANCH   8   9
HETATM    9  C2  UNL     1      -0.260  -4.663  -1.027  1.00  0.00     0.165 C 
BRANCH   9  10
HETATM   10  C1  UNL     1       0.920  -3.827  -1.434  1.00  0.00     0.198 C 
BRANCH  10  11
HETATM   11  O1  UNL     1       2.129  -4.368  -1.009  1.00  0.00    -0.398 OA
ATOM     12  H1  UNL     1       2.498  -4.974  -1.639  1.00  0.00     0.209 HD
ENDBRANCH  10  11
ENDBRANCH   9  10
BRANCH   9  13
HETATM   13  O2  UNL     1       0.171  -5.921  -0.572  1.00  0.00    -0.391 OA
ATOM     14  H2  UNL     1       0.721  -5.820   0.196  1.00  0.00     0.210 HD
ENDBRANCH   9  13
ENDBRANCH   8   9
ENDBRANCH   7   8
ENDBRANCH   1   7
BRANCH   6  15
HETATM   15  O8  UNL     1       0.473  -6.072   3.246  1.00  0.00    -0.388 OA
ATOM     16  H8  UNL     1       0.998  -6.352   3.986  1.00  0.00     0.210 HD
ENDBRANCH   6  15
BRANCH   3  17
HETATM   17  C6  UNL     1      -0.535  -1.430   3.160  1.00  0.00     0.198 C 
BRANCH  17  18
HETATM   18  O5  UNL     1      -0.695  -0.238   3.866  1.00  0.00    -0.398 OA
ATOM     19  H5  UNL     1       0.150   0.135   4.086  1.00  0.00     0.209 HD
ENDBRANCH  17  18
ENDBRANCH   3  17
BRANCH   5  20
HETATM   20  O7  UNL     1       0.283  -5.077   5.782  1.00  0.00    -0.390 OA
ATOM     21  H7  UNL     1       0.392  -6.017   5.689  1.00  0.00     0.210 HD
ENDBRANCH   5  20
BRANCH   4  22
HETATM   22  O6  UNL     1       0.485  -2.529   5.167  1.00  0.00    -0.390 OA
ATOM     23  H6  UNL     1       0.833  -2.774   6.016  1.00  0.00     0.210 HD
ENDBRANCH   4  22
TORSDOF 11
ENDMDL
