MODEL 1
REMARK VINA RESULT: -7.507677861      0.000      0.000
REMARK  11 active torsions:
REMARK  status: ('A' for Active; 'I' for Inactive)
REMARK    1  A    between atoms: O1_1  and  C1_3 
REMARK    2  A    between atoms: C1_3  and  C2_4 
REMARK    3  A    between atoms: C2_4  and  O2_5 
REMARK    4  A    between atoms: C2_4  and  C3_7 
REMARK    5  A    between atoms: C3_7  and  O3_8 
REMARK    6  A    between atoms: O3_8  and  C4_9 
REMARK    7  A    between atoms: C5_11  and  C6_12 
REMARK    8  A    between atoms: C6_12  and  O5_13 
REMARK    9  A    between atoms: C7_15  and  O6_16 
REMARK   10  A    between atoms: C8_18  and  O7_19 
REMARK   11  A    between atoms: C9_21  and  O8_22 
ROOT
HETATM    1  C4  UNL     1      -0.892  -4.323   2.150  1.00  0.00     0.291 C 
HETATM    2  O4  UNL     1      -1.843  -3.444   2.593  1.00  0.00    -0.348 OA
HETATM    3  C5  UNL     1      -1.478  -2.575   3.569  1.00  0.00     0.179 C 
HETATM    4  C7  UNL     1      -0.870  -3.219   4.792  1.00  0.00     0.180 C 
HETATM    5  C8  UNL     1      -0.618  -4.707   4.534  1.00  0.00     0.183 C 
HETATM    6  C9  UNL     1       0.099  -4.751   3.200  1.00  0.00     0.204 C 
ENDROOT
BRANCH   1   7
HETATM    7  O3  UNL     1      -0.172  -3.855   1.054  1.00  0.00    -0.356 OA
BRANCH   7   8
HETATM    8  C3  UNL     1      -0.775  -4.235  -0.139  1.00  0.00     0.205 C 
BRANCH   8   9
HETATM    9  C2  UNL     1       0.280  -4.618  -1.153  1.00  0.00     0.165 C 
BRANCH   9  10
HETATM   10  C1  UNL     1      -0.016  -4.067  -2.520  1.00  0.00     0.198 C 
BRANCH  10  11
HETATM   11  O1  UNL     1      -0.831  -4.908  -3.270  1.00  0.00    -0.398 OA
ATOM     12  H1  UNL     1      -1.755  -4.758  -3.110  1.00  0.00     0.209 HD
ENDBRANCH  10  11
ENDBRANCH   9  10
BRANCH   9  13
HETATM   13  O2  UNL     1       1.499  -4.105  -0.678  1.00  0.00    -0.391 OA
ATOM     14  H2  UNL     1       1.698  -4.473   0.175  1.00  0.00     0.210 HD
ENDBRANCH   9  13
ENDBRANCH   8   9
ENDBRANCH   7   8
ENDBRANCH   1   7
BRANCH   6  15
HETATM   15  O8  UNL     1       0.443  -6.107   2.994  1.00  0.00    -0.388 OA
ATOM     16  H8  UNL     1       1.068  -6.377   3.656  1.00  0.00     0.210 HD
ENDBRANCH   6  15
BRANCH   3  17
HETATM   17  C6  UNL     1      -0.551  -1.462   3.083  1.00  0.00     0.198 C 
BRANCH  17  18
HETATM   18  O5  UNL     1      -0.703  -0.320   3.869  1.00  0.00    -0.398 OA
ATOM     19  H5  UNL     1      -0.124   0.370   3.569  1.00  0.00     0.209 HD
ENDBRANCH  17  18
ENDBRANCH   3  17
BRANCH   5  20
HETATM   20  O7  UNL     1       0.145  -5.232   5.564  1.00  0.00    -0.390 OA
ATOM     21  H7  UNL     1       0.171  -6.179   5.488  1.00  0.00     0.210 HD
ENDBRANCH   5  20
BRANCH   4  22
HETATM   22  O6  UNL     1       0.379  -2.659   5.078  1.00  0.00    -0.390 OA
ATOM     23  H6  UNL     1       0.914  -3.266   5.576  1.00  0.00     0.210 HD
ENDBRANCH   4  22
TORSDOF 11
ENDMDL
