MODEL 15
REMARK VINA RESULT: -3.341885714      1.230      1.384
REMARK  11 active torsions:
REMARK  status: ('A' for Active; 'I' for Inactive)
REMARK    1  A    between atoms: O1_1  and  C1_3 
REMARK    2  A    between atoms: C1_3  and  C2_4 
REMARK    3  A    between atoms: C2_4  and  O2_5 
REMARK    4  A    between atoms: C2_4  and  C3_7 
REMARK    5  A    between atoms: C3_7  and  O3_8 
REMARK    6  A    between atoms: O3_8  and  C4_9 
REMARK    7  A    between atoms: C5_11  and  C6_12 
REMARK    8  A    between atoms: C6_12  and  O5_13 
REMARK    9  A    between atoms: C7_15  and  O6_16 
REMARK   10  A    between atoms: C8_18  and  O7_19 
REMARK   11  A    between atoms: C9_21  and  O8_22 
ROOT
HETATM    1  C4  UNL     1       0.118  -4.211   2.095  1.00  0.00     0.291 C 
HETATM    2  O4  UNL     1      -0.817  -3.222   2.247  1.00  0.00    -0.348 OA
HETATM    3  C5  UNL     1      -0.785  -2.510   3.401  1.00  0.00     0.179 C 
HETATM    4  C7  UNL     1      -0.820  -3.345   4.659  1.00  0.00     0.180 C 
HETATM    5  C8  UNL     1      -0.666  -4.828   4.312  1.00  0.00     0.183 C 
HETATM    6  C9  UNL     1       0.527  -4.884   3.379  1.00  0.00     0.204 C 
ENDROOT
BRANCH   1   7
HETATM    7  O3  UNL     1       1.277  -3.784   1.454  1.00  0.00    -0.356 OA
BRANCH   7   8
HETATM    8  C3  UNL     1       1.182  -3.964   0.079  1.00  0.00     0.205 C 
BRANCH   8   9
HETATM    9  C2  UNL     1       0.021  -4.881  -0.243  1.00  0.00     0.165 C 
BRANCH   9  10
HETATM   10  C1  UNL     1      -1.037  -4.195  -1.059  1.00  0.00     0.198 C 
BRANCH  10  11
HETATM   11  O1  UNL     1      -1.677  -3.178  -0.357  1.00  0.00    -0.398 OA
ATOM     12  H1  UNL     1      -2.391  -2.789  -0.849  1.00  0.00     0.209 HD
ENDBRANCH  10  11
ENDBRANCH   9  10
BRANCH   9  13
HETATM   13  O2  UNL     1       0.555  -5.968  -0.957  1.00  0.00    -0.391 OA
ATOM     14  H2  UNL     1      -0.140  -6.444  -1.394  1.00  0.00     0.210 HD
ENDBRANCH   9  13
ENDBRANCH   8   9
ENDBRANCH   7   8
ENDBRANCH   1   7
BRANCH   6  15
HETATM   15  O8  UNL     1       0.758  -6.257   3.135  1.00  0.00    -0.388 OA
ATOM     16  H8  UNL     1       0.338  -6.772   3.814  1.00  0.00     0.210 HD
ENDBRANCH   6  15
BRANCH   3  17
HETATM   17  C6  UNL     1       0.387  -1.534   3.486  1.00  0.00     0.198 C 
BRANCH  17  18
HETATM   18  O5  UNL     1      -0.037  -0.302   3.982  1.00  0.00    -0.398 OA
ATOM     19  H5  UNL     1      -0.745   0.045   3.451  1.00  0.00     0.209 HD
ENDBRANCH  17  18
ENDBRANCH   3  17
BRANCH   5  20
HETATM   20  O7  UNL     1      -0.467  -5.555   5.473  1.00  0.00    -0.390 OA
ATOM     21  H7  UNL     1      -1.256  -6.041   5.682  1.00  0.00     0.210 HD
ENDBRANCH   5  20
BRANCH   4  22
HETATM   22  O6  UNL     1       0.257  -3.028   5.493  1.00  0.00    -0.390 OA
ATOM     23  H6  UNL     1       0.967  -2.642   4.994  1.00  0.00     0.210 HD
ENDBRANCH   4  22
TORSDOF 11
ENDMDL
