MODEL 8
REMARK VINA RESULT: -5.419372336      2.425      6.299
REMARK  11 active torsions:
REMARK  status: ('A' for Active; 'I' for Inactive)
REMARK    1  A    between atoms: O1_1  and  C1_3 
REMARK    2  A    between atoms: C1_3  and  C2_4 
REMARK    3  A    between atoms: C2_4  and  O2_5 
REMARK    4  A    between atoms: C2_4  and  C3_7 
REMARK    5  A    between atoms: C3_7  and  O3_8 
REMARK    6  A    between atoms: O3_8  and  C4_9 
REMARK    7  A    between atoms: C5_11  and  C6_12 
REMARK    8  A    between atoms: C6_12  and  O5_13 
REMARK    9  A    between atoms: C7_15  and  O6_16 
REMARK   10  A    between atoms: C8_18  and  O7_19 
REMARK   11  A    between atoms: C9_21  and  O8_22 
ROOT
HETATM    1  C4  UNL     1      -0.493  -2.971   5.179  1.00  0.00     0.291 C 
HETATM    2  O4  UNL     1      -1.056  -4.185   4.890  1.00  0.00    -0.348 OA
HETATM    3  C5  UNL     1      -0.917  -4.648   3.623  1.00  0.00     0.179 C 
HETATM    4  C7  UNL     1      -1.367  -3.688   2.547  1.00  0.00     0.180 C 
HETATM    5  C8  UNL     1      -1.679  -2.320   3.159  1.00  0.00     0.183 C 
HETATM    6  C9  UNL     1      -0.477  -2.002   4.026  1.00  0.00     0.204 C 
ENDROOT
BRANCH   1   7
HETATM    7  O3  UNL     1       0.806  -3.064   5.671  1.00  0.00    -0.356 OA
BRANCH   7   8
HETATM    8  C3  UNL     1       0.966  -4.210   6.440  1.00  0.00     0.205 C 
BRANCH   8   9
HETATM    9  C2  UNL     1       1.466  -3.841   7.820  1.00  0.00     0.165 C 
BRANCH   9  10
HETATM   10  C1  UNL     1       2.648  -4.669   8.239  1.00  0.00     0.198 C 
BRANCH  10  11
HETATM   11  O1  UNL     1       2.312  -5.999   8.472  1.00  0.00    -0.398 OA
ATOM     12  H1  UNL     1       2.844  -6.394   9.153  1.00  0.00     0.209 HD
ENDBRANCH  10  11
ENDBRANCH   9  10
BRANCH   9  13
HETATM   13  O2  UNL     1       1.821  -2.482   7.768  1.00  0.00    -0.391 OA
ATOM     14  H2  UNL     1       1.103  -1.944   8.079  1.00  0.00     0.210 HD
ENDBRANCH   9  13
ENDBRANCH   8   9
ENDBRANCH   7   8
ENDBRANCH   1   7
BRANCH   6  15
HETATM   15  O8  UNL     1      -0.692  -0.692   4.512  1.00  0.00    -0.388 OA
ATOM     16  H8  UNL     1      -1.576  -0.623   4.851  1.00  0.00     0.210 HD
ENDBRANCH   6  15
BRANCH   3  17
HETATM   17  C6  UNL     1       0.497  -5.128   3.298  1.00  0.00     0.198 C 
BRANCH  17  18
HETATM   18  O5  UNL     1       0.529  -6.518   3.193  1.00  0.00    -0.398 OA
ATOM     19  H5  UNL     1       0.891  -6.903   3.981  1.00  0.00     0.209 HD
ENDBRANCH  17  18
ENDBRANCH   3  17
BRANCH   5  20
HETATM   20  O7  UNL     1      -1.864  -1.393   2.147  1.00  0.00    -0.390 OA
ATOM     21  H7  UNL     1      -2.492  -0.738   2.428  1.00  0.00     0.210 HD
ENDBRANCH   5  20
BRANCH   4  22
HETATM   22  O6  UNL     1      -0.346  -3.473   1.617  1.00  0.00    -0.390 OA
ATOM     23  H6  UNL     1      -0.644  -2.907   0.914  1.00  0.00     0.210 HD
ENDBRANCH   4  22
TORSDOF 11
ENDMDL
