MODEL 3
REMARK VINA RESULT: -6.355077552      2.476      5.939
REMARK  11 active torsions:
REMARK  status: ('A' for Active; 'I' for Inactive)
REMARK    1  A    between atoms: O1_1  and  C1_3 
REMARK    2  A    between atoms: C1_3  and  C2_4 
REMARK    3  A    between atoms: C2_4  and  O2_5 
REMARK    4  A    between atoms: C2_4  and  C3_7 
REMARK    5  A    between atoms: C3_7  and  O3_8 
REMARK    6  A    between atoms: O3_8  and  C4_9 
REMARK    7  A    between atoms: C5_11  and  C6_12 
REMARK    8  A    between atoms: C6_12  and  O5_13 
REMARK    9  A    between atoms: C7_15  and  O6_16 
REMARK   10  A    between atoms: C8_18  and  O7_19 
REMARK   11  A    between atoms: C9_21  and  O8_22 
ROOT
HETATM    1  C4  UNL     1       0.582  -3.857   4.577  1.00  0.00     0.291 C 
HETATM    2  O4  UNL     1       0.705  -2.612   4.019  1.00  0.00    -0.348 OA
HETATM    3  C5  UNL     1      -0.418  -2.048   3.507  1.00  0.00     0.179 C 
HETATM    4  C7  UNL     1      -1.157  -2.907   2.508  1.00  0.00     0.180 C 
HETATM    5  C8  UNL     1      -0.558  -4.315   2.479  1.00  0.00     0.183 C 
HETATM    6  C9  UNL     1      -0.468  -4.726   3.935  1.00  0.00     0.204 C 
ENDROOT
BRANCH   1   7
HETATM    7  O3  UNL     1       0.328  -3.828   5.945  1.00  0.00    -0.356 OA
BRANCH   7   8
HETATM    8  C3  UNL     1       1.413  -3.311   6.643  1.00  0.00     0.205 C 
BRANCH   8   9
HETATM    9  C2  UNL     1       1.369  -3.772   8.084  1.00  0.00     0.165 C 
BRANCH   9  10
HETATM   10  C1  UNL     1       2.595  -4.550   8.471  1.00  0.00     0.198 C 
BRANCH  10  11
HETATM   11  O1  UNL     1       2.381  -5.924   8.457  1.00  0.00    -0.398 OA
ATOM     12  H1  UNL     1       1.602  -6.167   7.971  1.00  0.00     0.209 HD
ENDBRANCH  10  11
ENDBRANCH   9  10
BRANCH   9  13
HETATM   13  O2  UNL     1       1.262  -2.613   8.872  1.00  0.00    -0.391 OA
ATOM     14  H2  UNL     1       1.218  -1.843   8.318  1.00  0.00     0.210 HD
ENDBRANCH   9  13
ENDBRANCH   8   9
ENDBRANCH   7   8
ENDBRANCH   1   7
BRANCH   6  15
HETATM   15  O8  UNL     1      -0.022  -6.068   3.928  1.00  0.00    -0.388 OA
ATOM     16  H8  UNL     1      -0.600  -6.588   3.382  1.00  0.00     0.210 HD
ENDBRANCH   6  15
BRANCH   3  17
HETATM   17  C6  UNL     1      -1.402  -1.568   4.573  1.00  0.00     0.198 C 
BRANCH  17  18
HETATM   18  O5  UNL     1      -2.283  -0.630   4.037  1.00  0.00    -0.398 OA
ATOM     19  H5  UNL     1      -3.076  -1.054   3.731  1.00  0.00     0.209 HD
ENDBRANCH  17  18
ENDBRANCH   3  17
BRANCH   5  20
HETATM   20  O7  UNL     1      -1.380  -5.151   1.742  1.00  0.00    -0.390 OA
ATOM     21  H7  UNL     1      -1.742  -5.821   2.311  1.00  0.00     0.210 HD
ENDBRANCH   5  20
BRANCH   4  22
HETATM   22  O6  UNL     1      -2.495  -3.062   2.884  1.00  0.00    -0.390 OA
ATOM     23  H6  UNL     1      -2.743  -2.407   3.526  1.00  0.00     0.210 HD
ENDBRANCH   4  22
TORSDOF 11
ENDMDL
