MODEL 7
REMARK VINA RESULT: -5.680693434      2.444      6.372
REMARK  11 active torsions:
REMARK  status: ('A' for Active; 'I' for Inactive)
REMARK    1  A    between atoms: O1_1  and  C1_3 
REMARK    2  A    between atoms: C1_3  and  C2_4 
REMARK    3  A    between atoms: C2_4  and  O2_5 
REMARK    4  A    between atoms: C2_4  and  C3_7 
REMARK    5  A    between atoms: C3_7  and  O3_8 
REMARK    6  A    between atoms: O3_8  and  C4_9 
REMARK    7  A    between atoms: C5_11  and  C6_12 
REMARK    8  A    between atoms: C6_12  and  O5_13 
REMARK    9  A    between atoms: C7_15  and  O6_16 
REMARK   10  A    between atoms: C8_18  and  O7_19 
REMARK   11  A    between atoms: C9_21  and  O8_22 
ROOT
HETATM    1  C4  UNL     1      -0.524  -2.849   5.187  1.00  0.00     0.291 C 
HETATM    2  O4  UNL     1      -1.092  -4.068   4.931  1.00  0.00    -0.348 OA
HETATM    3  C5  UNL     1      -0.955  -4.565   3.676  1.00  0.00     0.179 C 
HETATM    4  C7  UNL     1      -1.403  -3.632   2.576  1.00  0.00     0.180 C 
HETATM    5  C8  UNL     1      -1.709  -2.247   3.152  1.00  0.00     0.183 C 
HETATM    6  C9  UNL     1      -0.505  -1.911   4.009  1.00  0.00     0.204 C 
ENDROOT
BRANCH   1   7
HETATM    7  O3  UNL     1       0.775  -2.934   5.681  1.00  0.00    -0.356 OA
BRANCH   7   8
HETATM    8  C3  UNL     1       0.871  -3.911   6.664  1.00  0.00     0.205 C 
BRANCH   8   9
HETATM    9  C2  UNL     1       1.969  -3.554   7.643  1.00  0.00     0.165 C 
BRANCH   9  10
HETATM   10  C1  UNL     1       1.451  -2.776   8.820  1.00  0.00     0.198 C 
BRANCH  10  11
HETATM   11  O1  UNL     1       0.107  -2.442   8.690  1.00  0.00    -0.398 OA
ATOM     12  H1  UNL     1      -0.246  -2.677   7.840  1.00  0.00     0.209 HD
ENDBRANCH  10  11
ENDBRANCH   9  10
BRANCH   9  13
HETATM   13  O2  UNL     1       2.533  -4.767   8.073  1.00  0.00    -0.391 OA
ATOM     14  H2  UNL     1       1.869  -5.445   8.100  1.00  0.00     0.210 HD
ENDBRANCH   9  13
ENDBRANCH   8   9
ENDBRANCH   7   8
ENDBRANCH   1   7
BRANCH   6  15
HETATM   15  O8  UNL     1      -0.715  -0.588   4.461  1.00  0.00    -0.388 OA
ATOM     16  H8  UNL     1      -0.110  -0.004   4.018  1.00  0.00     0.210 HD
ENDBRANCH   6  15
BRANCH   3  17
HETATM   17  C6  UNL     1       0.457  -5.059   3.363  1.00  0.00     0.198 C 
BRANCH  17  18
HETATM   18  O5  UNL     1       0.411  -6.299   2.729  1.00  0.00    -0.398 OA
ATOM     19  H5  UNL     1       1.289  -6.607   2.535  1.00  0.00     0.209 HD
ENDBRANCH  17  18
ENDBRANCH   3  17
BRANCH   5  20
HETATM   20  O7  UNL     1      -1.891  -1.347   2.115  1.00  0.00    -0.390 OA
ATOM     21  H7  UNL     1      -2.067  -1.821   1.311  1.00  0.00     0.210 HD
ENDBRANCH   5  20
BRANCH   4  22
HETATM   22  O6  UNL     1      -0.381  -3.445   1.640  1.00  0.00    -0.390 OA
ATOM     23  H6  UNL     1      -0.651  -2.835   0.963  1.00  0.00     0.210 HD
ENDBRANCH   4  22
TORSDOF 11
ENDMDL
