MODEL 5
REMARK VINA RESULT: -6.076914658      1.304      1.387
REMARK  11 active torsions:
REMARK  status: ('A' for Active; 'I' for Inactive)
REMARK    1  A    between atoms: O1_1  and  C1_3 
REMARK    2  A    between atoms: C1_3  and  C2_4 
REMARK    3  A    between atoms: C2_4  and  O2_5 
REMARK    4  A    between atoms: C2_4  and  C3_7 
REMARK    5  A    between atoms: C3_7  and  O3_8 
REMARK    6  A    between atoms: O3_8  and  C4_9 
REMARK    7  A    between atoms: C5_11  and  C6_12 
REMARK    8  A    between atoms: C6_12  and  O5_13 
REMARK    9  A    between atoms: C7_15  and  O6_16 
REMARK   10  A    between atoms: C8_18  and  O7_19 
REMARK   11  A    between atoms: C9_21  and  O8_22 
ROOT
HETATM    1  C4  UNL     1      -1.459  -4.608   2.997  1.00  0.00     0.291 C 
HETATM    2  O4  UNL     1      -2.200  -3.574   3.503  1.00  0.00    -0.348 OA
HETATM    3  C5  UNL     1      -1.524  -2.481   3.938  1.00  0.00     0.179 C 
HETATM    4  C7  UNL     1      -0.432  -2.772   4.940  1.00  0.00     0.180 C 
HETATM    5  C8  UNL     1      -0.215  -4.283   5.060  1.00  0.00     0.183 C 
HETATM    6  C9  UNL     1      -0.102  -4.770   3.629  1.00  0.00     0.204 C 
ENDROOT
BRANCH   1   7
HETATM    7  O3  UNL     1      -1.278  -4.538   1.618  1.00  0.00    -0.356 OA
BRANCH   7   8
HETATM    8  C3  UNL     1       0.073  -4.542   1.292  1.00  0.00     0.205 C 
BRANCH   8   9
HETATM    9  C2  UNL     1       0.254  -4.184  -0.167  1.00  0.00     0.165 C 
BRANCH   9  10
HETATM   10  C1  UNL     1       0.521  -5.392  -1.021  1.00  0.00     0.198 C 
BRANCH  10  11
HETATM   11  O1  UNL     1      -0.441  -5.570  -2.009  1.00  0.00    -0.398 OA
ATOM     12  H1  UNL     1      -1.264  -5.893  -1.663  1.00  0.00     0.209 HD
ENDBRANCH  10  11
ENDBRANCH   9  10
BRANCH   9  13
HETATM   13  O2  UNL     1      -0.933  -3.555  -0.576  1.00  0.00    -0.391 OA
ATOM     14  H2  UNL     1      -1.113  -2.805  -0.022  1.00  0.00     0.210 HD
ENDBRANCH   9  13
ENDBRANCH   8   9
ENDBRANCH   7   8
ENDBRANCH   1   7
BRANCH   6  15
HETATM   15  O8  UNL     1       0.212  -6.146   3.717  1.00  0.00    -0.388 OA
ATOM     16  H8  UNL     1       1.058  -6.250   4.136  1.00  0.00     0.210 HD
ENDBRANCH   6  15
BRANCH   3  17
HETATM   17  C6  UNL     1      -0.946  -1.629   2.809  1.00  0.00     0.198 C 
BRANCH  17  18
HETATM   18  O5  UNL     1      -1.762  -1.693   1.680  1.00  0.00    -0.398 OA
ATOM     19  H5  UNL     1      -2.632  -1.993   1.915  1.00  0.00     0.209 HD
ENDBRANCH  17  18
ENDBRANCH   3  17
BRANCH   5  20
HETATM   20  O7  UNL     1       0.932  -4.527   5.796  1.00  0.00    -0.390 OA
ATOM     21  H7  UNL     1       1.031  -3.855   6.460  1.00  0.00     0.210 HD
ENDBRANCH   5  20
BRANCH   4  22
HETATM   22  O6  UNL     1       0.788  -2.238   4.512  1.00  0.00    -0.390 OA
ATOM     23  H6  UNL     1       1.442  -2.301   5.198  1.00  0.00     0.210 HD
ENDBRANCH   4  22
TORSDOF 11
ENDMDL
