MODEL 6
REMARK VINA RESULT: -7.612409023      1.112      1.871
REMARK  12 active torsions:
REMARK  status: ('A' for Active; 'I' for Inactive)
REMARK    1  A    between atoms: C1_2  and  C2_3 
REMARK    2  A    between atoms: C1_2  and  C3_9 
REMARK    3  A    between atoms: C2_3  and  O2_4 
REMARK    4  A    between atoms: O2_4  and  P1_5 
REMARK    5  A    between atoms: C3_9  and  O6_10 
REMARK    6  A    between atoms: C3_9  and  C4_12 
REMARK    7  A    between atoms: C4_12  and  O7_13 
REMARK    8  A    between atoms: C4_12  and  C5_15 
REMARK    9  A    between atoms: C5_15  and  O8_16 
REMARK   10  A    between atoms: C5_15  and  C6_18 
REMARK   11  A    between atoms: C6_18  and  O9_19 
REMARK   12  A    between atoms: O9_19  and  P2_20 
ROOT
HETATM    1  C4  UNL     1      13.920   2.600  16.176  1.00  0.00     0.209 C 
ENDROOT
BRANCH   1   2
HETATM    2  C3  UNL     1      13.172   1.335  15.886  1.00  0.00     0.122 C 
BRANCH   2   3
HETATM    3  C1  UNL     1      13.247   0.450  17.027  1.00  0.00     0.204 C 
HETATM    4  O1  UNL     1      12.475   0.473  18.020  1.00  0.00    -0.288 OA
BRANCH   3   5
HETATM    5  C2  UNL     1      14.339  -0.623  17.189  1.00  0.00     0.268 C 
BRANCH   5   6
HETATM    6  O2  UNL     1      15.404   0.035  17.910  1.00  0.00    -0.275 OA
BRANCH   6   7
HETATM    7  P1  UNL     1      16.857  -0.184  17.036  1.00  0.00     0.422 P 
HETATM    8  O3  UNL     1      16.860  -1.648  16.573  1.00  0.00    -0.617 OA
HETATM    9  O4  UNL     1      16.657   0.780  15.577  1.00  0.00    -0.617 OA
HETATM   10  O5  UNL     1      18.199   0.310  17.804  1.00  0.00    -0.617 OA
ENDBRANCH   6   7
ENDBRANCH   5   6
ENDBRANCH   3   5
ENDBRANCH   2   3
BRANCH   2  11
HETATM   11  O6  UNL     1      12.097   1.396  15.099  1.00  0.00    -0.359 OA
ATOM     12  H6  UNL     1      11.835   0.676  14.539  1.00  0.00     0.217 HD
ENDBRANCH   2  11
ENDBRANCH   1   2
BRANCH   1  13
HETATM   13  O7  UNL     1      14.443   2.890  14.821  1.00  0.00    -0.386 OA
ATOM     14  H7  UNL     1      15.375   2.868  15.005  1.00  0.00     0.210 HD
ENDBRANCH   1  13
BRANCH   1  15
HETATM   15  C5  UNL     1      13.090   3.845  16.403  1.00  0.00     0.177 C 
BRANCH  15  16
HETATM   16  O8  UNL     1      11.806   3.160  16.796  1.00  0.00    -0.390 OA
ATOM     17  H8  UNL     1      11.336   3.932  17.088  1.00  0.00     0.210 HD
ENDBRANCH  15  16
BRANCH  15  18
HETATM   18  C6  UNL     1      12.616   4.623  15.248  1.00  0.00     0.217 C 
BRANCH  18  19
HETATM   19  O9  UNL     1      11.744   4.038  14.325  1.00  0.00    -0.280 OA
BRANCH  19  20
HETATM   20  P2  UNL     1      12.014   4.927  12.861  1.00  0.00     0.422 P 
HETATM   21  O10 UNL     1      11.042   6.072  12.814  1.00  0.00    -0.617 OA
HETATM   22  O11 UNL     1      11.886   3.939  11.531  1.00  0.00    -0.617 OA
HETATM   23  O12 UNL     1      13.612   5.530  13.058  1.00  0.00    -0.617 OA
ENDBRANCH  19  20
ENDBRANCH  18  19
ENDBRANCH  15  18
ENDBRANCH   1  15
TORSDOF 12
ENDMDL
