MODEL 3
REMARK VINA RESULT: -7.708262340      0.939      1.578
REMARK  12 active torsions:
REMARK  status: ('A' for Active; 'I' for Inactive)
REMARK    1  A    between atoms: C1_2  and  C2_3 
REMARK    2  A    between atoms: C1_2  and  C3_9 
REMARK    3  A    between atoms: C2_3  and  O2_4 
REMARK    4  A    between atoms: O2_4  and  P1_5 
REMARK    5  A    between atoms: C3_9  and  O6_10 
REMARK    6  A    between atoms: C3_9  and  C4_12 
REMARK    7  A    between atoms: C4_12  and  O7_13 
REMARK    8  A    between atoms: C4_12  and  C5_15 
REMARK    9  A    between atoms: C5_15  and  O8_16 
REMARK   10  A    between atoms: C5_15  and  C6_18 
REMARK   11  A    between atoms: C6_18  and  O9_19 
REMARK   12  A    between atoms: O9_19  and  P2_20 
ROOT
HETATM    1  C4  UNL     1      12.983   1.750  16.724  1.00  0.00     0.209 C 
ENDROOT
BRANCH   1   2
HETATM    2  C3  UNL     1      12.692   0.289  16.886  1.00  0.00     0.122 C 
BRANCH   2   3
HETATM    3  C1  UNL     1      13.447  -0.239  18.000  1.00  0.00     0.204 C 
HETATM    4  O1  UNL     1      13.100  -0.186  19.208  1.00  0.00    -0.288 OA
BRANCH   3   5
HETATM    5  C2  UNL     1      14.826  -0.906  17.840  1.00  0.00     0.268 C 
BRANCH   5   6
HETATM    6  O2  UNL     1      15.778   0.170  17.981  1.00  0.00    -0.275 OA
BRANCH   6   7
HETATM    7  P1  UNL     1      17.111  -0.158  16.961  1.00  0.00     0.422 P 
HETATM    8  O3  UNL     1      16.950  -1.615  16.504  1.00  0.00    -0.617 OA
HETATM    9  O4  UNL     1      16.837   0.827  15.529  1.00  0.00    -0.617 OA
HETATM   10  O5  UNL     1      18.561   0.224  17.584  1.00  0.00    -0.617 OA
ENDBRANCH   6   7
ENDBRANCH   5   6
ENDBRANCH   3   5
ENDBRANCH   2   3
BRANCH   2  11
HETATM   11  O6  UNL     1      11.475  -0.156  16.574  1.00  0.00    -0.359 OA
ATOM     12  H6  UNL     1      11.332  -0.835  15.926  1.00  0.00     0.217 HD
ENDBRANCH   2  11
ENDBRANCH   1   2
BRANCH   1  13
HETATM   13  O7  UNL     1      14.113   1.669  15.771  1.00  0.00    -0.386 OA
ATOM     14  H7  UNL     1      13.629   1.562  14.961  1.00  0.00     0.210 HD
ENDBRANCH   1  13
BRANCH   1  15
HETATM   15  C5  UNL     1      12.004   2.551  15.894  1.00  0.00     0.177 C 
BRANCH  15  16
HETATM   16  O8  UNL     1      12.064   1.708  14.645  1.00  0.00    -0.390 OA
ATOM     17  H8  UNL     1      12.671   2.251  14.156  1.00  0.00     0.210 HD
ENDBRANCH  15  16
BRANCH  15  18
HETATM   18  C6  UNL     1      12.415   3.850  15.339  1.00  0.00     0.217 C 
BRANCH  18  19
HETATM   19  O9  UNL     1      13.135   3.900  14.142  1.00  0.00    -0.280 OA
BRANCH  19  20
HETATM   20  P2  UNL     1      12.305   5.090  13.194  1.00  0.00     0.422 P 
HETATM   21  O10 UNL     1      11.251   5.731  14.053  1.00  0.00    -0.617 OA
HETATM   22  O11 UNL     1      11.668   4.418  11.815  1.00  0.00    -0.617 OA
HETATM   23  O12 UNL     1      13.537   6.237  12.837  1.00  0.00    -0.617 OA
ENDBRANCH  19  20
ENDBRANCH  18  19
ENDBRANCH  15  18
ENDBRANCH   1  15
TORSDOF 12
ENDMDL
