MODEL 5
REMARK VINA RESULT: -7.619345201      1.125      6.389
REMARK  12 active torsions:
REMARK  status: ('A' for Active; 'I' for Inactive)
REMARK    1  A    between atoms: C1_2  and  C2_3 
REMARK    2  A    between atoms: C1_2  and  C3_9 
REMARK    3  A    between atoms: C2_3  and  O2_4 
REMARK    4  A    between atoms: O2_4  and  P1_5 
REMARK    5  A    between atoms: C3_9  and  O6_10 
REMARK    6  A    between atoms: C3_9  and  C4_12 
REMARK    7  A    between atoms: C4_12  and  O7_13 
REMARK    8  A    between atoms: C4_12  and  C5_15 
REMARK    9  A    between atoms: C5_15  and  O8_16 
REMARK   10  A    between atoms: C5_15  and  C6_18 
REMARK   11  A    between atoms: C6_18  and  O9_19 
REMARK   12  A    between atoms: O9_19  and  P2_20 
ROOT
HETATM    1  C4  UNL     1      13.088   1.498  16.770  1.00  0.00     0.209 C 
ENDROOT
BRANCH   1   2
HETATM    2  C3  UNL     1      12.585   2.379  15.668  1.00  0.00     0.122 C 
BRANCH   2   3
HETATM    3  C1  UNL     1      13.606   3.335  15.302  1.00  0.00     0.204 C 
HETATM    4  O1  UNL     1      14.814   3.064  15.080  1.00  0.00    -0.288 OA
BRANCH   3   5
HETATM    5  C2  UNL     1      13.338   4.847  15.181  1.00  0.00     0.268 C 
BRANCH   5   6
HETATM    6  O2  UNL     1      11.980   4.947  14.700  1.00  0.00    -0.275 OA
BRANCH   6   7
HETATM    7  P1  UNL     1      12.028   5.298  13.028  1.00  0.00     0.422 P 
HETATM    8  O3  UNL     1      13.461   5.765  12.732  1.00  0.00    -0.617 OA
HETATM    9  O4  UNL     1      11.859   3.737  12.233  1.00  0.00    -0.617 OA
HETATM   10  O5  UNL     1      10.849   6.280  12.499  1.00  0.00    -0.617 OA
ENDBRANCH   6   7
ENDBRANCH   5   6
ENDBRANCH   3   5
ENDBRANCH   2   3
BRANCH   2  11
HETATM   11  O6  UNL     1      11.737   1.864  14.778  1.00  0.00    -0.359 OA
ATOM     12  H6  UNL     1      10.835   1.660  14.994  1.00  0.00     0.217 HD
ENDBRANCH   2  11
ENDBRANCH   1   2
BRANCH   1  13
HETATM   13  O7  UNL     1      11.841   1.350  17.554  1.00  0.00    -0.386 OA
ATOM     14  H7  UNL     1      11.781   0.402  17.575  1.00  0.00     0.210 HD
ENDBRANCH   1  13
BRANCH   1  15
HETATM   15  C5  UNL     1      13.345   0.048  16.420  1.00  0.00     0.177 C 
BRANCH  15  16
HETATM   16  O8  UNL     1      12.013  -0.503  16.861  1.00  0.00    -0.390 OA
ATOM     17  H8  UNL     1      11.665  -0.697  15.998  1.00  0.00     0.210 HD
ENDBRANCH  15  16
BRANCH  15  18
HETATM   18  C6  UNL     1      14.240  -0.756  17.265  1.00  0.00     0.217 C 
BRANCH  18  19
HETATM   19  O9  UNL     1      15.177  -0.124  18.089  1.00  0.00    -0.280 OA
BRANCH  19  20
HETATM   20  P2  UNL     1      16.692  -0.381  17.288  1.00  0.00     0.422 P 
HETATM   21  O10 UNL     1      17.794   0.107  18.186  1.00  0.00    -0.617 OA
HETATM   22  O11 UNL     1      16.716   0.363  15.802  1.00  0.00    -0.617 OA
HETATM   23  O12 UNL     1      16.775  -2.094  17.147  1.00  0.00    -0.617 OA
ENDBRANCH  19  20
ENDBRANCH  18  19
ENDBRANCH  15  18
ENDBRANCH   1  15
TORSDOF 12
ENDMDL
