MODEL 1
REMARK VINA RESULT: -7.935353326      0.000      0.000
REMARK  12 active torsions:
REMARK  status: ('A' for Active; 'I' for Inactive)
REMARK    1  A    between atoms: C1_2  and  C2_3 
REMARK    2  A    between atoms: C1_2  and  C3_9 
REMARK    3  A    between atoms: C2_3  and  O2_4 
REMARK    4  A    between atoms: O2_4  and  P1_5 
REMARK    5  A    between atoms: C3_9  and  O6_10 
REMARK    6  A    between atoms: C3_9  and  C4_12 
REMARK    7  A    between atoms: C4_12  and  O7_13 
REMARK    8  A    between atoms: C4_12  and  C5_15 
REMARK    9  A    between atoms: C5_15  and  O8_16 
REMARK   10  A    between atoms: C5_15  and  C6_18 
REMARK   11  A    between atoms: C6_18  and  O9_19 
REMARK   12  A    between atoms: O9_19  and  P2_20 
ROOT
HETATM    1  C4  UNL     1      13.143   0.919  16.132  1.00  0.00     0.209 C 
ENDROOT
BRANCH   1   2
HETATM    2  C3  UNL     1      12.664  -0.284  16.887  1.00  0.00     0.122 C 
BRANCH   2   3
HETATM    3  C1  UNL     1      13.507  -0.505  18.040  1.00  0.00     0.204 C 
HETATM    4  O1  UNL     1      13.218  -0.197  19.225  1.00  0.00    -0.288 OA
BRANCH   3   5
HETATM    5  C2  UNL     1      14.917  -1.117  17.946  1.00  0.00     0.268 C 
BRANCH   5   6
HETATM    6  O2  UNL     1      15.819  -0.003  18.121  1.00  0.00    -0.275 OA
BRANCH   6   7
HETATM    7  P1  UNL     1      17.122  -0.192  17.031  1.00  0.00     0.422 P 
HETATM    8  O3  UNL     1      17.010  -1.620  16.476  1.00  0.00    -0.617 OA
HETATM    9  O4  UNL     1      16.742   0.876  15.684  1.00  0.00    -0.617 OA
HETATM   10  O5  UNL     1      18.577   0.217  17.623  1.00  0.00    -0.617 OA
ENDBRANCH   6   7
ENDBRANCH   5   6
ENDBRANCH   3   5
ENDBRANCH   2   3
BRANCH   2  11
HETATM   11  O6  UNL     1      11.358  -0.551  16.895  1.00  0.00    -0.359 OA
ATOM     12  H6  UNL     1      10.708   0.095  17.144  1.00  0.00     0.217 HD
ENDBRANCH   2  11
ENDBRANCH   1   2
BRANCH   1  13
HETATM   13  O7  UNL     1      12.014   1.082  15.189  1.00  0.00    -0.386 OA
ATOM     14  H7  UNL     1      11.967   2.030  15.161  1.00  0.00     0.210 HD
ENDBRANCH   1  13
BRANCH   1  15
HETATM   15  C5  UNL     1      13.070   2.248  16.852  1.00  0.00     0.177 C 
BRANCH  15  16
HETATM   16  O8  UNL     1      11.717   2.057  17.488  1.00  0.00    -0.390 OA
ATOM     17  H8  UNL     1      11.958   2.302  18.373  1.00  0.00     0.210 HD
ENDBRANCH  15  16
BRANCH  15  18
HETATM   18  C6  UNL     1      12.815   3.477  16.084  1.00  0.00     0.217 C 
BRANCH  18  19
HETATM   19  O9  UNL     1      13.436   3.667  14.846  1.00  0.00    -0.280 OA
BRANCH  19  20
HETATM   20  P2  UNL     1      12.199   4.361  13.850  1.00  0.00     0.422 P 
HETATM   21  O10 UNL     1      12.858   5.097  12.717  1.00  0.00    -0.617 OA
HETATM   22  O11 UNL     1      11.198   5.344  14.740  1.00  0.00    -0.617 OA
HETATM   23  O12 UNL     1      11.367   2.984  13.241  1.00  0.00    -0.617 OA
ENDBRANCH  19  20
ENDBRANCH  18  19
ENDBRANCH  15  18
ENDBRANCH   1  15
TORSDOF 12
ENDMDL
