MODEL 4
REMARK VINA RESULT: -7.625435299      0.581      1.528
REMARK  12 active torsions:
REMARK  status: ('A' for Active; 'I' for Inactive)
REMARK    1  A    between atoms: C1_2  and  C2_3 
REMARK    2  A    between atoms: C1_2  and  C3_9 
REMARK    3  A    between atoms: C2_3  and  O2_4 
REMARK    4  A    between atoms: O2_4  and  P1_5 
REMARK    5  A    between atoms: C3_9  and  O6_10 
REMARK    6  A    between atoms: C3_9  and  C4_12 
REMARK    7  A    between atoms: C4_12  and  O7_13 
REMARK    8  A    between atoms: C4_12  and  C5_15 
REMARK    9  A    between atoms: C5_15  and  O8_16 
REMARK   10  A    between atoms: C5_15  and  C6_18 
REMARK   11  A    between atoms: C6_18  and  O9_19 
REMARK   12  A    between atoms: O9_19  and  P2_20 
ROOT
HETATM    1  C4  UNL     1      13.025   0.912  16.177  1.00  0.00     0.209 C 
ENDROOT
BRANCH   1   2
HETATM    2  C3  UNL     1      12.615  -0.311  16.939  1.00  0.00     0.122 C 
BRANCH   2   3
HETATM    3  C1  UNL     1      13.504  -0.508  18.062  1.00  0.00     0.204 C 
HETATM    4  O1  UNL     1      13.227  -0.262  19.264  1.00  0.00    -0.288 OA
BRANCH   3   5
HETATM    5  C2  UNL     1      14.951  -1.014  17.910  1.00  0.00     0.268 C 
BRANCH   5   6
HETATM    6  O2  UNL     1      15.772   0.169  18.029  1.00  0.00    -0.275 OA
BRANCH   6   7
HETATM    7  P1  UNL     1      17.053   0.046  16.903  1.00  0.00     0.422 P 
HETATM    8  O3  UNL     1      18.345   0.274  17.701  1.00  0.00    -0.617 OA
HETATM    9  O4  UNL     1      17.076  -1.648  16.427  1.00  0.00    -0.617 OA
HETATM   10  O5  UNL     1      16.883   0.957  15.570  1.00  0.00    -0.617 OA
ENDBRANCH   6   7
ENDBRANCH   5   6
ENDBRANCH   3   5
ENDBRANCH   2   3
BRANCH   2  11
HETATM   11  O6  UNL     1      11.320  -0.625  16.990  1.00  0.00    -0.359 OA
ATOM     12  H6  UNL     1      10.635   0.012  16.824  1.00  0.00     0.217 HD
ENDBRANCH   2  11
ENDBRANCH   1   2
BRANCH   1  13
HETATM   13  O7  UNL     1      11.791   1.135  15.389  1.00  0.00    -0.386 OA
ATOM     14  H7  UNL     1      12.098   1.822  14.809  1.00  0.00     0.210 HD
ENDBRANCH   1  13
BRANCH   1  15
HETATM   15  C5  UNL     1      13.074   2.212  16.951  1.00  0.00     0.177 C 
BRANCH  15  16
HETATM   16  O8  UNL     1      11.693   2.138  17.552  1.00  0.00    -0.390 OA
ATOM     17  H8  UNL     1      11.209   2.019  16.744  1.00  0.00     0.210 HD
ENDBRANCH  15  16
BRANCH  15  18
HETATM   18  C6  UNL     1      12.965   3.490  16.231  1.00  0.00     0.217 C 
BRANCH  18  19
HETATM   19  O9  UNL     1      11.715   3.942  15.798  1.00  0.00    -0.280 OA
BRANCH  19  20
HETATM   20  P2  UNL     1      11.956   4.324  14.124  1.00  0.00     0.422 P 
HETATM   21  O10 UNL     1      11.462   3.170  13.297  1.00  0.00    -0.617 OA
HETATM   22  O11 UNL     1      13.549   4.681  13.817  1.00  0.00    -0.617 OA
HETATM   23  O12 UNL     1      10.937   5.688  13.882  1.00  0.00    -0.617 OA
ENDBRANCH  19  20
ENDBRANCH  18  19
ENDBRANCH  15  18
ENDBRANCH   1  15
TORSDOF 12
ENDMDL
