MODEL 4
REMARK VINA RESULT: -4.572263955      2.377      5.029
REMARK  7 active torsions:
REMARK  status: ('A' for Active; 'I' for Inactive)
REMARK    1  A    between atoms: N1_2  and  C2_4 
REMARK    2  A    between atoms: C3_5  and  O1_6 
REMARK    3  A    between atoms: C7_12  and  C8_13 
REMARK    4  A    between atoms: C7_12  and  C11_22 
REMARK    5  A    between atoms: C8_13  and  C9_14 
REMARK    6  A    between atoms: C9_14  and  N2_15 
REMARK    7  A    between atoms: C9_14  and  C10_19 
ROOT
HETATM    1  C2  UNL     1     -19.221  58.367  49.689  1.00  0.00     0.138 C 
HETATM    2  C3  UNL     1     -20.081  57.547  48.766  1.00  0.00     0.166 C 
HETATM    3  C4  UNL     1     -19.310  57.183  47.541  1.00  0.00     0.202 C 
HETATM    4  O2  UNL     1     -17.997  57.563  47.546  1.00  0.00    -0.381 OA
HETATM    5  C5  UNL     1     -17.290  57.236  48.668  1.00  0.00     0.156 C 
HETATM    6  C6  UNL     1     -17.085  55.757  48.864  1.00  0.00     0.084 C 
HETATM    7  C7  UNL     1     -17.045  55.640  50.370  1.00  0.00     0.154 C 
HETATM    8  O7  UNL     1     -17.996  56.619  50.805  1.00  0.00    -0.359 OA
HETATM    9  C12 UNL     1     -17.882  57.674  49.956  1.00  0.00     0.177 C 
ENDROOT
BRANCH   7  10
HETATM   10  C8  UNL     1     -15.754  56.061  50.960  1.00  0.00     0.093 C 
BRANCH  10  11
HETATM   11  C9  UNL     1     -14.500  55.393  50.622  1.00  0.00     0.286 C 
BRANCH  11  12
HETATM   12  N2  UNL     1     -13.866  54.514  51.528  1.00  0.00    -0.065 N 
ATOM     13  H23 UNL     1     -12.910  54.841  51.668  1.00  0.00     0.275 HD
ATOM     14  H22 UNL     1     -14.276  54.664  52.450  1.00  0.00     0.275 HD
ATOM     15  H21 UNL     1     -13.833  53.509  51.358  1.00  0.00     0.275 HD
ENDBRANCH  11  12
BRANCH  11  16
HETATM   16  C10 UNL     1     -13.490  56.464  50.249  1.00  0.00     0.204 C 
HETATM   17  O3  UNL     1     -13.861  57.642  50.045  1.00  0.00    -0.646 OA
HETATM   18  O4  UNL     1     -12.145  56.171  50.128  1.00  0.00    -0.646 OA
ENDBRANCH  11  16
ENDBRANCH  10  11
ENDBRANCH   7  10
BRANCH   7  19
HETATM   19  C11 UNL     1     -17.525  54.390  50.918  1.00  0.00     0.209 C 
HETATM   20  O5  UNL     1     -16.930  53.790  51.829  1.00  0.00    -0.646 OA
HETATM   21  O6  UNL     1     -18.685  53.795  50.449  1.00  0.00    -0.646 OA
ENDBRANCH   7  19
BRANCH   1  22
HETATM   22  N1  UNL     1     -19.827  58.663  50.944  1.00  0.00    -0.416 N 
HETATM   23  C1  UNL     1     -19.942  60.047  51.259  1.00  0.00     0.140 C 
ATOM     24  H1  UNL     1     -20.156  57.933  51.574  1.00  0.00     0.153 HD
ENDBRANCH   1  22
BRANCH   2  25
HETATM   25  O1  UNL     1     -20.536  56.376  49.359  1.00  0.00    -0.391 OA
ATOM     26  H1  UNL     1     -21.021  56.537  50.159  1.00  0.00     0.210 HD
ENDBRANCH   2  25
TORSDOF 7
ENDMDL
