MODEL 2
REMARK VINA RESULT: -5.808647424      2.414      5.626
REMARK  7 active torsions:
REMARK  status: ('A' for Active; 'I' for Inactive)
REMARK    1  A    between atoms: N1_2  and  C2_4 
REMARK    2  A    between atoms: C3_5  and  O1_6 
REMARK    3  A    between atoms: C7_12  and  C8_13 
REMARK    4  A    between atoms: C7_12  and  C11_22 
REMARK    5  A    between atoms: C8_13  and  C9_14 
REMARK    6  A    between atoms: C9_14  and  N2_15 
REMARK    7  A    between atoms: C9_14  and  C10_19 
ROOT
HETATM    1  C2  UNL     1     -18.250  58.748  49.793  1.00  0.00     0.138 C 
HETATM    2  C3  UNL     1     -17.938  58.818  48.324  1.00  0.00     0.166 C 
HETATM    3  C4  UNL     1     -16.502  58.482  48.091  1.00  0.00     0.202 C 
HETATM    4  O2  UNL     1     -15.809  58.094  49.204  1.00  0.00    -0.381 OA
HETATM    5  C5  UNL     1     -16.405  57.131  49.966  1.00  0.00     0.156 C 
HETATM    6  C6  UNL     1     -16.509  55.785  49.299  1.00  0.00     0.084 C 
HETATM    7  C7  UNL     1     -17.775  55.227  49.907  1.00  0.00     0.154 C 
HETATM    8  O7  UNL     1     -18.613  56.381  50.046  1.00  0.00    -0.359 OA
HETATM    9  C12 UNL     1     -17.799  57.413  50.391  1.00  0.00     0.177 C 
ENDROOT
BRANCH   7  10
HETATM   10  C8  UNL     1     -17.591  54.711  51.282  1.00  0.00     0.093 C 
BRANCH  10  11
HETATM   11  C9  UNL     1     -17.086  53.364  51.537  1.00  0.00     0.286 C 
BRANCH  11  12
HETATM   12  N2  UNL     1     -17.304  52.717  52.773  1.00  0.00    -0.065 N 
ATOM     13  H23 UNL     1     -16.455  52.811  53.331  1.00  0.00     0.275 HD
ATOM     14  H22 UNL     1     -17.969  53.277  53.307  1.00  0.00     0.275 HD
ATOM     15  H21 UNL     1     -17.604  51.743  52.818  1.00  0.00     0.275 HD
ENDBRANCH  11  12
BRANCH  11  16
HETATM   16  C10 UNL     1     -15.588  53.375  51.290  1.00  0.00     0.204 C 
HETATM   17  O3  UNL     1     -14.793  53.627  52.224  1.00  0.00    -0.646 OA
HETATM   18  O4  UNL     1     -15.064  53.109  50.039  1.00  0.00    -0.646 OA
ENDBRANCH  11  16
ENDBRANCH  10  11
ENDBRANCH   7  10
BRANCH   7  19
HETATM   19  C11 UNL     1     -18.531  54.321  49.070  1.00  0.00     0.209 C 
HETATM   20  O5  UNL     1     -18.023  53.725  48.105  1.00  0.00    -0.646 OA
HETATM   21  O6  UNL     1     -19.873  54.071  49.306  1.00  0.00    -0.646 OA
ENDBRANCH   7  19
BRANCH   1  22
HETATM   22  N1  UNL     1     -19.627  58.934  50.108  1.00  0.00    -0.416 N 
HETATM   23  C1  UNL     1     -19.897  59.840  51.172  1.00  0.00     0.140 C 
ATOM     24  H1  UNL     1     -20.369  58.450  49.604  1.00  0.00     0.153 HD
ENDBRANCH   1  22
BRANCH   2  25
HETATM   25  O1  UNL     1     -18.716  57.948  47.570  1.00  0.00    -0.391 OA
ATOM     26  H1  UNL     1     -18.276  57.125  47.392  1.00  0.00     0.210 HD
ENDBRANCH   2  25
TORSDOF 7
ENDMDL
