MODEL 1
REMARK VINA RESULT: -7.409173561      0.000      0.000
REMARK  7 active torsions:
REMARK  status: ('A' for Active; 'I' for Inactive)
REMARK    1  A    between atoms: N1_2  and  C2_4 
REMARK    2  A    between atoms: C3_5  and  O1_6 
REMARK    3  A    between atoms: C7_12  and  C8_13 
REMARK    4  A    between atoms: C7_12  and  C11_22 
REMARK    5  A    between atoms: C8_13  and  C9_14 
REMARK    6  A    between atoms: C9_14  and  N2_15 
REMARK    7  A    between atoms: C9_14  and  C10_19 
ROOT
HETATM    1  C2  UNL     1     -15.647  55.272  50.631  1.00  0.00     0.138 C 
HETATM    2  C3  UNL     1     -16.803  54.394  51.024  1.00  0.00     0.166 C 
HETATM    3  C4  UNL     1     -17.680  55.110  51.997  1.00  0.00     0.202 C 
HETATM    4  O2  UNL     1     -17.329  56.407  52.250  1.00  0.00    -0.381 OA
HETATM    5  C5  UNL     1     -17.105  57.184  51.150  1.00  0.00     0.156 C 
HETATM    6  C6  UNL     1     -18.331  57.453  50.318  1.00  0.00     0.084 C 
HETATM    7  C7  UNL     1     -17.749  57.579  48.929  1.00  0.00     0.154 C 
HETATM    8  O7  UNL     1     -16.687  56.618  48.925  1.00  0.00    -0.359 OA
HETATM    9  C12 UNL     1     -16.132  56.648  50.166  1.00  0.00     0.177 C 
ENDROOT
BRANCH   7  10
HETATM   10  C8  UNL     1     -17.096  58.884  48.679  1.00  0.00     0.093 C 
BRANCH  10  11
HETATM   11  C9  UNL     1     -16.288  59.123  47.485  1.00  0.00     0.286 C 
BRANCH  11  12
HETATM   12  N2  UNL     1     -14.881  59.011  47.515  1.00  0.00    -0.065 N 
ATOM     13  H23 UNL     1     -14.497  59.926  47.754  1.00  0.00     0.275 HD
ATOM     14  H22 UNL     1     -14.626  58.456  48.332  1.00  0.00     0.275 HD
ATOM     15  H21 UNL     1     -14.359  58.651  46.715  1.00  0.00     0.275 HD
ENDBRANCH  11  12
BRANCH  11  16
HETATM   16  C10 UNL     1     -16.622  60.512  46.970  1.00  0.00     0.204 C 
HETATM   17  O3  UNL     1     -17.812  60.847  46.777  1.00  0.00    -0.646 OA
HETATM   18  O4  UNL     1     -15.630  61.436  46.704  1.00  0.00    -0.646 OA
ENDBRANCH  11  16
ENDBRANCH  10  11
ENDBRANCH   7  10
BRANCH   7  19
HETATM   19  C11 UNL     1     -18.616  57.174  47.843  1.00  0.00     0.209 C 
HETATM   20  O5  UNL     1     -18.179  56.869  46.721  1.00  0.00    -0.646 OA
HETATM   21  O6  UNL     1     -19.991  57.107  48.003  1.00  0.00    -0.646 OA
ENDBRANCH   7  19
BRANCH   1  22
HETATM   22  N1  UNL     1     -14.816  54.725  49.612  1.00  0.00    -0.416 N 
HETATM   23  C1  UNL     1     -13.504  55.270  49.529  1.00  0.00     0.140 C 
ATOM     24  H1  UNL     1     -15.141  53.991  48.983  1.00  0.00     0.153 HD
ENDBRANCH   1  22
BRANCH   2  25
HETATM   25  O1  UNL     1     -17.579  54.014  49.936  1.00  0.00    -0.391 OA
ATOM     26  H1  UNL     1     -18.083  53.226  50.104  1.00  0.00     0.210 HD
ENDBRANCH   2  25
TORSDOF 7
ENDMDL
