MODEL 10
REMARK VINA RESULT: -5.876980103      2.607      4.581
REMARK  5 active torsions:
REMARK  status: ('A' for Active; 'I' for Inactive)
REMARK    1  A    between atoms: N1_1  and  C1_5 
REMARK    2  A    between atoms: C1_5  and  C2_6 
REMARK    3  A    between atoms: C1_5  and  C11_19 
REMARK    4  A    between atoms: C2_6  and  C3_7 
REMARK    5  A    between atoms: C3_7  and  C4_8 
ROOT
HETATM    1  C3  UNL     1       2.006  43.283   4.649  1.00  0.00     0.154 C 
HETATM    2  C5  UNL     1       1.355  44.111   5.751  1.00  0.00     0.084 C 
HETATM    3  C6  UNL     1       0.931  45.317   4.924  1.00  0.00     0.153 C 
HETATM    4  O3  UNL     1       2.037  46.092   4.665  1.00  0.00    -0.383 OA
HETATM    5  C7  UNL     1       1.809  47.140   3.813  1.00  0.00     0.168 C 
HETATM    6  C8  UNL     1       0.682  46.933   2.847  1.00  0.00     0.029 C 
HETATM    7  C9  UNL     1       0.667  45.476   2.421  1.00  0.00     0.036 C 
HETATM    8  C10 UNL     1       0.502  44.640   3.654  1.00  0.00     0.152 C 
HETATM    9  O4  UNL     1       1.233  43.473   3.536  1.00  0.00    -0.361 OA
ENDROOT
BRANCH   1  10
HETATM   10  C2  UNL     1       2.168  41.861   5.018  1.00  0.00     0.093 C 
BRANCH  10  11
HETATM   11  C1  UNL     1       1.341  40.832   4.346  1.00  0.00     0.286 C 
BRANCH  11  12
HETATM   12  N1  UNL     1       0.886  39.957   5.463  1.00  0.00    -0.065 N 
ATOM     13  H13 UNL     1       1.022  38.960   5.298  1.00  0.00     0.275 HD
ATOM     14  H12 UNL     1       1.466  40.008   6.301  1.00  0.00     0.275 HD
ATOM     15  H11 UNL     1      -0.086  40.230   5.607  1.00  0.00     0.275 HD
ENDBRANCH  11  12
BRANCH  11  16
HETATM   16  C11 UNL     1       2.072  39.926   3.439  1.00  0.00     0.204 C 
HETATM   17  O5  UNL     1       2.631  40.394   2.416  1.00  0.00    -0.646 OA
HETATM   18  O6  UNL     1       2.202  38.561   3.627  1.00  0.00    -0.646 OA
ENDBRANCH  11  16
ENDBRANCH  10  11
ENDBRANCH   1  10
BRANCH   1  19
HETATM   19  C4  UNL     1       3.380  43.824   4.496  1.00  0.00     0.209 C 
HETATM   20  O1  UNL     1       4.068  44.025   5.498  1.00  0.00    -0.646 OA
HETATM   21  O2  UNL     1       3.861  44.092   3.244  1.00  0.00    -0.646 OA
ENDBRANCH   1  19
TORSDOF 5
ENDMDL
