MODEL 2
REMARK VINA RESULT: -7.911934290      0.898      1.214
REMARK  5 active torsions:
REMARK  status: ('A' for Active; 'I' for Inactive)
REMARK    1  A    between atoms: N1_1  and  C1_5 
REMARK    2  A    between atoms: C1_5  and  C2_6 
REMARK    3  A    between atoms: C1_5  and  C11_19 
REMARK    4  A    between atoms: C2_6  and  C3_7 
REMARK    5  A    between atoms: C3_7  and  C4_8 
ROOT
HETATM    1  C3  UNL     1       1.368  44.301   2.457  1.00  0.00     0.154 C 
HETATM    2  C5  UNL     1       2.784  44.862   2.502  1.00  0.00     0.084 C 
HETATM    3  C6  UNL     1       3.170  44.424   3.908  1.00  0.00     0.153 C 
HETATM    4  O3  UNL     1       2.557  45.253   4.818  1.00  0.00    -0.383 OA
HETATM    5  C7  UNL     1       2.717  44.878   6.126  1.00  0.00     0.168 C 
HETATM    6  C8  UNL     1       2.936  43.411   6.339  1.00  0.00     0.029 C 
HETATM    7  C9  UNL     1       2.096  42.643   5.335  1.00  0.00     0.036 C 
HETATM    8  C10 UNL     1       2.516  43.072   3.962  1.00  0.00     0.152 C 
HETATM    9  O4  UNL     1       1.419  43.106   3.121  1.00  0.00    -0.361 OA
ENDROOT
BRANCH   1  10
HETATM   10  C2  UNL     1       0.837  44.189   1.082  1.00  0.00     0.093 C 
BRANCH  10  11
HETATM   11  C1  UNL     1      -0.570  43.780   0.872  1.00  0.00     0.286 C 
BRANCH  11  12
HETATM   12  N1  UNL     1      -0.531  42.295   0.989  1.00  0.00    -0.065 N 
ATOM     13  H13 UNL     1       0.137  41.842   0.365  1.00  0.00     0.275 HD
ATOM     14  H12 UNL     1      -0.119  41.952   1.856  1.00  0.00     0.275 HD
ATOM     15  H11 UNL     1      -1.499  42.013   0.843  1.00  0.00     0.275 HD
ENDBRANCH  11  12
BRANCH  11  16
HETATM   16  C11 UNL     1      -1.107  44.031  -0.479  1.00  0.00     0.204 C 
HETATM   17  O5  UNL     1      -1.461  43.061  -1.195  1.00  0.00    -0.646 OA
HETATM   18  O6  UNL     1      -1.263  45.285  -1.043  1.00  0.00    -0.646 OA
ENDBRANCH  11  16
ENDBRANCH  10  11
ENDBRANCH   1  10
BRANCH   1  19
HETATM   19  C4  UNL     1       0.515  45.305   3.142  1.00  0.00     0.209 C 
HETATM   20  O1  UNL     1      -0.200  44.954   4.082  1.00  0.00    -0.646 OA
HETATM   21  O2  UNL     1       0.535  46.606   2.719  1.00  0.00    -0.646 OA
ENDBRANCH   1  19
TORSDOF 5
ENDMDL
