MODEL 14
REMARK VINA RESULT: -5.738066270      2.504      4.521
REMARK  5 active torsions:
REMARK  status: ('A' for Active; 'I' for Inactive)
REMARK    1  A    between atoms: N1_1  and  C1_5 
REMARK    2  A    between atoms: C1_5  and  C2_6 
REMARK    3  A    between atoms: C1_5  and  C11_19 
REMARK    4  A    between atoms: C2_6  and  C3_7 
REMARK    5  A    between atoms: C3_7  and  C4_8 
ROOT
HETATM    1  C3  UNL     1       2.255  43.108   4.752  1.00  0.00     0.154 C 
HETATM    2  C5  UNL     1       1.304  43.788   5.731  1.00  0.00     0.084 C 
HETATM    3  C6  UNL     1       0.898  44.983   4.878  1.00  0.00     0.153 C 
HETATM    4  O3  UNL     1       1.926  45.896   4.871  1.00  0.00    -0.383 OA
HETATM    5  C7  UNL     1       1.736  46.958   4.027  1.00  0.00     0.168 C 
HETATM    6  C8  UNL     1       0.852  46.678   2.850  1.00  0.00     0.029 C 
HETATM    7  C9  UNL     1       1.105  45.257   2.380  1.00  0.00     0.036 C 
HETATM    8  C10 UNL     1       0.812  44.335   3.525  1.00  0.00     0.152 C 
HETATM    9  O4  UNL     1       1.694  43.271   3.515  1.00  0.00    -0.361 OA
ENDROOT
BRANCH   1  10
HETATM   10  C2  UNL     1       2.521  41.696   5.096  1.00  0.00     0.093 C 
BRANCH  10  11
HETATM   11  C1  UNL     1       2.941  40.751   4.036  1.00  0.00     0.286 C 
BRANCH  11  12
HETATM   12  N1  UNL     1       3.334  41.638   2.905  1.00  0.00    -0.065 N 
ATOM     13  H13 UNL     1       2.558  42.145   2.479  1.00  0.00     0.275 HD
ATOM     14  H12 UNL     1       3.864  42.464   3.182  1.00  0.00     0.275 HD
ATOM     15  H11 UNL     1       3.829  41.015   2.268  1.00  0.00     0.275 HD
ENDBRANCH  11  12
BRANCH  11  16
HETATM   16  C11 UNL     1       1.867  39.901   3.486  1.00  0.00     0.204 C 
HETATM   17  O5  UNL     1       1.637  38.781   4.005  1.00  0.00    -0.646 OA
HETATM   18  O6  UNL     1       1.064  40.245   2.413  1.00  0.00    -0.646 OA
ENDBRANCH  11  16
ENDBRANCH  10  11
ENDBRANCH   1  10
BRANCH   1  19
HETATM   19  C4  UNL     1       3.553  43.815   4.895  1.00  0.00     0.209 C 
HETATM   20  O1  UNL     1       4.194  44.118   3.887  1.00  0.00    -0.646 OA
HETATM   21  O2  UNL     1       4.019  44.119   6.144  1.00  0.00    -0.646 OA
ENDBRANCH   1  19
TORSDOF 5
ENDMDL
