MODEL 5
REMARK VINA RESULT: -7.265121673      1.139      1.526
REMARK  5 active torsions:
REMARK  status: ('A' for Active; 'I' for Inactive)
REMARK    1  A    between atoms: N1_1  and  C1_5 
REMARK    2  A    between atoms: C1_5  and  C2_6 
REMARK    3  A    between atoms: C1_5  and  C11_19 
REMARK    4  A    between atoms: C2_6  and  C3_7 
REMARK    5  A    between atoms: C3_7  and  C4_8 
ROOT
HETATM    1  C3  UNL     1       1.299  44.015   3.408  1.00  0.00     0.154 C 
HETATM    2  C5  UNL     1       2.705  44.151   2.833  1.00  0.00     0.084 C 
HETATM    3  C6  UNL     1       3.461  43.309   3.852  1.00  0.00     0.153 C 
HETATM    4  O3  UNL     1       3.607  44.034   5.011  1.00  0.00    -0.383 OA
HETATM    5  C7  UNL     1       4.156  43.335   6.053  1.00  0.00     0.168 C 
HETATM    6  C8  UNL     1       3.924  41.855   6.010  1.00  0.00     0.029 C 
HETATM    7  C9  UNL     1       2.535  41.596   5.454  1.00  0.00     0.036 C 
HETATM    8  C10 UNL     1       2.467  42.208   4.087  1.00  0.00     0.152 C 
HETATM    9  O4  UNL     1       1.206  42.728   3.864  1.00  0.00    -0.361 OA
ENDROOT
BRANCH   1  10
HETATM   10  C2  UNL     1       0.243  44.374   2.438  1.00  0.00     0.093 C 
BRANCH  10  11
HETATM   11  C1  UNL     1       0.517  44.267   0.987  1.00  0.00     0.286 C 
BRANCH  11  12
HETATM   12  N1  UNL     1       0.937  45.644   0.602  1.00  0.00    -0.065 N 
ATOM     13  H13 UNL     1       0.852  46.333   1.348  1.00  0.00     0.275 HD
ATOM     14  H12 UNL     1       1.941  45.755   0.465  1.00  0.00     0.275 HD
ATOM     15  H11 UNL     1       0.376  45.848  -0.225  1.00  0.00     0.275 HD
ENDBRANCH  11  12
BRANCH  11  16
HETATM   16  C11 UNL     1      -0.659  43.988   0.140  1.00  0.00     0.204 C 
HETATM   17  O5  UNL     1      -1.182  42.846   0.165  1.00  0.00    -0.646 OA
HETATM   18  O6  UNL     1      -1.257  44.907  -0.704  1.00  0.00    -0.646 OA
ENDBRANCH  11  16
ENDBRANCH  10  11
ENDBRANCH   1  10
BRANCH   1  19
HETATM   19  C4  UNL     1       1.211  45.020   4.498  1.00  0.00     0.209 C 
HETATM   20  O1  UNL     1       1.612  46.168   4.299  1.00  0.00    -0.646 OA
HETATM   21  O2  UNL     1       0.686  44.656   5.707  1.00  0.00    -0.646 OA
ENDBRANCH   1  19
TORSDOF 5
ENDMDL
