MODEL 1
REMARK VINA RESULT: -8.300625966      0.000      0.000
REMARK  5 active torsions:
REMARK  status: ('A' for Active; 'I' for Inactive)
REMARK    1  A    between atoms: N1_1  and  C1_5 
REMARK    2  A    between atoms: C1_5  and  C2_6 
REMARK    3  A    between atoms: C1_5  and  C11_19 
REMARK    4  A    between atoms: C2_6  and  C3_7 
REMARK    5  A    between atoms: C3_7  and  C4_8 
ROOT
HETATM    1  C3  UNL     1       1.746  44.069   2.573  1.00  0.00     0.154 C 
HETATM    2  C5  UNL     1       3.230  44.401   2.471  1.00  0.00     0.084 C 
HETATM    3  C6  UNL     1       3.743  43.564   3.634  1.00  0.00     0.153 C 
HETATM    4  O3  UNL     1       3.437  44.203   4.813  1.00  0.00    -0.383 OA
HETATM    5  C7  UNL     1       3.728  43.483   5.941  1.00  0.00     0.168 C 
HETATM    6  C8  UNL     1       3.710  41.996   5.762  1.00  0.00     0.029 C 
HETATM    7  C9  UNL     1       2.600  41.636   4.790  1.00  0.00     0.036 C 
HETATM    8  C10 UNL     1       2.873  42.347   3.499  1.00  0.00     0.152 C 
HETATM    9  O4  UNL     1       1.684  42.746   2.919  1.00  0.00    -0.361 OA
ENDROOT
BRANCH   1  10
HETATM   10  C2  UNL     1       0.998  44.391   1.339  1.00  0.00     0.093 C 
BRANCH  10  11
HETATM   11  C1  UNL     1      -0.329  43.777   1.108  1.00  0.00     0.286 C 
BRANCH  11  12
HETATM   12  N1  UNL     1      -0.050  42.313   1.111  1.00  0.00    -0.065 N 
ATOM     13  H13 UNL     1       0.897  42.066   0.825  1.00  0.00     0.275 HD
ATOM     14  H12 UNL     1       0.005  41.897   2.041  1.00  0.00     0.275 HD
ATOM     15  H11 UNL     1      -0.784  41.924   0.519  1.00  0.00     0.275 HD
ENDBRANCH  11  12
BRANCH  11  16
HETATM   16  C11 UNL     1      -0.924  44.038  -0.217  1.00  0.00     0.204 C 
HETATM   17  O5  UNL     1      -0.941  45.211  -0.668  1.00  0.00    -0.646 OA
HETATM   18  O6  UNL     1      -1.481  43.070  -1.034  1.00  0.00    -0.646 OA
ENDBRANCH  11  16
ENDBRANCH  10  11
ENDBRANCH   1  10
BRANCH   1  19
HETATM   19  C4  UNL     1       1.204  44.966   3.625  1.00  0.00     0.209 C 
HETATM   20  O1  UNL     1       0.459  44.505   4.491  1.00  0.00    -0.646 OA
HETATM   21  O2  UNL     1       1.539  46.292   3.616  1.00  0.00    -0.646 OA
ENDBRANCH   1  19
TORSDOF 5
ENDMDL
