MODEL 15
REMARK VINA RESULT: -5.651537861      2.434      5.035
REMARK  5 active torsions:
REMARK  status: ('A' for Active; 'I' for Inactive)
REMARK    1  A    between atoms: N1_1  and  C1_5 
REMARK    2  A    between atoms: C1_5  and  C2_6 
REMARK    3  A    between atoms: C1_5  and  C11_19 
REMARK    4  A    between atoms: C2_6  and  C3_7 
REMARK    5  A    between atoms: C3_7  and  C4_8 
ROOT
HETATM    1  C3  UNL     1       2.303  44.336   4.711  1.00  0.00     0.154 C 
HETATM    2  C5  UNL     1       1.348  43.220   4.301  1.00  0.00     0.084 C 
HETATM    3  C6  UNL     1       0.921  43.759   2.943  1.00  0.00     0.153 C 
HETATM    4  O3  UNL     1       0.023  44.783   3.131  1.00  0.00    -0.383 OA
HETATM    5  C7  UNL     1      -0.336  45.442   1.985  1.00  0.00     0.168 C 
HETATM    6  C8  UNL     1       0.691  45.415   0.895  1.00  0.00     0.029 C 
HETATM    7  C9  UNL     1       2.071  45.497   1.523  1.00  0.00     0.036 C 
HETATM    8  C10 UNL     1       2.220  44.334   2.456  1.00  0.00     0.152 C 
HETATM    9  O4  UNL     1       2.953  44.708   3.566  1.00  0.00    -0.361 OA
ENDROOT
BRANCH   1  10
HETATM   10  C2  UNL     1       3.215  43.940   5.805  1.00  0.00     0.093 C 
BRANCH  10  11
HETATM   11  C1  UNL     1       3.909  42.634   5.741  1.00  0.00     0.286 C 
BRANCH  11  12
HETATM   12  N1  UNL     1       4.647  42.685   4.448  1.00  0.00    -0.065 N 
ATOM     13  H13 UNL     1       4.286  42.056   3.732  1.00  0.00     0.275 HD
ATOM     14  H12 UNL     1       4.508  43.545   3.918  1.00  0.00     0.275 HD
ATOM     15  H11 UNL     1       5.616  42.508   4.714  1.00  0.00     0.275 HD
ENDBRANCH  11  12
BRANCH  11  16
HETATM   16  C11 UNL     1       3.029  41.455   5.619  1.00  0.00     0.204 C 
HETATM   17  O5  UNL     1       3.289  40.575   4.760  1.00  0.00    -0.646 OA
HETATM   18  O6  UNL     1       1.907  41.227   6.395  1.00  0.00    -0.646 OA
ENDBRANCH  11  16
ENDBRANCH  10  11
ENDBRANCH   1  10
BRANCH   1  19
HETATM   19  C4  UNL     1       1.447  45.416   5.265  1.00  0.00     0.209 C 
HETATM   20  O1  UNL     1       0.541  45.130   6.049  1.00  0.00    -0.646 OA
HETATM   21  O2  UNL     1       1.676  46.712   4.894  1.00  0.00    -0.646 OA
ENDBRANCH   1  19
TORSDOF 5
ENDMDL
