MODEL 2
REMARK VINA RESULT: -5.741899993      3.189      4.874
REMARK  5 active torsions:
REMARK  status: ('A' for Active; 'I' for Inactive)
REMARK    1  A    between atoms: O1_1  and  C1_3 
REMARK    2  A    between atoms: C1_3  and  C2_4 
REMARK    3  A    between atoms: C4_8  and  O2_9 
REMARK    4  A    between atoms: C5_11  and  O3_12 
REMARK    5  A    between atoms: C6_14  and  O4_15 
ROOT
HETATM    1  C2  UNL     1      12.311  35.303  40.538  1.00  0.00     0.131 C 
HETATM    2  N1  UNL     1      13.341  34.552  41.194  1.00  0.00    -0.410 N 
ATOM      3  H1  UNL     1      13.754  33.713  40.784  1.00  0.00     0.153 HD
HETATM    4  C3  UNL     1      13.746  35.064  42.459  1.00  0.00     0.148 C 
HETATM    5  C4  UNL     1      14.105  36.548  42.349  1.00  0.00     0.166 C 
HETATM    6  C5  UNL     1      12.796  37.229  41.924  1.00  0.00     0.179 C 
HETATM    7  C6  UNL     1      12.580  36.781  40.493  1.00  0.00     0.173 C 
ENDROOT
BRANCH   1   8
HETATM    8  C1  UNL     1      12.040  34.707  39.186  1.00  0.00     0.191 C 
BRANCH   8   9
HETATM    9  O1  UNL     1      10.654  34.712  38.997  1.00  0.00    -0.399 OA
ATOM     10  H1  UNL     1      10.357  33.811  39.052  1.00  0.00     0.209 HD
ENDBRANCH   8   9
ENDBRANCH   1   8
BRANCH   7  11
HETATM   11  O4  UNL     1      11.519  37.413  39.882  1.00  0.00    -0.391 OA
ATOM     12  H4  UNL     1      11.188  36.858  39.185  1.00  0.00     0.210 HD
ENDBRANCH   7  11
BRANCH   6  13
HETATM   13  O3  UNL     1      12.844  38.589  42.068  1.00  0.00    -0.390 OA
ATOM     14  H3  UNL     1      12.145  38.920  42.618  1.00  0.00     0.210 HD
ENDBRANCH   6  13
BRANCH   5  15
HETATM   15  O2  UNL     1      14.599  37.054  43.523  1.00  0.00    -0.391 OA
ATOM     16  H2  UNL     1      15.332  37.642  43.383  1.00  0.00     0.210 HD
ENDBRANCH   5  15
TORSDOF 5
ENDMDL
