MODEL 1
REMARK VINA RESULT: -6.273606081      0.000      0.000
REMARK  5 active torsions:
REMARK  status: ('A' for Active; 'I' for Inactive)
REMARK    1  A    between atoms: O1_1  and  C1_3 
REMARK    2  A    between atoms: C1_3  and  C2_4 
REMARK    3  A    between atoms: C4_8  and  O2_9 
REMARK    4  A    between atoms: C5_11  and  O3_12 
REMARK    5  A    between atoms: C6_14  and  O4_15 
ROOT
HETATM    1  C2  UNL     1      15.211  39.867  42.206  1.00  0.00     0.131 C 
HETATM    2  N1  UNL     1      16.217  38.894  42.516  1.00  0.00    -0.410 N 
ATOM      3  H1  UNL     1      17.124  39.149  42.907  1.00  0.00     0.153 HD
HETATM    4  C3  UNL     1      15.855  37.545  42.236  1.00  0.00     0.148 C 
HETATM    5  C4  UNL     1      14.512  37.203  42.886  1.00  0.00     0.166 C 
HETATM    6  C5  UNL     1      13.506  38.146  42.209  1.00  0.00     0.179 C 
HETATM    7  C6  UNL     1      13.852  39.520  42.746  1.00  0.00     0.173 C 
ENDROOT
BRANCH   1   8
HETATM    8  C1  UNL     1      15.686  41.230  42.624  1.00  0.00     0.191 C 
BRANCH   8   9
HETATM    9  O1  UNL     1      15.545  42.079  41.522  1.00  0.00    -0.399 OA
ATOM     10  H1  UNL     1      16.386  42.495  41.375  1.00  0.00     0.209 HD
ENDBRANCH   8   9
ENDBRANCH   1   8
BRANCH   7  11
HETATM   11  O4  UNL     1      12.954  40.493  42.362  1.00  0.00    -0.391 OA
ATOM     12  H4  UNL     1      12.245  40.086  41.878  1.00  0.00     0.210 HD
ENDBRANCH   7  11
BRANCH   6  13
HETATM   13  O3  UNL     1      12.209  37.781  42.442  1.00  0.00    -0.390 OA
ATOM     14  H3  UNL     1      11.699  37.725  41.643  1.00  0.00     0.210 HD
ENDBRANCH   6  13
BRANCH   5  15
HETATM   15  O2  UNL     1      14.177  35.884  42.728  1.00  0.00    -0.391 OA
ATOM     16  H2  UNL     1      14.268  35.389  43.534  1.00  0.00     0.210 HD
ENDBRANCH   5  15
TORSDOF 5
ENDMDL
