MODEL 4
REMARK VINA RESULT: -5.679885121      3.024      4.111
REMARK  5 active torsions:
REMARK  status: ('A' for Active; 'I' for Inactive)
REMARK    1  A    between atoms: O1_1  and  C1_3 
REMARK    2  A    between atoms: C1_3  and  C2_4 
REMARK    3  A    between atoms: C4_8  and  O2_9 
REMARK    4  A    between atoms: C5_11  and  O3_12 
REMARK    5  A    between atoms: C6_14  and  O4_15 
ROOT
HETATM    1  C2  UNL     1      12.297  36.122  41.382  1.00  0.00     0.131 C 
HETATM    2  N1  UNL     1      13.040  35.267  40.504  1.00  0.00    -0.410 N 
ATOM      3  H1  UNL     1      12.654  34.911  39.629  1.00  0.00     0.153 HD
HETATM    4  C3  UNL     1      14.356  34.950  40.946  1.00  0.00     0.148 C 
HETATM    5  C4  UNL     1      15.131  36.225  41.288  1.00  0.00     0.166 C 
HETATM    6  C5  UNL     1      14.346  36.851  42.450  1.00  0.00     0.179 C 
HETATM    7  C6  UNL     1      13.058  37.342  41.819  1.00  0.00     0.173 C 
ENDROOT
BRANCH   1   8
HETATM    8  C1  UNL     1      10.966  36.443  40.762  1.00  0.00     0.191 C 
BRANCH   8   9
HETATM    9  O1  UNL     1      11.145  37.562  39.943  1.00  0.00    -0.399 OA
ATOM     10  H1  UNL     1      11.128  38.329  40.503  1.00  0.00     0.209 HD
ENDBRANCH   8   9
ENDBRANCH   1   8
BRANCH   7  11
HETATM   11  O4  UNL     1      12.275  38.073  42.687  1.00  0.00    -0.391 OA
ATOM     12  H4  UNL     1      12.657  38.035  43.556  1.00  0.00     0.210 HD
ENDBRANCH   7  11
BRANCH   6  13
HETATM   13  O3  UNL     1      15.050  37.835  43.087  1.00  0.00    -0.390 OA
ATOM     14  H3  UNL     1      15.988  37.742  42.971  1.00  0.00     0.210 HD
ENDBRANCH   6  13
BRANCH   5  15
HETATM   15  O2  UNL     1      16.436  35.971  41.618  1.00  0.00    -0.391 OA
ATOM     16  H2  UNL     1      16.972  35.785  40.856  1.00  0.00     0.210 HD
ENDBRANCH   5  15
TORSDOF 5
ENDMDL
