MODEL 5
REMARK VINA RESULT: -8.471284840      3.785      7.236
REMARK  6 active torsions:
REMARK  status: ('A' for Active; 'I' for Inactive)
REMARK    1  A    between atoms: N1_2  and  C2_4 
REMARK    2  A    between atoms: C9_19  and  C10_20 
REMARK    3  A    between atoms: C10_20  and  C11_21 
REMARK    4  A    between atoms: C11_21  and  N6_22 
REMARK    5  A    between atoms: N6_22  and  C12_25 
REMARK    6  A    between atoms: C12_25  and  C13_26 
ROOT
HETATM    1  C2  UNL     1      17.385  17.936  14.232  1.00  0.00     0.678 A 
HETATM    2  N2  UNL     1      16.579  18.685  13.467  1.00  0.00    -0.190 N 
ATOM      3  H2  UNL     1      16.884  19.343  12.750  1.00  0.00     0.184 HD
HETATM    4  C3  UNL     1      15.318  18.430  13.797  1.00  0.00     0.078 A 
HETATM    5  C4  UNL     1      14.124  18.905  13.343  1.00  0.00     0.052 A 
HETATM    6  C5  UNL     1      12.931  18.458  13.873  1.00  0.00     0.062 A 
HETATM    7  C6  UNL     1      11.738  18.954  13.406  1.00  0.00     0.260 A 
HETATM    8  O1  UNL     1      11.657  19.808  12.496  1.00  0.00    -0.267 OA
HETATM    9  N3  UNL     1      10.612  18.494  13.960  1.00  0.00    -0.297 N 
ATOM     10  H3  UNL     1       9.711  18.843  13.633  1.00  0.00     0.171 HD
HETATM   11  C7  UNL     1      10.651  17.578  14.939  1.00  0.00     0.195 A 
HETATM   12  N4  UNL     1       9.462  17.071  15.546  1.00  0.00    -0.063 NA
HETATM   13  N5  UNL     1      11.826  17.078  15.412  1.00  0.00    -0.329 N 
ATOM     14  H5  UNL     1      11.827  16.382  16.158  1.00  0.00     0.168 HD
HETATM   15  C8  UNL     1      12.973  17.507  14.889  1.00  0.00     0.059 A 
HETATM   16  C9  UNL     1      14.167  17.007  15.370  1.00  0.00     0.001 A 
HETATM   17  C19 UNL     1      15.331  17.488  14.804  1.00  0.00     0.085 A 
HETATM   18  N7  UNL     1      16.613  17.206  15.047  1.00  0.00    -0.189 N 
ATOM     19  H7  UNL     1      16.951  16.541  15.743  1.00  0.00     0.184 HD
ENDROOT
BRANCH  16  20
HETATM   20  C10 UNL     1      14.164  15.967  16.430  1.00  0.00     0.070 C 
BRANCH  20  21
HETATM   21  C11 UNL     1      13.563  16.435  17.705  1.00  0.00     0.237 C 
BRANCH  21  22
HETATM   22  N6  UNL     1      14.332  16.104  18.847  1.00  0.00    -0.071 N 
ATOM     23  H62 UNL     1      14.458  16.926  19.439  1.00  0.00     0.277 HD
ATOM     24  H61 UNL     1      13.791  15.513  19.479  1.00  0.00     0.277 HD
BRANCH  22  25
HETATM   25  C12 UNL     1      15.589  15.503  18.562  1.00  0.00     0.270 C 
BRANCH  25  26
HETATM   26  C13 UNL     1      16.717  16.200  19.246  1.00  0.00    -0.033 A 
HETATM   27  C14 UNL     1      17.751  16.739  18.516  1.00  0.00     0.009 A 
HETATM   28  C15 UNL     1      18.816  17.401  19.089  1.00  0.00     0.001 A 
HETATM   29  C16 UNL     1      18.870  17.543  20.454  1.00  0.00     0.000 A 
HETATM   30  C17 UNL     1      17.833  17.004  21.198  1.00  0.00     0.001 A 
HETATM   31  C18 UNL     1      16.769  16.343  20.618  1.00  0.00     0.009 A 
ENDBRANCH  25  26
ENDBRANCH  22  25
ENDBRANCH  21  22
ENDBRANCH  20  21
ENDBRANCH  16  20
BRANCH   1  32
HETATM   32  N1  UNL     1      18.832  17.917  14.182  1.00  0.00    -0.230 N 
HETATM   33  C1  UNL     1      19.506  17.991  12.906  1.00  0.00     0.165 C 
ATOM     34  H1  UNL     1      19.374  17.852  15.044  1.00  0.00     0.177 HD
ENDBRANCH   1  32
TORSDOF 6
ENDMDL
