MODEL 3
REMARK VINA RESULT: -8.673579471      1.613      1.821
REMARK  6 active torsions:
REMARK  status: ('A' for Active; 'I' for Inactive)
REMARK    1  A    between atoms: N1_2  and  C2_4 
REMARK    2  A    between atoms: C9_19  and  C10_20 
REMARK    3  A    between atoms: C10_20  and  C11_21 
REMARK    4  A    between atoms: C11_21  and  N6_22 
REMARK    5  A    between atoms: N6_22  and  C12_25 
REMARK    6  A    between atoms: C12_25  and  C13_26 
ROOT
HETATM    1  C2  UNL     1      18.546  17.244  16.907  1.00  0.00     0.678 A 
HETATM    2  N2  UNL     1      19.259  17.520  18.007  1.00  0.00    -0.190 N 
ATOM      3  H2  UNL     1      20.220  17.861  18.022  1.00  0.00     0.184 HD
HETATM    4  C3  UNL     1      18.507  17.277  19.076  1.00  0.00     0.078 A 
HETATM    5  C4  UNL     1      18.733  17.387  20.415  1.00  0.00     0.052 A 
HETATM    6  C5  UNL     1      17.753  17.062  21.331  1.00  0.00     0.062 A 
HETATM    7  C6  UNL     1      18.001  17.174  22.678  1.00  0.00     0.260 A 
HETATM    8  O1  UNL     1      19.091  17.570  23.145  1.00  0.00    -0.267 OA
HETATM    9  N3  UNL     1      17.022  16.838  23.522  1.00  0.00    -0.297 N 
ATOM     10  H3  UNL     1      17.178  16.911  24.528  1.00  0.00     0.171 HD
HETATM   11  C7  UNL     1      15.837  16.407  23.065  1.00  0.00     0.195 A 
HETATM   12  N4  UNL     1      14.776  16.043  23.948  1.00  0.00    -0.063 NA
HETATM   13  N5  UNL     1      15.577  16.292  21.734  1.00  0.00    -0.329 N 
ATOM     14  H5  UNL     1      14.666  15.961  21.413  1.00  0.00     0.168 HD
HETATM   15  C8  UNL     1      16.523  16.616  20.855  1.00  0.00     0.059 A 
HETATM   16  C9  UNL     1      16.265  16.495  19.504  1.00  0.00     0.001 A 
HETATM   17  C19 UNL     1      17.280  16.833  18.631  1.00  0.00     0.085 A 
HETATM   18  N7  UNL     1      17.336  16.824  17.297  1.00  0.00    -0.189 N 
ATOM     19  H7  UNL     1      16.579  16.542  16.675  1.00  0.00     0.184 HD
ENDROOT
BRANCH  16  20
HETATM   20  C10 UNL     1      14.927  16.049  19.040  1.00  0.00     0.070 C 
BRANCH  20  21
HETATM   21  C11 UNL     1      14.939  14.687  18.448  1.00  0.00     0.237 C 
BRANCH  21  22
HETATM   22  N6  UNL     1      14.017  14.524  17.386  1.00  0.00    -0.071 N 
ATOM     23  H62 UNL     1      14.483  14.128  16.570  1.00  0.00     0.277 HD
ATOM     24  H61 UNL     1      13.362  13.771  17.597  1.00  0.00     0.277 HD
BRANCH  22  25
HETATM   25  C12 UNL     1      13.312  15.706  17.026  1.00  0.00     0.270 C 
BRANCH  25  26
HETATM   26  C13 UNL     1      13.787  16.275  15.731  1.00  0.00    -0.033 A 
HETATM   27  C14 UNL     1      13.386  17.529  15.330  1.00  0.00     0.009 A 
HETATM   28  C15 UNL     1      13.796  18.113  14.150  1.00  0.00     0.001 A 
HETATM   29  C16 UNL     1      14.648  17.428  13.317  1.00  0.00     0.000 A 
HETATM   30  C17 UNL     1      15.057  16.165  13.712  1.00  0.00     0.001 A 
HETATM   31  C18 UNL     1      14.643  15.587  14.895  1.00  0.00     0.009 A 
ENDBRANCH  25  26
ENDBRANCH  22  25
ENDBRANCH  21  22
ENDBRANCH  20  21
ENDBRANCH  16  20
BRANCH   1  32
HETATM   32  N1  UNL     1      19.003  17.379  15.539  1.00  0.00    -0.230 N 
HETATM   33  C1  UNL     1      18.167  18.043  14.566  1.00  0.00     0.165 C 
ATOM     34  H1  UNL     1      19.912  17.006  15.263  1.00  0.00     0.177 HD
ENDBRANCH   1  32
TORSDOF 6
ENDMDL
