MODEL 2
REMARK VINA RESULT: -8.714950459      2.445      4.943
REMARK  6 active torsions:
REMARK  status: ('A' for Active; 'I' for Inactive)
REMARK    1  A    between atoms: N1_2  and  C2_4 
REMARK    2  A    between atoms: C9_19  and  C10_20 
REMARK    3  A    between atoms: C10_20  and  C11_21 
REMARK    4  A    between atoms: C11_21  and  N6_22 
REMARK    5  A    between atoms: N6_22  and  C12_25 
REMARK    6  A    between atoms: C12_25  and  C13_26 
ROOT
HETATM    1  C2  UNL     1      18.335  16.678  20.411  1.00  0.00     0.678 A 
HETATM    2  N2  UNL     1      19.023  17.095  19.339  1.00  0.00    -0.190 N 
ATOM      3  H2  UNL     1      20.011  17.347  19.329  1.00  0.00     0.184 HD
HETATM    4  C3  UNL     1      18.206  17.127  18.292  1.00  0.00     0.078 A 
HETATM    5  C4  UNL     1      18.384  17.467  16.984  1.00  0.00     0.052 A 
HETATM    6  C5  UNL     1      17.340  17.405  16.085  1.00  0.00     0.062 A 
HETATM    7  C6  UNL     1      17.536  17.759  14.772  1.00  0.00     0.260 A 
HETATM    8  O1  UNL     1      18.639  18.140  14.320  1.00  0.00    -0.267 OA
HETATM    9  N3  UNL     1      16.490  17.690  13.943  1.00  0.00    -0.297 N 
ATOM     10  H3  UNL     1      16.607  17.946  12.963  1.00  0.00     0.171 HD
HETATM   11  C7  UNL     1      15.289  17.287  14.384  1.00  0.00     0.195 A 
HETATM   12  N4  UNL     1      14.157  17.205  13.518  1.00  0.00    -0.063 NA
HETATM   13  N5  UNL     1      15.079  16.934  15.682  1.00  0.00    -0.329 N 
ATOM     14  H5  UNL     1      14.155  16.632  15.991  1.00  0.00     0.168 HD
HETATM   15  C8  UNL     1      16.093  16.987  16.543  1.00  0.00     0.059 A 
HETATM   16  C9  UNL     1      15.883  16.635  17.862  1.00  0.00     0.001 A 
HETATM   17  C19 UNL     1      16.962  16.715  18.720  1.00  0.00     0.085 A 
HETATM   18  N7  UNL     1      17.074  16.448  20.023  1.00  0.00    -0.189 N 
ATOM     19  H7  UNL     1      16.321  16.120  20.628  1.00  0.00     0.184 HD
ENDROOT
BRANCH  16  20
HETATM   20  C10 UNL     1      14.546  16.160  18.300  1.00  0.00     0.070 C 
BRANCH  20  21
HETATM   21  C11 UNL     1      14.405  14.682  18.243  1.00  0.00     0.237 C 
BRANCH  21  22
HETATM   22  N6  UNL     1      13.264  14.251  17.523  1.00  0.00    -0.071 N 
ATOM     23  H62 UNL     1      13.404  14.389  16.522  1.00  0.00     0.277 HD
ATOM     24  H61 UNL     1      13.190  13.234  17.552  1.00  0.00     0.277 HD
BRANCH  22  25
HETATM   25  C12 UNL     1      12.041  14.847  17.937  1.00  0.00     0.270 C 
BRANCH  25  26
HETATM   26  C13 UNL     1      11.498  15.792  16.917  1.00  0.00    -0.033 A 
HETATM   27  C14 UNL     1      11.301  17.118  17.226  1.00  0.00     0.009 A 
HETATM   28  C15 UNL     1      10.811  18.040  16.326  1.00  0.00     0.001 A 
HETATM   29  C16 UNL     1      10.497  17.639  15.050  1.00  0.00     0.000 A 
HETATM   30  C17 UNL     1      10.692  16.305  14.728  1.00  0.00     0.001 A 
HETATM   31  C18 UNL     1      11.184  15.388  15.635  1.00  0.00     0.009 A 
ENDBRANCH  25  26
ENDBRANCH  22  25
ENDBRANCH  21  22
ENDBRANCH  20  21
ENDBRANCH  16  20
BRANCH   1  32
HETATM   32  N1  UNL     1      18.863  16.506  21.749  1.00  0.00    -0.230 N 
HETATM   33  C1  UNL     1      18.110  16.990  22.883  1.00  0.00     0.165 C 
ATOM     34  H1  UNL     1      19.762  16.045  21.890  1.00  0.00     0.177 HD
ENDBRANCH   1  32
TORSDOF 6
ENDMDL
