MODEL 1
REMARK VINA RESULT: -9.181674055      0.000      0.000
REMARK  6 active torsions:
REMARK  status: ('A' for Active; 'I' for Inactive)
REMARK    1  A    between atoms: N1_2  and  C2_4 
REMARK    2  A    between atoms: C9_19  and  C10_20 
REMARK    3  A    between atoms: C10_20  and  C11_21 
REMARK    4  A    between atoms: C11_21  and  N6_22 
REMARK    5  A    between atoms: N6_22  and  C12_25 
REMARK    6  A    between atoms: C12_25  and  C13_26 
ROOT
HETATM    1  C2  UNL     1      18.564  17.246  16.915  1.00  0.00     0.678 A 
HETATM    2  N2  UNL     1      19.267  17.548  18.016  1.00  0.00    -0.190 N 
ATOM      3  H2  UNL     1      20.219  17.913  18.031  1.00  0.00     0.184 HD
HETATM    4  C3  UNL     1      18.518  17.294  19.083  1.00  0.00     0.078 A 
HETATM    5  C4  UNL     1      18.737  17.419  20.423  1.00  0.00     0.052 A 
HETATM    6  C5  UNL     1      17.763  17.076  21.338  1.00  0.00     0.062 A 
HETATM    7  C6  UNL     1      18.004  17.203  22.685  1.00  0.00     0.260 A 
HETATM    8  O1  UNL     1      19.083  17.630  23.153  1.00  0.00    -0.267 OA
HETATM    9  N3  UNL     1      17.031  16.849  23.529  1.00  0.00    -0.297 N 
ATOM     10  H3  UNL     1      17.182  16.932  24.534  1.00  0.00     0.171 HD
HETATM   11  C7  UNL     1      15.858  16.385  23.072  1.00  0.00     0.195 A 
HETATM   12  N4  UNL     1      14.804  16.001  23.954  1.00  0.00    -0.063 NA
HETATM   13  N5  UNL     1      15.605  16.254  21.740  1.00  0.00    -0.329 N 
ATOM     14  H5  UNL     1      14.704  15.898  21.419  1.00  0.00     0.168 HD
HETATM   15  C8  UNL     1      16.546  16.595  20.862  1.00  0.00     0.059 A 
HETATM   16  C9  UNL     1      16.295  16.458  19.511  1.00  0.00     0.001 A 
HETATM   17  C19 UNL     1      17.304  16.816  18.638  1.00  0.00     0.085 A 
HETATM   18  N7  UNL     1      17.364  16.799  17.305  1.00  0.00    -0.189 N 
ATOM     19  H7  UNL     1      16.616  16.493  16.682  1.00  0.00     0.184 HD
ENDROOT
BRANCH  16  20
HETATM   20  C10 UNL     1      14.970  15.975  19.047  1.00  0.00     0.070 C 
BRANCH  20  21
HETATM   21  C11 UNL     1      14.953  14.523  18.739  1.00  0.00     0.237 C 
BRANCH  21  22
HETATM   22  N6  UNL     1      14.006  14.165  17.749  1.00  0.00    -0.071 N 
ATOM     23  H62 UNL     1      14.193  14.671  16.882  1.00  0.00     0.277 HD
ATOM     24  H61 UNL     1      14.168  13.209  17.432  1.00  0.00     0.277 HD
BRANCH  22  25
HETATM   25  C12 UNL     1      12.649  14.334  18.137  1.00  0.00     0.270 C 
BRANCH  25  26
HETATM   26  C13 UNL     1      11.921  15.287  17.249  1.00  0.00    -0.033 A 
HETATM   27  C14 UNL     1      11.654  16.570  17.670  1.00  0.00     0.009 A 
HETATM   28  C15 UNL     1      10.993  17.498  16.893  1.00  0.00     0.001 A 
HETATM   29  C16 UNL     1      10.570  17.149  15.633  1.00  0.00     0.000 A 
HETATM   30  C17 UNL     1      10.835  15.859  15.201  1.00  0.00     0.001 A 
HETATM   31  C18 UNL     1      11.498  14.935  15.983  1.00  0.00     0.009 A 
ENDBRANCH  25  26
ENDBRANCH  22  25
ENDBRANCH  21  22
ENDBRANCH  20  21
ENDBRANCH  16  20
BRANCH   1  32
HETATM   32  N1  UNL     1      19.022  17.382  15.547  1.00  0.00    -0.230 N 
HETATM   33  C1  UNL     1      18.155  17.979  14.558  1.00  0.00     0.165 C 
ATOM     34  H1  UNL     1      19.953  17.059  15.284  1.00  0.00     0.177 HD
ENDBRANCH   1  32
TORSDOF 6
ENDMDL
