MODEL 7
REMARK VINA RESULT: -8.127708622      3.756      7.763
REMARK  6 active torsions:
REMARK  status: ('A' for Active; 'I' for Inactive)
REMARK    1  A    between atoms: N1_2  and  C2_4 
REMARK    2  A    between atoms: C9_19  and  C10_20 
REMARK    3  A    between atoms: C10_20  and  C11_21 
REMARK    4  A    between atoms: C11_21  and  N6_22 
REMARK    5  A    between atoms: N6_22  and  C12_25 
REMARK    6  A    between atoms: C12_25  and  C13_26 
ROOT
HETATM    1  C2  UNL     1      10.571  17.814  13.940  1.00  0.00     0.678 A 
HETATM    2  N2  UNL     1      11.315  18.654  13.208  1.00  0.00    -0.190 N 
ATOM      3  H2  UNL     1      10.960  19.301  12.503  1.00  0.00     0.184 HD
HETATM    4  C3  UNL     1      12.590  18.506  13.551  1.00  0.00     0.078 A 
HETATM    5  C4  UNL     1      13.741  19.100  13.128  1.00  0.00     0.052 A 
HETATM    6  C5  UNL     1      14.962  18.751  13.668  1.00  0.00     0.062 A 
HETATM    7  C6  UNL     1      16.112  19.357  13.225  1.00  0.00     0.260 A 
HETATM    8  O1  UNL     1      16.127  20.240  12.339  1.00  0.00    -0.267 OA
HETATM    9  N3  UNL     1      17.269  18.977  13.774  1.00  0.00    -0.297 N 
ATOM     10  H3  UNL     1      18.139  19.409  13.465  1.00  0.00     0.171 HD
HETATM   11  C7  UNL     1      17.301  18.033  14.727  1.00  0.00     0.195 A 
HETATM   12  N4  UNL     1      18.525  17.610  15.329  1.00  0.00    -0.063 NA
HETATM   13  N5  UNL     1      16.169  17.424  15.176  1.00  0.00    -0.329 N 
ATOM     14  H5  UNL     1      16.222  16.709  15.902  1.00  0.00     0.168 HD
HETATM   15  C8  UNL     1      14.993  17.772  14.658  1.00  0.00     0.059 A 
HETATM   16  C9  UNL     1      13.844  17.153  15.106  1.00  0.00     0.001 A 
HETATM   17  C19 UNL     1      12.649  17.539  14.533  1.00  0.00     0.085 A 
HETATM   18  N7  UNL     1      11.395  17.136  14.748  1.00  0.00    -0.189 N 
ATOM     19  H7  UNL     1      11.109  16.424  15.421  1.00  0.00     0.184 HD
ENDROOT
BRANCH  16  20
HETATM   20  C10 UNL     1      13.920  16.139  16.189  1.00  0.00     0.070 C 
BRANCH  20  21
HETATM   21  C11 UNL     1      13.262  16.578  17.446  1.00  0.00     0.237 C 
BRANCH  21  22
HETATM   22  N6  UNL     1      13.942  16.161  18.616  1.00  0.00    -0.071 N 
ATOM     23  H62 UNL     1      14.076  16.950  19.248  1.00  0.00     0.277 HD
ATOM     24  H61 UNL     1      13.334  15.577  19.190  1.00  0.00     0.277 HD
BRANCH  22  25
HETATM   25  C12 UNL     1      15.179  15.501  18.379  1.00  0.00     0.270 C 
BRANCH  25  26
HETATM   26  C13 UNL     1      16.299  16.101  19.163  1.00  0.00    -0.033 A 
HETATM   27  C14 UNL     1      17.415  16.591  18.526  1.00  0.00     0.009 A 
HETATM   28  C15 UNL     1      18.478  17.162  19.194  1.00  0.00     0.001 A 
HETATM   29  C16 UNL     1      18.442  17.259  20.564  1.00  0.00     0.000 A 
HETATM   30  C17 UNL     1      17.322  16.768  21.215  1.00  0.00     0.001 A 
HETATM   31  C18 UNL     1      16.262  16.198  20.540  1.00  0.00     0.009 A 
ENDBRANCH  25  26
ENDBRANCH  22  25
ENDBRANCH  21  22
ENDBRANCH  20  21
ENDBRANCH  16  20
BRANCH   1  32
HETATM   32  N1  UNL     1       9.131  17.669  13.871  1.00  0.00    -0.230 N 
HETATM   33  C1  UNL     1       8.374  18.477  12.943  1.00  0.00     0.165 C 
ATOM     34  H1  UNL     1       8.653  16.999  14.474  1.00  0.00     0.177 HD
ENDBRANCH   1  32
TORSDOF 6
ENDMDL
