MODEL 1
REMARK VINA RESULT: -8.915783471      0.000      0.000
REMARK  4 active torsions:
REMARK  status: ('A' for Active; 'I' for Inactive)
REMARK    1  A    between atoms: N1_2  and  C2_4 
REMARK    2  A    between atoms: C4_8  and  C5_9 
REMARK    3  A    between atoms: C5_9  and  C6_10 
REMARK    4  A    between atoms: C6_10  and  N3_11 
ROOT
HETATM    1  C2  UNL     1      18.449  17.203  17.218  1.00  0.00     0.678 A 
HETATM    2  N2  UNL     1      17.256  16.720  17.588  1.00  0.00    -0.189 N 
ATOM      3  H2  UNL     1      16.518  16.408  16.957  1.00  0.00     0.184 HD
HETATM    4  C3  UNL     1      17.194  16.714  18.909  1.00  0.00     0.085 A 
HETATM    5  C4  UNL     1      16.218  16.327  19.811  1.00  0.00     0.001 A 
HETATM    6  C7  UNL     1      16.454  16.443  21.164  1.00  0.00     0.059 A 
HETATM    7  N4  UNL     1      15.479  16.056  22.030  1.00  0.00    -0.329 N 
ATOM      8  H4  UNL     1      14.605  15.692  21.651  1.00  0.00     0.168 HD
HETATM    9  C8  UNL     1      15.622  16.135  23.363  1.00  0.00     0.195 A 
HETATM   10  N5  UNL     1      14.603  15.730  24.270  1.00  0.00    -0.063 NA
HETATM   11  N6  UNL     1      16.790  16.620  23.839  1.00  0.00    -0.297 N 
ATOM     12  H6  UNL     1      16.920  16.687  24.849  1.00  0.00     0.171 HD
HETATM   13  C9  UNL     1      17.789  17.018  23.025  1.00  0.00     0.260 A 
HETATM   14  O1  UNL     1      18.873  17.467  23.470  1.00  0.00    -0.267 OA
HETATM   15  C10 UNL     1      17.641  16.937  21.657  1.00  0.00     0.062 A 
HETATM   16  C11 UNL     1      18.619  17.325  20.767  1.00  0.00     0.052 A 
HETATM   17  C12 UNL     1      18.387  17.209  19.389  1.00  0.00     0.078 A 
HETATM   18  N7  UNL     1      19.144  17.504  18.320  1.00  0.00    -0.190 N 
ATOM     19  H7  UNL     1      20.088  17.891  18.345  1.00  0.00     0.184 HD
ENDROOT
BRANCH   5  20
HETATM   20  C5  UNL     1      14.944  15.797  19.325  1.00  0.00     0.070 C 
BRANCH  20  21
HETATM   21  C6  UNL     1      15.041  14.474  18.629  1.00  0.00     0.234 C 
BRANCH  21  22
HETATM   22  N3  UNL     1      14.346  13.451  19.385  1.00  0.00    -0.079 N 
ATOM     23  H33 UNL     1      14.971  12.962  20.026  1.00  0.00     0.274 HD
ATOM     24  H32 UNL     1      13.709  13.853  20.072  1.00  0.00     0.274 HD
ATOM     25  H31 UNL     1      13.867  12.805  18.756  1.00  0.00     0.274 HD
ENDBRANCH  21  22
ENDBRANCH  20  21
ENDBRANCH   5  20
BRANCH   1  26
HETATM   26  N1  UNL     1      18.874  17.357  15.855  1.00  0.00    -0.230 N 
HETATM   27  C1  UNL     1      17.889  17.782  14.887  1.00  0.00     0.165 C 
ATOM     28  H1  UNL     1      19.839  17.172  15.579  1.00  0.00     0.177 HD
ENDBRANCH   1  26
TORSDOF 4
ENDMDL
