MODEL 5
REMARK VINA RESULT: -7.656169735      3.429      5.984
REMARK  4 active torsions:
REMARK  status: ('A' for Active; 'I' for Inactive)
REMARK    1  A    between atoms: N1_2  and  C2_4 
REMARK    2  A    between atoms: C4_8  and  C5_9 
REMARK    3  A    between atoms: C5_9  and  C6_10 
REMARK    4  A    between atoms: C6_10  and  N3_11 
ROOT
HETATM    1  C2  UNL     1      17.845  16.760  18.633  1.00  0.00     0.678 A 
HETATM    2  N2  UNL     1      17.300  17.186  17.487  1.00  0.00    -0.189 N 
ATOM      3  H2  UNL     1      17.743  17.812  16.814  1.00  0.00     0.184 HD
HETATM    4  C3  UNL     1      16.093  16.660  17.371  1.00  0.00     0.085 A 
HETATM    5  C4  UNL     1      15.104  16.755  16.407  1.00  0.00     0.001 A 
HETATM    6  C7  UNL     1      13.920  16.069  16.573  1.00  0.00     0.059 A 
HETATM    7  N4  UNL     1      12.965  16.180  15.611  1.00  0.00    -0.329 N 
ATOM      8  H4  UNL     1      13.154  16.766  14.798  1.00  0.00     0.168 HD
HETATM    9  C8  UNL     1      11.782  15.548  15.690  1.00  0.00     0.195 A 
HETATM   10  N5  UNL     1      10.782  15.663  14.684  1.00  0.00    -0.063 NA
HETATM   11  N6  UNL     1      11.556  14.777  16.776  1.00  0.00    -0.297 N 
ATOM     12  H6  UNL     1      10.665  14.287  16.856  1.00  0.00     0.171 HD
HETATM   13  C9  UNL     1      12.469  14.633  17.759  1.00  0.00     0.260 A 
HETATM   14  O1  UNL     1      12.257  13.915  18.766  1.00  0.00    -0.267 OA
HETATM   15  C10 UNL     1      13.682  15.282  17.677  1.00  0.00     0.062 A 
HETATM   16  C11 UNL     1      14.660  15.180  18.643  1.00  0.00     0.052 A 
HETATM   17  C12 UNL     1      15.868  15.874  18.481  1.00  0.00     0.078 A 
HETATM   18  N7  UNL     1      16.969  15.955  19.245  1.00  0.00    -0.190 N 
ATOM     19  H7  UNL     1      17.112  15.484  20.138  1.00  0.00     0.184 HD
ENDROOT
BRANCH   5  20
HETATM   20  C5  UNL     1      15.321  17.582  15.219  1.00  0.00     0.070 C 
BRANCH  20  21
HETATM   21  C6  UNL     1      15.945  16.864  14.063  1.00  0.00     0.234 C 
BRANCH  21  22
HETATM   22  N3  UNL     1      17.369  17.131  14.008  1.00  0.00    -0.079 N 
ATOM     23  H33 UNL     1      17.615  17.984  14.509  1.00  0.00     0.274 HD
ATOM     24  H32 UNL     1      17.901  16.466  14.570  1.00  0.00     0.274 HD
ATOM     25  H31 UNL     1      17.691  17.154  13.040  1.00  0.00     0.274 HD
ENDBRANCH  21  22
ENDBRANCH  20  21
ENDBRANCH   5  20
BRANCH   1  26
HETATM   26  N1  UNL     1      19.155  17.127  19.094  1.00  0.00    -0.230 N 
HETATM   27  C1  UNL     1      19.429  17.000  20.507  1.00  0.00     0.165 C 
ATOM     28  H1  UNL     1      19.867  17.465  18.447  1.00  0.00     0.177 HD
ENDBRANCH   1  26
TORSDOF 4
ENDMDL
