MODEL 3
REMARK VINA RESULT: -7.880501542      2.847      5.783
REMARK  4 active torsions:
REMARK  status: ('A' for Active; 'I' for Inactive)
REMARK    1  A    between atoms: N1_2  and  C2_4 
REMARK    2  A    between atoms: C4_8  and  C5_9 
REMARK    3  A    between atoms: C5_9  and  C6_10 
REMARK    4  A    between atoms: C6_10  and  N3_11 
ROOT
HETATM    1  C2  UNL     1      18.264  16.809  20.654  1.00  0.00     0.678 A 
HETATM    2  N2  UNL     1      17.044  16.423  20.263  1.00  0.00    -0.189 N 
ATOM      3  H2  UNL     1      16.324  16.025  20.868  1.00  0.00     0.184 HD
HETATM    4  C3  UNL     1      16.926  16.641  18.965  1.00  0.00     0.085 A 
HETATM    5  C4  UNL     1      15.902  16.435  18.057  1.00  0.00     0.001 A 
HETATM    6  C7  UNL     1      16.083  16.773  16.733  1.00  0.00     0.059 A 
HETATM    7  N4  UNL     1      15.062  16.560  15.862  1.00  0.00    -0.329 N 
ATOM      8  H4  UNL     1      14.193  16.157  16.214  1.00  0.00     0.168 HD
HETATM    9  C8  UNL     1      15.151  16.859  14.555  1.00  0.00     0.195 A 
HETATM   10  N5  UNL     1      14.082  16.637  13.642  1.00  0.00    -0.063 NA
HETATM   11  N6  UNL     1      16.311  17.392  14.113  1.00  0.00    -0.297 N 
ATOM     12  H6  UNL     1      16.400  17.628  13.124  1.00  0.00     0.171 HD
HETATM   13  C9  UNL     1      17.356  17.624  14.935  1.00  0.00     0.260 A 
HETATM   14  O1  UNL     1      18.431  18.119  14.523  1.00  0.00    -0.267 OA
HETATM   15  C10 UNL     1      17.263  17.316  16.275  1.00  0.00     0.062 A 
HETATM   16  C11 UNL     1      18.289  17.526  17.172  1.00  0.00     0.052 A 
HETATM   17  C12 UNL     1      18.111  17.184  18.520  1.00  0.00     0.078 A 
HETATM   18  N7  UNL     1      18.921  17.277  19.586  1.00  0.00    -0.190 N 
ATOM     19  H7  UNL     1      19.875  17.641  19.583  1.00  0.00     0.184 HD
ENDROOT
BRANCH   5  20
HETATM   20  C5  UNL     1      14.633  15.860  18.507  1.00  0.00     0.070 C 
BRANCH  20  21
HETATM   21  C6  UNL     1      14.650  14.375  18.696  1.00  0.00     0.234 C 
BRANCH  21  22
HETATM   22  N3  UNL     1      13.310  13.834  18.590  1.00  0.00    -0.079 N 
ATOM     23  H33 UNL     1      12.656  14.513  18.201  1.00  0.00     0.274 HD
ATOM     24  H32 UNL     1      13.243  13.124  17.861  1.00  0.00     0.274 HD
ATOM     25  H31 UNL     1      12.995  13.480  19.494  1.00  0.00     0.274 HD
ENDBRANCH  21  22
ENDBRANCH  20  21
ENDBRANCH   5  20
BRANCH   1  26
HETATM   26  N1  UNL     1      18.751  16.722  22.002  1.00  0.00    -0.230 N 
HETATM   27  C1  UNL     1      17.820  17.001  23.072  1.00  0.00     0.165 C 
ATOM     28  H1  UNL     1      19.721  16.472  22.198  1.00  0.00     0.177 HD
ENDBRANCH   1  26
TORSDOF 4
ENDMDL
