MODEL 4
REMARK VINA RESULT: -7.677739320      3.725      5.983
REMARK  4 active torsions:
REMARK  status: ('A' for Active; 'I' for Inactive)
REMARK    1  A    between atoms: N1_2  and  C2_4 
REMARK    2  A    between atoms: C4_8  and  C5_9 
REMARK    3  A    between atoms: C5_9  and  C6_10 
REMARK    4  A    between atoms: C6_10  and  N3_11 
ROOT
HETATM    1  C2  UNL     1      18.231  17.024  18.479  1.00  0.00     0.678 A 
HETATM    2  N2  UNL     1      17.089  16.417  18.824  1.00  0.00    -0.189 N 
ATOM      3  H2  UNL     1      16.906  15.956  19.716  1.00  0.00     0.184 HD
HETATM    4  C3  UNL     1      16.237  16.514  17.818  1.00  0.00     0.085 A 
HETATM    5  C4  UNL     1      14.938  16.077  17.629  1.00  0.00     0.001 A 
HETATM    6  C7  UNL     1      14.295  16.338  16.438  1.00  0.00     0.059 A 
HETATM    7  N4  UNL     1      13.019  15.898  16.277  1.00  0.00    -0.329 N 
ATOM      8  H4  UNL     1      12.577  15.388  17.042  1.00  0.00     0.168 HD
HETATM    9  C8  UNL     1      12.317  16.107  15.151  1.00  0.00     0.195 A 
HETATM   10  N5  UNL     1      10.981  15.647  14.982  1.00  0.00    -0.063 NA
HETATM   11  N6  UNL     1      12.924  16.786  14.153  1.00  0.00    -0.297 N 
ATOM     12  H6  UNL     1      12.409  16.957  13.289  1.00  0.00     0.171 HD
HETATM   13  C9  UNL     1      14.189  17.245  14.260  1.00  0.00     0.260 A 
HETATM   14  O1  UNL     1      14.749  17.875  13.332  1.00  0.00    -0.267 OA
HETATM   15  C10 UNL     1      14.908  17.029  15.416  1.00  0.00     0.062 A 
HETATM   16  C11 UNL     1      16.202  17.469  15.594  1.00  0.00     0.052 A 
HETATM   17  C12 UNL     1      16.861  17.207  16.803  1.00  0.00     0.078 A 
HETATM   18  N7  UNL     1      18.094  17.509  17.240  1.00  0.00    -0.190 N 
ATOM     19  H7  UNL     1      18.805  18.022  16.716  1.00  0.00     0.184 HD
ENDROOT
BRANCH   5  20
HETATM   20  C5  UNL     1      14.254  15.341  18.693  1.00  0.00     0.070 C 
BRANCH  20  21
HETATM   21  C6  UNL     1      14.900  14.044  19.073  1.00  0.00     0.234 C 
BRANCH  21  22
HETATM   22  N3  UNL     1      13.897  13.021  19.291  1.00  0.00    -0.079 N 
ATOM     23  H33 UNL     1      13.001  13.274  18.875  1.00  0.00     0.274 HD
ATOM     24  H32 UNL     1      14.086  12.181  18.744  1.00  0.00     0.274 HD
ATOM     25  H31 UNL     1      13.808  12.813  20.286  1.00  0.00     0.274 HD
ENDBRANCH  21  22
ENDBRANCH  20  21
ENDBRANCH   5  20
BRANCH   1  26
HETATM   26  N1  UNL     1      19.388  17.119  19.325  1.00  0.00    -0.230 N 
HETATM   27  C1  UNL     1      19.225  16.794  20.724  1.00  0.00     0.165 C 
ATOM     28  H1  UNL     1      20.292  17.407  18.952  1.00  0.00     0.177 HD
ENDBRANCH   1  26
TORSDOF 4
ENDMDL
