MODEL 16
REMARK VINA RESULT: -8.948545359      7.299     13.212
REMARK  6 active torsions:
REMARK  status: ('A' for Active; 'I' for Inactive)
REMARK       I    between atoms: N1_2  and  C2_4 
REMARK    1  A    between atoms: C2_4  and  C3_6 
REMARK    2  A    between atoms: C5_8  and  O2_9 
REMARK    3  A    between atoms: O2_9  and  C6_10 
REMARK    4  A    between atoms: C9_13  and  N2_14 
REMARK       I    between atoms: N2_14  and  C10_16 
REMARK       I    between atoms: C10_16  and  N3_18 
REMARK    5  A    between atoms: N3_18  and  C11_20 
REMARK    6  A    between atoms: C15_25  and  C16_26 
ROOT
HETATM    1  C6  UNL     1     -22.290  -0.090  20.058  1.00  0.00     0.076 A 
HETATM    2  C7  UNL     1     -22.420   1.272  19.910  1.00  0.00     0.039 A 
HETATM    3  C8  UNL     1     -22.361   2.109  21.030  1.00  0.00     0.032 A 
HETATM    4  C9  UNL     1     -22.176   1.558  22.244  1.00  0.00     0.036 A 
HETATM    5  C18 UNL     1     -22.044   0.168  22.383  1.00  0.00     0.032 A 
HETATM    6  C19 UNL     1     -22.099  -0.662  21.295  1.00  0.00     0.039 A 
ENDROOT
BRANCH   4   7
HETATM    7  N2  UNL     1     -22.112   2.316  23.433  1.00  0.00    -0.309 N 
HETATM    8  C10 UNL     1     -22.349   3.705  23.558  1.00  0.00     0.325 C 
HETATM    9  O3  UNL     1     -22.646   4.373  22.563  1.00  0.00    -0.247 OA
HETATM   10  N3  UNL     1     -22.259   4.387  24.798  1.00  0.00    -0.309 N 
ATOM     11  H3  UNL     1     -22.017   3.813  25.606  1.00  0.00     0.170 HD
ATOM     12  H2  UNL     1     -21.871   1.812  24.287  1.00  0.00     0.170 HD
BRANCH  10  13
HETATM   13  C11 UNL     1     -22.462   5.748  25.054  1.00  0.00     0.037 A 
HETATM   14  C12 UNL     1     -22.912   6.221  26.247  1.00  0.00     0.031 A 
HETATM   15  C13 UNL     1     -23.092   7.578  26.489  1.00  0.00     0.027 A 
HETATM   16  C14 UNL     1     -22.820   8.497  25.526  1.00  0.00     0.049 A 
HETATM   17 CL1  UNL     1     -23.040  10.224  25.809  1.00  0.00    -0.083 Cl
HETATM   18  C15 UNL     1     -22.360   8.045  24.299  1.00  0.00     0.071 A 
HETATM   19  C17 UNL     1     -22.184   6.706  24.067  1.00  0.00     0.047 A 
BRANCH  18  20
HETATM   20  C16 UNL     1     -22.069   9.047  23.262  1.00  0.00     0.419 C 
HETATM   21  F1  UNL     1     -20.903   9.743  23.587  1.00  0.00    -0.166 F 
HETATM   22  F2  UNL     1     -23.115   9.872  22.986  1.00  0.00    -0.166 F 
HETATM   23  F3  UNL     1     -21.763   8.372  22.072  1.00  0.00    -0.166 F 
ENDBRANCH  18  20
ENDBRANCH  10  13
ENDBRANCH   4   7
BRANCH   1  24
HETATM   24  O2  UNL     1     -22.354  -0.901  18.918  1.00  0.00    -0.311 OA
BRANCH  24  25
HETATM   25  C5  UNL     1     -22.111  -2.260  19.036  1.00  0.00     0.079 A 
HETATM   26  C4  UNL     1     -20.872  -2.824  18.757  1.00  0.00     0.072 A 
HETATM   27  C3  UNL     1     -20.653  -4.178  18.882  1.00  0.00     0.103 A 
HETATM   28  N4  UNL     1     -21.632  -5.009  19.279  1.00  0.00    -0.361 N 
HETATM   29  C21 UNL     1     -22.853  -4.487  19.558  1.00  0.00     0.091 A 
ATOM     30  H4  UNL     1     -21.462  -6.010  19.369  1.00  0.00     0.165 HD
HETATM   31  C20 UNL     1     -23.099  -3.129  19.441  1.00  0.00     0.054 A 
BRANCH  27  32
HETATM   32  C2  UNL     1     -19.351  -4.756  18.587  1.00  0.00     0.267 C 
HETATM   33  N1  UNL     1     -19.155  -5.706  17.559  1.00  0.00    -0.360 N 
HETATM   34  C1  UNL     1     -17.872  -6.284  17.260  1.00  0.00     0.149 C 
ATOM     35  H1  UNL     1     -19.961  -5.996  17.003  1.00  0.00     0.162 HD
HETATM   36  O1  UNL     1     -18.367  -4.409  19.259  1.00  0.00    -0.266 OA
ENDBRANCH  27  32
ENDBRANCH  24  25
ENDBRANCH   1  24
TORSDOF 6
ENDMDL
