MODEL 3
REMARK VINA RESULT: -11.411173398      1.580      2.065
REMARK  6 active torsions:
REMARK  status: ('A' for Active; 'I' for Inactive)
REMARK       I    between atoms: N1_2  and  C2_4 
REMARK    1  A    between atoms: C2_4  and  C3_6 
REMARK    2  A    between atoms: C5_8  and  O2_9 
REMARK    3  A    between atoms: O2_9  and  C6_10 
REMARK    4  A    between atoms: C9_13  and  N2_14 
REMARK       I    between atoms: N2_14  and  C10_16 
REMARK       I    between atoms: C10_16  and  N3_18 
REMARK    5  A    between atoms: N3_18  and  C11_20 
REMARK    6  A    between atoms: C15_25  and  C16_26 
ROOT
HETATM    1  C6  UNL     1     -22.010  -2.439  20.596  1.00  0.00     0.076 A 
HETATM    2  C7  UNL     1     -20.731  -2.102  20.217  1.00  0.00     0.039 A 
HETATM    3  C8  UNL     1     -20.002  -2.947  19.373  1.00  0.00     0.032 A 
HETATM    4  C9  UNL     1     -20.573  -4.088  18.945  1.00  0.00     0.036 A 
HETATM    5  C18 UNL     1     -21.878  -4.422  19.337  1.00  0.00     0.032 A 
HETATM    6  C19 UNL     1     -22.603  -3.603  20.161  1.00  0.00     0.039 A 
ENDROOT
BRANCH   4   7
HETATM    7  N2  UNL     1     -19.917  -5.010  18.101  1.00  0.00    -0.309 N 
HETATM    8  C10 UNL     1     -18.627  -5.558  18.297  1.00  0.00     0.325 C 
HETATM    9  O3  UNL     1     -17.963  -5.236  19.287  1.00  0.00    -0.247 OA
HETATM   10  N3  UNL     1     -18.043  -6.480  17.391  1.00  0.00    -0.309 N 
ATOM     11  H3  UNL     1     -18.613  -6.734  16.584  1.00  0.00     0.170 HD
ATOM     12  H2  UNL     1     -20.423  -5.311  17.268  1.00  0.00     0.170 HD
BRANCH  10  13
HETATM   13  C11 UNL     1     -16.784  -7.085  17.466  1.00  0.00     0.037 A 
HETATM   14  C12 UNL     1     -16.257  -7.563  18.625  1.00  0.00     0.031 A 
HETATM   15  C13 UNL     1     -15.010  -8.177  18.678  1.00  0.00     0.027 A 
HETATM   16  C14 UNL     1     -14.261  -8.324  17.555  1.00  0.00     0.049 A 
HETATM   17 CL1  UNL     1     -12.677  -9.099  17.596  1.00  0.00    -0.083 Cl
HETATM   18  C15 UNL     1     -14.771  -7.847  16.358  1.00  0.00     0.071 A 
HETATM   19  C17 UNL     1     -16.000  -7.243  16.313  1.00  0.00     0.047 A 
BRANCH  18  20
HETATM   20  C16 UNL     1     -13.952  -8.009  15.147  1.00  0.00     0.419 C 
HETATM   21  F1  UNL     1     -13.869  -9.361  14.807  1.00  0.00    -0.166 F 
HETATM   22  F2  UNL     1     -12.734  -7.410  15.224  1.00  0.00    -0.166 F 
HETATM   23  F3  UNL     1     -14.629  -7.411  14.075  1.00  0.00    -0.166 F 
ENDBRANCH  18  20
ENDBRANCH  10  13
ENDBRANCH   4   7
BRANCH   1  24
HETATM   24  O2  UNL     1     -22.714  -1.572  21.441  1.00  0.00    -0.311 OA
BRANCH  24  25
HETATM   25  C5  UNL     1     -22.599  -0.204  21.260  1.00  0.00     0.079 A 
HETATM   26  C4  UNL     1     -22.528   0.687  22.325  1.00  0.00     0.072 A 
HETATM   27  C3  UNL     1     -22.413   2.044  22.122  1.00  0.00     0.103 A 
HETATM   28  N4  UNL     1     -22.364   2.562  20.883  1.00  0.00    -0.361 N 
HETATM   29  C21 UNL     1     -22.430   1.717  19.823  1.00  0.00     0.091 A 
ATOM     30  H4  UNL     1     -22.279   3.568  20.741  1.00  0.00     0.165 HD
HETATM   31  C20 UNL     1     -22.546   0.348  20.000  1.00  0.00     0.054 A 
BRANCH  27  32
HETATM   32  C2  UNL     1     -22.341   2.965  23.246  1.00  0.00     0.267 C 
HETATM   33  N1  UNL     1     -22.361   4.370  23.081  1.00  0.00    -0.360 N 
HETATM   34  C1  UNL     1     -22.290   5.289  24.185  1.00  0.00     0.149 C 
ATOM     35  H1  UNL     1     -22.429   4.748  22.136  1.00  0.00     0.162 HD
HETATM   36  O1  UNL     1     -22.258   2.512  24.397  1.00  0.00    -0.266 OA
ENDBRANCH  27  32
ENDBRANCH  24  25
ENDBRANCH   1  24
TORSDOF 6
ENDMDL
