MODEL 10
REMARK VINA RESULT: -10.205080152      1.296      1.505
REMARK  6 active torsions:
REMARK  status: ('A' for Active; 'I' for Inactive)
REMARK       I    between atoms: N1_2  and  C2_4 
REMARK    1  A    between atoms: C2_4  and  C3_6 
REMARK    2  A    between atoms: C5_8  and  O2_9 
REMARK    3  A    between atoms: O2_9  and  C6_10 
REMARK    4  A    between atoms: C9_13  and  N2_14 
REMARK       I    between atoms: N2_14  and  C10_16 
REMARK       I    between atoms: C10_16  and  N3_18 
REMARK    5  A    between atoms: N3_18  and  C11_20 
REMARK    6  A    between atoms: C15_25  and  C16_26 
ROOT
HETATM    1  C6  UNL     1     -22.459  -1.546  19.502  1.00  0.00     0.076 A 
HETATM    2  C7  UNL     1     -21.239  -1.534  18.868  1.00  0.00     0.039 A 
HETATM    3  C8  UNL     1     -20.612  -2.738  18.527  1.00  0.00     0.032 A 
HETATM    4  C9  UNL     1     -21.224  -3.897  18.830  1.00  0.00     0.036 A 
HETATM    5  C18 UNL     1     -22.469  -3.898  19.476  1.00  0.00     0.032 A 
HETATM    6  C19 UNL     1     -23.093  -2.727  19.815  1.00  0.00     0.039 A 
ENDROOT
BRANCH   4   7
HETATM    7  N2  UNL     1     -20.669  -5.162  18.537  1.00  0.00    -0.309 N 
HETATM    8  C10 UNL     1     -19.324  -5.430  18.191  1.00  0.00     0.325 C 
HETATM    9  O3  UNL     1     -18.507  -4.506  18.124  1.00  0.00    -0.247 OA
HETATM   10  N3  UNL     1     -18.853  -6.738  17.909  1.00  0.00    -0.309 N 
ATOM     11  H3  UNL     1     -19.545  -7.484  17.975  1.00  0.00     0.170 HD
ATOM     12  H2  UNL     1     -21.302  -5.962  18.578  1.00  0.00     0.170 HD
BRANCH  10  13
HETATM   13  C11 UNL     1     -17.559  -7.133  17.551  1.00  0.00     0.037 A 
HETATM   14  C12 UNL     1     -17.166  -7.308  16.261  1.00  0.00     0.031 A 
HETATM   15  C13 UNL     1     -15.871  -7.685  15.923  1.00  0.00     0.027 A 
HETATM   16  C14 UNL     1     -14.936  -7.896  16.885  1.00  0.00     0.049 A 
HETATM   17 CL1  UNL     1     -13.287  -8.375  16.481  1.00  0.00    -0.083 Cl
HETATM   18  C15 UNL     1     -15.307  -7.725  18.209  1.00  0.00     0.071 A 
HETATM   19  C17 UNL     1     -16.584  -7.353  18.536  1.00  0.00     0.047 A 
BRANCH  18  20
HETATM   20  C16 UNL     1     -14.288  -7.956  19.245  1.00  0.00     0.419 C 
HETATM   21  F1  UNL     1     -13.299  -6.974  19.166  1.00  0.00    -0.166 F 
HETATM   22  F2  UNL     1     -13.779  -9.217  19.242  1.00  0.00    -0.166 F 
HETATM   23  F3  UNL     1     -14.884  -7.764  20.499  1.00  0.00    -0.166 F 
ENDBRANCH  18  20
ENDBRANCH  10  13
ENDBRANCH   4   7
BRANCH   1  24
HETATM   24  O2  UNL     1     -23.061  -0.324  19.830  1.00  0.00    -0.311 OA
BRANCH  24  25
HETATM   25  C5  UNL     1     -22.655   0.349  20.971  1.00  0.00     0.079 A 
HETATM   26  C4  UNL     1     -22.660   1.736  21.061  1.00  0.00     0.072 A 
HETATM   27  C3  UNL     1     -22.253   2.384  22.205  1.00  0.00     0.103 A 
HETATM   28  N4  UNL     1     -21.834   1.699  23.283  1.00  0.00    -0.361 N 
HETATM   29  C21 UNL     1     -21.819   0.344  23.225  1.00  0.00     0.091 A 
ATOM     30  H4  UNL     1     -21.533   2.188  24.127  1.00  0.00     0.165 HD
HETATM   31  C20 UNL     1     -22.223  -0.332  22.086  1.00  0.00     0.054 A 
BRANCH  27  32
HETATM   32  C2  UNL     1     -22.262   3.837  22.286  1.00  0.00     0.267 C 
HETATM   33  N1  UNL     1     -21.674   4.543  23.361  1.00  0.00    -0.360 N 
HETATM   34  C1  UNL     1     -21.678   5.979  23.451  1.00  0.00     0.149 C 
ATOM     35  H1  UNL     1     -21.227   4.011  24.108  1.00  0.00     0.162 HD
HETATM   36  O1  UNL     1     -22.804   4.492  21.382  1.00  0.00    -0.266 OA
ENDBRANCH  27  32
ENDBRANCH  24  25
ENDBRANCH   1  24
TORSDOF 6
ENDMDL
