MODEL 11
REMARK VINA RESULT: -10.048273877      1.315      1.862
REMARK  6 active torsions:
REMARK  status: ('A' for Active; 'I' for Inactive)
REMARK       I    between atoms: N1_2  and  C2_4 
REMARK    1  A    between atoms: C2_4  and  C3_6 
REMARK    2  A    between atoms: C5_8  and  O2_9 
REMARK    3  A    between atoms: O2_9  and  C6_10 
REMARK    4  A    between atoms: C9_13  and  N2_14 
REMARK       I    between atoms: N2_14  and  C10_16 
REMARK       I    between atoms: C10_16  and  N3_18 
REMARK    5  A    between atoms: N3_18  and  C11_20 
REMARK    6  A    between atoms: C15_25  and  C16_26 
ROOT
HETATM    1  C6  UNL     1     -22.378  -1.435  19.458  1.00  0.00     0.076 A 
HETATM    2  C7  UNL     1     -22.951  -2.544  20.037  1.00  0.00     0.039 A 
HETATM    3  C8  UNL     1     -22.441  -3.819  19.769  1.00  0.00     0.032 A 
HETATM    4  C9  UNL     1     -21.387  -3.937  18.940  1.00  0.00     0.036 A 
HETATM    5  C18 UNL     1     -20.810  -2.799  18.356  1.00  0.00     0.032 A 
HETATM    6  C19 UNL     1     -21.299  -1.546  18.611  1.00  0.00     0.039 A 
ENDROOT
BRANCH   4   7
HETATM    7  N2  UNL     1     -20.807  -5.178  18.601  1.00  0.00    -0.309 N 
HETATM    8  C10 UNL     1     -19.453  -5.409  18.261  1.00  0.00     0.325 C 
HETATM    9  O3  UNL     1     -18.652  -4.469  18.244  1.00  0.00    -0.247 OA
HETATM   10  N3  UNL     1     -18.957  -6.695  17.929  1.00  0.00    -0.309 N 
ATOM     11  H3  UNL     1     -19.637  -7.455  17.954  1.00  0.00     0.170 HD
ATOM     12  H2  UNL     1     -21.426  -5.989  18.600  1.00  0.00     0.170 HD
BRANCH  10  13
HETATM   13  C11 UNL     1     -17.653  -7.053  17.572  1.00  0.00     0.037 A 
HETATM   14  C12 UNL     1     -17.249  -7.197  16.280  1.00  0.00     0.031 A 
HETATM   15  C13 UNL     1     -15.944  -7.537  15.943  1.00  0.00     0.027 A 
HETATM   16  C14 UNL     1     -15.009  -7.742  16.906  1.00  0.00     0.049 A 
HETATM   17 CL1  UNL     1     -13.347  -8.174  16.503  1.00  0.00    -0.083 Cl
HETATM   18  C15 UNL     1     -15.390  -7.602  18.231  1.00  0.00     0.071 A 
HETATM   19  C17 UNL     1     -16.677  -7.266  18.557  1.00  0.00     0.047 A 
BRANCH  18  20
HETATM   20  C16 UNL     1     -14.370  -7.827  19.268  1.00  0.00     0.419 C 
HETATM   21  F1  UNL     1     -14.967  -7.825  20.530  1.00  0.00    -0.166 F 
HETATM   22  F2  UNL     1     -13.309  -6.980  19.186  1.00  0.00    -0.166 F 
HETATM   23  F3  UNL     1     -13.864  -9.125  19.114  1.00  0.00    -0.166 F 
ENDBRANCH  18  20
ENDBRANCH  10  13
ENDBRANCH   4   7
BRANCH   1  24
HETATM   24  O2  UNL     1     -22.912  -0.172  19.746  1.00  0.00    -0.311 OA
BRANCH  24  25
HETATM   25  C5  UNL     1     -22.580   0.451  20.938  1.00  0.00     0.079 A 
HETATM   26  C4  UNL     1     -22.603   1.832  21.090  1.00  0.00     0.072 A 
HETATM   27  C3  UNL     1     -22.270   2.430  22.285  1.00  0.00     0.103 A 
HETATM   28  N4  UNL     1     -21.908   1.699  23.354  1.00  0.00    -0.361 N 
HETATM   29  C21 UNL     1     -21.876   0.347  23.235  1.00  0.00     0.091 A 
ATOM     30  H4  UNL     1     -21.662   2.150  24.235  1.00  0.00     0.165 HD
HETATM   31  C20 UNL     1     -22.207  -0.278  22.045  1.00  0.00     0.054 A 
BRANCH  27  32
HETATM   32  C2  UNL     1     -22.298   3.877  22.431  1.00  0.00     0.267 C 
HETATM   33  N1  UNL     1     -21.886   4.531  23.616  1.00  0.00    -0.360 N 
HETATM   34  C1  UNL     1     -21.910   5.961  23.770  1.00  0.00     0.149 C 
ATOM     35  H1  UNL     1     -21.556   3.962  24.396  1.00  0.00     0.162 HD
HETATM   36  O1  UNL     1     -22.698   4.575  21.487  1.00  0.00    -0.266 OA
ENDBRANCH  27  32
ENDBRANCH  24  25
ENDBRANCH   1  24
TORSDOF 6
ENDMDL
