MODEL 1
REMARK VINA RESULT: -11.978977731      0.000      0.000
REMARK  6 active torsions:
REMARK  status: ('A' for Active; 'I' for Inactive)
REMARK       I    between atoms: N1_2  and  C2_4 
REMARK    1  A    between atoms: C2_4  and  C3_6 
REMARK    2  A    between atoms: C5_8  and  O2_9 
REMARK    3  A    between atoms: O2_9  and  C6_10 
REMARK    4  A    between atoms: C9_13  and  N2_14 
REMARK       I    between atoms: N2_14  and  C10_16 
REMARK       I    between atoms: C10_16  and  N3_18 
REMARK    5  A    between atoms: N3_18  and  C11_20 
REMARK    6  A    between atoms: C15_25  and  C16_26 
ROOT
HETATM    1  C6  UNL     1     -21.689  -2.368  20.699  1.00  0.00     0.076 A 
HETATM    2  C7  UNL     1     -20.406  -2.055  20.313  1.00  0.00     0.039 A 
HETATM    3  C8  UNL     1     -19.752  -2.832  19.350  1.00  0.00     0.032 A 
HETATM    4  C9  UNL     1     -20.400  -3.883  18.814  1.00  0.00     0.036 A 
HETATM    5  C18 UNL     1     -21.708  -4.194  19.214  1.00  0.00     0.032 A 
HETATM    6  C19 UNL     1     -22.359  -3.441  20.155  1.00  0.00     0.039 A 
ENDROOT
BRANCH   4   7
HETATM    7  N2  UNL     1     -19.823  -4.732  17.844  1.00  0.00    -0.309 N 
HETATM    8  C10 UNL     1     -18.601  -5.434  17.962  1.00  0.00     0.325 C 
HETATM    9  O3  UNL     1     -17.928  -5.335  18.993  1.00  0.00    -0.247 OA
HETATM   10  N3  UNL     1     -18.095  -6.266  16.931  1.00  0.00    -0.309 N 
ATOM     11  H3  UNL     1     -18.671  -6.336  16.092  1.00  0.00     0.170 HD
ATOM     12  H2  UNL     1     -20.340  -4.851  16.972  1.00  0.00     0.170 HD
BRANCH  10  13
HETATM   13  C11 UNL     1     -16.906  -7.004  16.921  1.00  0.00     0.037 A 
HETATM   14  C12 UNL     1     -16.345  -7.491  15.781  1.00  0.00     0.031 A 
HETATM   15  C13 UNL     1     -15.153  -8.208  15.787  1.00  0.00     0.027 A 
HETATM   16  C14 UNL     1     -14.496  -8.453  16.950  1.00  0.00     0.049 A 
HETATM   17 CL1  UNL     1     -12.984  -9.360  16.984  1.00  0.00    -0.083 Cl
HETATM   18  C15 UNL     1     -15.044  -7.969  18.128  1.00  0.00     0.071 A 
HETATM   19  C17 UNL     1     -16.218  -7.263  18.115  1.00  0.00     0.047 A 
BRANCH  18  20
HETATM   20  C16 UNL     1     -14.326  -8.240  19.384  1.00  0.00     0.419 C 
HETATM   21  F1  UNL     1     -13.084  -7.602  19.367  1.00  0.00    -0.166 F 
HETATM   22  F2  UNL     1     -14.235  -9.562  19.690  1.00  0.00    -0.166 F 
HETATM   23  F3  UNL     1     -15.028  -7.630  20.432  1.00  0.00    -0.166 F 
ENDBRANCH  18  20
ENDBRANCH  10  13
ENDBRANCH   4   7
BRANCH   1  24
HETATM   24  O2  UNL     1     -22.316  -1.572  21.665  1.00  0.00    -0.311 OA
BRANCH  24  25
HETATM   25  C5  UNL     1     -22.374  -0.200  21.482  1.00  0.00     0.079 A 
HETATM   26  C4  UNL     1     -22.356   0.697  22.545  1.00  0.00     0.072 A 
HETATM   27  C3  UNL     1     -22.414   2.057  22.339  1.00  0.00     0.103 A 
HETATM   28  N4  UNL     1     -22.490   2.572  21.100  1.00  0.00    -0.361 N 
HETATM   29  C21 UNL     1     -22.509   1.722  20.043  1.00  0.00     0.091 A 
ATOM     30  H4  UNL     1     -22.533   3.581  20.957  1.00  0.00     0.165 HD
HETATM   31  C20 UNL     1     -22.452   0.350  20.222  1.00  0.00     0.054 A 
BRANCH  27  32
HETATM   32  C2  UNL     1     -22.395   2.984  23.460  1.00  0.00     0.267 C 
HETATM   33  N1  UNL     1     -22.440   4.387  23.288  1.00  0.00    -0.360 N 
HETATM   34  C1  UNL     1     -22.422   5.313  24.389  1.00  0.00     0.149 C 
ATOM     35  H1  UNL     1     -22.489   4.760  22.339  1.00  0.00     0.162 HD
HETATM   36  O1  UNL     1     -22.336   2.538  24.616  1.00  0.00    -0.266 OA
ENDBRANCH  27  32
ENDBRANCH  24  25
ENDBRANCH   1  24
TORSDOF 6
ENDMDL
