MODEL 5
REMARK VINA RESULT: -11.050099256      1.065      1.268
REMARK  6 active torsions:
REMARK  status: ('A' for Active; 'I' for Inactive)
REMARK       I    between atoms: N1_2  and  C2_4 
REMARK    1  A    between atoms: C2_4  and  C3_6 
REMARK    2  A    between atoms: C5_8  and  O2_9 
REMARK    3  A    between atoms: O2_9  and  C6_10 
REMARK    4  A    between atoms: C9_13  and  N2_14 
REMARK       I    between atoms: N2_14  and  C10_16 
REMARK       I    between atoms: C10_16  and  N3_18 
REMARK    5  A    between atoms: N3_18  and  C11_20 
REMARK    6  A    between atoms: C15_25  and  C16_26 
ROOT
HETATM    1  C6  UNL     1     -22.016  -1.882  20.518  1.00  0.00     0.076 A 
HETATM    2  C7  UNL     1     -20.669  -1.887  20.239  1.00  0.00     0.039 A 
HETATM    3  C8  UNL     1     -20.102  -2.953  19.531  1.00  0.00     0.032 A 
HETATM    4  C9  UNL     1     -20.896  -3.964  19.133  1.00  0.00     0.036 A 
HETATM    5  C18 UNL     1     -22.269  -3.949  19.424  1.00  0.00     0.032 A 
HETATM    6  C19 UNL     1     -22.836  -2.911  20.115  1.00  0.00     0.039 A 
ENDROOT
BRANCH   4   7
HETATM    7  N2  UNL     1     -20.418  -5.087  18.424  1.00  0.00    -0.309 N 
HETATM    8  C10 UNL     1     -19.065  -5.475  18.276  1.00  0.00     0.325 C 
HETATM    9  O3  UNL     1     -18.170  -4.803  18.799  1.00  0.00    -0.247 OA
HETATM   10  N3  UNL     1     -18.676  -6.622  17.540  1.00  0.00    -0.309 N 
ATOM     11  H3  UNL     1     -19.433  -7.162  17.122  1.00  0.00     0.170 HD
ATOM     12  H2  UNL     1     -21.118  -5.677  17.973  1.00  0.00     0.170 HD
BRANCH  10  13
HETATM   13  C11 UNL     1     -17.382  -7.106  17.314  1.00  0.00     0.037 A 
HETATM   14  C12 UNL     1     -16.881  -7.335  16.071  1.00  0.00     0.031 A 
HETATM   15  C13 UNL     1     -15.587  -7.801  15.865  1.00  0.00     0.027 A 
HETATM   16  C14 UNL     1     -14.764  -8.050  16.915  1.00  0.00     0.049 A 
HETATM   17 CL1  UNL     1     -13.119  -8.642  16.680  1.00  0.00    -0.083 Cl
HETATM   18  C15 UNL     1     -15.246  -7.827  18.195  1.00  0.00     0.071 A 
HETATM   19  C17 UNL     1     -16.522  -7.367  18.391  1.00  0.00     0.047 A 
BRANCH  18  20
HETATM   20  C16 UNL     1     -14.347  -8.101  19.327  1.00  0.00     0.419 C 
HETATM   21  F1  UNL     1     -13.905  -9.424  19.274  1.00  0.00    -0.166 F 
HETATM   22  F2  UNL     1     -14.873  -7.770  20.537  1.00  0.00    -0.166 F 
HETATM   23  F3  UNL     1     -13.189  -7.329  19.165  1.00  0.00    -0.166 F 
ENDBRANCH  18  20
ENDBRANCH  10  13
ENDBRANCH   4   7
BRANCH   1  24
HETATM   24  O2  UNL     1     -22.553  -0.800  21.229  1.00  0.00    -0.311 OA
BRANCH  24  25
HETATM   25  C5  UNL     1     -22.449   0.477  20.704  1.00  0.00     0.079 A 
HETATM   26  C4  UNL     1     -22.452   1.615  21.503  1.00  0.00     0.072 A 
HETATM   27  C3  UNL     1     -22.346   2.876  20.959  1.00  0.00     0.103 A 
HETATM   28  N4  UNL     1     -22.236   3.056  19.632  1.00  0.00    -0.361 N 
HETATM   29  C21 UNL     1     -22.230   1.963  18.827  1.00  0.00     0.091 A 
ATOM     30  H4  UNL     1     -22.159   3.993  19.237  1.00  0.00     0.165 HD
HETATM   31  C20 UNL     1     -22.335   0.685  19.348  1.00  0.00     0.054 A 
BRANCH  27  32
HETATM   32  C2  UNL     1     -22.352   4.059  21.806  1.00  0.00     0.267 C 
HETATM   33  N1  UNL     1     -22.150   5.362  21.295  1.00  0.00    -0.360 N 
HETATM   34  C1  UNL     1     -22.153   6.538  22.124  1.00  0.00     0.149 C 
ATOM     35  H1  UNL     1     -21.995   5.473  20.293  1.00  0.00     0.162 HD
HETATM   36  O1  UNL     1     -22.538   3.931  23.026  1.00  0.00    -0.266 OA
ENDBRANCH  27  32
ENDBRANCH  24  25
ENDBRANCH   1  24
TORSDOF 6
ENDMDL
