MODEL 17
REMARK VINA RESULT: -8.786824856      6.150     11.890
REMARK  6 active torsions:
REMARK  status: ('A' for Active; 'I' for Inactive)
REMARK       I    between atoms: N1_2  and  C2_4 
REMARK    1  A    between atoms: C2_4  and  C3_6 
REMARK    2  A    between atoms: C5_8  and  O2_9 
REMARK    3  A    between atoms: O2_9  and  C6_10 
REMARK    4  A    between atoms: C9_13  and  N2_14 
REMARK       I    between atoms: N2_14  and  C10_16 
REMARK       I    between atoms: C10_16  and  N3_18 
REMARK    5  A    between atoms: N3_18  and  C11_20 
REMARK    6  A    between atoms: C15_25  and  C16_26 
ROOT
HETATM    1  C6  UNL     1     -19.494  -5.096  19.140  1.00  0.00     0.076 A 
HETATM    2  C7  UNL     1     -20.859  -5.154  18.987  1.00  0.00     0.039 A 
HETATM    3  C8  UNL     1     -21.612  -3.975  18.940  1.00  0.00     0.032 A 
HETATM    4  C9  UNL     1     -20.977  -2.794  19.047  1.00  0.00     0.036 A 
HETATM    5  C18 UNL     1     -19.583  -2.746  19.201  1.00  0.00     0.032 A 
HETATM    6  C19 UNL     1     -18.835  -3.892  19.248  1.00  0.00     0.039 A 
ENDROOT
BRANCH   4   7
HETATM    7  N2  UNL     1     -21.647  -1.552  19.021  1.00  0.00    -0.309 N 
HETATM    8  C10 UNL     1     -21.653  -0.578  20.047  1.00  0.00     0.325 C 
HETATM    9  O3  UNL     1     -21.025  -0.778  21.092  1.00  0.00    -0.247 OA
HETATM   10  N3  UNL     1     -22.360   0.646  19.935  1.00  0.00    -0.309 N 
ATOM     11  H3  UNL     1     -22.866   0.790  19.062  1.00  0.00     0.170 HD
ATOM     12  H2  UNL     1     -22.181  -1.335  18.179  1.00  0.00     0.170 HD
BRANCH  10  13
HETATM   13  C11 UNL     1     -22.451   1.681  20.872  1.00  0.00     0.037 A 
HETATM   14  C12 UNL     1     -22.760   1.474  22.181  1.00  0.00     0.031 A 
HETATM   15  C13 UNL     1     -22.830   2.513  23.102  1.00  0.00     0.027 A 
HETATM   16  C14 UNL     1     -22.588   3.794  22.723  1.00  0.00     0.049 A 
HETATM   17 CL1  UNL     1     -22.670   5.129  23.873  1.00  0.00    -0.083 Cl
HETATM   18  C15 UNL     1     -22.270   4.037  21.396  1.00  0.00     0.071 A 
HETATM   19  C17 UNL     1     -22.203   3.009  20.493  1.00  0.00     0.047 A 
BRANCH  18  20
HETATM   20  C16 UNL     1     -22.010   5.429  20.994  1.00  0.00     0.419 C 
HETATM   21  F1  UNL     1     -20.837   5.886  21.597  1.00  0.00    -0.166 F 
HETATM   22  F2  UNL     1     -23.065   6.263  21.193  1.00  0.00    -0.166 F 
HETATM   23  F3  UNL     1     -21.736   5.445  19.619  1.00  0.00    -0.166 F 
ENDBRANCH  18  20
ENDBRANCH  10  13
ENDBRANCH   4   7
BRANCH   1  24
HETATM   24  O2  UNL     1     -18.768  -6.293  19.183  1.00  0.00    -0.311 OA
BRANCH  24  25
HETATM   25  C5  UNL     1     -17.862  -6.576  18.174  1.00  0.00     0.079 A 
HETATM   26  C4  UNL     1     -16.562  -6.996  18.434  1.00  0.00     0.072 A 
HETATM   27  C3  UNL     1     -15.679  -7.273  17.415  1.00  0.00     0.103 A 
HETATM   28  N4  UNL     1     -16.039  -7.147  16.126  1.00  0.00    -0.361 N 
HETATM   29  C21 UNL     1     -17.302  -6.739  15.842  1.00  0.00     0.091 A 
ATOM     30  H4  UNL     1     -15.378  -7.353  15.377  1.00  0.00     0.165 HD
HETATM   31  C20 UNL     1     -18.209  -6.455  16.848  1.00  0.00     0.054 A 
BRANCH  27  32
HETATM   32  C2  UNL     1     -14.321  -7.710  17.700  1.00  0.00     0.267 C 
HETATM   33  N1  UNL     1     -13.656  -8.686  16.922  1.00  0.00    -0.360 N 
HETATM   34  C1  UNL     1     -12.314  -9.126  17.195  1.00  0.00     0.149 C 
ATOM     35  H1  UNL     1     -14.151  -9.097  16.129  1.00  0.00     0.162 HD
HETATM   36  O1  UNL     1     -13.713  -7.216  18.662  1.00  0.00    -0.266 OA
ENDBRANCH  27  32
ENDBRANCH  24  25
ENDBRANCH   1  24
TORSDOF 6
ENDMDL
