MODEL 15
REMARK VINA RESULT: -9.158153241      7.637     13.361
REMARK  6 active torsions:
REMARK  status: ('A' for Active; 'I' for Inactive)
REMARK       I    between atoms: N1_2  and  C2_4 
REMARK    1  A    between atoms: C2_4  and  C3_6 
REMARK    2  A    between atoms: C5_8  and  O2_9 
REMARK    3  A    between atoms: O2_9  and  C6_10 
REMARK    4  A    between atoms: C9_13  and  N2_14 
REMARK       I    between atoms: N2_14  and  C10_16 
REMARK       I    between atoms: C10_16  and  N3_18 
REMARK    5  A    between atoms: N3_18  and  C11_20 
REMARK    6  A    between atoms: C15_25  and  C16_26 
ROOT
HETATM    1  C6  UNL     1     -22.180  -0.200  19.876  1.00  0.00     0.076 A 
HETATM    2  C7  UNL     1     -22.503   1.127  19.721  1.00  0.00     0.039 A 
HETATM    3  C8  UNL     1     -22.554   1.973  20.836  1.00  0.00     0.032 A 
HETATM    4  C9  UNL     1     -22.280   1.463  22.051  1.00  0.00     0.036 A 
HETATM    5  C18 UNL     1     -21.951   0.107  22.197  1.00  0.00     0.032 A 
HETATM    6  C19 UNL     1     -21.898  -0.731  21.115  1.00  0.00     0.039 A 
ENDROOT
BRANCH   4   7
HETATM    7  N2  UNL     1     -22.314   2.231  23.235  1.00  0.00    -0.309 N 
HETATM    8  C10 UNL     1     -22.344   3.643  23.321  1.00  0.00     0.325 C 
HETATM    9  O3  UNL     1     -22.343   4.324  22.291  1.00  0.00    -0.247 OA
HETATM   10  N3  UNL     1     -22.374   4.332  24.559  1.00  0.00    -0.309 N 
ATOM     11  H3  UNL     1     -22.379   3.748  25.395  1.00  0.00     0.170 HD
ATOM     12  H2  UNL     1     -22.318   1.716  24.116  1.00  0.00     0.170 HD
BRANCH  10  13
HETATM   13  C11 UNL     1     -22.398   5.714  24.779  1.00  0.00     0.037 A 
HETATM   14  C12 UNL     1     -21.955   6.619  23.865  1.00  0.00     0.031 A 
HETATM   15  C13 UNL     1     -22.002   7.990  24.094  1.00  0.00     0.027 A 
HETATM   16  C14 UNL     1     -22.499   8.483  25.257  1.00  0.00     0.049 A 
HETATM   17 CL1  UNL     1     -22.569  10.218  25.571  1.00  0.00    -0.083 Cl
HETATM   18  C15 UNL     1     -22.958   7.585  26.208  1.00  0.00     0.071 A 
HETATM   19  C17 UNL     1     -22.909   6.236  25.977  1.00  0.00     0.047 A 
BRANCH  18  20
HETATM   20  C16 UNL     1     -23.494   8.128  27.466  1.00  0.00     0.419 C 
HETATM   21  F1  UNL     1     -24.692   8.801  27.221  1.00  0.00    -0.166 F 
HETATM   22  F2  UNL     1     -22.601   8.880  28.164  1.00  0.00    -0.166 F 
HETATM   23  F3  UNL     1     -23.849   7.054  28.293  1.00  0.00    -0.166 F 
ENDBRANCH  18  20
ENDBRANCH  10  13
ENDBRANCH   4   7
BRANCH   1  24
HETATM   24  O2  UNL     1     -22.138  -1.021  18.741  1.00  0.00    -0.311 OA
BRANCH  24  25
HETATM   25  C5  UNL     1     -21.919  -2.381  18.893  1.00  0.00     0.079 A 
HETATM   26  C4  UNL     1     -20.689  -2.973  18.630  1.00  0.00     0.072 A 
HETATM   27  C3  UNL     1     -20.494  -4.327  18.789  1.00  0.00     0.103 A 
HETATM   28  N4  UNL     1     -21.488  -5.130  19.205  1.00  0.00    -0.361 N 
HETATM   29  C21 UNL     1     -22.700  -4.580  19.469  1.00  0.00     0.091 A 
ATOM     30  H4  UNL     1     -21.335  -6.132  19.319  1.00  0.00     0.165 HD
HETATM   31  C20 UNL     1     -22.922  -3.222  19.318  1.00  0.00     0.054 A 
BRANCH  27  32
HETATM   32  C2  UNL     1     -19.202  -4.934  18.510  1.00  0.00     0.267 C 
HETATM   33  N1  UNL     1     -18.980  -5.770  17.390  1.00  0.00    -0.360 N 
HETATM   34  C1  UNL     1     -17.706  -6.376  17.106  1.00  0.00     0.149 C 
ATOM     35  H1  UNL     1     -19.757  -5.951  16.755  1.00  0.00     0.162 HD
HETATM   36  O1  UNL     1     -18.252  -4.719  19.277  1.00  0.00    -0.266 OA
ENDBRANCH  27  32
ENDBRANCH  24  25
ENDBRANCH   1  24
TORSDOF 6
ENDMDL
