MODEL 1
REMARK VINA RESULT: -12.761910942      0.000      0.000
REMARK  6 active torsions:
REMARK  status: ('A' for Active; 'I' for Inactive)
REMARK    1  A    between atoms: C5_5  and  N1_6 
REMARK    2  A    between atoms: C6_9  and  C7_10 
REMARK    3  A    between atoms: C12_15  and  N3_16 
REMARK       I    between atoms: N3_16  and  C13_18 
REMARK       I    between atoms: C13_18  and  N4_20 
REMARK    4  A    between atoms: N4_20  and  C14_22 
REMARK    5  A    between atoms: C18_26  and  N5_27 
REMARK    6  A    between atoms: N5_27  and  C19_29 
ROOT
HETATM    1  N3  UNL     1      16.329  -5.517  -0.984  1.00  0.00    -0.293 N 
ATOM      2  H3  UNL     1      16.340  -5.161  -1.940  1.00  0.00     0.172 HD
HETATM    3  C13 UNL     1      15.270  -5.107  -0.115  1.00  0.00     0.326 C 
HETATM    4  O1  UNL     1      15.268  -5.533   1.053  1.00  0.00    -0.247 OA
HETATM    5  N4  UNL     1      14.238  -4.239  -0.551  1.00  0.00    -0.309 N 
ATOM      6  H4  UNL     1      14.268  -3.910  -1.516  1.00  0.00     0.170 HD
ENDROOT
BRANCH   5   7
HETATM    7  C14 UNL     1      13.162  -3.797   0.271  1.00  0.00     0.038 A 
HETATM    8  C15 UNL     1      12.169  -4.592   0.776  1.00  0.00     0.029 A 
HETATM    9  C16 UNL     1      11.112  -4.103   1.541  1.00  0.00     0.004 A 
HETATM   10  C17 UNL     1      11.072  -2.765   1.797  1.00  0.00     0.029 A 
HETATM   11  C18 UNL     1      12.057  -1.892   1.312  1.00  0.00     0.035 A 
HETATM   12  C27 UNL     1      13.069  -2.420   0.568  1.00  0.00     0.059 A 
BRANCH  11  13
HETATM   13  N5  UNL     1      11.913  -0.487   1.591  1.00  0.00    -0.342 N 
ATOM     14  H5  UNL     1      11.685   0.142   0.821  1.00  0.00     0.167 HD
BRANCH  13  15
HETATM   15  C19 UNL     1      12.069   0.055   2.869  1.00  0.00     0.119 A 
HETATM   16  N6  UNL     1      12.302  -0.723   3.964  1.00  0.00    -0.338 N 
HETATM   17  C20 UNL     1      12.417  -0.223   5.199  1.00  0.00     0.182 A 
ATOM     18  H6  UNL     1      12.391  -1.731   3.836  1.00  0.00     0.168 HD
HETATM   19  N7  UNL     1      12.303   1.102   5.383  1.00  0.00    -0.352 N 
HETATM   20  C21 UNL     1      12.076   1.927   4.352  1.00  0.00     0.047 A 
ATOM     21  H7  UNL     1      12.391   1.486   6.323  1.00  0.00     0.166 HD
HETATM   22  C22 UNL     1      11.965   3.286   4.538  1.00  0.00     0.032 A 
HETATM   23  C26 UNL     1      11.953   1.425   3.062  1.00  0.00     0.036 A 
HETATM   24  C23 UNL     1      11.737   4.154   3.482  1.00  0.00     0.029 A 
HETATM   25  C24 UNL     1      11.615   3.677   2.213  1.00  0.00     0.047 A 
HETATM   26  N8  UNL     1      11.384   4.523   1.093  1.00  0.00    -0.102 NA
HETATM   27  C25 UNL     1      11.726   2.301   2.021  1.00  0.00     0.044 A 
ENDBRANCH  13  15
ENDBRANCH  11  13
ENDBRANCH   5   7
BRANCH   1  28
HETATM   28  C12 UNL     1      17.359  -6.393  -0.581  1.00  0.00     0.133 A 
HETATM   29  N1  UNL     1      18.006  -7.260  -1.376  1.00  0.00    -0.240 N 
HETATM   30  N2  UNL     1      18.909  -7.946  -0.700  1.00  0.00    -0.295 N 
HETATM   31  C6  UNL     1      18.898  -7.555   0.590  1.00  0.00     0.037 A 
ATOM     32  H2  UNL     1      19.520  -8.662  -1.093  1.00  0.00     0.187 HD
HETATM   33  C11 UNL     1      17.913  -6.569   0.657  1.00  0.00     0.077 A 
BRANCH  29  34
HETATM   34  C5  UNL     1      17.770  -7.435  -2.764  1.00  0.00     0.058 A 
HETATM   35  C4  UNL     1      16.876  -8.347  -3.292  1.00  0.00     0.032 A 
HETATM   36  C3  UNL     1      16.662  -8.512  -4.653  1.00  0.00     0.009 A 
HETATM   37  C2  UNL     1      17.387  -7.714  -5.514  1.00  0.00    -0.062 A 
HETATM   38  C1  UNL     1      17.146  -7.908  -6.980  1.00  0.00     0.048 C 
HETATM   39  C29 UNL     1      18.300  -6.778  -5.048  1.00  0.00     0.009 A 
HETATM   40  C28 UNL     1      18.466  -6.666  -3.686  1.00  0.00     0.032 A 
ENDBRANCH  29  34
BRANCH  31  41
HETATM   41  C7  UNL     1      19.754  -8.081   1.679  1.00  0.00    -0.007 C 
HETATM   42  C8  UNL     1      18.820  -8.784   2.655  1.00  0.00     0.021 C 
HETATM   43  C9  UNL     1      20.779  -9.049   1.197  1.00  0.00     0.021 C 
HETATM   44  C10 UNL     1      20.389  -6.885   2.366  1.00  0.00     0.021 C 
ENDBRANCH  31  41
ENDBRANCH   1  28
TORSDOF 6
ENDMDL
