MODEL 12
REMARK VINA RESULT: -11.261187080      4.914      9.692
REMARK  6 active torsions:
REMARK  status: ('A' for Active; 'I' for Inactive)
REMARK    1  A    between atoms: C5_5  and  N1_6 
REMARK    2  A    between atoms: C6_9  and  C7_10 
REMARK    3  A    between atoms: C12_15  and  N3_16 
REMARK       I    between atoms: N3_16  and  C13_18 
REMARK       I    between atoms: C13_18  and  N4_20 
REMARK    4  A    between atoms: N4_20  and  C14_22 
REMARK    5  A    between atoms: C18_26  and  N5_27 
REMARK    6  A    between atoms: N5_27  and  C19_29 
ROOT
HETATM    1  N3  UNL     1      16.994  -8.272  -1.820  1.00  0.00    -0.293 N 
ATOM      2  H3  UNL     1      16.219  -8.896  -1.597  1.00  0.00     0.172 HD
HETATM    3  C13 UNL     1      17.135  -7.811  -3.167  1.00  0.00     0.326 C 
HETATM    4  O1  UNL     1      18.089  -7.062  -3.436  1.00  0.00    -0.247 OA
HETATM    5  N4  UNL     1      16.222  -8.185  -4.183  1.00  0.00    -0.309 N 
ATOM      6  H4  UNL     1      15.448  -8.799  -3.928  1.00  0.00     0.170 HD
ENDROOT
BRANCH   5   7
HETATM    7  C14 UNL     1      16.314  -7.758  -5.540  1.00  0.00     0.038 A 
HETATM    8  C15 UNL     1      17.398  -7.932  -6.356  1.00  0.00     0.029 A 
HETATM    9  C16 UNL     1      17.455  -7.456  -7.664  1.00  0.00     0.004 A 
HETATM   10  C17 UNL     1      16.372  -6.787  -8.150  1.00  0.00     0.029 A 
HETATM   11  C18 UNL     1      15.226  -6.573  -7.369  1.00  0.00     0.035 A 
HETATM   12  C27 UNL     1      15.222  -7.057  -6.096  1.00  0.00     0.059 A 
BRANCH  11  13
HETATM   13  N5  UNL     1      14.145  -5.816  -7.946  1.00  0.00    -0.342 N 
ATOM     14  H5  UNL     1      14.360  -4.924  -8.392  1.00  0.00     0.167 HD
BRANCH  13  15
HETATM   15  C19 UNL     1      12.817  -6.247  -7.925  1.00  0.00     0.119 A 
HETATM   16  N6  UNL     1      12.368  -7.169  -7.025  1.00  0.00    -0.338 N 
HETATM   17  C20 UNL     1      11.109  -7.618  -7.015  1.00  0.00     0.182 A 
ATOM     18  H6  UNL     1      13.021  -7.530  -6.330  1.00  0.00     0.168 HD
HETATM   19  N7  UNL     1      10.238  -7.150  -7.923  1.00  0.00    -0.352 N 
HETATM   20  C21 UNL     1      10.610  -6.243  -8.836  1.00  0.00     0.047 A 
ATOM     21  H7  UNL     1       9.277  -7.491  -7.918  1.00  0.00     0.166 HD
HETATM   22  C22 UNL     1       9.717  -5.757  -9.763  1.00  0.00     0.032 A 
HETATM   23  C26 UNL     1      11.914  -5.764  -8.861  1.00  0.00     0.036 A 
HETATM   24  C23 UNL     1      10.083  -4.813 -10.709  1.00  0.00     0.029 A 
HETATM   25  C24 UNL     1      11.357  -4.334 -10.746  1.00  0.00     0.047 A 
HETATM   26  N8  UNL     1      11.786  -3.364 -11.694  1.00  0.00    -0.102 NA
HETATM   27  C25 UNL     1      12.264  -4.824  -9.809  1.00  0.00     0.044 A 
ENDBRANCH  13  15
ENDBRANCH  11  13
ENDBRANCH   5   7
BRANCH   1  28
HETATM   28  C12 UNL     1      17.879  -7.903  -0.785  1.00  0.00     0.133 A 
HETATM   29  N1  UNL     1      17.710  -6.874   0.062  1.00  0.00    -0.240 N 
HETATM   30  N2  UNL     1      18.717  -6.783   0.910  1.00  0.00    -0.295 N 
HETATM   31  C6  UNL     1      19.608  -7.763   0.658  1.00  0.00     0.037 A 
ATOM     32  H2  UNL     1      18.808  -6.079   1.643  1.00  0.00     0.187 HD
HETATM   33  C11 UNL     1      19.069  -8.469  -0.418  1.00  0.00     0.077 A 
BRANCH  29  34
HETATM   34  C5  UNL     1      16.602  -5.988   0.065  1.00  0.00     0.058 A 
HETATM   35  C4  UNL     1      15.996  -5.497  -1.075  1.00  0.00     0.032 A 
HETATM   36  C3  UNL     1      14.917  -4.625  -1.055  1.00  0.00     0.009 A 
HETATM   37  C2  UNL     1      14.434  -4.235   0.177  1.00  0.00    -0.062 A 
HETATM   38  C1  UNL     1      13.272  -3.289   0.180  1.00  0.00     0.048 C 
HETATM   39  C29 UNL     1      14.998  -4.693   1.360  1.00  0.00     0.009 A 
HETATM   40  C28 UNL     1      16.066  -5.556   1.270  1.00  0.00     0.032 A 
ENDBRANCH  29  34
BRANCH  31  41
HETATM   41  C7  UNL     1      20.879  -8.006   1.379  1.00  0.00    -0.007 C 
HETATM   42  C8  UNL     1      20.836  -9.455   1.847  1.00  0.00     0.021 C 
HETATM   43  C9  UNL     1      22.082  -7.802   0.524  1.00  0.00     0.021 C 
HETATM   44  C10 UNL     1      20.888  -7.089   2.590  1.00  0.00     0.021 C 
ENDBRANCH  31  41
ENDBRANCH   1  28
TORSDOF 6
ENDMDL
