MODEL 4
REMARK VINA RESULT: -11.994150526      1.539      2.125
REMARK  6 active torsions:
REMARK  status: ('A' for Active; 'I' for Inactive)
REMARK    1  A    between atoms: C5_5  and  N1_6 
REMARK    2  A    between atoms: C6_9  and  C7_10 
REMARK    3  A    between atoms: C12_15  and  N3_16 
REMARK       I    between atoms: N3_16  and  C13_18 
REMARK       I    between atoms: C13_18  and  N4_20 
REMARK    4  A    between atoms: N4_20  and  C14_22 
REMARK    5  A    between atoms: C18_26  and  N5_27 
REMARK    6  A    between atoms: N5_27  and  C19_29 
ROOT
HETATM    1  N3  UNL     1      15.577  -5.797  -0.771  1.00  0.00    -0.293 N 
ATOM      2  H3  UNL     1      14.947  -6.021  -1.542  1.00  0.00     0.172 HD
HETATM    3  C13 UNL     1      15.158  -4.829   0.194  1.00  0.00     0.326 C 
HETATM    4  O1  UNL     1      15.935  -4.550   1.124  1.00  0.00    -0.247 OA
HETATM    5  N4  UNL     1      13.895  -4.193   0.115  1.00  0.00    -0.309 N 
ATOM      6  H4  UNL     1      13.281  -4.446  -0.659  1.00  0.00     0.170 HD
ENDROOT
BRANCH   5   7
HETATM    7  C14 UNL     1      13.427  -3.221   1.047  1.00  0.00     0.038 A 
HETATM    8  C15 UNL     1      13.186  -3.445   2.374  1.00  0.00     0.029 A 
HETATM    9  C16 UNL     1      12.686  -2.471   3.236  1.00  0.00     0.004 A 
HETATM   10  C17 UNL     1      12.430  -1.234   2.725  1.00  0.00     0.029 A 
HETATM   11  C18 UNL     1      12.656  -0.934   1.373  1.00  0.00     0.035 A 
HETATM   12  C27 UNL     1      13.143  -1.922   0.572  1.00  0.00     0.059 A 
BRANCH  11  13
HETATM   13  N5  UNL     1      12.314   0.385   0.906  1.00  0.00    -0.342 N 
ATOM     14  H5  UNL     1      12.251   0.545  -0.099  1.00  0.00     0.167 HD
BRANCH  13  15
HETATM   15  C19 UNL     1      12.064   1.456   1.768  1.00  0.00     0.119 A 
HETATM   16  N6  UNL     1      11.589   1.274   3.033  1.00  0.00    -0.338 N 
HETATM   17  C20 UNL     1      11.311   2.290   3.856  1.00  0.00     0.182 A 
ATOM     18  H6  UNL     1      11.439   0.322   3.365  1.00  0.00     0.168 HD
HETATM   19  N7  UNL     1      11.504   3.549   3.433  1.00  0.00    -0.352 N 
HETATM   20  C21 UNL     1      11.970   3.802   2.202  1.00  0.00     0.047 A 
ATOM     21  H7  UNL     1      11.293   4.326   4.059  1.00  0.00     0.166 HD
HETATM   22  C22 UNL     1      12.175   5.091   1.769  1.00  0.00     0.032 A 
HETATM   23  C26 UNL     1      12.265   2.759   1.333  1.00  0.00     0.036 A 
HETATM   24  C23 UNL     1      12.664   5.371   0.503  1.00  0.00     0.029 A 
HETATM   25  C24 UNL     1      12.957   4.359  -0.360  1.00  0.00     0.047 A 
HETATM   26  N8  UNL     1      13.463   4.589  -1.669  1.00  0.00    -0.102 NA
HETATM   27  C25 UNL     1      12.750   3.052   0.075  1.00  0.00     0.044 A 
ENDBRANCH  13  15
ENDBRANCH  11  13
ENDBRANCH   5   7
BRANCH   1  28
HETATM   28  C12 UNL     1      16.822  -6.459  -0.708  1.00  0.00     0.133 A 
HETATM   29  N1  UNL     1      17.435  -7.076  -1.731  1.00  0.00    -0.240 N 
HETATM   30  N2  UNL     1      18.581  -7.609  -1.349  1.00  0.00    -0.295 N 
HETATM   31  C6  UNL     1      18.778  -7.362  -0.039  1.00  0.00     0.037 A 
ATOM     32  H2  UNL     1      19.219  -8.127  -1.953  1.00  0.00     0.187 HD
HETATM   33  C11 UNL     1      17.658  -6.632   0.360  1.00  0.00     0.077 A 
BRANCH  29  34
HETATM   34  C5  UNL     1      16.938  -7.157  -3.057  1.00  0.00     0.058 A 
HETATM   35  C4  UNL     1      16.440  -6.082  -3.768  1.00  0.00     0.032 A 
HETATM   36  C3  UNL     1      15.951  -6.179  -5.063  1.00  0.00     0.009 A 
HETATM   37  C2  UNL     1      15.969  -7.423  -5.660  1.00  0.00    -0.062 A 
HETATM   38  C1  UNL     1      15.432  -7.510  -7.057  1.00  0.00     0.048 C 
HETATM   39  C29 UNL     1      16.457  -8.543  -5.000  1.00  0.00     0.009 A 
HETATM   40  C28 UNL     1      16.927  -8.378  -3.718  1.00  0.00     0.032 A 
ENDBRANCH  29  34
BRANCH  31  41
HETATM   41  C7  UNL     1      19.938  -7.793   0.775  1.00  0.00    -0.007 C 
HETATM   42  C8  UNL     1      20.988  -8.296  -0.207  1.00  0.00     0.021 C 
HETATM   43  C9  UNL     1      20.519  -6.691   1.592  1.00  0.00     0.021 C 
HETATM   44  C10 UNL     1      19.471  -8.949   1.643  1.00  0.00     0.021 C 
ENDBRANCH  31  41
ENDBRANCH   1  28
TORSDOF 6
ENDMDL
