MODEL 8
REMARK VINA RESULT: -11.893974486      7.304      9.291
REMARK  6 active torsions:
REMARK  status: ('A' for Active; 'I' for Inactive)
REMARK    1  A    between atoms: C5_5  and  N1_6 
REMARK    2  A    between atoms: C6_9  and  C7_10 
REMARK    3  A    between atoms: C12_15  and  N3_16 
REMARK       I    between atoms: N3_16  and  C13_18 
REMARK       I    between atoms: C13_18  and  N4_20 
REMARK    4  A    between atoms: N4_20  and  C14_22 
REMARK    5  A    between atoms: C18_26  and  N5_27 
REMARK    6  A    between atoms: N5_27  and  C19_29 
ROOT
HETATM    1  N3  UNL     1      19.648  -6.531  -3.664  1.00  0.00    -0.293 N 
ATOM      2  H3  UNL     1      20.430  -6.088  -4.145  1.00  0.00     0.172 HD
HETATM    3  C13 UNL     1      18.318  -6.161  -4.038  1.00  0.00     0.326 C 
HETATM    4  O1  UNL     1      17.368  -6.694  -3.439  1.00  0.00    -0.247 OA
HETATM    5  N4  UNL     1      18.066  -5.215  -5.061  1.00  0.00    -0.309 N 
ATOM      6  H4  UNL     1      18.867  -4.798  -5.534  1.00  0.00     0.170 HD
ENDROOT
BRANCH   5   7
HETATM    7  C14 UNL     1      16.764  -4.808  -5.473  1.00  0.00     0.038 A 
HETATM    8  C15 UNL     1      16.027  -3.806  -4.904  1.00  0.00     0.029 A 
HETATM    9  C16 UNL     1      14.738  -3.474  -5.316  1.00  0.00     0.004 A 
HETATM   10  C17 UNL     1      14.191  -4.187  -6.340  1.00  0.00     0.029 A 
HETATM   11  C18 UNL     1      14.889  -5.227  -6.971  1.00  0.00     0.035 A 
HETATM   12  C27 UNL     1      16.145  -5.512  -6.529  1.00  0.00     0.059 A 
BRANCH  11  13
HETATM   13  N5  UNL     1      14.217  -5.959  -8.014  1.00  0.00    -0.342 N 
ATOM     14  H5  UNL     1      14.742  -6.200  -8.855  1.00  0.00     0.167 HD
BRANCH  13  15
HETATM   15  C19 UNL     1      12.880  -6.353  -7.927  1.00  0.00     0.119 A 
HETATM   16  N6  UNL     1      12.450  -7.262  -7.005  1.00  0.00    -0.338 N 
HETATM   17  C20 UNL     1      11.182  -7.676  -6.932  1.00  0.00     0.182 A 
ATOM     18  H6  UNL     1      13.126  -7.641  -6.342  1.00  0.00     0.168 HD
HETATM   19  N7  UNL     1      10.280  -7.185  -7.797  1.00  0.00    -0.352 N 
HETATM   20  C21 UNL     1      10.632  -6.289  -8.729  1.00  0.00     0.047 A 
ATOM     21  H7  UNL     1       9.312  -7.500  -7.745  1.00  0.00     0.166 HD
HETATM   22  C22 UNL     1       9.709  -5.779  -9.612  1.00  0.00     0.032 A 
HETATM   23  C26 UNL     1      11.946  -5.846  -8.819  1.00  0.00     0.036 A 
HETATM   24  C23 UNL     1      10.054  -4.846 -10.577  1.00  0.00     0.029 A 
HETATM   25  C24 UNL     1      11.337  -4.402 -10.677  1.00  0.00     0.047 A 
HETATM   26  N8  UNL     1      11.745  -3.444 -11.646  1.00  0.00    -0.102 NA
HETATM   27  C25 UNL     1      12.275  -4.917  -9.784  1.00  0.00     0.044 A 
ENDBRANCH  13  15
ENDBRANCH  11  13
ENDBRANCH   5   7
BRANCH   1  28
HETATM   28  C12 UNL     1      19.928  -7.483  -2.660  1.00  0.00     0.133 A 
HETATM   29  N1  UNL     1      20.461  -8.699  -2.859  1.00  0.00    -0.240 N 
HETATM   30  N2  UNL     1      20.589  -9.356  -1.721  1.00  0.00    -0.295 N 
HETATM   31  C6  UNL     1      20.141  -8.591  -0.706  1.00  0.00     0.037 A 
ATOM     32  H2  UNL     1      20.969 -10.298  -1.625  1.00  0.00     0.187 HD
HETATM   33  C11 UNL     1      19.724  -7.405  -1.310  1.00  0.00     0.077 A 
BRANCH  29  34
HETATM   34  C5  UNL     1      20.846  -9.230  -4.116  1.00  0.00     0.058 A 
HETATM   35  C4  UNL     1      20.250  -8.896  -5.317  1.00  0.00     0.032 A 
HETATM   36  C3  UNL     1      20.632  -9.430  -6.539  1.00  0.00     0.009 A 
HETATM   37  C2  UNL     1      21.667 -10.344  -6.540  1.00  0.00    -0.062 A 
HETATM   38  C1  UNL     1      22.064 -10.915  -7.868  1.00  0.00     0.048 C 
HETATM   39  C29 UNL     1      22.308 -10.722  -5.368  1.00  0.00     0.009 A 
HETATM   40  C28 UNL     1      21.879 -10.155  -4.190  1.00  0.00     0.032 A 
ENDBRANCH  29  34
BRANCH  31  41
HETATM   41  C7  UNL     1      20.105  -8.961   0.728  1.00  0.00    -0.007 C 
HETATM   42  C8  UNL     1      20.949 -10.221   0.867  1.00  0.00     0.021 C 
HETATM   43  C9  UNL     1      20.658  -7.901   1.617  1.00  0.00     0.021 C 
HETATM   44  C10 UNL     1      18.661  -9.285   1.070  1.00  0.00     0.021 C 
ENDBRANCH  31  41
ENDBRANCH   1  28
TORSDOF 6
ENDMDL
