MODEL 5
REMARK VINA RESULT: -11.989207229      0.672      1.169
REMARK  6 active torsions:
REMARK  status: ('A' for Active; 'I' for Inactive)
REMARK    1  A    between atoms: C5_5  and  N1_6 
REMARK    2  A    between atoms: C6_9  and  C7_10 
REMARK    3  A    between atoms: C12_15  and  N3_16 
REMARK       I    between atoms: N3_16  and  C13_18 
REMARK       I    between atoms: C13_18  and  N4_20 
REMARK    4  A    between atoms: N4_20  and  C14_22 
REMARK    5  A    between atoms: C18_26  and  N5_27 
REMARK    6  A    between atoms: N5_27  and  C19_29 
ROOT
HETATM    1  N3  UNL     1      16.560  -5.624  -1.244  1.00  0.00    -0.293 N 
ATOM      2  H3  UNL     1      16.365  -5.409  -2.222  1.00  0.00     0.172 HD
HETATM    3  C13 UNL     1      15.682  -5.103  -0.242  1.00  0.00     0.326 C 
HETATM    4  O1  UNL     1      15.930  -5.357   0.949  1.00  0.00    -0.247 OA
HETATM    5  N4  UNL     1      14.552  -4.317  -0.575  1.00  0.00    -0.309 N 
ATOM      6  H4  UNL     1      14.375  -4.129  -1.562  1.00  0.00     0.170 HD
ENDROOT
BRANCH   5   7
HETATM    7  C14 UNL     1      13.646  -3.771   0.380  1.00  0.00     0.038 A 
HETATM    8  C15 UNL     1      12.829  -4.495   1.204  1.00  0.00     0.029 A 
HETATM    9  C16 UNL     1      11.927  -3.913   2.093  1.00  0.00     0.004 A 
HETATM   10  C17 UNL     1      11.863  -2.553   2.139  1.00  0.00     0.029 A 
HETATM   11  C18 UNL     1      12.672  -1.747   1.323  1.00  0.00     0.035 A 
HETATM   12  C27 UNL     1      13.535  -2.367   0.471  1.00  0.00     0.059 A 
BRANCH  11  13
HETATM   13  N5  UNL     1      12.506  -0.319   1.404  1.00  0.00    -0.342 N 
ATOM     14  H5  UNL     1      12.471   0.217   0.536  1.00  0.00     0.167 HD
BRANCH  13  15
HETATM   15  C19 UNL     1      12.389   0.366   2.615  1.00  0.00     0.119 A 
HETATM   16  N6  UNL     1      12.526  -0.260   3.819  1.00  0.00    -0.338 N 
HETATM   17  C20 UNL     1      12.381   0.375   4.987  1.00  0.00     0.182 A 
ATOM     18  H6  UNL     1      12.748  -1.255   3.829  1.00  0.00     0.168 HD
HETATM   19  N7  UNL     1      12.090   1.685   4.990  1.00  0.00    -0.352 N 
HETATM   20  C21 UNL     1      11.942   2.364   3.844  1.00  0.00     0.047 A 
ATOM     21  H7  UNL     1      11.979   2.172   5.879  1.00  0.00     0.166 HD
HETATM   22  C22 UNL     1      11.651   3.708   3.844  1.00  0.00     0.032 A 
HETATM   23  C26 UNL     1      12.089   1.721   2.621  1.00  0.00     0.036 A 
HETATM   24  C23 UNL     1      11.502   4.428   2.669  1.00  0.00     0.029 A 
HETATM   25  C24 UNL     1      11.643   3.811   1.463  1.00  0.00     0.047 A 
HETATM   26  N8  UNL     1      11.504   4.501   0.227  1.00  0.00    -0.102 NA
HETATM   27  C25 UNL     1      11.939   2.450   1.459  1.00  0.00     0.044 A 
ENDBRANCH  13  15
ENDBRANCH  11  13
ENDBRANCH   5   7
BRANCH   1  28
HETATM   28  C12 UNL     1      17.683  -6.424  -0.942  1.00  0.00     0.133 A 
HETATM   29  N1  UNL     1      18.316  -7.242  -1.799  1.00  0.00    -0.240 N 
HETATM   30  N2  UNL     1      19.323  -7.861  -1.212  1.00  0.00    -0.295 N 
HETATM   31  C6  UNL     1      19.401  -7.472   0.076  1.00  0.00     0.037 A 
ATOM     32  H2  UNL     1      19.946  -8.531  -1.663  1.00  0.00     0.187 HD
HETATM   33  C11 UNL     1      18.357  -6.561   0.239  1.00  0.00     0.077 A 
BRANCH  29  34
HETATM   34  C5  UNL     1      17.968  -7.432  -3.160  1.00  0.00     0.058 A 
HETATM   35  C4  UNL     1      18.433  -6.649  -4.199  1.00  0.00     0.032 A 
HETATM   36  C3  UNL     1      18.078  -6.844  -5.526  1.00  0.00     0.009 A 
HETATM   37  C2  UNL     1      17.212  -7.880  -5.809  1.00  0.00    -0.062 A 
HETATM   38  C1  UNL     1      16.835  -8.073  -7.247  1.00  0.00     0.048 C 
HETATM   39  C29 UNL     1      16.709  -8.704  -4.812  1.00  0.00     0.009 A 
HETATM   40  C28 UNL     1      17.101  -8.457  -3.516  1.00  0.00     0.032 A 
ENDBRANCH  29  34
BRANCH  31  41
HETATM   41  C7  UNL     1      20.388  -7.937   1.079  1.00  0.00    -0.007 C 
HETATM   42  C8  UNL     1      20.533  -6.808   2.092  1.00  0.00     0.021 C 
HETATM   43  C9  UNL     1      19.960  -9.177   1.786  1.00  0.00     0.021 C 
HETATM   44  C10 UNL     1      21.707  -8.130   0.352  1.00  0.00     0.021 C 
ENDBRANCH  31  41
ENDBRANCH   1  28
TORSDOF 6
ENDMDL
