MODEL 3
REMARK VINA RESULT: -12.205197174      1.065      2.104
REMARK  6 active torsions:
REMARK  status: ('A' for Active; 'I' for Inactive)
REMARK    1  A    between atoms: C5_5  and  N1_6 
REMARK    2  A    between atoms: C6_9  and  C7_10 
REMARK    3  A    between atoms: C12_15  and  N3_16 
REMARK       I    between atoms: N3_16  and  C13_18 
REMARK       I    between atoms: C13_18  and  N4_20 
REMARK    4  A    between atoms: N4_20  and  C14_22 
REMARK    5  A    between atoms: C18_26  and  N5_27 
REMARK    6  A    between atoms: N5_27  and  C19_29 
ROOT
HETATM    1  N3  UNL     1      15.809  -5.423  -1.038  1.00  0.00    -0.293 N 
ATOM      2  H3  UNL     1      15.672  -5.132  -2.006  1.00  0.00     0.172 HD
HETATM    3  C13 UNL     1      14.903  -4.937  -0.044  1.00  0.00     0.326 C 
HETATM    4  O1  UNL     1      15.081  -5.285   1.136  1.00  0.00    -0.247 OA
HETATM    5  N4  UNL     1      13.822  -4.082  -0.372  1.00  0.00    -0.309 N 
ATOM      6  H4  UNL     1      13.703  -3.817  -1.350  1.00  0.00     0.170 HD
ENDROOT
BRANCH   5   7
HETATM    7  C14 UNL     1      12.892  -3.566   0.576  1.00  0.00     0.038 A 
HETATM    8  C15 UNL     1      11.738  -4.184   0.973  1.00  0.00     0.029 A 
HETATM    9  C16 UNL     1      10.837  -3.618   1.872  1.00  0.00     0.004 A 
HETATM   10  C17 UNL     1      11.127  -2.387   2.380  1.00  0.00     0.029 A 
HETATM   11  C18 UNL     1      12.294  -1.696   2.018  1.00  0.00     0.035 A 
HETATM   12  C27 UNL     1      13.140  -2.294   1.134  1.00  0.00     0.059 A 
BRANCH  11  13
HETATM   13  N5  UNL     1      12.499  -0.381   2.567  1.00  0.00    -0.342 N 
ATOM     14  H5  UNL     1      12.757  -0.299   3.551  1.00  0.00     0.167 HD
BRANCH  13  15
HETATM   15  C19 UNL     1      12.363   0.787   1.815  1.00  0.00     0.119 A 
HETATM   16  N6  UNL     1      12.534   0.804   0.462  1.00  0.00    -0.338 N 
HETATM   17  C20 UNL     1      12.443   1.920  -0.267  1.00  0.00     0.182 A 
ATOM     18  H6  UNL     1      12.741  -0.074  -0.014  1.00  0.00     0.168 HD
HETATM   19  N7  UNL     1      12.171   3.084   0.345  1.00  0.00    -0.352 N 
HETATM   20  C21 UNL     1      11.990   3.141   1.671  1.00  0.00     0.047 A 
ATOM     21  H7  UNL     1      12.101   3.937  -0.209  1.00  0.00     0.166 HD
HETATM   22  C22 UNL     1      11.704   4.331   2.300  1.00  0.00     0.032 A 
HETATM   23  C26 UNL     1      12.081   1.991   2.445  1.00  0.00     0.036 A 
HETATM   24  C23 UNL     1      11.506   4.408   3.669  1.00  0.00     0.029 A 
HETATM   25  C24 UNL     1      11.592   3.289   4.441  1.00  0.00     0.047 A 
HETATM   26  N8  UNL     1      11.395   3.311   5.849  1.00  0.00    -0.102 NA
HETATM   27  C25 UNL     1      11.881   2.083   3.807  1.00  0.00     0.044 A 
ENDBRANCH  13  15
ENDBRANCH  11  13
ENDBRANCH   5   7
BRANCH   1  28
HETATM   28  C12 UNL     1      16.883  -6.289  -0.742  1.00  0.00     0.133 A 
HETATM   29  N1  UNL     1      17.417  -7.191  -1.582  1.00  0.00    -0.240 N 
HETATM   30  N2  UNL     1      18.402  -7.856  -1.005  1.00  0.00    -0.295 N 
HETATM   31  C6  UNL     1      18.563  -7.415   0.258  1.00  0.00     0.037 A 
ATOM     32  H2  UNL     1      18.954  -8.590  -1.447  1.00  0.00     0.187 HD
HETATM   33  C11 UNL     1      17.596  -6.421   0.417  1.00  0.00     0.077 A 
BRANCH  29  34
HETATM   34  C5  UNL     1      16.998  -7.418  -2.917  1.00  0.00     0.058 A 
HETATM   35  C4  UNL     1      17.091  -8.635  -3.566  1.00  0.00     0.032 A 
HETATM   36  C3  UNL     1      16.683  -8.839  -4.876  1.00  0.00     0.009 A 
HETATM   37  C2  UNL     1      16.157  -7.760  -5.556  1.00  0.00    -0.062 A 
HETATM   38  C1  UNL     1      15.726  -7.998  -6.972  1.00  0.00     0.048 C 
HETATM   39  C29 UNL     1      16.037  -6.511  -4.962  1.00  0.00     0.009 A 
HETATM   40  C28 UNL     1      16.461  -6.376  -3.660  1.00  0.00     0.032 A 
ENDBRANCH  29  34
BRANCH  31  41
HETATM   41  C7  UNL     1      19.556  -7.904   1.243  1.00  0.00    -0.007 C 
HETATM   42  C8  UNL     1      20.556  -8.746   0.462  1.00  0.00     0.021 C 
HETATM   43  C9  UNL     1      20.279  -6.802   1.938  1.00  0.00     0.021 C 
HETATM   44  C10 UNL     1      18.811  -8.794   2.224  1.00  0.00     0.021 C 
ENDBRANCH  31  41
ENDBRANCH   1  28
TORSDOF 6
ENDMDL
