MODEL 7
REMARK VINA RESULT: -11.911105945      1.281      2.103
REMARK  6 active torsions:
REMARK  status: ('A' for Active; 'I' for Inactive)
REMARK    1  A    between atoms: C5_5  and  N1_6 
REMARK    2  A    between atoms: C6_9  and  C7_10 
REMARK    3  A    between atoms: C12_15  and  N3_16 
REMARK       I    between atoms: N3_16  and  C13_18 
REMARK       I    between atoms: C13_18  and  N4_20 
REMARK    4  A    between atoms: N4_20  and  C14_22 
REMARK    5  A    between atoms: C18_26  and  N5_27 
REMARK    6  A    between atoms: N5_27  and  C19_29 
ROOT
HETATM    1  N3  UNL     1      15.699  -5.220  -0.865  1.00  0.00    -0.293 N 
ATOM      2  H3  UNL     1      15.562  -4.853  -1.807  1.00  0.00     0.172 HD
HETATM    3  C13 UNL     1      14.777  -4.834   0.158  1.00  0.00     0.326 C 
HETATM    4  O1  UNL     1      14.955  -5.273   1.307  1.00  0.00    -0.247 OA
HETATM    5  N4  UNL     1      13.681  -3.977  -0.108  1.00  0.00    -0.309 N 
ATOM      6  H4  UNL     1      13.561  -3.637  -1.062  1.00  0.00     0.170 HD
ENDROOT
BRANCH   5   7
HETATM    7  C14 UNL     1      12.734  -3.560   0.872  1.00  0.00     0.038 A 
HETATM    8  C15 UNL     1      11.425  -3.953   0.930  1.00  0.00     0.029 A 
HETATM    9  C16 UNL     1      10.526  -3.482   1.884  1.00  0.00     0.004 A 
HETATM   10  C17 UNL     1      10.981  -2.587   2.805  1.00  0.00     0.029 A 
HETATM   11  C18 UNL     1      12.311  -2.141   2.806  1.00  0.00     0.035 A 
HETATM   12  C27 UNL     1      13.149  -2.631   1.851  1.00  0.00     0.059 A 
BRANCH  11  13
HETATM   13  N5  UNL     1      12.695  -1.159   3.787  1.00  0.00    -0.342 N 
ATOM     14  H5  UNL     1      13.215  -1.468   4.608  1.00  0.00     0.167 HD
BRANCH  13  15
HETATM   15  C19 UNL     1      12.388   0.198   3.665  1.00  0.00     0.119 A 
HETATM   16  N6  UNL     1      12.058   0.967   4.743  1.00  0.00    -0.338 N 
HETATM   17  C20 UNL     1      11.728   2.258   4.639  1.00  0.00     0.182 A 
ATOM     18  H6  UNL     1      12.065   0.538   5.668  1.00  0.00     0.168 HD
HETATM   19  N7  UNL     1      11.716   2.837   3.427  1.00  0.00    -0.352 N 
HETATM   20  C21 UNL     1      12.031   2.142   2.326  1.00  0.00     0.047 A 
ATOM     21  H7  UNL     1      11.464   3.821   3.345  1.00  0.00     0.166 HD
HETATM   22  C22 UNL     1      12.026   2.735   1.084  1.00  0.00     0.032 A 
HETATM   23  C26 UNL     1      12.377   0.800   2.415  1.00  0.00     0.036 A 
HETATM   24  C23 UNL     1      12.356   2.034  -0.065  1.00  0.00     0.029 A 
HETATM   25  C24 UNL     1      12.698   0.717   0.007  1.00  0.00     0.047 A 
HETATM   26  N8  UNL     1      13.047  -0.049  -1.140  1.00  0.00    -0.102 NA
HETATM   27  C25 UNL     1      12.703   0.114   1.262  1.00  0.00     0.044 A 
ENDBRANCH  13  15
ENDBRANCH  11  13
ENDBRANCH   5   7
BRANCH   1  28
HETATM   28  C12 UNL     1      16.789  -6.084  -0.633  1.00  0.00     0.133 A 
HETATM   29  N1  UNL     1      17.329  -6.924  -1.531  1.00  0.00    -0.240 N 
HETATM   30  N2  UNL     1      18.330  -7.607  -1.005  1.00  0.00    -0.295 N 
HETATM   31  C6  UNL     1      18.497  -7.242   0.281  1.00  0.00     0.037 A 
ATOM     32  H2  UNL     1      18.889  -8.304  -1.497  1.00  0.00     0.187 HD
HETATM   33  C11 UNL     1      17.516  -6.276   0.510  1.00  0.00     0.077 A 
BRANCH  29  34
HETATM   34  C5  UNL     1      16.901  -7.076  -2.874  1.00  0.00     0.058 A 
HETATM   35  C4  UNL     1      16.417  -6.045  -3.657  1.00  0.00     0.032 A 
HETATM   36  C3  UNL     1      15.995  -6.210  -4.968  1.00  0.00     0.009 A 
HETATM   37  C2  UNL     1      16.068  -7.479  -5.507  1.00  0.00    -0.062 A 
HETATM   38  C1  UNL     1      15.603  -7.640  -6.923  1.00  0.00     0.048 C 
HETATM   39  C29 UNL     1      16.544  -8.557  -4.774  1.00  0.00     0.009 A 
HETATM   40  C28 UNL     1      16.947  -8.325  -3.479  1.00  0.00     0.032 A 
ENDBRANCH  29  34
BRANCH  31  41
HETATM   41  C7  UNL     1      19.506  -7.774   1.226  1.00  0.00    -0.007 C 
HETATM   42  C8  UNL     1      20.416  -8.685   0.412  1.00  0.00     0.021 C 
HETATM   43  C9  UNL     1      20.326  -6.707   1.865  1.00  0.00     0.021 C 
HETATM   44  C10 UNL     1      18.760  -8.604   2.257  1.00  0.00     0.021 C 
ENDBRANCH  31  41
ENDBRANCH   1  28
TORSDOF 6
ENDMDL
