MODEL 6
REMARK VINA RESULT: -11.940320621      7.473     10.052
REMARK  6 active torsions:
REMARK  status: ('A' for Active; 'I' for Inactive)
REMARK    1  A    between atoms: C5_5  and  N1_6 
REMARK    2  A    between atoms: C6_9  and  C7_10 
REMARK    3  A    between atoms: C12_15  and  N3_16 
REMARK       I    between atoms: N3_16  and  C13_18 
REMARK       I    between atoms: C13_18  and  N4_20 
REMARK    4  A    between atoms: N4_20  and  C14_22 
REMARK    5  A    between atoms: C18_26  and  N5_27 
REMARK    6  A    between atoms: N5_27  and  C19_29 
ROOT
HETATM    1  N3  UNL     1      20.238  -7.230  -4.983  1.00  0.00    -0.293 N 
ATOM      2  H3  UNL     1      20.933  -6.484  -4.973  1.00  0.00     0.172 HD
HETATM    3  C13 UNL     1      18.863  -6.881  -5.170  1.00  0.00     0.326 C 
HETATM    4  O1  UNL     1      18.018  -7.793  -5.168  1.00  0.00    -0.247 OA
HETATM    5  N4  UNL     1      18.452  -5.538  -5.357  1.00  0.00    -0.309 N 
ATOM      6  H4  UNL     1      19.171  -4.815  -5.356  1.00  0.00     0.170 HD
ENDROOT
BRANCH   5   7
HETATM    7  C14 UNL     1      17.100  -5.133  -5.547  1.00  0.00     0.038 A 
HETATM    8  C15 UNL     1      16.389  -4.318  -4.709  1.00  0.00     0.029 A 
HETATM    9  C16 UNL     1      15.052  -3.986  -4.915  1.00  0.00     0.004 A 
HETATM   10  C17 UNL     1      14.428  -4.500  -6.012  1.00  0.00     0.029 A 
HETATM   11  C18 UNL     1      15.095  -5.342  -6.915  1.00  0.00     0.035 A 
HETATM   12  C27 UNL     1      16.401  -5.637  -6.665  1.00  0.00     0.059 A 
BRANCH  11  13
HETATM   13  N5  UNL     1      14.345  -5.877  -8.021  1.00  0.00    -0.342 N 
ATOM     14  H5  UNL     1      14.803  -5.949  -8.930  1.00  0.00     0.167 HD
BRANCH  13  15
HETATM   15  C19 UNL     1      13.020  -6.304  -7.908  1.00  0.00     0.119 A 
HETATM   16  N6  UNL     1      12.628  -7.214  -6.970  1.00  0.00    -0.338 N 
HETATM   17  C20 UNL     1      11.372  -7.659  -6.873  1.00  0.00     0.182 A 
ATOM     18  H6  UNL     1      13.325  -7.570  -6.316  1.00  0.00     0.168 HD
HETATM   19  N7  UNL     1      10.444  -7.198  -7.726  1.00  0.00    -0.352 N 
HETATM   20  C21 UNL     1      10.758  -6.302  -8.672  1.00  0.00     0.047 A 
ATOM     21  H7  UNL     1       9.485  -7.536  -7.654  1.00  0.00     0.166 HD
HETATM   22  C22 UNL     1       9.808  -5.823  -9.544  1.00  0.00     0.032 A 
HETATM   23  C26 UNL     1      12.059  -5.828  -8.788  1.00  0.00     0.036 A 
HETATM   24  C23 UNL     1      10.113  -4.891 -10.523  1.00  0.00     0.029 A 
HETATM   25  C24 UNL     1      11.383  -4.417 -10.648  1.00  0.00     0.047 A 
HETATM   26  N8  UNL     1      11.751  -3.458 -11.633  1.00  0.00    -0.102 NA
HETATM   27  C25 UNL     1      12.348  -4.900  -9.767  1.00  0.00     0.044 A 
ENDBRANCH  13  15
ENDBRANCH  11  13
ENDBRANCH   5   7
BRANCH   1  28
HETATM   28  C12 UNL     1      20.677  -8.560  -4.811  1.00  0.00     0.133 A 
HETATM   29  N1  UNL     1      20.909  -9.163  -3.633  1.00  0.00    -0.240 N 
HETATM   30  N2  UNL     1      21.321 -10.405  -3.806  1.00  0.00    -0.295 N 
HETATM   31  C6  UNL     1      21.379 -10.681  -5.124  1.00  0.00     0.037 A 
ATOM     32  H2  UNL     1      21.559 -11.056  -3.057  1.00  0.00     0.187 HD
HETATM   33  C11 UNL     1      20.969  -9.506  -5.754  1.00  0.00     0.077 A 
BRANCH  29  34
HETATM   34  C5  UNL     1      20.740  -8.566  -2.358  1.00  0.00     0.058 A 
HETATM   35  C4  UNL     1      19.516  -8.222  -1.816  1.00  0.00     0.032 A 
HETATM   36  C3  UNL     1      19.367  -7.631  -0.570  1.00  0.00     0.009 A 
HETATM   37  C2  UNL     1      20.512  -7.380   0.158  1.00  0.00    -0.062 A 
HETATM   38  C1  UNL     1      20.334  -6.738   1.500  1.00  0.00     0.048 C 
HETATM   39  C29 UNL     1      21.772  -7.702  -0.329  1.00  0.00     0.009 A 
HETATM   40  C28 UNL     1      21.850  -8.286  -1.572  1.00  0.00     0.032 A 
ENDBRANCH  29  34
BRANCH  31  41
HETATM   41  C7  UNL     1      21.799 -11.962  -5.739  1.00  0.00    -0.007 C 
HETATM   42  C8  UNL     1      20.841 -13.024  -5.216  1.00  0.00     0.021 C 
HETATM   43  C9  UNL     1      21.741 -11.939  -7.228  1.00  0.00     0.021 C 
HETATM   44  C10 UNL     1      23.201 -12.261  -5.236  1.00  0.00     0.021 C 
ENDBRANCH  31  41
ENDBRANCH   1  28
TORSDOF 6
ENDMDL
