MODEL 3
REMARK VINA RESULT: -7.296222595      1.972      2.202
REMARK  6 active torsions:
REMARK  status: ('A' for Active; 'I' for Inactive)
REMARK    1  A    between atoms: N2_6  and  C3_7 
REMARK    2  A    between atoms: C4_9  and  C5_10 
REMARK    3  A    between atoms: C5_10  and  O3_11 
REMARK    4  A    between atoms: O3_11  and  P1_12 
REMARK    5  A    between atoms: C6_16  and  O7_17 
REMARK    6  A    between atoms: C7_19  and  O8_20 
ROOT
HETATM    1  C3  UNL     1      58.874  52.414  23.091  1.00  0.00     0.280 C 
HETATM    2  O2  UNL     1      57.536  52.193  22.913  1.00  0.00    -0.352 OA
HETATM    3  C4  UNL     1      57.065  51.527  24.038  1.00  0.00     0.180 C 
HETATM    4  C6  UNL     1      57.770  52.238  25.149  1.00  0.00     0.182 C 
HETATM    5  C7  UNL     1      59.188  52.262  24.559  1.00  0.00     0.200 C 
ENDROOT
BRANCH   1   6
HETATM    6  N2  UNL     1      59.280  53.759  22.709  1.00  0.00    -0.210 N 
HETATM    7  N1  UNL     1      59.607  54.661  23.607  1.00  0.00    -0.298 N 
HETATM    8  C2  UNL     1      59.973  55.885  23.203  1.00  0.00     0.182 A 
ATOM      9  H1  UNL     1      59.583  54.433  24.601  1.00  0.00     0.186 HD
HETATM   10  C1  UNL     1      60.019  56.233  21.877  1.00  0.00     0.266 A 
HETATM   11  O1  UNL     1      60.364  57.389  21.486  1.00  0.00    -0.267 OA
HETATM   12  N3  UNL     1      59.672  55.268  20.999  1.00  0.00    -0.273 N 
HETATM   13  C8  UNL     1      59.307  54.045  21.405  1.00  0.00     0.346 A 
ATOM     14  H3  UNL     1      59.690  55.476  20.001  1.00  0.00     0.173 HD
HETATM   15  O9  UNL     1      59.002  53.216  20.507  1.00  0.00    -0.245 OA
ENDBRANCH   1   6
BRANCH   5  16
HETATM   16  O8  UNL     1      59.711  51.000  24.755  1.00  0.00    -0.388 OA
ATOM     17  H8  UNL     1      59.279  50.617  25.510  1.00  0.00     0.210 HD
ENDBRANCH   5  16
BRANCH   3  18
HETATM   18  C5  UNL     1      55.578  51.534  24.149  1.00  0.00     0.217 C 
BRANCH  18  19
HETATM   19  O3  UNL     1      55.181  52.389  25.146  1.00  0.00    -0.280 OA
BRANCH  19  20
HETATM   20  P1  UNL     1      53.922  51.682  25.964  1.00  0.00     0.422 P 
HETATM   21  O4  UNL     1      54.891  50.802  26.740  1.00  0.00    -0.617 OA
HETATM   22  O5  UNL     1      53.090  50.481  25.263  1.00  0.00    -0.617 OA
HETATM   23  O6  UNL     1      53.355  52.354  27.393  1.00  0.00    -0.617 OA
ENDBRANCH  19  20
ENDBRANCH  18  19
ENDBRANCH   3  18
BRANCH   4  24
HETATM   24  O7  UNL     1      57.735  51.554  26.353  1.00  0.00    -0.390 OA
ATOM     25  H7  UNL     1      57.116  50.833  26.362  1.00  0.00     0.210 HD
ENDBRANCH   4  24
TORSDOF 6
ENDMDL
