MODEL 2
REMARK VINA RESULT: -7.330933130      2.926      6.638
REMARK  6 active torsions:
REMARK  status: ('A' for Active; 'I' for Inactive)
REMARK    1  A    between atoms: N2_6  and  C3_7 
REMARK    2  A    between atoms: C4_9  and  C5_10 
REMARK    3  A    between atoms: C5_10  and  O3_11 
REMARK    4  A    between atoms: O3_11  and  P1_12 
REMARK    5  A    between atoms: C6_16  and  O7_17 
REMARK    6  A    between atoms: C7_19  and  O8_20 
ROOT
HETATM    1  C3  UNL     1      58.874  51.796  22.916  1.00  0.00     0.280 C 
HETATM    2  O2  UNL     1      60.144  51.530  23.352  1.00  0.00    -0.352 OA
HETATM    3  C4  UNL     1      60.998  52.445  22.749  1.00  0.00     0.180 C 
HETATM    4  C6  UNL     1      60.214  53.716  22.830  1.00  0.00     0.182 C 
HETATM    5  C7  UNL     1      58.854  53.192  22.344  1.00  0.00     0.200 C 
ENDROOT
BRANCH   1   6
HETATM    6  N2  UNL     1      57.891  51.764  23.988  1.00  0.00    -0.210 N 
HETATM    7  N1  UNL     1      57.515  52.858  24.612  1.00  0.00    -0.298 N 
HETATM    8  C2  UNL     1      56.607  52.774  25.593  1.00  0.00     0.182 A 
ATOM      9  H1  UNL     1      57.911  53.762  24.352  1.00  0.00     0.186 HD
HETATM   10  C1  UNL     1      56.050  51.580  25.973  1.00  0.00     0.266 A 
HETATM   11  O1  UNL     1      55.189  51.492  26.900  1.00  0.00    -0.267 OA
HETATM   12  N3  UNL     1      56.472  50.489  25.299  1.00  0.00    -0.273 N 
HETATM   13  C8  UNL     1      57.381  50.575  24.319  1.00  0.00     0.346 A 
ATOM     14  H3  UNL     1      56.088  49.576  25.542  1.00  0.00     0.173 HD
HETATM   15  O9  UNL     1      57.708  49.499  23.752  1.00  0.00    -0.245 OA
ENDBRANCH   1   6
BRANCH   5  16
HETATM   16  O8  UNL     1      58.945  53.091  20.970  1.00  0.00    -0.388 OA
ATOM     17  H8  UNL     1      59.654  52.492  20.766  1.00  0.00     0.210 HD
ENDBRANCH   5  16
BRANCH   3  18
HETATM   18  C5  UNL     1      62.342  52.510  23.391  1.00  0.00     0.217 C 
BRANCH  18  19
HETATM   19  O3  UNL     1      62.366  53.500  24.340  1.00  0.00    -0.280 OA
BRANCH  19  20
HETATM   20  P1  UNL     1      63.047  52.878  25.720  1.00  0.00     0.422 P 
HETATM   21  O4  UNL     1      62.833  54.197  26.448  1.00  0.00    -0.617 OA
HETATM   22  O5  UNL     1      64.661  52.838  25.864  1.00  0.00    -0.617 OA
HETATM   23  O6  UNL     1      62.098  52.076  26.848  1.00  0.00    -0.617 OA
ENDBRANCH  19  20
ENDBRANCH  18  19
ENDBRANCH   3  18
BRANCH   4  24
HETATM   24  O7  UNL     1      60.695  54.716  22.001  1.00  0.00    -0.390 OA
ATOM     25  H7  UNL     1      61.161  55.401  22.465  1.00  0.00     0.210 HD
ENDBRANCH   4  24
TORSDOF 6
ENDMDL
