MODEL 1
REMARK VINA RESULT: -7.524452198      0.000      0.000
REMARK  6 active torsions:
REMARK  status: ('A' for Active; 'I' for Inactive)
REMARK    1  A    between atoms: N2_6  and  C3_7 
REMARK    2  A    between atoms: C4_9  and  C5_10 
REMARK    3  A    between atoms: C5_10  and  O3_11 
REMARK    4  A    between atoms: O3_11  and  P1_12 
REMARK    5  A    between atoms: C6_16  and  O7_17 
REMARK    6  A    between atoms: C7_19  and  O8_20 
ROOT
HETATM    1  C3  UNL     1      58.499  51.522  23.171  1.00  0.00     0.280 C 
HETATM    2  O2  UNL     1      57.402  52.340  23.166  1.00  0.00    -0.352 OA
HETATM    3  C4  UNL     1      56.416  51.729  23.933  1.00  0.00     0.180 C 
HETATM    4  C6  UNL     1      57.197  51.196  25.092  1.00  0.00     0.182 C 
HETATM    5  C7  UNL     1      58.364  50.557  24.323  1.00  0.00     0.200 C 
ENDROOT
BRANCH   1   6
HETATM    6  N2  UNL     1      59.743  52.249  23.372  1.00  0.00    -0.210 N 
HETATM    7  N1  UNL     1      60.403  52.186  24.507  1.00  0.00    -0.298 N 
HETATM    8  C2  UNL     1      61.544  52.875  24.641  1.00  0.00     0.182 A 
ATOM      9  H1  UNL     1      60.050  51.619  25.279  1.00  0.00     0.186 HD
HETATM   10  C1  UNL     1      62.053  53.649  23.629  1.00  0.00     0.266 A 
HETATM   11  O1  UNL     1      63.132  54.305  23.747  1.00  0.00    -0.267 OA
HETATM   12  N3  UNL     1      61.335  53.677  22.487  1.00  0.00    -0.273 N 
HETATM   13  C8  UNL     1      60.194  52.988  22.355  1.00  0.00     0.346 A 
ATOM     14  H3  UNL     1      61.671  54.237  21.703  1.00  0.00     0.173 HD
HETATM   15  O9  UNL     1      59.599  53.079  21.249  1.00  0.00    -0.245 OA
ENDBRANCH   1   6
BRANCH   5  16
HETATM   16  O8  UNL     1      57.890  49.361  23.825  1.00  0.00    -0.388 OA
ATOM     17  H8  UNL     1      58.267  48.657  24.341  1.00  0.00     0.210 HD
ENDBRANCH   5  16
BRANCH   3  18
HETATM   18  C5  UNL     1      55.307  52.650  24.311  1.00  0.00     0.217 C 
BRANCH  18  19
HETATM   19  O3  UNL     1      54.105  51.989  24.267  1.00  0.00    -0.280 OA
BRANCH  19  20
HETATM   20  P1  UNL     1      53.445  52.014  25.789  1.00  0.00     0.422 P 
HETATM   21  O4  UNL     1      53.407  50.493  25.823  1.00  0.00    -0.617 OA
HETATM   22  O5  UNL     1      51.850  52.249  25.962  1.00  0.00    -0.617 OA
HETATM   23  O6  UNL     1      54.434  52.041  27.144  1.00  0.00    -0.617 OA
ENDBRANCH  19  20
ENDBRANCH  18  19
ENDBRANCH   3  18
BRANCH   4  24
HETATM   24  O7  UNL     1      56.508  50.255  25.838  1.00  0.00    -0.390 OA
ATOM     25  H7  UNL     1      56.853  49.374  25.748  1.00  0.00     0.210 HD
ENDBRANCH   4  24
TORSDOF 6
ENDMDL
