MODEL 3
REMARK VINA RESULT: -8.922289552      1.695      2.143
REMARK  6 active torsions:
REMARK  status: ('A' for Active; 'I' for Inactive)
REMARK    1  A    between atoms: N1_2  and  C2_4 
REMARK    2  A    between atoms: C4_8  and  C5_9 
REMARK    3  A    between atoms: C5_9  and  C6_10 
REMARK    4  A    between atoms: C6_10  and  N3_11 
REMARK    5  A    between atoms: N3_11  and  C7_14 
REMARK    6  A    between atoms: C7_14  and  C8_15 
ROOT
HETATM    1  C2  UNL     1      17.052  17.010  15.378  1.00  0.00     0.678 A 
HETATM    2  N2  UNL     1      16.036  16.636  16.206  1.00  0.00    -0.189 N 
ATOM      3  H2  UNL     1      15.103  16.347  15.911  1.00  0.00     0.184 HD
HETATM    4  C3  UNL     1      16.471  16.714  17.484  1.00  0.00     0.085 A 
HETATM    5  C4  UNL     1      15.842  16.443  18.703  1.00  0.00     0.001 A 
HETATM    6  C13 UNL     1      16.529  16.606  19.871  1.00  0.00     0.059 A 
HETATM    7  N4  UNL     1      15.963  16.359  21.061  1.00  0.00    -0.329 N 
ATOM      8  H4  UNL     1      14.995  16.041  21.113  1.00  0.00     0.168 HD
HETATM    9  C14 UNL     1      16.687  16.536  22.193  1.00  0.00     0.195 A 
HETATM   10  N5  UNL     1      16.044  16.261  23.429  1.00  0.00    -0.063 NA
HETATM   11  N6  UNL     1      17.964  16.953  22.181  1.00  0.00    -0.297 N 
ATOM     12  H6  UNL     1      18.484  17.077  23.050  1.00  0.00     0.171 HD
HETATM   13  C15 UNL     1      18.542  17.205  20.987  1.00  0.00     0.260 A 
HETATM   14  O1  UNL     1      19.754  17.604  20.913  1.00  0.00    -0.267 OA
HETATM   15  C16 UNL     1      17.859  17.043  19.800  1.00  0.00     0.062 A 
HETATM   16  C17 UNL     1      18.467  17.306  18.594  1.00  0.00     0.052 A 
HETATM   17  C18 UNL     1      17.772  17.141  17.410  1.00  0.00     0.078 A 
HETATM   18  N7  UNL     1      18.128  17.324  16.106  1.00  0.00    -0.190 N 
ATOM     19  H7  UNL     1      19.033  17.638  15.756  1.00  0.00     0.184 HD
ENDROOT
BRANCH   5  20
HETATM   20  C5  UNL     1      14.427  15.992  18.653  1.00  0.00     0.070 C 
BRANCH  20  21
HETATM   21  C6  UNL     1      14.351  14.490  18.597  1.00  0.00     0.237 C 
BRANCH  21  22
HETATM   22  N3  UNL     1      12.939  14.123  18.661  1.00  0.00    -0.074 N 
ATOM     23  H32 UNL     1      12.736  13.216  18.241  1.00  0.00     0.277 HD
ATOM     24  H31 UNL     1      12.621  13.897  19.604  1.00  0.00     0.277 HD
BRANCH  22  25
HETATM   25  C7  UNL     1      12.213  15.211  18.057  1.00  0.00     0.237 C 
BRANCH  25  26
HETATM   26  C8  UNL     1      11.445  14.684  16.882  1.00  0.00     0.011 C 
HETATM   27  C9  UNL     1      10.193  15.503  16.616  1.00  0.00     0.006 C 
HETATM   28  C10 UNL     1      10.411  16.283  15.360  1.00  0.00     0.000 C 
HETATM   29  C11 UNL     1      11.942  16.298  15.250  1.00  0.00     0.000 C 
HETATM   30  C12 UNL     1      12.236  14.853  15.603  1.00  0.00     0.006 C 
ENDBRANCH  25  26
ENDBRANCH  22  25
ENDBRANCH  21  22
ENDBRANCH  20  21
ENDBRANCH   5  20
BRANCH   1  31
HETATM   31  N1  UNL     1      16.967  17.052  13.977  1.00  0.00    -0.230 N 
HETATM   32  C1  UNL     1      16.039  16.163  13.272  1.00  0.00     0.165 C 
ATOM     33  H1  UNL     1      17.551  17.701  13.450  1.00  0.00     0.177 HD
ENDBRANCH   1  31
TORSDOF 6
ENDMDL
