MODEL 2
REMARK VINA RESULT: -9.569903677      1.256      1.428
REMARK  6 active torsions:
REMARK  status: ('A' for Active; 'I' for Inactive)
REMARK    1  A    between atoms: N1_2  and  C2_4 
REMARK    2  A    between atoms: C4_8  and  C5_9 
REMARK    3  A    between atoms: C5_9  and  C6_10 
REMARK    4  A    between atoms: C6_10  and  N3_11 
REMARK    5  A    between atoms: N3_11  and  C7_14 
REMARK    6  A    between atoms: C7_14  and  C8_15 
ROOT
HETATM    1  C2  UNL     1      18.704  17.233  17.215  1.00  0.00     0.678 A 
HETATM    2  N2  UNL     1      17.462  16.827  17.602  1.00  0.00    -0.189 N 
ATOM      3  H2  UNL     1      16.702  16.558  16.977  1.00  0.00     0.184 HD
HETATM    4  C3  UNL     1      17.407  16.841  18.953  1.00  0.00     0.085 A 
HETATM    5  C4  UNL     1      16.384  16.517  19.849  1.00  0.00     0.001 A 
HETATM    6  C13 UNL     1      16.602  16.621  21.193  1.00  0.00     0.059 A 
HETATM    7  N4  UNL     1      15.648  16.321  22.085  1.00  0.00    -0.329 N 
ATOM      8  H4  UNL     1      14.729  16.006  21.771  1.00  0.00     0.168 HD
HETATM    9  C14 UNL     1      15.913  16.439  23.410  1.00  0.00     0.195 A 
HETATM   10  N5  UNL     1      14.871  16.109  24.316  1.00  0.00    -0.063 NA
HETATM   11  N6  UNL     1      17.104  16.848  23.878  1.00  0.00    -0.297 N 
ATOM     12  H6  UNL     1      17.274  16.927  24.881  1.00  0.00     0.171 HD
HETATM   13  C15 UNL     1      18.071  17.153  22.986  1.00  0.00     0.260 A 
HETATM   14  O1  UNL     1      19.223  17.547  23.372  1.00  0.00    -0.267 OA
HETATM   15  C16 UNL     1      17.863  17.052  21.626  1.00  0.00     0.062 A 
HETATM   16  C17 UNL     1      18.862  17.368  20.734  1.00  0.00     0.052 A 
HETATM   17  C18 UNL     1      18.642  17.263  19.373  1.00  0.00     0.078 A 
HETATM   18  N7  UNL     1      19.442  17.506  18.295  1.00  0.00    -0.190 N 
ATOM     19  H7  UNL     1      20.409  17.830  18.310  1.00  0.00     0.184 HD
ENDROOT
BRANCH   5  20
HETATM   20  C5  UNL     1      15.087  16.078  19.272  1.00  0.00     0.070 C 
BRANCH  20  21
HETATM   21  C6  UNL     1      15.114  14.604  18.966  1.00  0.00     0.237 C 
BRANCH  21  22
HETATM   22  N3  UNL     1      14.735  14.443  17.566  1.00  0.00    -0.074 N 
ATOM     23  H32 UNL     1      15.436  14.790  16.912  1.00  0.00     0.277 HD
ATOM     24  H31 UNL     1      14.742  13.472  17.253  1.00  0.00     0.277 HD
BRANCH  22  25
HETATM   25  C7  UNL     1      13.451  15.082  17.422  1.00  0.00     0.237 C 
BRANCH  25  26
HETATM   26  C8  UNL     1      13.317  15.582  16.014  1.00  0.00     0.011 C 
HETATM   27  C9  UNL     1      11.871  15.568  15.548  1.00  0.00     0.006 C 
HETATM   28  C10 UNL     1      11.401  16.984  15.459  1.00  0.00     0.000 C 
HETATM   29  C11 UNL     1      12.396  17.713  16.374  1.00  0.00     0.000 C 
HETATM   30  C12 UNL     1      13.684  17.048  15.929  1.00  0.00     0.006 C 
ENDBRANCH  25  26
ENDBRANCH  22  25
ENDBRANCH  21  22
ENDBRANCH  20  21
ENDBRANCH   5  20
BRANCH   1  31
HETATM   31  N1  UNL     1      19.130  17.343  15.880  1.00  0.00    -0.230 N 
HETATM   32  C1  UNL     1      18.285  18.027  14.896  1.00  0.00     0.165 C 
ATOM     33  H1  UNL     1      20.025  16.947  15.597  1.00  0.00     0.177 HD
ENDBRANCH   1  31
TORSDOF 6
ENDMDL
