MODEL 7
REMARK VINA RESULT: -7.940277681      3.043      5.449
REMARK  6 active torsions:
REMARK  status: ('A' for Active; 'I' for Inactive)
REMARK    1  A    between atoms: N1_2  and  C2_4 
REMARK    2  A    between atoms: C4_8  and  C5_9 
REMARK    3  A    between atoms: C5_9  and  C6_10 
REMARK    4  A    between atoms: C6_10  and  N3_11 
REMARK    5  A    between atoms: N3_11  and  C7_14 
REMARK    6  A    between atoms: C7_14  and  C8_15 
ROOT
HETATM    1  C2  UNL     1      19.075  16.825  18.938  1.00  0.00     0.678 A 
HETATM    2  N2  UNL     1      17.742  16.545  18.934  1.00  0.00    -0.189 N 
ATOM      3  H2  UNL     1      17.213  16.158  19.715  1.00  0.00     0.184 HD
HETATM    4  C3  UNL     1      17.239  16.867  17.721  1.00  0.00     0.085 A 
HETATM    5  C4  UNL     1      15.946  16.783  17.194  1.00  0.00     0.001 A 
HETATM    6  C13 UNL     1      15.710  17.187  15.911  1.00  0.00     0.059 A 
HETATM    7  N4  UNL     1      14.486  17.123  15.368  1.00  0.00    -0.329 N 
ATOM      8  H4  UNL     1      13.700  16.765  15.911  1.00  0.00     0.168 HD
HETATM    9  C14 UNL     1      14.301  17.536  14.090  1.00  0.00     0.195 A 
HETATM   10  N5  UNL     1      12.988  17.450  13.559  1.00  0.00    -0.063 NA
HETATM   11  N6  UNL     1      15.301  18.016  13.331  1.00  0.00    -0.297 N 
ATOM     12  H6  UNL     1      15.131  18.320  12.372  1.00  0.00     0.171 HD
HETATM   13  C15 UNL     1      16.537  18.084  13.869  1.00  0.00     0.260 A 
HETATM   14  O1  UNL     1      17.526  18.531  13.196  1.00  0.00    -0.267 OA
HETATM   15  C16 UNL     1      16.789  17.679  15.164  1.00  0.00     0.062 A 
HETATM   16  C17 UNL     1      18.056  17.757  15.694  1.00  0.00     0.052 A 
HETATM   17  C18 UNL     1      18.297  17.348  16.993  1.00  0.00     0.078 A 
HETATM   18  N7  UNL     1      19.432  17.319  17.748  1.00  0.00    -0.190 N 
ATOM     19  H7  UNL     1      20.366  17.616  17.463  1.00  0.00     0.184 HD
ENDROOT
BRANCH   5  20
HETATM   20  C5  UNL     1      14.885  16.238  18.079  1.00  0.00     0.070 C 
BRANCH  20  21
HETATM   21  C6  UNL     1      15.041  14.750  18.242  1.00  0.00     0.237 C 
BRANCH  21  22
HETATM   22  N3  UNL     1      13.795  14.240  18.806  1.00  0.00    -0.074 N 
ATOM     23  H32 UNL     1      13.671  13.236  18.676  1.00  0.00     0.277 HD
ATOM     24  H31 UNL     1      13.783  14.236  19.826  1.00  0.00     0.277 HD
BRANCH  22  25
HETATM   25  C7  UNL     1      12.739  15.029  18.224  1.00  0.00     0.237 C 
BRANCH  25  26
HETATM   26  C8  UNL     1      11.950  14.162  17.288  1.00  0.00     0.011 C 
HETATM   27  C9  UNL     1      10.501  14.034  17.729  1.00  0.00     0.006 C 
HETATM   28  C10 UNL     1       9.657  14.806  16.767  1.00  0.00     0.000 C 
HETATM   29  C11 UNL     1      10.676  15.769  16.142  1.00  0.00     0.000 C 
HETATM   30  C12 UNL     1      11.831  14.811  15.926  1.00  0.00     0.006 C 
ENDBRANCH  25  26
ENDBRANCH  22  25
ENDBRANCH  21  22
ENDBRANCH  20  21
ENDBRANCH   5  20
BRANCH   1  31
HETATM   31  N1  UNL     1      19.932  16.621  20.032  1.00  0.00    -0.230 N 
HETATM   32  C1  UNL     1      19.374  16.447  21.377  1.00  0.00     0.165 C 
ATOM     33  H1  UNL     1      20.942  16.593  19.892  1.00  0.00     0.177 HD
ENDBRANCH   1  31
TORSDOF 6
ENDMDL
