MODEL 1
REMARK VINA RESULT: -9.968078005      0.000      0.000
REMARK  6 active torsions:
REMARK  status: ('A' for Active; 'I' for Inactive)
REMARK    1  A    between atoms: N1_2  and  C2_4 
REMARK    2  A    between atoms: C4_8  and  C5_9 
REMARK    3  A    between atoms: C5_9  and  C6_10 
REMARK    4  A    between atoms: C6_10  and  N3_11 
REMARK    5  A    between atoms: N3_11  and  C7_14 
REMARK    6  A    between atoms: C7_14  and  C8_15 
ROOT
HETATM    1  C2  UNL     1      18.714  17.224  17.226  1.00  0.00     0.678 A 
HETATM    2  N2  UNL     1      17.468  16.830  17.610  1.00  0.00    -0.189 N 
ATOM      3  H2  UNL     1      16.707  16.568  16.984  1.00  0.00     0.184 HD
HETATM    4  C3  UNL     1      17.410  16.844  18.961  1.00  0.00     0.085 A 
HETATM    5  C4  UNL     1      16.382  16.529  19.855  1.00  0.00     0.001 A 
HETATM    6  C13 UNL     1      16.598  16.629  21.199  1.00  0.00     0.059 A 
HETATM    7  N4  UNL     1      15.639  16.338  22.089  1.00  0.00    -0.329 N 
ATOM      8  H4  UNL     1      14.719  16.032  21.772  1.00  0.00     0.168 HD
HETATM    9  C14 UNL     1      15.902  16.453  23.414  1.00  0.00     0.195 A 
HETATM   10  N5  UNL     1      14.855  16.132  24.318  1.00  0.00    -0.063 NA
HETATM   11  N6  UNL     1      17.096  16.851  23.885  1.00  0.00    -0.297 N 
ATOM     12  H6  UNL     1      17.265  16.927  24.888  1.00  0.00     0.171 HD
HETATM   13  C15 UNL     1      18.067  17.147  22.996  1.00  0.00     0.260 A 
HETATM   14  O1  UNL     1      19.222  17.530  23.385  1.00  0.00    -0.267 OA
HETATM   15  C16 UNL     1      17.862  17.049  21.635  1.00  0.00     0.062 A 
HETATM   16  C17 UNL     1      18.866  17.356  20.746  1.00  0.00     0.052 A 
HETATM   17  C18 UNL     1      18.648  17.254  19.384  1.00  0.00     0.078 A 
HETATM   18  N7  UNL     1      19.453  17.490  18.308  1.00  0.00    -0.190 N 
ATOM     19  H7  UNL     1      20.423  17.805  18.326  1.00  0.00     0.184 HD
ENDROOT
BRANCH   5  20
HETATM   20  C5  UNL     1      15.083  16.102  19.274  1.00  0.00     0.070 C 
BRANCH  20  21
HETATM   21  C6  UNL     1      15.108  14.635  18.938  1.00  0.00     0.237 C 
BRANCH  21  22
HETATM   22  N3  UNL     1      14.275  14.445  17.754  1.00  0.00    -0.074 N 
ATOM     23  H32 UNL     1      14.244  15.261  17.144  1.00  0.00     0.277 HD
ATOM     24  H31 UNL     1      14.675  13.797  17.075  1.00  0.00     0.277 HD
BRANCH  22  25
HETATM   25  C7  UNL     1      12.978  14.040  18.237  1.00  0.00     0.237 C 
BRANCH  25  26
HETATM   26  C8  UNL     1      11.925  14.657  17.365  1.00  0.00     0.011 C 
HETATM   27  C9  UNL     1      10.598  13.929  17.486  1.00  0.00     0.006 C 
HETATM   28  C10 UNL     1       9.651  14.816  18.229  1.00  0.00     0.000 C 
HETATM   29  C11 UNL     1      10.607  15.769  18.960  1.00  0.00     0.000 C 
HETATM   30  C12 UNL     1      11.588  16.055  17.839  1.00  0.00     0.006 C 
ENDBRANCH  25  26
ENDBRANCH  22  25
ENDBRANCH  21  22
ENDBRANCH  20  21
ENDBRANCH   5  20
BRANCH   1  31
HETATM   31  N1  UNL     1      19.144  17.331  15.893  1.00  0.00    -0.230 N 
HETATM   32  C1  UNL     1      18.292  17.993  14.900  1.00  0.00     0.165 C 
ATOM     33  H1  UNL     1      20.048  16.948  15.616  1.00  0.00     0.177 HD
ENDBRANCH   1  31
TORSDOF 6
ENDMDL
