MODEL 4
REMARK VINA RESULT: -8.853877062      2.522      5.150
REMARK  6 active torsions:
REMARK  status: ('A' for Active; 'I' for Inactive)
REMARK    1  A    between atoms: N1_2  and  C2_4 
REMARK    2  A    between atoms: C4_8  and  C5_9 
REMARK    3  A    between atoms: C5_9  and  C6_10 
REMARK    4  A    between atoms: C6_10  and  N3_11 
REMARK    5  A    between atoms: N3_11  and  C7_14 
REMARK    6  A    between atoms: C7_14  and  C8_15 
ROOT
HETATM    1  C2  UNL     1      18.234  16.720  20.899  1.00  0.00     0.678 A 
HETATM    2  N2  UNL     1      16.998  16.396  20.427  1.00  0.00    -0.189 N 
ATOM      3  H2  UNL     1      16.221  16.042  20.987  1.00  0.00     0.184 HD
HETATM    4  C3  UNL     1      16.973  16.621  19.095  1.00  0.00     0.085 A 
HETATM    5  C4  UNL     1      15.964  16.460  18.139  1.00  0.00     0.001 A 
HETATM    6  C13 UNL     1      16.212  16.773  16.833  1.00  0.00     0.059 A 
HETATM    7  N4  UNL     1      15.274  16.632  15.886  1.00  0.00    -0.329 N 
ATOM      8  H4  UNL     1      14.346  16.284  16.129  1.00  0.00     0.168 HD
HETATM    9  C14 UNL     1      15.568  16.956  14.603  1.00  0.00     0.195 A 
HETATM   10  N5  UNL     1      14.542  16.791  13.636  1.00  0.00    -0.063 NA
HETATM   11  N6  UNL     1      16.774  17.419  14.229  1.00  0.00    -0.297 N 
ATOM     12  H6  UNL     1      16.965  17.655  13.255  1.00  0.00     0.171 HD
HETATM   13  C15 UNL     1      17.725  17.563  15.176  1.00  0.00     0.260 A 
HETATM   14  O1  UNL     1      18.888  17.999  14.880  1.00  0.00    -0.267 OA
HETATM   15  C16 UNL     1      17.486  17.251  16.499  1.00  0.00     0.062 A 
HETATM   16  C17 UNL     1      18.470  17.405  17.448  1.00  0.00     0.052 A 
HETATM   17  C18 UNL     1      18.220  17.089  18.771  1.00  0.00     0.078 A 
HETATM   18  N7  UNL     1      18.999  17.148  19.889  1.00  0.00    -0.190 N 
ATOM     19  H7  UNL     1      19.970  17.458  19.945  1.00  0.00     0.184 HD
ENDROOT
BRANCH   5  20
HETATM   20  C5  UNL     1      14.656  15.938  18.611  1.00  0.00     0.070 C 
BRANCH  20  21
HETATM   21  C6  UNL     1      14.663  14.433  18.636  1.00  0.00     0.237 C 
BRANCH  21  22
HETATM   22  N3  UNL     1      13.281  13.995  18.808  1.00  0.00    -0.074 N 
ATOM     23  H32 UNL     1      13.101  13.064  18.432  1.00  0.00     0.277 HD
ATOM     24  H31 UNL     1      13.039  13.786  19.777  1.00  0.00     0.277 HD
BRANCH  22  25
HETATM   25  C7  UNL     1      12.458  15.021  18.220  1.00  0.00     0.237 C 
BRANCH  25  26
HETATM   26  C8  UNL     1      11.614  14.404  17.144  1.00  0.00     0.011 C 
HETATM   27  C9  UNL     1      10.227  15.022  17.095  1.00  0.00     0.006 C 
HETATM   28  C10 UNL     1      10.136  15.853  15.855  1.00  0.00     0.000 C 
HETATM   29  C11 UNL     1      11.614  16.110  15.529  1.00  0.00     0.000 C 
HETATM   30  C12 UNL     1      12.174  14.722  15.774  1.00  0.00     0.006 C 
ENDBRANCH  25  26
ENDBRANCH  22  25
ENDBRANCH  21  22
ENDBRANCH  20  21
ENDBRANCH   5  20
BRANCH   1  31
HETATM   31  N1  UNL     1      18.631  16.616  22.242  1.00  0.00    -0.230 N 
HETATM   32  C1  UNL     1      17.883  17.327  23.284  1.00  0.00     0.165 C 
ATOM     33  H1  UNL     1      19.438  16.045  22.493  1.00  0.00     0.177 HD
ENDBRANCH   1  31
TORSDOF 6
ENDMDL
