MODEL 6
REMARK VINA RESULT: -8.649719529      2.417      5.061
REMARK  6 active torsions:
REMARK  status: ('A' for Active; 'I' for Inactive)
REMARK    1  A    between atoms: N1_2  and  C2_4 
REMARK    2  A    between atoms: C4_8  and  C5_9 
REMARK    3  A    between atoms: C5_9  and  C6_10 
REMARK    4  A    between atoms: C6_10  and  N3_11 
REMARK    5  A    between atoms: N3_11  and  C7_14 
REMARK    6  A    between atoms: C7_14  and  C8_15 
ROOT
HETATM    1  C2  UNL     1      18.234  16.722  20.927  1.00  0.00     0.678 A 
HETATM    2  N2  UNL     1      16.992  16.408  20.464  1.00  0.00    -0.189 N 
ATOM      3  H2  UNL     1      16.215  16.067  21.030  1.00  0.00     0.184 HD
HETATM    4  C3  UNL     1      16.963  16.623  19.130  1.00  0.00     0.085 A 
HETATM    5  C4  UNL     1      15.949  16.466  18.180  1.00  0.00     0.001 A 
HETATM    6  C13 UNL     1      16.194  16.765  16.871  1.00  0.00     0.059 A 
HETATM    7  N4  UNL     1      15.250  16.628  15.929  1.00  0.00    -0.329 N 
ATOM      8  H4  UNL     1      14.320  16.291  16.179  1.00  0.00     0.168 HD
HETATM    9  C14 UNL     1      15.542  16.938  14.642  1.00  0.00     0.195 A 
HETATM   10  N5  UNL     1      14.509  16.777  13.681  1.00  0.00    -0.063 NA
HETATM   11  N6  UNL     1      16.750  17.385  14.259  1.00  0.00    -0.297 N 
ATOM     12  H6  UNL     1      16.939  17.612  13.283  1.00  0.00     0.171 HD
HETATM   13  C15 UNL     1      17.707  17.527  15.201  1.00  0.00     0.260 A 
HETATM   14  O1  UNL     1      18.874  17.948  14.896  1.00  0.00    -0.267 OA
HETATM   15  C16 UNL     1      17.471  17.228  16.527  1.00  0.00     0.062 A 
HETATM   16  C17 UNL     1      18.461  17.379  17.471  1.00  0.00     0.052 A 
HETATM   17  C18 UNL     1      18.214  17.076  18.797  1.00  0.00     0.078 A 
HETATM   18  N7  UNL     1      18.999  17.135  19.911  1.00  0.00    -0.190 N 
ATOM     19  H7  UNL     1      19.973  17.434  19.960  1.00  0.00     0.184 HD
ENDROOT
BRANCH   5  20
HETATM   20  C5  UNL     1      14.638  15.961  18.663  1.00  0.00     0.070 C 
BRANCH  20  21
HETATM   21  C6  UNL     1      14.640  14.458  18.733  1.00  0.00     0.237 C 
BRANCH  21  22
HETATM   22  N3  UNL     1      13.504  13.983  17.950  1.00  0.00    -0.074 N 
ATOM     23  H32 UNL     1      13.764  13.630  17.029  1.00  0.00     0.277 HD
ATOM     24  H31 UNL     1      13.099  13.116  18.305  1.00  0.00     0.277 HD
BRANCH  22  25
HETATM   25  C7  UNL     1      12.565  15.076  17.901  1.00  0.00     0.237 C 
BRANCH  25  26
HETATM   26  C8  UNL     1      11.569  14.806  16.813  1.00  0.00     0.011 C 
HETATM   27  C9  UNL     1      11.026  13.389  16.887  1.00  0.00     0.006 C 
HETATM   28  C10 UNL     1       9.605  13.463  17.346  1.00  0.00     0.000 C 
HETATM   29  C11 UNL     1       9.554  14.841  18.021  1.00  0.00     0.000 C 
HETATM   30  C12 UNL     1      10.328  15.653  17.000  1.00  0.00     0.006 C 
ENDBRANCH  25  26
ENDBRANCH  22  25
ENDBRANCH  21  22
ENDBRANCH  20  21
ENDBRANCH   5  20
BRANCH   1  31
HETATM   31  N1  UNL     1      18.636  16.624  22.270  1.00  0.00    -0.230 N 
HETATM   32  C1  UNL     1      17.920  17.376  23.305  1.00  0.00     0.165 C 
ATOM     33  H1  UNL     1      19.425  16.030  22.524  1.00  0.00     0.177 HD
ENDBRANCH   1  31
TORSDOF 6
ENDMDL
