MODEL 5
REMARK VINA RESULT: -8.819247406      1.561      2.183
REMARK  6 active torsions:
REMARK  status: ('A' for Active; 'I' for Inactive)
REMARK    1  A    between atoms: N1_2  and  C2_4 
REMARK    2  A    between atoms: C4_8  and  C5_9 
REMARK    3  A    between atoms: C5_9  and  C6_10 
REMARK    4  A    between atoms: C6_10  and  N3_11 
REMARK    5  A    between atoms: N3_11  and  C7_14 
REMARK    6  A    between atoms: C7_14  and  C8_15 
ROOT
HETATM    1  C2  UNL     1      17.422  17.273  14.997  1.00  0.00     0.678 A 
HETATM    2  N2  UNL     1      16.403  16.928  15.833  1.00  0.00    -0.189 N 
ATOM      3  H2  UNL     1      15.452  16.696  15.549  1.00  0.00     0.184 HD
HETATM    4  C3  UNL     1      16.865  16.945  17.104  1.00  0.00     0.085 A 
HETATM    5  C4  UNL     1      16.245  16.671  18.327  1.00  0.00     0.001 A 
HETATM    6  C13 UNL     1      16.962  16.764  19.486  1.00  0.00     0.059 A 
HETATM    7  N4  UNL     1      16.405  16.511  20.679  1.00  0.00    -0.329 N 
ATOM      8  H4  UNL     1      15.423  16.242  20.741  1.00  0.00     0.168 HD
HETATM    9  C14 UNL     1      17.158  16.617  21.801  1.00  0.00     0.195 A 
HETATM   10  N5  UNL     1      16.524  16.338  23.041  1.00  0.00    -0.063 NA
HETATM   11  N6  UNL     1      18.455  16.967  21.775  1.00  0.00    -0.297 N 
ATOM     12  H6  UNL     1      18.996  17.038  22.637  1.00  0.00     0.171 HD
HETATM   13  C15 UNL     1      19.023  17.224  20.578  1.00  0.00     0.260 A 
HETATM   14  O1  UNL     1      20.252  17.561  20.491  1.00  0.00    -0.267 OA
HETATM   15  C16 UNL     1      18.310  17.133  19.400  1.00  0.00     0.062 A 
HETATM   16  C17 UNL     1      18.910  17.400  18.191  1.00  0.00     0.052 A 
HETATM   17  C18 UNL     1      18.186  17.306  17.017  1.00  0.00     0.078 A 
HETATM   18  N7  UNL     1      18.526  17.509  15.712  1.00  0.00    -0.190 N 
ATOM     19  H7  UNL     1      19.440  17.786  15.353  1.00  0.00     0.184 HD
ENDROOT
BRANCH   5  20
HETATM   20  C5  UNL     1      14.808  16.296  18.292  1.00  0.00     0.070 C 
BRANCH  20  21
HETATM   21  C6  UNL     1      14.652  14.806  18.143  1.00  0.00     0.237 C 
BRANCH  21  22
HETATM   22  N3  UNL     1      13.431  14.570  17.379  1.00  0.00    -0.074 N 
ATOM     23  H32 UNL     1      13.217  15.315  16.715  1.00  0.00     0.277 HD
ATOM     24  H31 UNL     1      13.517  13.817  16.697  1.00  0.00     0.277 HD
BRANCH  22  25
HETATM   25  C7  UNL     1      12.387  14.349  18.349  1.00  0.00     0.237 C 
BRANCH  25  26
HETATM   26  C8  UNL     1      11.377  15.451  18.229  1.00  0.00     0.011 C 
HETATM   27  C9  UNL     1      11.348  16.037  16.827  1.00  0.00     0.006 C 
HETATM   28  C10 UNL     1      10.073  15.610  16.176  1.00  0.00     0.000 C 
HETATM   29  C11 UNL     1       9.679  14.382  17.009  1.00  0.00     0.000 C 
HETATM   30  C12 UNL     1       9.973  14.912  18.398  1.00  0.00     0.006 C 
ENDBRANCH  25  26
ENDBRANCH  22  25
ENDBRANCH  21  22
ENDBRANCH  20  21
ENDBRANCH   5  20
BRANCH   1  31
HETATM   31  N1  UNL     1      17.314  17.361  13.599  1.00  0.00    -0.230 N 
HETATM   32  C1  UNL     1      16.463  16.416  12.869  1.00  0.00     0.165 C 
ATOM     33  H1  UNL     1      17.827  18.082  13.092  1.00  0.00     0.177 HD
ENDBRANCH   1  31
TORSDOF 6
ENDMDL
