MODEL 3
REMARK VINA RESULT: -4.120554549      1.530      3.523
REMARK  2 active torsions:
REMARK  status: ('A' for Active; 'I' for Inactive)
REMARK    1  A    between atoms: C1_2  and  C2_4 
REMARK    2  A    between atoms: C7_9  and  O3_10 
ROOT
HETATM    1  C2  UNL     1       1.159  -1.919 -20.765  1.00  0.00     0.073 A 
HETATM    2  C3  UNL     1       2.405  -1.310 -20.944  1.00  0.00     0.021 A 
HETATM    3  C4  UNL     1       3.240  -1.756 -21.939  1.00  0.00     0.001 A 
HETATM    4  C5  UNL     1       2.897  -2.792 -22.778  1.00  0.00     0.003 A 
HETATM    5  C6  UNL     1       1.672  -3.375 -22.586  1.00  0.00     0.037 A 
HETATM    6  C7  UNL     1       0.785  -2.943 -21.573  1.00  0.00     0.082 A 
ENDROOT
BRANCH   1   7
HETATM    7  C1  UNL     1       0.296  -1.432 -19.711  1.00  0.00     0.212 C 
HETATM    8  O1  UNL     1      -0.380  -2.157 -18.963  1.00  0.00    -0.644 OA
HETATM    9  O2  UNL     1       0.178  -0.037 -19.472  1.00  0.00    -0.644 OA
ENDBRANCH   1   7
BRANCH   6  10
HETATM   10  O3  UNL     1      -0.414  -3.584 -21.457  1.00  0.00    -0.360 OA
ATOM     11  H3  UNL     1      -0.537  -4.499 -21.683  1.00  0.00     0.217 HD
ENDBRANCH   6  10
TORSDOF 2
ENDMDL
