MODEL 5
REMARK VINA RESULT: -4.113473256      1.502      3.444
REMARK  2 active torsions:
REMARK  status: ('A' for Active; 'I' for Inactive)
REMARK    1  A    between atoms: C1_2  and  C2_4 
REMARK    2  A    between atoms: C7_9  and  O3_10 
ROOT
HETATM    1  C2  UNL     1       1.222  -1.901 -20.854  1.00  0.00     0.073 A 
HETATM    2  C3  UNL     1       2.487  -1.343 -21.068  1.00  0.00     0.021 A 
HETATM    3  C4  UNL     1       3.312  -1.884 -22.024  1.00  0.00     0.001 A 
HETATM    4  C5  UNL     1       2.942  -2.967 -22.788  1.00  0.00     0.003 A 
HETATM    5  C6  UNL     1       1.699  -3.499 -22.561  1.00  0.00     0.037 A 
HETATM    6  C7  UNL     1       0.822  -2.970 -21.588  1.00  0.00     0.082 A 
ENDROOT
BRANCH   1   7
HETATM    7  C1  UNL     1       0.370  -1.314 -19.843  1.00  0.00     0.212 C 
HETATM    8  O1  UNL     1       0.276  -0.095 -19.623  1.00  0.00    -0.644 OA
HETATM    9  O2  UNL     1      -0.434  -2.143 -19.018  1.00  0.00    -0.644 OA
ENDBRANCH   1   7
BRANCH   6  10
HETATM   10  O3  UNL     1      -0.396  -3.566 -21.433  1.00  0.00    -0.360 OA
ATOM     11  H3  UNL     1      -1.003  -3.333 -20.740  1.00  0.00     0.217 HD
ENDBRANCH   6  10
TORSDOF 2
ENDMDL
