MODEL 9
REMARK VINA RESULT: -3.918954309      1.963      2.351
REMARK  2 active torsions:
REMARK  status: ('A' for Active; 'I' for Inactive)
REMARK    1  A    between atoms: C1_2  and  C2_4 
REMARK    2  A    between atoms: C7_9  and  O3_10 
ROOT
HETATM    1  C2  UNL     1       2.182  -2.833 -23.260  1.00  0.00     0.073 A 
HETATM    2  C3  UNL     1       3.172  -2.169 -22.529  1.00  0.00     0.021 A 
HETATM    3  C4  UNL     1       2.884  -1.701 -21.270  1.00  0.00     0.001 A 
HETATM    4  C5  UNL     1       1.646  -1.859 -20.691  1.00  0.00     0.003 A 
HETATM    5  C6  UNL     1       0.690  -2.513 -21.425  1.00  0.00     0.037 A 
HETATM    6  C7  UNL     1       0.948  -3.009 -22.722  1.00  0.00     0.082 A 
ENDROOT
BRANCH   1   7
HETATM    7  C1  UNL     1       2.509  -3.319 -24.583  1.00  0.00     0.212 C 
HETATM    8  O1  UNL     1       2.000  -4.322 -25.110  1.00  0.00    -0.644 OA
HETATM    9  O2  UNL     1       3.469  -2.638 -25.377  1.00  0.00    -0.644 OA
ENDBRANCH   1   7
BRANCH   6  10
HETATM   10  O3  UNL     1      -0.065  -3.646 -23.377  1.00  0.00    -0.360 OA
ATOM     11  H3  UNL     1      -0.983  -3.457 -23.222  1.00  0.00     0.217 HD
ENDBRANCH   6  10
TORSDOF 2
ENDMDL
