MODEL 6
REMARK VINA RESULT: -4.082277369      8.374      9.122
REMARK  2 active torsions:
REMARK  status: ('A' for Active; 'I' for Inactive)
REMARK    1  A    between atoms: C1_2  and  C2_4 
REMARK    2  A    between atoms: C7_9  and  O3_10 
ROOT
HETATM    1  C2  UNL     1       3.486  -0.403 -29.893  1.00  0.00     0.073 A 
HETATM    2  C3  UNL     1       3.278   0.586 -30.860  1.00  0.00     0.021 A 
HETATM    3  C4  UNL     1       2.256   0.441 -31.766  1.00  0.00     0.001 A 
HETATM    4  C5  UNL     1       1.418  -0.650 -31.763  1.00  0.00     0.003 A 
HETATM    5  C6  UNL     1       1.640  -1.608 -30.807  1.00  0.00     0.037 A 
HETATM    6  C7  UNL     1       2.680  -1.495 -29.858  1.00  0.00     0.082 A 
ENDROOT
BRANCH   1   7
HETATM    7  C1  UNL     1       4.569  -0.230 -28.949  1.00  0.00     0.212 C 
HETATM    8  O1  UNL     1       4.552   0.571 -27.999  1.00  0.00    -0.644 OA
HETATM    9  O2  UNL     1       5.754  -1.002 -29.071  1.00  0.00    -0.644 OA
ENDBRANCH   1   7
BRANCH   6  10
HETATM   10  O3  UNL     1       2.825  -2.498 -28.945  1.00  0.00    -0.360 OA
ATOM     11  H3  UNL     1       3.166  -3.356 -29.166  1.00  0.00     0.217 HD
ENDBRANCH   6  10
TORSDOF 2
ENDMDL
