MODEL 2
REMARK VINA RESULT: -9.523308529      2.246      8.540
REMARK  13 active torsions:
REMARK  status: ('A' for Active; 'I' for Inactive)
REMARK    1  A    between atoms: C2_2  and  C4_4 
REMARK    2  A    between atoms: C4_4  and  N1_5 
REMARK    3  A    between atoms: N1_5  and  C5_6 
REMARK    4  A    between atoms: N1_5  and  S1_31 
REMARK    5  A    between atoms: C5_6  and  C6_7 
REMARK    6  A    between atoms: C6_7  and  O1_8 
REMARK    7  A    between atoms: C6_7  and  C7_10 
REMARK    8  A    between atoms: C7_10  and  C8_11 
REMARK    9  A    between atoms: C7_10  and  N2_18 
REMARK   10  A    between atoms: C8_11  and  C9_12 
REMARK       I    between atoms: N2_18  and  C15_20 
REMARK   11  A    between atoms: C15_20  and  O3_22 
REMARK   12  A    between atoms: O3_22  and  C16_23 
REMARK   13  A    between atoms: S1_31  and  C22_34 
ROOT
HETATM    1  C7  UNL     1     -10.050  16.581  25.315  1.00  0.00     0.029 C 
ENDROOT
BRANCH   1   2
HETATM    2  C6  UNL     1      -9.398  17.652  26.151  1.00  0.00     0.203 C 
BRANCH   2   3
HETATM    3  C5  UNL     1      -8.128  18.183  25.622  1.00  0.00     0.119 C 
BRANCH   3   4
HETATM    4  N1  UNL     1      -6.992  17.367  25.709  1.00  0.00    -0.262 N 
BRANCH   4   5
HETATM    5  C4  UNL     1      -6.150  17.153  24.617  1.00  0.00     0.085 C 
BRANCH   5   6
HETATM    6  C2  UNL     1      -6.039  18.310  23.632  1.00  0.00     0.017 C 
HETATM    7  C1  UNL     1      -4.954  19.289  23.980  1.00  0.00     0.015 C 
HETATM    8  C3  UNL     1      -5.860  17.822  22.214  1.00  0.00     0.015 C 
ENDBRANCH   5   6
ENDBRANCH   4   5
BRANCH   4   9
HETATM    9  S1  UNL     1      -6.373  17.165  27.268  1.00  0.00     0.267 S 
HETATM   10  O6  UNL     1      -5.303  16.084  27.209  1.00  0.00    -0.200 OA
HETATM   11  O7  UNL     1      -5.740  18.440  27.808  1.00  0.00    -0.200 OA
BRANCH   9  12
HETATM   12  C22 UNL     1      -7.573  16.644  28.444  1.00  0.00     0.080 A 
HETATM   13  C23 UNL     1      -8.138  15.386  28.441  1.00  0.00     0.027 A 
HETATM   14  C24 UNL     1      -9.083  15.001  29.373  1.00  0.00     0.028 A 
HETATM   15  C25 UNL     1      -9.501  15.873  30.355  1.00  0.00     0.046 A 
HETATM   16  N3  UNL     1     -10.486  15.476  31.327  1.00  0.00    -0.102 NA
HETATM   17  C26 UNL     1      -8.948  17.134  30.372  1.00  0.00     0.028 A 
HETATM   18  C27 UNL     1      -8.007  17.511  29.442  1.00  0.00     0.027 A 
ENDBRANCH   9  12
ENDBRANCH   4   9
ENDBRANCH   3   4
ENDBRANCH   2   3
BRANCH   2  19
HETATM   19  O1  UNL     1     -10.331  18.716  26.199  1.00  0.00    -0.385 OA
ATOM     20  H1  UNL     1     -10.928  18.615  25.467  1.00  0.00     0.211 HD
ENDBRANCH   2  19
ENDBRANCH   1   2
BRANCH   1  21
HETATM   21  C8  UNL     1     -10.149  16.948  23.860  1.00  0.00     0.094 C 
BRANCH  21  22
HETATM   22  C9  UNL     1      -9.316  16.161  22.951  1.00  0.00    -0.053 A 
HETATM   23  C10 UNL     1      -9.349  16.458  21.588  1.00  0.00     0.007 A 
HETATM   24  C11 UNL     1      -8.639  15.771  20.640  1.00  0.00     0.001 A 
HETATM   25  C12 UNL     1      -7.837  14.721  21.048  1.00  0.00     0.000 A 
HETATM   26  C13 UNL     1      -7.771  14.392  22.379  1.00  0.00     0.001 A 
HETATM   27  C14 UNL     1      -8.518  15.123  23.317  1.00  0.00     0.007 A 
ENDBRANCH  21  22
ENDBRANCH   1  21
BRANCH   1  28
HETATM   28  N2  UNL     1     -11.138  15.917  25.915  1.00  0.00    -0.307 N 
HETATM   29  C15 UNL     1     -11.152  14.550  26.290  1.00  0.00     0.365 C 
HETATM   30  O2  UNL     1     -10.157  13.845  26.088  1.00  0.00    -0.238 OA
ATOM     31  H2  UNL     1     -11.981  16.462  26.094  1.00  0.00     0.170 HD
BRANCH  29  32
HETATM   32  O3  UNL     1     -12.280  13.980  26.889  1.00  0.00    -0.296 OA
BRANCH  32  33
HETATM   33  C16 UNL     1     -12.726  14.398  28.169  1.00  0.00     0.166 C 
HETATM   34  C17 UNL     1     -14.214  14.471  28.251  1.00  0.00     0.204 C 
HETATM   35  O4  UNL     1     -14.629  13.919  29.433  1.00  0.00    -0.358 OA
HETATM   36  C18 UNL     1     -13.526  13.484  30.150  1.00  0.00     0.266 C 
HETATM   37  O5  UNL     1     -13.704  12.223  30.706  1.00  0.00    -0.361 OA
HETATM   38  C21 UNL     1     -12.416  13.277  29.140  1.00  0.00     0.075 C 
HETATM   39  C19 UNL     1     -13.566  11.280  29.717  1.00  0.00     0.171 C 
HETATM   40  C20 UNL     1     -12.727  11.918  28.605  1.00  0.00     0.038 C 
ENDBRANCH  32  33
ENDBRANCH  29  32
ENDBRANCH   1  28
TORSDOF 13
ENDMDL
