MODEL 8
REMARK VINA RESULT: -8.947267931      2.640      6.694
REMARK  13 active torsions:
REMARK  status: ('A' for Active; 'I' for Inactive)
REMARK    1  A    between atoms: C2_2  and  C4_4 
REMARK    2  A    between atoms: C4_4  and  N1_5 
REMARK    3  A    between atoms: N1_5  and  C5_6 
REMARK    4  A    between atoms: N1_5  and  S1_31 
REMARK    5  A    between atoms: C5_6  and  C6_7 
REMARK    6  A    between atoms: C6_7  and  O1_8 
REMARK    7  A    between atoms: C6_7  and  C7_10 
REMARK    8  A    between atoms: C7_10  and  C8_11 
REMARK    9  A    between atoms: C7_10  and  N2_18 
REMARK   10  A    between atoms: C8_11  and  C9_12 
REMARK       I    between atoms: N2_18  and  C15_20 
REMARK   11  A    between atoms: C15_20  and  O3_22 
REMARK   12  A    between atoms: O3_22  and  C16_23 
REMARK   13  A    between atoms: S1_31  and  C22_34 
ROOT
HETATM    1  C7  UNL     1     -10.289  16.258  27.446  1.00  0.00     0.029 C 
ENDROOT
BRANCH   1   2
HETATM    2  C6  UNL     1      -9.982  17.719  27.233  1.00  0.00     0.203 C 
BRANCH   2   3
HETATM    3  C5  UNL     1      -9.374  18.055  25.932  1.00  0.00     0.119 C 
BRANCH   3   4
HETATM    4  N1  UNL     1      -7.981  17.956  25.817  1.00  0.00    -0.262 N 
BRANCH   4   5
HETATM    5  C4  UNL     1      -7.119  18.490  26.776  1.00  0.00     0.085 C 
BRANCH   5   6
HETATM    6  C2  UNL     1      -6.628  17.513  27.837  1.00  0.00     0.017 C 
HETATM    7  C1  UNL     1      -5.130  17.441  27.935  1.00  0.00     0.015 C 
HETATM    8  C3  UNL     1      -7.220  17.817  29.193  1.00  0.00     0.015 C 
ENDBRANCH   5   6
ENDBRANCH   4   5
BRANCH   4   9
HETATM    9  S1  UNL     1      -7.431  16.692  24.840  1.00  0.00     0.267 S 
HETATM   10  O6  UNL     1      -5.929  16.859  24.661  1.00  0.00    -0.200 OA
HETATM   11  O7  UNL     1      -7.692  15.326  25.462  1.00  0.00    -0.200 OA
BRANCH   9  12
HETATM   12  C22 UNL     1      -8.147  16.675  23.233  1.00  0.00     0.080 A 
HETATM   13  C23 UNL     1      -9.244  15.908  22.903  1.00  0.00     0.027 A 
HETATM   14  C24 UNL     1      -9.786  15.908  21.631  1.00  0.00     0.028 A 
HETATM   15  C25 UNL     1      -9.242  16.686  20.632  1.00  0.00     0.046 A 
HETATM   16  N3  UNL     1      -9.804  16.688  19.307  1.00  0.00    -0.102 NA
HETATM   17  C26 UNL     1      -8.145  17.458  20.945  1.00  0.00     0.028 A 
HETATM   18  C27 UNL     1      -7.610  17.454  22.213  1.00  0.00     0.027 A 
ENDBRANCH   9  12
ENDBRANCH   4   9
ENDBRANCH   3   4
ENDBRANCH   2   3
BRANCH   2  19
HETATM   19  O1  UNL     1     -11.229  18.385  27.318  1.00  0.00    -0.385 OA
ATOM     20  H1  UNL     1     -11.060  19.297  27.521  1.00  0.00     0.211 HD
ENDBRANCH   2  19
ENDBRANCH   1   2
BRANCH   1  21
HETATM   21  C8  UNL     1     -11.397  15.755  26.563  1.00  0.00     0.094 C 
BRANCH  21  22
HETATM   22  C9  UNL     1     -12.013  14.495  26.978  1.00  0.00    -0.053 A 
HETATM   23  C10 UNL     1     -13.035  14.531  27.927  1.00  0.00     0.007 A 
HETATM   24  C11 UNL     1     -13.664  13.416  28.414  1.00  0.00     0.001 A 
HETATM   25  C12 UNL     1     -13.270  12.177  27.943  1.00  0.00     0.000 A 
HETATM   26  C13 UNL     1     -12.268  12.091  27.009  1.00  0.00     0.001 A 
HETATM   27  C14 UNL     1     -11.650  13.261  26.537  1.00  0.00     0.007 A 
ENDBRANCH  21  22
ENDBRANCH   1  21
BRANCH   1  28
HETATM   28  N2  UNL     1     -10.239  15.814  28.782  1.00  0.00    -0.307 N 
HETATM   29  C15 UNL     1      -9.267  14.930  29.311  1.00  0.00     0.365 C 
HETATM   30  O2  UNL     1      -8.376  14.483  28.579  1.00  0.00    -0.238 OA
ATOM     31  H2  UNL     1     -10.960  16.155  29.418  1.00  0.00     0.170 HD
BRANCH  29  32
HETATM   32  O3  UNL     1      -9.295  14.550  30.656  1.00  0.00    -0.296 OA
BRANCH  32  33
HETATM   33  C16 UNL     1     -10.467  14.703  31.441  1.00  0.00     0.166 C 
HETATM   34  C17 UNL     1     -10.475  13.794  32.625  1.00  0.00     0.204 C 
HETATM   35  O4  UNL     1     -10.899  14.489  33.726  1.00  0.00    -0.358 OA
HETATM   36  C18 UNL     1     -11.178  15.798  33.364  1.00  0.00     0.266 C 
HETATM   37  O5  UNL     1     -10.677  16.727  34.267  1.00  0.00    -0.361 OA
HETATM   38  C21 UNL     1     -10.391  16.067  32.098  1.00  0.00     0.075 C 
HETATM   39  C19 UNL     1      -9.323  16.849  34.070  1.00  0.00     0.171 C 
HETATM   40  C20 UNL     1      -9.037  16.400  32.633  1.00  0.00     0.038 C 
ENDBRANCH  32  33
ENDBRANCH  29  32
ENDBRANCH   1  28
TORSDOF 13
ENDMDL
