MODEL 3
REMARK VINA RESULT: -9.241229411      0.737      1.203
REMARK  13 active torsions:
REMARK  status: ('A' for Active; 'I' for Inactive)
REMARK    1  A    between atoms: C2_2  and  C4_4 
REMARK    2  A    between atoms: C4_4  and  N1_5 
REMARK    3  A    between atoms: N1_5  and  C5_6 
REMARK    4  A    between atoms: N1_5  and  S1_31 
REMARK    5  A    between atoms: C5_6  and  C6_7 
REMARK    6  A    between atoms: C6_7  and  O1_8 
REMARK    7  A    between atoms: C6_7  and  C7_10 
REMARK    8  A    between atoms: C7_10  and  C8_11 
REMARK    9  A    between atoms: C7_10  and  N2_18 
REMARK   10  A    between atoms: C8_11  and  C9_12 
REMARK       I    between atoms: N2_18  and  C15_20 
REMARK   11  A    between atoms: C15_20  and  O3_22 
REMARK   12  A    between atoms: O3_22  and  C16_23 
REMARK   13  A    between atoms: S1_31  and  C22_34 
ROOT
HETATM    1  C7  UNL     1      -9.430  16.654  28.463  1.00  0.00     0.029 C 
ENDROOT
BRANCH   1   2
HETATM    2  C6  UNL     1     -10.615  16.856  27.554  1.00  0.00     0.203 C 
BRANCH   2   3
HETATM    3  C5  UNL     1     -11.801  16.038  27.870  1.00  0.00     0.119 C 
BRANCH   3   4
HETATM    4  N1  UNL     1     -11.650  14.645  27.884  1.00  0.00    -0.262 N 
BRANCH   4   5
HETATM    5  C4  UNL     1     -11.833  13.892  29.044  1.00  0.00     0.085 C 
BRANCH   5   6
HETATM    6  C2  UNL     1     -12.951  14.363  29.966  1.00  0.00     0.017 C 
HETATM    7  C1  UNL     1     -14.313  13.889  29.544  1.00  0.00     0.015 C 
HETATM    8  C3  UNL     1     -12.692  13.976  31.403  1.00  0.00     0.015 C 
ENDBRANCH   5   6
ENDBRANCH   4   5
BRANCH   4   9
HETATM    9  S1  UNL     1     -11.835  13.889  26.384  1.00  0.00     0.267 S 
HETATM   10  O6  UNL     1     -11.313  12.466  26.510  1.00  0.00    -0.200 OA
HETATM   11  O7  UNL     1     -13.291  13.831  25.942  1.00  0.00    -0.200 OA
BRANCH   9  12
HETATM   12  C22 UNL     1     -10.931  14.660  25.086  1.00  0.00     0.080 A 
HETATM   13  C23 UNL     1      -9.562  14.566  24.960  1.00  0.00     0.027 A 
HETATM   14  C24 UNL     1      -8.872  15.185  23.934  1.00  0.00     0.028 A 
HETATM   15  C25 UNL     1      -9.540  15.929  22.985  1.00  0.00     0.046 A 
HETATM   16  N3  UNL     1      -8.825  16.575  21.915  1.00  0.00    -0.102 NA
HETATM   17  C26 UNL     1     -10.908  16.034  23.096  1.00  0.00     0.028 A 
HETATM   18  C27 UNL     1     -11.589  15.415  24.120  1.00  0.00     0.027 A 
ENDBRANCH   9  12
ENDBRANCH   4   9
ENDBRANCH   3   4
ENDBRANCH   2   3
BRANCH   2  19
HETATM   19  O1  UNL     1     -10.974  18.218  27.696  1.00  0.00    -0.385 OA
ATOM     20  H1  UNL     1     -10.909  18.444  28.616  1.00  0.00     0.211 HD
ENDBRANCH   2  19
ENDBRANCH   1   2
BRANCH   1  21
HETATM   21  C8  UNL     1      -9.653  17.189  29.850  1.00  0.00     0.094 C 
BRANCH  21  22
HETATM   22  C9  UNL     1      -9.398  16.248  30.940  1.00  0.00    -0.053 A 
HETATM   23  C10 UNL     1      -9.127  14.916  30.624  1.00  0.00     0.007 A 
HETATM   24  C11 UNL     1      -8.903  13.940  31.558  1.00  0.00     0.001 A 
HETATM   25  C12 UNL     1      -8.946  14.285  32.897  1.00  0.00     0.000 A 
HETATM   26  C13 UNL     1      -9.209  15.584  33.257  1.00  0.00     0.001 A 
HETATM   27  C14 UNL     1      -9.433  16.553  32.265  1.00  0.00     0.007 A 
ENDBRANCH  21  22
ENDBRANCH   1  21
BRANCH   1  28
HETATM   28  N2  UNL     1      -8.166  16.839  27.867  1.00  0.00    -0.307 N 
HETATM   29  C15 UNL     1      -7.314  15.798  27.425  1.00  0.00     0.365 C 
HETATM   30  O2  UNL     1      -7.660  14.618  27.558  1.00  0.00    -0.238 OA
ATOM     31  H2  UNL     1      -7.841  17.798  27.743  1.00  0.00     0.170 HD
BRANCH  29  32
HETATM   32  O3  UNL     1      -6.077  16.081  26.836  1.00  0.00    -0.296 OA
BRANCH  32  33
HETATM   33  C16 UNL     1      -5.615  17.415  26.697  1.00  0.00     0.166 C 
HETATM   34  C17 UNL     1      -4.143  17.479  26.458  1.00  0.00     0.204 C 
HETATM   35  O4  UNL     1      -3.885  18.386  25.465  1.00  0.00    -0.358 OA
HETATM   36  C18 UNL     1      -5.078  18.936  25.024  1.00  0.00     0.266 C 
HETATM   37  O5  UNL     1      -5.158  19.018  23.640  1.00  0.00    -0.361 OA
HETATM   38  C21 UNL     1      -6.165  17.945  25.389  1.00  0.00     0.075 C 
HETATM   39  C19 UNL     1      -5.426  17.767  23.138  1.00  0.00     0.171 C 
HETATM   40  C20 UNL     1      -6.087  16.965  24.264  1.00  0.00     0.038 C 
ENDBRANCH  32  33
ENDBRANCH  29  32
ENDBRANCH   1  28
TORSDOF 13
ENDMDL
