MODEL 12
REMARK VINA RESULT: -8.728416462      2.835      6.806
REMARK  13 active torsions:
REMARK  status: ('A' for Active; 'I' for Inactive)
REMARK    1  A    between atoms: C2_2  and  C4_4 
REMARK    2  A    between atoms: C4_4  and  N1_5 
REMARK    3  A    between atoms: N1_5  and  C5_6 
REMARK    4  A    between atoms: N1_5  and  S1_31 
REMARK    5  A    between atoms: C5_6  and  C6_7 
REMARK    6  A    between atoms: C6_7  and  O1_8 
REMARK    7  A    between atoms: C6_7  and  C7_10 
REMARK    8  A    between atoms: C7_10  and  C8_11 
REMARK    9  A    between atoms: C7_10  and  N2_18 
REMARK   10  A    between atoms: C8_11  and  C9_12 
REMARK       I    between atoms: N2_18  and  C15_20 
REMARK   11  A    between atoms: C15_20  and  O3_22 
REMARK   12  A    between atoms: O3_22  and  C16_23 
REMARK   13  A    between atoms: S1_31  and  C22_34 
ROOT
HETATM    1  C7  UNL     1     -10.309  16.188  27.314  1.00  0.00     0.029 C 
ENDROOT
BRANCH   1   2
HETATM    2  C6  UNL     1      -9.963  17.614  26.967  1.00  0.00     0.203 C 
BRANCH   2   3
HETATM    3  C5  UNL     1      -9.734  17.880  25.535  1.00  0.00     0.119 C 
BRANCH   3   4
HETATM    4  N1  UNL     1      -8.623  17.277  24.929  1.00  0.00    -0.262 N 
BRANCH   4   5
HETATM    5  C4  UNL     1      -7.396  17.158  25.583  1.00  0.00     0.085 C 
BRANCH   5   6
HETATM    6  C2  UNL     1      -6.301  18.105  25.108  1.00  0.00     0.017 C 
HETATM    7  C1  UNL     1      -5.895  19.115  26.143  1.00  0.00     0.015 C 
HETATM    8  C3  UNL     1      -5.087  17.353  24.616  1.00  0.00     0.015 C 
ENDBRANCH   5   6
ENDBRANCH   4   5
BRANCH   4   9
HETATM    9  S1  UNL     1      -8.986  16.204  23.675  1.00  0.00     0.267 S 
HETATM   10  O6  UNL     1      -8.623  14.802  24.140  1.00  0.00    -0.200 OA
HETATM   11  O7  UNL     1     -10.463  16.222  23.307  1.00  0.00    -0.200 OA
BRANCH   9  12
HETATM   12  C22 UNL     1      -8.081  16.510  22.197  1.00  0.00     0.080 A 
HETATM   13  C23 UNL     1      -7.679  17.769  21.804  1.00  0.00     0.027 A 
HETATM   14  C24 UNL     1      -6.973  17.986  20.636  1.00  0.00     0.028 A 
HETATM   15  C25 UNL     1      -6.639  16.935  19.809  1.00  0.00     0.046 A 
HETATM   16  N3  UNL     1      -5.904  17.157  18.591  1.00  0.00    -0.102 NA
HETATM   17  C26 UNL     1      -7.032  15.671  20.186  1.00  0.00     0.028 A 
HETATM   18  C27 UNL     1      -7.735  15.461  21.351  1.00  0.00     0.027 A 
ENDBRANCH   9  12
ENDBRANCH   4   9
ENDBRANCH   3   4
ENDBRANCH   2   3
BRANCH   2  19
HETATM   19  O1  UNL     1     -11.076  18.386  27.382  1.00  0.00    -0.385 OA
ATOM     20  H1  UNL     1     -10.918  18.671  28.274  1.00  0.00     0.211 HD
ENDBRANCH   2  19
ENDBRANCH   1   2
BRANCH   1  21
HETATM   21  C8  UNL     1     -11.529  15.687  26.591  1.00  0.00     0.094 C 
BRANCH  21  22
HETATM   22  C9  UNL     1     -12.110  14.450  27.114  1.00  0.00    -0.053 A 
HETATM   23  C10 UNL     1     -13.101  14.538  28.093  1.00  0.00     0.007 A 
HETATM   24  C11 UNL     1     -13.694  13.451  28.677  1.00  0.00     0.001 A 
HETATM   25  C12 UNL     1     -13.295  12.188  28.282  1.00  0.00     0.000 A 
HETATM   26  C13 UNL     1     -12.322  12.051  27.322  1.00  0.00     0.001 A 
HETATM   27  C14 UNL     1     -11.740  13.193  26.749  1.00  0.00     0.007 A 
ENDBRANCH  21  22
ENDBRANCH   1  21
BRANCH   1  28
HETATM   28  N2  UNL     1     -10.134  15.830  28.665  1.00  0.00    -0.307 N 
HETATM   29  C15 UNL     1      -9.059  15.058  29.170  1.00  0.00     0.365 C 
HETATM   30  O2  UNL     1      -8.186  14.638  28.401  1.00  0.00    -0.238 OA
ATOM     31  H2  UNL     1     -10.835  16.152  29.332  1.00  0.00     0.170 HD
BRANCH  29  32
HETATM   32  O3  UNL     1      -8.965  14.758  30.533  1.00  0.00    -0.296 OA
BRANCH  32  33
HETATM   33  C16 UNL     1     -10.121  14.685  31.353  1.00  0.00     0.166 C 
HETATM   34  C17 UNL     1      -9.913  13.807  32.542  1.00  0.00     0.204 C 
HETATM   35  O4  UNL     1     -10.435  14.418  33.651  1.00  0.00    -0.358 OA
HETATM   36  C18 UNL     1     -10.978  15.640  33.290  1.00  0.00     0.266 C 
HETATM   37  O5  UNL     1     -10.647  16.662  34.170  1.00  0.00    -0.361 OA
HETATM   38  C21 UNL     1     -10.298  16.045  31.998  1.00  0.00     0.075 C 
HETATM   39  C19 UNL     1      -9.350  17.048  33.931  1.00  0.00     0.171 C 
HETATM   40  C20 UNL     1      -9.022  16.647  32.489  1.00  0.00     0.038 C 
ENDBRANCH  32  33
ENDBRANCH  29  32
ENDBRANCH   1  28
TORSDOF 13
ENDMDL
