MODEL 1
REMARK VINA RESULT: -9.544300745      0.000      0.000
REMARK  13 active torsions:
REMARK  status: ('A' for Active; 'I' for Inactive)
REMARK    1  A    between atoms: C2_2  and  C4_4 
REMARK    2  A    between atoms: C4_4  and  N1_5 
REMARK    3  A    between atoms: N1_5  and  C5_6 
REMARK    4  A    between atoms: N1_5  and  S1_31 
REMARK    5  A    between atoms: C5_6  and  C6_7 
REMARK    6  A    between atoms: C6_7  and  O1_8 
REMARK    7  A    between atoms: C6_7  and  C7_10 
REMARK    8  A    between atoms: C7_10  and  C8_11 
REMARK    9  A    between atoms: C7_10  and  N2_18 
REMARK   10  A    between atoms: C8_11  and  C9_12 
REMARK       I    between atoms: N2_18  and  C15_20 
REMARK   11  A    between atoms: C15_20  and  O3_22 
REMARK   12  A    between atoms: O3_22  and  C16_23 
REMARK   13  A    between atoms: S1_31  and  C22_34 
ROOT
HETATM    1  C7  UNL     1      -9.471  16.906  28.304  1.00  0.00     0.029 C 
ENDROOT
BRANCH   1   2
HETATM    2  C6  UNL     1     -10.716  16.940  27.455  1.00  0.00     0.203 C 
BRANCH   2   3
HETATM    3  C5  UNL     1     -11.818  16.074  27.912  1.00  0.00     0.119 C 
BRANCH   3   4
HETATM    4  N1  UNL     1     -11.613  14.688  27.888  1.00  0.00    -0.262 N 
BRANCH   4   5
HETATM    5  C4  UNL     1     -11.777  13.895  29.025  1.00  0.00     0.085 C 
BRANCH   5   6
HETATM    6  C2  UNL     1     -12.888  14.325  29.973  1.00  0.00     0.017 C 
HETATM    7  C1  UNL     1     -14.244  13.813  29.577  1.00  0.00     0.015 C 
HETATM    8  C3  UNL     1     -12.586  13.936  31.401  1.00  0.00     0.015 C 
ENDBRANCH   5   6
ENDBRANCH   4   5
BRANCH   4   9
HETATM    9  S1  UNL     1     -11.756  13.969  26.365  1.00  0.00     0.267 S 
HETATM   10  O6  UNL     1     -11.309  12.520  26.489  1.00  0.00    -0.200 OA
HETATM   11  O7  UNL     1     -13.188  13.989  25.849  1.00  0.00    -0.200 OA
BRANCH   9  12
HETATM   12  C22 UNL     1     -10.750  14.718  25.131  1.00  0.00     0.080 A 
HETATM   13  C23 UNL     1      -9.375  14.625  25.117  1.00  0.00     0.027 A 
HETATM   14  C24 UNL     1      -8.606  15.227  24.140  1.00  0.00     0.028 A 
HETATM   15  C25 UNL     1      -9.194  15.953  23.127  1.00  0.00     0.046 A 
HETATM   16  N3  UNL     1      -8.396  16.582  22.107  1.00  0.00    -0.102 NA
HETATM   17  C26 UNL     1     -10.567  16.057  23.125  1.00  0.00     0.028 A 
HETATM   18  C27 UNL     1     -11.328  15.455  24.101  1.00  0.00     0.027 A 
ENDBRANCH   9  12
ENDBRANCH   4   9
ENDBRANCH   3   4
ENDBRANCH   2   3
BRANCH   2  19
HETATM   19  O1  UNL     1     -11.168  18.282  27.498  1.00  0.00    -0.385 OA
ATOM     20  H1  UNL     1     -10.981  18.681  26.657  1.00  0.00     0.211 HD
ENDBRANCH   2  19
ENDBRANCH   1   2
BRANCH   1  21
HETATM   21  C8  UNL     1      -9.734  17.236  29.748  1.00  0.00     0.094 C 
BRANCH  21  22
HETATM   22  C9  UNL     1      -9.460  16.162  30.702  1.00  0.00    -0.053 A 
HETATM   23  C10 UNL     1      -9.612  16.423  32.064  1.00  0.00     0.007 A 
HETATM   24  C11 UNL     1      -9.356  15.508  33.050  1.00  0.00     0.001 A 
HETATM   25  C12 UNL     1      -8.919  14.247  32.684  1.00  0.00     0.000 A 
HETATM   26  C13 UNL     1      -8.754  13.944  31.355  1.00  0.00     0.001 A 
HETATM   27  C14 UNL     1      -9.028  14.914  30.377  1.00  0.00     0.007 A 
ENDBRANCH  21  22
ENDBRANCH   1  21
BRANCH   1  28
HETATM   28  N2  UNL     1      -8.306  17.419  27.699  1.00  0.00    -0.307 N 
HETATM   29  C15 UNL     1      -7.168  16.654  27.346  1.00  0.00     0.365 C 
HETATM   30  O2  UNL     1      -7.146  15.439  27.573  1.00  0.00    -0.238 OA
ATOM     31  H2  UNL     1      -8.281  18.419  27.500  1.00  0.00     0.170 HD
BRANCH  29  32
HETATM   32  O3  UNL     1      -6.058  17.252  26.740  1.00  0.00    -0.296 OA
BRANCH  32  33
HETATM   33  C16 UNL     1      -6.198  18.070  25.590  1.00  0.00     0.166 C 
HETATM   34  C17 UNL     1      -5.492  19.377  25.739  1.00  0.00     0.204 C 
HETATM   35  O4  UNL     1      -4.816  19.659  24.582  1.00  0.00    -0.358 OA
HETATM   36  C18 UNL     1      -5.020  18.637  23.669  1.00  0.00     0.266 C 
HETATM   37  O5  UNL     1      -3.854  18.248  23.021  1.00  0.00    -0.361 OA
HETATM   38  C21 UNL     1      -5.407  17.415  24.476  1.00  0.00     0.075 C 
HETATM   39  C19 UNL     1      -3.109  17.477  23.879  1.00  0.00     0.171 C 
HETATM   40  C20 UNL     1      -4.077  16.892  24.912  1.00  0.00     0.038 C 
ENDBRANCH  32  33
ENDBRANCH  29  32
ENDBRANCH   1  28
TORSDOF 13
ENDMDL
