MODEL 5
REMARK VINA RESULT: -9.691213336      5.071     10.839
REMARK  14 active torsions:
REMARK  status: ('A' for Active; 'I' for Inactive)
REMARK    1  A    between atoms: C2_2  and  C4_4 
REMARK    2  A    between atoms: C4_4  and  N1_5 
REMARK    3  A    between atoms: N1_5  and  C5_6 
REMARK    4  A    between atoms: N1_5  and  S1_38 
REMARK    5  A    between atoms: C5_6  and  C6_7 
REMARK    6  A    between atoms: C6_7  and  O1_8 
REMARK    7  A    between atoms: C6_7  and  C7_10 
REMARK    8  A    between atoms: C7_10  and  C8_11 
REMARK    9  A    between atoms: C7_10  and  N2_18 
REMARK   10  A    between atoms: C8_11  and  C9_12 
REMARK       I    between atoms: N2_18  and  C15_20 
REMARK   11  A    between atoms: C15_20  and  C16_22 
REMARK   12  A    between atoms: N3_24  and  C18_25 
REMARK   13  A    between atoms: C22_29  and  C23_30 
REMARK   14  A    between atoms: S1_38  and  C26_41 
ROOT
HETATM    1  C7  UNL     1      20.913  30.099  13.093  1.00  0.00     0.027 C 
ENDROOT
BRANCH   1   2
HETATM    2  C6  UNL     1      20.524  28.936  12.268  1.00  0.00     0.203 C 
BRANCH   2   3
HETATM    3  C5  UNL     1      21.406  28.292  11.313  1.00  0.00     0.113 C 
BRANCH   3   4
HETATM    4  N1  UNL     1      21.502  26.898  11.182  1.00  0.00    -0.283 N 
BRANCH   4   5
HETATM    5  C4  UNL     1      22.830  26.376  11.221  1.00  0.00     0.144 C 
BRANCH   5   6
HETATM    6  C2  UNL     1      23.904  27.149  10.534  1.00  0.00    -0.004 C 
HETATM    7  C1  UNL     1      24.521  26.541   9.328  1.00  0.00     0.011 C 
HETATM    8  C3  UNL     1      25.041  27.303  11.577  1.00  0.00     0.011 C 
ENDBRANCH   5   6
ENDBRANCH   4   5
BRANCH   4   9
HETATM    9  S1  UNL     1      20.310  25.944  10.566  1.00  0.00     0.264 S 
HETATM   10  O5  UNL     1      19.032  25.930  11.389  1.00  0.00    -0.200 OA
HETATM   11  O6  UNL     1      20.774  24.485  10.590  1.00  0.00    -0.200 OA
BRANCH   9  12
HETATM   12  C26 UNL     1      19.961  26.340   8.905  1.00  0.00     0.082 A 
HETATM   13  C27 UNL     1      20.703  25.722   7.912  1.00  0.00     0.028 A 
HETATM   14  C28 UNL     1      20.458  25.996   6.554  1.00  0.00     0.041 A 
HETATM   15  C29 UNL     1      19.472  26.883   6.193  1.00  0.00     0.105 A 
HETATM   16  C30 UNL     1      18.736  27.493   7.186  1.00  0.00     0.106 A 
HETATM   17  O8  UNL     1      18.985  27.361   4.965  1.00  0.00    -0.323 OA
HETATM   18  C31 UNL     1      18.985  27.223   8.513  1.00  0.00     0.065 A 
HETATM   19  O7  UNL     1      17.808  28.329   6.509  1.00  0.00    -0.323 OA
HETATM   20  C32 UNL     1      17.621  27.694   5.224  1.00  0.00     0.352 C 
ENDBRANCH   9  12
ENDBRANCH   4   9
ENDBRANCH   3   4
ENDBRANCH   2   3
BRANCH   2  21
HETATM   21  O1  UNL     1      20.178  27.966  13.315  1.00  0.00    -0.385 OA
ATOM     22  H1  UNL     1      20.790  28.064  14.035  1.00  0.00     0.211 HD
ENDBRANCH   2  21
ENDBRANCH   1   2
BRANCH   1  23
HETATM   23  C8  UNL     1      22.238  30.078  13.789  1.00  0.00     0.094 C 
BRANCH  23  24
HETATM   24  C9  UNL     1      22.452  31.242  14.668  1.00  0.00    -0.053 A 
HETATM   25  C10 UNL     1      23.276  32.291  14.406  1.00  0.00     0.007 A 
HETATM   26  C11 UNL     1      23.378  33.376  15.288  1.00  0.00     0.001 A 
HETATM   27  C12 UNL     1      22.658  33.433  16.457  1.00  0.00     0.000 A 
HETATM   28  C13 UNL     1      21.825  32.387  16.743  1.00  0.00     0.001 A 
HETATM   29  C14 UNL     1      21.732  31.340  15.875  1.00  0.00     0.007 A 
ENDBRANCH  23  24
ENDBRANCH   1  23
BRANCH   1  30
HETATM   30  N2  UNL     1      19.868  30.773  13.859  1.00  0.00    -0.329 N 
HETATM   31  C15 UNL     1      19.304  31.961  13.334  1.00  0.00     0.253 C 
HETATM   32  O2  UNL     1      19.764  32.345  12.187  1.00  0.00    -0.270 OA
ATOM     33  H2  UNL     1      19.552  30.396  14.752  1.00  0.00     0.168 HD
BRANCH  31  34
HETATM   34  C16 UNL     1      18.282  32.853  13.866  1.00  0.00     0.244 C 
HETATM   35  C17 UNL     1      18.499  33.590  15.118  1.00  0.00     0.177 C 
HETATM   36  N3  UNL     1      17.185  33.657  15.710  1.00  0.00    -0.291 N 
HETATM   37  C25 UNL     1      16.665  32.334  15.392  1.00  0.00     0.368 C 
HETATM   38  O3  UNL     1      15.920  31.643  16.113  1.00  0.00    -0.238 OA
HETATM   39  O4  UNL     1      17.147  31.990  14.153  1.00  0.00    -0.287 OA
BRANCH  36  40
HETATM   40  C18 UNL     1      16.466  34.633  16.404  1.00  0.00     0.040 A 
HETATM   41  C19 UNL     1      15.200  34.437  16.887  1.00  0.00     0.030 A 
HETATM   42  C20 UNL     1      14.530  35.432  17.635  1.00  0.00     0.003 A 
HETATM   43  C21 UNL     1      15.147  36.642  17.891  1.00  0.00     0.016 A 
HETATM   44  C22 UNL     1      16.408  36.850  17.414  1.00  0.00     0.050 A 
HETATM   45  C24 UNL     1      17.042  35.856  16.689  1.00  0.00     0.046 A 
BRANCH  44  46
HETATM   46  C23 UNL     1      17.082  38.150  17.683  1.00  0.00     0.417 C 
HETATM   47  F1  UNL     1      16.986  38.419  19.044  1.00  0.00    -0.166 F 
HETATM   48  F2  UNL     1      16.447  39.129  16.957  1.00  0.00    -0.166 F 
HETATM   49  F3  UNL     1      18.431  38.091  17.399  1.00  0.00    -0.166 F 
ENDBRANCH  44  46
ENDBRANCH  36  40
ENDBRANCH  31  34
ENDBRANCH   1  30
TORSDOF 14
ENDMDL
