MODEL 3
REMARK VINA RESULT: -9.757972215      4.888     11.105
REMARK  14 active torsions:
REMARK  status: ('A' for Active; 'I' for Inactive)
REMARK    1  A    between atoms: C2_2  and  C4_4 
REMARK    2  A    between atoms: C4_4  and  N1_5 
REMARK    3  A    between atoms: N1_5  and  C5_6 
REMARK    4  A    between atoms: N1_5  and  S1_38 
REMARK    5  A    between atoms: C5_6  and  C6_7 
REMARK    6  A    between atoms: C6_7  and  O1_8 
REMARK    7  A    between atoms: C6_7  and  C7_10 
REMARK    8  A    between atoms: C7_10  and  C8_11 
REMARK    9  A    between atoms: C7_10  and  N2_18 
REMARK   10  A    between atoms: C8_11  and  C9_12 
REMARK       I    between atoms: N2_18  and  C15_20 
REMARK   11  A    between atoms: C15_20  and  C16_22 
REMARK   12  A    between atoms: N3_24  and  C18_25 
REMARK   13  A    between atoms: C22_29  and  C23_30 
REMARK   14  A    between atoms: S1_38  and  C26_41 
ROOT
HETATM    1  C7  UNL     1      18.814  28.306  10.766  1.00  0.00     0.027 C 
ENDROOT
BRANCH   1   2
HETATM    2  C6  UNL     1      20.108  27.593  10.703  1.00  0.00     0.203 C 
BRANCH   2   3
HETATM    3  C5  UNL     1      21.398  28.252  10.794  1.00  0.00     0.113 C 
BRANCH   3   4
HETATM    4  N1  UNL     1      22.479  27.716  11.511  1.00  0.00    -0.283 N 
BRANCH   4   5
HETATM    5  C4  UNL     1      22.806  28.404  12.717  1.00  0.00     0.144 C 
BRANCH   5   6
HETATM    6  C2  UNL     1      21.764  29.281  13.324  1.00  0.00    -0.004 C 
HETATM    7  C1  UNL     1      22.205  30.586  13.879  1.00  0.00     0.011 C 
HETATM    8  C3  UNL     1      21.179  28.475  14.513  1.00  0.00     0.011 C 
ENDBRANCH   5   6
ENDBRANCH   4   5
BRANCH   4   9
HETATM    9  S1  UNL     1      23.605  26.705  10.863  1.00  0.00     0.264 S 
HETATM   10  O5  UNL     1      24.175  25.693  11.843  1.00  0.00    -0.200 OA
HETATM   11  O6  UNL     1      24.826  27.524  10.435  1.00  0.00    -0.200 OA
BRANCH   9  12
HETATM   12  C26 UNL     1      23.006  25.902   9.437  1.00  0.00     0.082 A 
HETATM   13  C27 UNL     1      21.987  24.975   9.583  1.00  0.00     0.028 A 
HETATM   14  C28 UNL     1      21.459  24.303   8.465  1.00  0.00     0.041 A 
HETATM   15  C29 UNL     1      21.948  24.562   7.206  1.00  0.00     0.105 A 
HETATM   16  C30 UNL     1      22.961  25.487   7.068  1.00  0.00     0.106 A 
HETATM   17  O8  UNL     1      21.648  24.082   5.921  1.00  0.00    -0.323 OA
HETATM   18  C31 UNL     1      23.475  26.137   8.167  1.00  0.00     0.065 A 
HETATM   19  O7  UNL     1      23.236  25.538   5.675  1.00  0.00    -0.323 OA
HETATM   20  C32 UNL     1      21.993  25.157   5.047  1.00  0.00     0.352 C 
ENDBRANCH   9  12
ENDBRANCH   4   9
ENDBRANCH   3   4
ENDBRANCH   2   3
BRANCH   2  21
HETATM   21  O1  UNL     1      19.967  26.678  11.843  1.00  0.00    -0.385 OA
ATOM     22  H1  UNL     1      19.054  26.656  12.105  1.00  0.00     0.211 HD
ENDBRANCH   2  21
ENDBRANCH   1   2
BRANCH   1  23
HETATM   23  C8  UNL     1      17.988  28.412   9.521  1.00  0.00     0.094 C 
BRANCH  23  24
HETATM   24  C9  UNL     1      17.954  27.163   8.738  1.00  0.00    -0.053 A 
HETATM   25  C10 UNL     1      17.319  26.017   9.102  1.00  0.00     0.007 A 
HETATM   26  C11 UNL     1      17.308  24.893   8.266  1.00  0.00     0.001 A 
HETATM   27  C12 UNL     1      17.936  24.889   7.044  1.00  0.00     0.000 A 
HETATM   28  C13 UNL     1      18.584  26.031   6.658  1.00  0.00     0.001 A 
HETATM   29  C14 UNL     1      18.584  27.118   7.479  1.00  0.00     0.007 A 
ENDBRANCH  23  24
ENDBRANCH   1  23
BRANCH   1  30
HETATM   30  N2  UNL     1      18.725  29.485  11.621  1.00  0.00    -0.329 N 
HETATM   31  C15 UNL     1      18.045  29.374  12.858  1.00  0.00     0.253 C 
HETATM   32  O2  UNL     1      17.565  28.205  13.135  1.00  0.00    -0.270 OA
ATOM     33  H2  UNL     1      19.143  30.370  11.333  1.00  0.00     0.168 HD
BRANCH  31  34
HETATM   34  C16 UNL     1      17.776  30.361  13.896  1.00  0.00     0.244 C 
HETATM   35  C17 UNL     1      18.487  31.645  13.920  1.00  0.00     0.177 C 
HETATM   36  N3  UNL     1      18.615  31.942  15.326  1.00  0.00    -0.291 N 
HETATM   37  C25 UNL     1      18.896  30.620  15.868  1.00  0.00     0.368 C 
HETATM   38  O3  UNL     1      19.657  30.361  16.821  1.00  0.00    -0.238 OA
HETATM   39  O4  UNL     1      18.170  29.713  15.138  1.00  0.00    -0.287 OA
BRANCH  36  40
HETATM   40  C18 UNL     1      18.511  33.099  16.103  1.00  0.00     0.040 A 
HETATM   41  C19 UNL     1      19.558  33.952  16.331  1.00  0.00     0.030 A 
HETATM   42  C20 UNL     1      19.396  35.143  17.074  1.00  0.00     0.003 A 
HETATM   43  C21 UNL     1      18.160  35.471  17.597  1.00  0.00     0.016 A 
HETATM   44  C22 UNL     1      17.109  34.630  17.379  1.00  0.00     0.050 A 
HETATM   45  C24 UNL     1      17.296  33.473  16.642  1.00  0.00     0.046 A 
BRANCH  44  46
HETATM   46  C23 UNL     1      15.773  34.973  17.939  1.00  0.00     0.417 C 
HETATM   47  F1  UNL     1      15.063  33.793  18.130  1.00  0.00    -0.166 F 
HETATM   48  F2  UNL     1      15.119  35.783  17.041  1.00  0.00    -0.166 F 
HETATM   49  F3  UNL     1      15.879  35.562  19.182  1.00  0.00    -0.166 F 
ENDBRANCH  44  46
ENDBRANCH  36  40
ENDBRANCH  31  34
ENDBRANCH   1  30
TORSDOF 14
ENDMDL
