MODEL 4
REMARK VINA RESULT: -9.701986165      4.805     11.073
REMARK  14 active torsions:
REMARK  status: ('A' for Active; 'I' for Inactive)
REMARK    1  A    between atoms: C2_2  and  C4_4 
REMARK    2  A    between atoms: C4_4  and  N1_5 
REMARK    3  A    between atoms: N1_5  and  C5_6 
REMARK    4  A    between atoms: N1_5  and  S1_38 
REMARK    5  A    between atoms: C5_6  and  C6_7 
REMARK    6  A    between atoms: C6_7  and  O1_8 
REMARK    7  A    between atoms: C6_7  and  C7_10 
REMARK    8  A    between atoms: C7_10  and  C8_11 
REMARK    9  A    between atoms: C7_10  and  N2_18 
REMARK   10  A    between atoms: C8_11  and  C9_12 
REMARK       I    between atoms: N2_18  and  C15_20 
REMARK   11  A    between atoms: C15_20  and  C16_22 
REMARK   12  A    between atoms: N3_24  and  C18_25 
REMARK   13  A    between atoms: C22_29  and  C23_30 
REMARK   14  A    between atoms: S1_38  and  C26_41 
ROOT
HETATM    1  C7  UNL     1      18.738  28.477  10.765  1.00  0.00     0.027 C 
ENDROOT
BRANCH   1   2
HETATM    2  C6  UNL     1      20.001  27.711  10.707  1.00  0.00     0.203 C 
BRANCH   2   3
HETATM    3  C5  UNL     1      21.317  28.311  10.833  1.00  0.00     0.113 C 
BRANCH   3   4
HETATM    4  N1  UNL     1      22.372  27.699  11.528  1.00  0.00    -0.283 N 
BRANCH   4   5
HETATM    5  C4  UNL     1      22.687  28.285  12.789  1.00  0.00     0.144 C 
BRANCH   5   6
HETATM    6  C2  UNL     1      21.739  29.292  13.347  1.00  0.00    -0.004 C 
HETATM    7  C1  UNL     1      22.314  30.558  13.870  1.00  0.00     0.011 C 
HETATM    8  C3  UNL     1      21.050  28.596  14.549  1.00  0.00     0.011 C 
ENDBRANCH   5   6
ENDBRANCH   4   5
BRANCH   4   9
HETATM    9  S1  UNL     1      23.489  26.714  10.826  1.00  0.00     0.264 S 
HETATM   10  O5  UNL     1      24.125  25.712  11.776  1.00  0.00    -0.200 OA
HETATM   11  O6  UNL     1      24.671  27.561  10.347  1.00  0.00    -0.200 OA
BRANCH   9  12
HETATM   12  C26 UNL     1      22.845  25.902   9.425  1.00  0.00     0.082 A 
HETATM   13  C27 UNL     1      21.827  24.980   9.609  1.00  0.00     0.028 A 
HETATM   14  C28 UNL     1      21.263  24.302   8.513  1.00  0.00     0.041 A 
HETATM   15  C29 UNL     1      21.715  24.549   7.238  1.00  0.00     0.105 A 
HETATM   16  C30 UNL     1      22.726  25.469   7.063  1.00  0.00     0.106 A 
HETATM   17  O8  UNL     1      21.375  24.060   5.966  1.00  0.00    -0.323 OA
HETATM   18  C31 UNL     1      23.276  26.125   8.141  1.00  0.00     0.065 A 
HETATM   19  O7  UNL     1      22.960  25.508   5.662  1.00  0.00    -0.323 OA
HETATM   20  C32 UNL     1      21.697  25.127   5.074  1.00  0.00     0.352 C 
ENDBRANCH   9  12
ENDBRANCH   4   9
ENDBRANCH   3   4
ENDBRANCH   2   3
BRANCH   2  21
HETATM   21  O1  UNL     1      19.802  26.778  11.824  1.00  0.00    -0.385 OA
ATOM     22  H1  UNL     1      19.053  27.067  12.332  1.00  0.00     0.211 HD
ENDBRANCH   2  21
ENDBRANCH   1   2
BRANCH   1  23
HETATM   23  C8  UNL     1      17.855  28.503   9.556  1.00  0.00     0.094 C 
BRANCH  23  24
HETATM   24  C9  UNL     1      17.854  27.232   8.809  1.00  0.00    -0.053 A 
HETATM   25  C10 UNL     1      17.321  26.059   9.242  1.00  0.00     0.007 A 
HETATM   26  C11 UNL     1      17.332  24.912   8.437  1.00  0.00     0.001 A 
HETATM   27  C12 UNL     1      17.882  24.913   7.178  1.00  0.00     0.000 A 
HETATM   28  C13 UNL     1      18.428  26.082   6.722  1.00  0.00     0.001 A 
HETATM   29  C14 UNL     1      18.408  27.190   7.514  1.00  0.00     0.007 A 
ENDBRANCH  23  24
ENDBRANCH   1  23
BRANCH   1  30
HETATM   30  N2  UNL     1      18.735  29.732  11.510  1.00  0.00    -0.329 N 
HETATM   31  C15 UNL     1      18.113  29.762  12.782  1.00  0.00     0.253 C 
HETATM   32  O2  UNL     1      17.604  28.643  13.187  1.00  0.00    -0.270 OA
ATOM     33  H2  UNL     1      19.170  30.569  11.124  1.00  0.00     0.168 HD
BRANCH  31  34
HETATM   34  C16 UNL     1      17.931  30.848  13.736  1.00  0.00     0.244 C 
HETATM   35  C17 UNL     1      18.954  31.889  13.899  1.00  0.00     0.177 C 
HETATM   36  N3  UNL     1      18.879  32.229  15.299  1.00  0.00    -0.291 N 
HETATM   37  C25 UNL     1      18.666  30.917  15.896  1.00  0.00     0.368 C 
HETATM   38  O3  UNL     1      19.120  30.522  16.987  1.00  0.00    -0.238 OA
HETATM   39  O4  UNL     1      17.875  30.198  15.036  1.00  0.00    -0.287 OA
BRANCH  36  40
HETATM   40  C18 UNL     1      18.952  33.417  16.030  1.00  0.00     0.040 A 
HETATM   41  C19 UNL     1      17.862  34.026  16.592  1.00  0.00     0.030 A 
HETATM   42  C20 UNL     1      17.989  35.197  17.374  1.00  0.00     0.003 A 
HETATM   43  C21 UNL     1      19.232  35.760  17.584  1.00  0.00     0.016 A 
HETATM   44  C22 UNL     1      20.326  35.164  17.029  1.00  0.00     0.050 A 
HETATM   45  C24 UNL     1      20.173  34.016  16.273  1.00  0.00     0.046 A 
BRANCH  44  46
HETATM   46  C23 UNL     1      21.671  35.764  17.248  1.00  0.00     0.417 C 
HETATM   47  F1  UNL     1      21.916  35.801  18.616  1.00  0.00    -0.166 F 
HETATM   48  F2  UNL     1      21.671  37.036  16.729  1.00  0.00    -0.166 F 
HETATM   49  F3  UNL     1      22.670  34.984  16.703  1.00  0.00    -0.166 F 
ENDBRANCH  44  46
ENDBRANCH  36  40
ENDBRANCH  31  34
ENDBRANCH   1  30
TORSDOF 14
ENDMDL
