MODEL 9
REMARK VINA RESULT: -8.951221336      3.352     10.895
REMARK  14 active torsions:
REMARK  status: ('A' for Active; 'I' for Inactive)
REMARK    1  A    between atoms: C2_2  and  C3_4 
REMARK    2  A    between atoms: C7_8  and  N1_9 
REMARK    3  A    between atoms: C9_11  and  C10_12 
REMARK       I    between atoms: C10_12  and  N2_14 
REMARK    4  A    between atoms: N2_14  and  C11_16 
REMARK    5  A    between atoms: C11_16  and  C12_17 
REMARK    6  A    between atoms: C11_16  and  C19_24 
REMARK    7  A    between atoms: C12_17  and  C13_18 
REMARK    8  A    between atoms: C19_24  and  O3_25 
REMARK    9  A    between atoms: C19_24  and  C20_27 
REMARK   10  A    between atoms: C20_27  and  N3_28 
REMARK   11  A    between atoms: N3_28  and  C21_29 
REMARK   12  A    between atoms: N3_28  and  S1_33 
REMARK   13  A    between atoms: C21_29  and  C22_30 
REMARK   14  A    between atoms: S1_33  and  C25_36 
ROOT
HETATM    1  C11 UNL     1      19.599  28.898  13.688  1.00  0.00     0.118 C 
ENDROOT
BRANCH   1   2
HETATM    2  N2  UNL     1      20.470  27.860  13.199  1.00  0.00    -0.351 N 
HETATM    3  C10 UNL     1      21.415  28.124  12.192  1.00  0.00     0.249 C 
HETATM    4  O2  UNL     1      21.525  29.263  11.701  1.00  0.00    -0.271 OA
ATOM      5  H2  UNL     1      20.400  26.920  13.589  1.00  0.00     0.163 HD
BRANCH   3   6
HETATM    6  C9  UNL     1      22.294  27.037  11.702  1.00  0.00     0.243 C 
HETATM    7  C8  UNL     1      22.641  27.320  10.268  1.00  0.00     0.177 C 
HETATM    8  N1  UNL     1      22.394  26.099   9.529  1.00  0.00    -0.291 N 
HETATM    9  C32 UNL     1      21.594  25.291  10.393  1.00  0.00     0.368 C 
HETATM   10  O8  UNL     1      21.563  25.829  11.676  1.00  0.00    -0.287 OA
HETATM   11  O9  UNL     1      21.013  24.232   9.987  1.00  0.00    -0.238 OA
BRANCH   8  12
HETATM   12  C7  UNL     1      22.827  25.735   8.229  1.00  0.00     0.040 A 
HETATM   13  C6  UNL     1      24.143  25.340   8.023  1.00  0.00     0.030 A 
HETATM   14  C5  UNL     1      24.569  24.983   6.760  1.00  0.00     0.003 A 
HETATM   15  C4  UNL     1      23.734  25.001   5.677  1.00  0.00     0.015 A 
HETATM   16  C3  UNL     1      22.416  25.392   5.862  1.00  0.00     0.011 A 
HETATM   17  C33 UNL     1      21.999  25.747   7.129  1.00  0.00     0.044 A 
BRANCH  16  18
HETATM   18  C2  UNL     1      21.482  25.432   4.754  1.00  0.00     0.155 C 
HETATM   19  C1  UNL     1      20.110  25.922   4.966  1.00  0.00     0.096 C 
HETATM   20  O1  UNL     1      21.875  25.043   3.628  1.00  0.00    -0.293 OA
ENDBRANCH  16  18
ENDBRANCH   8  12
ENDBRANCH   3   6
ENDBRANCH   1   2
BRANCH   1  21
HETATM   21  C12 UNL     1      18.150  28.537  13.570  1.00  0.00     0.066 C 
BRANCH  21  22
HETATM   22  C13 UNL     1      17.905  28.175  12.145  1.00  0.00    -0.056 A 
HETATM   23  C14 UNL     1      17.905  26.845  11.789  1.00  0.00     0.007 A 
HETATM   24  C15 UNL     1      17.698  26.445  10.489  1.00  0.00     0.001 A 
HETATM   25  C16 UNL     1      17.485  27.432   9.533  1.00  0.00     0.000 A 
HETATM   26  C17 UNL     1      17.485  28.763   9.884  1.00  0.00     0.001 A 
HETATM   27  C18 UNL     1      17.695  29.146  11.202  1.00  0.00     0.007 A 
ENDBRANCH  21  22
ENDBRANCH   1  21
BRANCH   1  28
HETATM   28  C19 UNL     1      19.903  29.285  15.112  1.00  0.00     0.155 C 
BRANCH  28  29
HETATM   29  O3  UNL     1      19.990  28.237  15.990  1.00  0.00    -0.392 OA
ATOM     30  H3  UNL     1      20.652  28.333  16.664  1.00  0.00     0.210 HD
ENDBRANCH  28  29
BRANCH  28  31
HETATM   31  C20 UNL     1      19.247  30.525  15.577  1.00  0.00     0.141 C 
BRANCH  31  32
HETATM   32  N3  UNL     1      19.736  31.779  14.987  1.00  0.00    -0.204 NA
BRANCH  32  33
HETATM   33  C21 UNL     1      20.267  32.521  16.099  1.00  0.00     0.111 C 
BRANCH  33  34
HETATM   34  C22 UNL     1      21.693  32.466  16.418  1.00  0.00    -0.009 C 
HETATM   35  C23 UNL     1      22.644  32.262  15.262  1.00  0.00     0.011 C 
HETATM   36  C24 UNL     1      22.276  33.464  17.355  1.00  0.00     0.011 C 
ENDBRANCH  33  34
ENDBRANCH  32  33
BRANCH  32  37
HETATM   37  S1  UNL     1      18.292  32.596  14.456  1.00  0.00     0.243 S 
HETATM   38  O4  UNL     1      17.439  31.746  13.573  1.00  0.00    -0.206 OA
HETATM   39  O5  UNL     1      18.721  33.776  13.588  1.00  0.00    -0.206 OA
BRANCH  37  40
HETATM   40  C25 UNL     1      17.308  33.200  15.756  1.00  0.00     0.077 A 
HETATM   41  C26 UNL     1      16.124  32.614  16.136  1.00  0.00     0.028 A 
HETATM   42  C27 UNL     1      15.340  33.131  17.157  1.00  0.00     0.041 A 
HETATM   43  C28 UNL     1      15.723  34.265  17.835  1.00  0.00     0.105 A 
HETATM   44  C29 UNL     1      16.904  34.870  17.472  1.00  0.00     0.106 A 
HETATM   45  O7  UNL     1      15.160  35.005  18.883  1.00  0.00    -0.323 OA
HETATM   46  C30 UNL     1      17.691  34.345  16.443  1.00  0.00     0.064 A 
HETATM   47  O6  UNL     1      17.050  35.973  18.302  1.00  0.00    -0.323 OA
HETATM   48  C31 UNL     1      15.905  36.186  19.091  1.00  0.00     0.352 C 
ENDBRANCH  37  40
ENDBRANCH  32  37
ENDBRANCH  31  32
ENDBRANCH  28  31
ENDBRANCH   1  28
TORSDOF 14
ENDMDL
