MODEL 1
REMARK VINA RESULT: -9.584793813      0.000      0.000
REMARK  14 active torsions:
REMARK  status: ('A' for Active; 'I' for Inactive)
REMARK    1  A    between atoms: C2_2  and  C3_4 
REMARK    2  A    between atoms: C7_8  and  N1_9 
REMARK    3  A    between atoms: C9_11  and  C10_12 
REMARK       I    between atoms: C10_12  and  N2_14 
REMARK    4  A    between atoms: N2_14  and  C11_16 
REMARK    5  A    between atoms: C11_16  and  C12_17 
REMARK    6  A    between atoms: C11_16  and  C19_24 
REMARK    7  A    between atoms: C12_17  and  C13_18 
REMARK    8  A    between atoms: C19_24  and  O3_25 
REMARK    9  A    between atoms: C19_24  and  C20_27 
REMARK   10  A    between atoms: C20_27  and  N3_28 
REMARK   11  A    between atoms: N3_28  and  C21_29 
REMARK   12  A    between atoms: N3_28  and  S1_33 
REMARK   13  A    between atoms: C21_29  and  C22_30 
REMARK   14  A    between atoms: S1_33  and  C25_36 
ROOT
HETATM    1  C11 UNL     1      17.862  31.781  15.181  1.00  0.00     0.118 C 
ENDROOT
BRANCH   1   2
HETATM    2  N2  UNL     1      17.287  33.058  15.517  1.00  0.00    -0.351 N 
HETATM    3  C10 UNL     1      15.972  33.153  16.006  1.00  0.00     0.249 C 
HETATM    4  O2  UNL     1      15.273  32.134  16.164  1.00  0.00    -0.271 OA
ATOM      5  H2  UNL     1      17.842  33.906  15.399  1.00  0.00     0.163 HD
BRANCH   3   6
HETATM    6  C9  UNL     1      15.402  34.479  16.338  1.00  0.00     0.243 C 
HETATM    7  C8  UNL     1      16.485  35.509  16.188  1.00  0.00     0.177 C 
HETATM    8  N1  UNL     1      16.470  36.310  17.395  1.00  0.00    -0.291 N 
HETATM    9  C32 UNL     1      15.703  35.559  18.336  1.00  0.00     0.368 C 
HETATM   10  O8  UNL     1      15.054  34.502  17.706  1.00  0.00    -0.287 OA
HETATM   11  O9  UNL     1      15.659  35.863  19.573  1.00  0.00    -0.238 OA
BRANCH   8  12
HETATM   12  C7  UNL     1      17.069  37.572  17.641  1.00  0.00     0.040 A 
HETATM   13  C6  UNL     1      16.297  38.727  17.589  1.00  0.00     0.030 A 
HETATM   14  C5  UNL     1      16.875  39.956  17.829  1.00  0.00     0.003 A 
HETATM   15  C4  UNL     1      18.203  40.093  18.124  1.00  0.00     0.015 A 
HETATM   16  C3  UNL     1      18.991  38.952  18.181  1.00  0.00     0.011 A 
HETATM   17  C33 UNL     1      18.404  37.726  17.939  1.00  0.00     0.044 A 
BRANCH  16  18
HETATM   18  C2  UNL     1      20.406  39.030  18.487  1.00  0.00     0.155 C 
HETATM   19  C1  UNL     1      21.373  39.330  17.418  1.00  0.00     0.096 C 
HETATM   20  O1  UNL     1      20.771  38.838  19.671  1.00  0.00    -0.293 OA
ENDBRANCH  16  18
ENDBRANCH   8  12
ENDBRANCH   3   6
ENDBRANCH   1   2
BRANCH   1  21
HETATM   21  C12 UNL     1      18.193  31.663  13.725  1.00  0.00     0.066 C 
BRANCH  21  22
HETATM   22  C13 UNL     1      17.885  30.262  13.320  1.00  0.00    -0.056 A 
HETATM   23  C14 UNL     1      17.534  30.011  12.012  1.00  0.00     0.007 A 
HETATM   24  C15 UNL     1      17.227  28.743  11.578  1.00  0.00     0.001 A 
HETATM   25  C16 UNL     1      17.281  27.708  12.505  1.00  0.00     0.000 A 
HETATM   26  C17 UNL     1      17.632  27.954  13.813  1.00  0.00     0.001 A 
HETATM   27  C18 UNL     1      17.938  29.242  14.232  1.00  0.00     0.007 A 
ENDBRANCH  21  22
ENDBRANCH   1  21
BRANCH   1  28
HETATM   28  C19 UNL     1      19.088  31.466  15.999  1.00  0.00     0.155 C 
BRANCH  28  29
HETATM   29  O3  UNL     1      18.859  30.703  17.114  1.00  0.00    -0.392 OA
ATOM     30  H3  UNL     1      19.496  30.810  17.810  1.00  0.00     0.210 HD
ENDBRANCH  28  29
BRANCH  28  31
HETATM   31  C20 UNL     1      20.071  32.564  16.102  1.00  0.00     0.141 C 
BRANCH  31  32
HETATM   32  N3  UNL     1      21.481  32.164  16.222  1.00  0.00    -0.204 NA
BRANCH  32  33
HETATM   33  C21 UNL     1      22.125  33.289  16.846  1.00  0.00     0.111 C 
BRANCH  33  34
HETATM   34  C22 UNL     1      21.345  34.447  17.280  1.00  0.00    -0.009 C 
HETATM   35  C23 UNL     1      21.420  34.812  18.745  1.00  0.00     0.011 C 
HETATM   36  C24 UNL     1      21.367  35.696  16.469  1.00  0.00     0.011 C 
ENDBRANCH  33  34
ENDBRANCH  32  33
BRANCH  32  37
HETATM   37  S1  UNL     1      22.047  32.085  14.577  1.00  0.00     0.243 S 
HETATM   38  O4  UNL     1      23.519  32.312  14.461  1.00  0.00    -0.206 OA
HETATM   39  O5  UNL     1      21.401  33.235  13.809  1.00  0.00    -0.206 OA
BRANCH  37  40
HETATM   40  C25 UNL     1      21.655  30.596  13.770  1.00  0.00     0.077 A 
HETATM   41  C26 UNL     1      21.670  29.375  14.399  1.00  0.00     0.028 A 
HETATM   42  C27 UNL     1      21.382  28.196  13.727  1.00  0.00     0.041 A 
HETATM   43  C28 UNL     1      21.068  28.206  12.388  1.00  0.00     0.105 A 
HETATM   44  C29 UNL     1      21.047  29.417  11.736  1.00  0.00     0.106 A 
HETATM   45  O7  UNL     1      20.739  27.208  11.461  1.00  0.00    -0.323 OA
HETATM   46  C30 UNL     1      21.338  30.603  12.417  1.00  0.00     0.064 A 
HETATM   47  O6  UNL     1      20.706  29.147  10.417  1.00  0.00    -0.323 OA
HETATM   48  C31 UNL     1      20.660  27.764  10.165  1.00  0.00     0.352 C 
ENDBRANCH  37  40
ENDBRANCH  32  37
ENDBRANCH  31  32
ENDBRANCH  28  31
ENDBRANCH   1  28
TORSDOF 14
ENDMDL
