MODEL 2
REMARK VINA RESULT: -9.520505120      1.027      1.638
REMARK  14 active torsions:
REMARK  status: ('A' for Active; 'I' for Inactive)
REMARK    1  A    between atoms: C2_2  and  C3_4 
REMARK    2  A    between atoms: C7_8  and  N1_9 
REMARK    3  A    between atoms: C9_11  and  C10_12 
REMARK       I    between atoms: C10_12  and  N2_14 
REMARK    4  A    between atoms: N2_14  and  C11_16 
REMARK    5  A    between atoms: C11_16  and  C12_17 
REMARK    6  A    between atoms: C11_16  and  C19_24 
REMARK    7  A    between atoms: C12_17  and  C13_18 
REMARK    8  A    between atoms: C19_24  and  O3_25 
REMARK    9  A    between atoms: C19_24  and  C20_27 
REMARK   10  A    between atoms: C20_27  and  N3_28 
REMARK   11  A    between atoms: N3_28  and  C21_29 
REMARK   12  A    between atoms: N3_28  and  S1_33 
REMARK   13  A    between atoms: C21_29  and  C22_30 
REMARK   14  A    between atoms: S1_33  and  C25_36 
ROOT
HETATM    1  C11 UNL     1      17.890  31.703  15.139  1.00  0.00     0.118 C 
ENDROOT
BRANCH   1   2
HETATM    2  N2  UNL     1      17.308  32.973  15.493  1.00  0.00    -0.351 N 
HETATM    3  C10 UNL     1      15.982  33.058  15.955  1.00  0.00     0.249 C 
HETATM    4  O2  UNL     1      15.280  32.036  16.074  1.00  0.00    -0.271 OA
ATOM      5  H2  UNL     1      17.865  33.823  15.407  1.00  0.00     0.163 HD
BRANCH   3   6
HETATM    6  C9  UNL     1      15.406  34.376  16.305  1.00  0.00     0.243 C 
HETATM    7  C8  UNL     1      16.491  35.410  16.195  1.00  0.00     0.177 C 
HETATM    8  N1  UNL     1      16.455  36.185  17.418  1.00  0.00    -0.291 N 
HETATM    9  C32 UNL     1      15.673  35.414  18.330  1.00  0.00     0.368 C 
HETATM   10  O8  UNL     1      15.035  34.370  17.667  1.00  0.00    -0.287 OA
HETATM   11  O9  UNL     1      15.608  35.692  19.573  1.00  0.00    -0.238 OA
BRANCH   8  12
HETATM   12  C7  UNL     1      17.049  37.442  17.701  1.00  0.00     0.040 A 
HETATM   13  C6  UNL     1      18.268  37.496  18.368  1.00  0.00     0.030 A 
HETATM   14  C5  UNL     1      18.850  38.716  18.644  1.00  0.00     0.003 A 
HETATM   15  C4  UNL     1      18.271  39.900  18.282  1.00  0.00     0.015 A 
HETATM   16  C3  UNL     1      17.054  39.867  17.615  1.00  0.00     0.011 A 
HETATM   17  C33 UNL     1      16.479  38.642  17.343  1.00  0.00     0.044 A 
BRANCH  16  18
HETATM   18  C2  UNL     1      16.389  41.088  17.205  1.00  0.00     0.155 C 
HETATM   19  C1  UNL     1      15.333  41.668  18.051  1.00  0.00     0.096 C 
HETATM   20  O1  UNL     1      16.736  41.623  16.125  1.00  0.00    -0.293 OA
ENDBRANCH  16  18
ENDBRANCH   8  12
ENDBRANCH   3   6
ENDBRANCH   1   2
BRANCH   1  21
HETATM   21  C12 UNL     1      18.192  31.595  13.676  1.00  0.00     0.066 C 
BRANCH  21  22
HETATM   22  C13 UNL     1      17.902  30.190  13.273  1.00  0.00    -0.056 A 
HETATM   23  C14 UNL     1      17.602  29.926  11.956  1.00  0.00     0.007 A 
HETATM   24  C15 UNL     1      17.314  28.652  11.522  1.00  0.00     0.001 A 
HETATM   25  C16 UNL     1      17.333  27.627  12.462  1.00  0.00     0.000 A 
HETATM   26  C17 UNL     1      17.632  27.887  13.780  1.00  0.00     0.001 A 
HETATM   27  C18 UNL     1      17.921  29.178  14.197  1.00  0.00     0.007 A 
ENDBRANCH  21  22
ENDBRANCH   1  21
BRANCH   1  28
HETATM   28  C19 UNL     1      19.134  31.397  15.931  1.00  0.00     0.155 C 
BRANCH  28  29
HETATM   29  O3  UNL     1      18.940  30.604  17.031  1.00  0.00    -0.392 OA
ATOM     30  H3  UNL     1      19.722  30.181  17.364  1.00  0.00     0.210 HD
ENDBRANCH  28  29
BRANCH  28  31
HETATM   31  C20 UNL     1      20.094  32.515  16.045  1.00  0.00     0.141 C 
BRANCH  31  32
HETATM   32  N3  UNL     1      21.512  32.145  16.159  1.00  0.00    -0.204 NA
BRANCH  32  33
HETATM   33  C21 UNL     1      22.139  33.290  16.764  1.00  0.00     0.111 C 
BRANCH  33  34
HETATM   34  C22 UNL     1      21.335  34.413  17.242  1.00  0.00    -0.009 C 
HETATM   35  C23 UNL     1      21.467  34.775  18.704  1.00  0.00     0.011 C 
HETATM   36  C24 UNL     1      21.265  35.664  16.438  1.00  0.00     0.011 C 
ENDBRANCH  33  34
ENDBRANCH  32  33
BRANCH  32  37
HETATM   37  S1  UNL     1      22.067  32.055  14.511  1.00  0.00     0.243 S 
HETATM   38  O4  UNL     1      23.535  32.295  14.382  1.00  0.00    -0.206 OA
HETATM   39  O5  UNL     1      21.404  33.192  13.737  1.00  0.00    -0.206 OA
BRANCH  37  40
HETATM   40  C25 UNL     1      21.682  30.556  13.719  1.00  0.00     0.077 A 
HETATM   41  C26 UNL     1      21.706  29.341  14.362  1.00  0.00     0.028 A 
HETATM   42  C27 UNL     1      21.424  28.154  13.703  1.00  0.00     0.041 A 
HETATM   43  C28 UNL     1      21.107  28.148  12.364  1.00  0.00     0.105 A 
HETATM   44  C29 UNL     1      21.078  29.352  11.700  1.00  0.00     0.106 A 
HETATM   45  O7  UNL     1      20.784  27.138  11.448  1.00  0.00    -0.323 OA
HETATM   46  C30 UNL     1      21.363  30.546  12.368  1.00  0.00     0.064 A 
HETATM   47  O6  UNL     1      20.737  29.065  10.385  1.00  0.00    -0.323 OA
HETATM   48  C31 UNL     1      20.699  27.679  10.147  1.00  0.00     0.352 C 
ENDBRANCH  37  40
ENDBRANCH  32  37
ENDBRANCH  31  32
ENDBRANCH  28  31
ENDBRANCH   1  28
TORSDOF 14
ENDMDL
