MODEL 3
REMARK VINA RESULT: -9.474435054      2.496      9.702
REMARK  14 active torsions:
REMARK  status: ('A' for Active; 'I' for Inactive)
REMARK    1  A    between atoms: C2_2  and  C3_4 
REMARK    2  A    between atoms: C7_8  and  N1_9 
REMARK    3  A    between atoms: C9_11  and  C10_12 
REMARK       I    between atoms: C10_12  and  N2_14 
REMARK    4  A    between atoms: N2_14  and  C11_16 
REMARK    5  A    between atoms: C11_16  and  C12_17 
REMARK    6  A    between atoms: C11_16  and  C19_24 
REMARK    7  A    between atoms: C12_17  and  C13_18 
REMARK    8  A    between atoms: C19_24  and  O3_25 
REMARK    9  A    between atoms: C19_24  and  C20_27 
REMARK   10  A    between atoms: C20_27  and  N3_28 
REMARK   11  A    between atoms: N3_28  and  C21_29 
REMARK   12  A    between atoms: N3_28  and  S1_33 
REMARK   13  A    between atoms: C21_29  and  C22_30 
REMARK   14  A    between atoms: S1_33  and  C25_36 
ROOT
HETATM    1  C11 UNL     1      18.416  30.629  15.123  1.00  0.00     0.118 C 
ENDROOT
BRANCH   1   2
HETATM    2  N2  UNL     1      18.294  29.450  14.304  1.00  0.00    -0.351 N 
HETATM    3  C10 UNL     1      17.786  29.527  12.995  1.00  0.00     0.249 C 
HETATM    4  O2  UNL     1      17.431  30.618  12.510  1.00  0.00    -0.271 OA
ATOM      5  H2  UNL     1      18.582  28.545  14.679  1.00  0.00     0.163 HD
BRANCH   3   6
HETATM    6  C9  UNL     1      17.665  28.299  12.177  1.00  0.00     0.243 C 
HETATM    7  C8  UNL     1      19.004  27.618  12.147  1.00  0.00     0.177 C 
HETATM    8  N1  UNL     1      19.288  27.317  10.759  1.00  0.00    -0.291 N 
HETATM    9  C32 UNL     1      18.372  28.110  10.005  1.00  0.00     0.368 C 
HETATM   10  O8  UNL     1      17.402  28.661  10.838  1.00  0.00    -0.287 OA
HETATM   11  O9  UNL     1      18.478  28.258   8.744  1.00  0.00    -0.238 OA
BRANCH   8  12
HETATM   12  C7  UNL     1      20.256  26.435  10.213  1.00  0.00     0.040 A 
HETATM   13  C6  UNL     1      19.854  25.395   9.383  1.00  0.00     0.030 A 
HETATM   14  C5  UNL     1      20.791  24.535   8.848  1.00  0.00     0.003 A 
HETATM   15  C4  UNL     1      22.128  24.664   9.103  1.00  0.00     0.015 A 
HETATM   16  C3  UNL     1      22.549  25.696   9.930  1.00  0.00     0.011 A 
HETATM   17  C33 UNL     1      21.604  26.551  10.460  1.00  0.00     0.044 A 
BRANCH  16  18
HETATM   18  C2  UNL     1      23.953  25.885  10.239  1.00  0.00     0.155 C 
HETATM   19  C1  UNL     1      24.849  26.498   9.245  1.00  0.00     0.096 C 
HETATM   20  O1  UNL     1      24.371  25.515  11.362  1.00  0.00    -0.293 OA
ENDBRANCH  16  18
ENDBRANCH   8  12
ENDBRANCH   3   6
ENDBRANCH   1   2
BRANCH   1  21
HETATM   21  C12 UNL     1      17.188  30.892  15.939  1.00  0.00     0.066 C 
BRANCH  21  22
HETATM   22  C13 UNL     1      16.852  32.334  15.769  1.00  0.00    -0.056 A 
HETATM   23  C14 UNL     1      17.358  33.010  14.681  1.00  0.00     0.007 A 
HETATM   24  C15 UNL     1      17.094  34.344  14.473  1.00  0.00     0.001 A 
HETATM   25  C16 UNL     1      16.294  35.000  15.402  1.00  0.00     0.000 A 
HETATM   26  C17 UNL     1      15.787  34.329  16.491  1.00  0.00     0.001 A 
HETATM   27  C18 UNL     1      16.064  32.982  16.683  1.00  0.00     0.007 A 
ENDBRANCH  21  22
ENDBRANCH   1  21
BRANCH   1  28
HETATM   28  C19 UNL     1      19.618  30.582  16.029  1.00  0.00     0.155 C 
BRANCH  28  29
HETATM   29  O3  UNL     1      19.594  29.589  16.972  1.00  0.00    -0.392 OA
ATOM     30  H3  UNL     1      19.593  28.705  16.624  1.00  0.00     0.210 HD
ENDBRANCH  28  29
BRANCH  28  31
HETATM   31  C20 UNL     1      20.153  31.901  16.429  1.00  0.00     0.141 C 
BRANCH  31  32
HETATM   32  N3  UNL     1      21.031  32.567  15.455  1.00  0.00    -0.204 NA
BRANCH  32  33
HETATM   33  C21 UNL     1      21.805  31.502  14.877  1.00  0.00     0.111 C 
BRANCH  33  34
HETATM   34  C22 UNL     1      21.720  31.211  13.446  1.00  0.00    -0.009 C 
HETATM   35  C23 UNL     1      21.774  29.756  13.040  1.00  0.00     0.011 C 
HETATM   36  C24 UNL     1      20.703  31.909  12.613  1.00  0.00     0.011 C 
ENDBRANCH  33  34
ENDBRANCH  32  33
BRANCH  32  37
HETATM   37  S1  UNL     1      22.108  33.525  16.433  1.00  0.00     0.243 S 
HETATM   38  O4  UNL     1      23.406  33.811  15.751  1.00  0.00    -0.206 OA
HETATM   39  O5  UNL     1      22.474  32.698  17.663  1.00  0.00    -0.206 OA
BRANCH  37  40
HETATM   40  C25 UNL     1      21.423  35.030  16.967  1.00  0.00     0.077 A 
HETATM   41  C26 UNL     1      22.177  36.154  17.209  1.00  0.00     0.028 A 
HETATM   42  C27 UNL     1      21.611  37.336  17.663  1.00  0.00     0.041 A 
HETATM   43  C28 UNL     1      20.258  37.429  17.891  1.00  0.00     0.105 A 
HETATM   44  C29 UNL     1      19.483  36.317  17.656  1.00  0.00     0.106 A 
HETATM   45  O7  UNL     1      19.417  38.458  18.337  1.00  0.00    -0.323 OA
HETATM   46  C30 UNL     1      20.057  35.128  17.199  1.00  0.00     0.064 A 
HETATM   47  O6  UNL     1      18.177  36.678  17.961  1.00  0.00    -0.323 OA
HETATM   48  C31 UNL     1      18.113  37.958  18.541  1.00  0.00     0.352 C 
ENDBRANCH  37  40
ENDBRANCH  32  37
ENDBRANCH  31  32
ENDBRANCH  28  31
ENDBRANCH   1  28
TORSDOF 14
ENDMDL
