MODEL 1
REMARK VINA RESULT: -9.843501554      0.000      0.000
REMARK  15 active torsions:
REMARK  status: ('A' for Active; 'I' for Inactive)
REMARK    1  A    between atoms: O1_2  and  C2_3 
REMARK    2  A    between atoms: C5_6  and  S1_7 
REMARK    3  A    between atoms: S1_7  and  N1_10 
REMARK    4  A    between atoms: N1_10  and  C6_11 
REMARK    5  A    between atoms: N1_10  and  C10_15 
REMARK    6  A    between atoms: C6_11  and  C7_12 
REMARK    7  A    between atoms: C10_15  and  C11_16 
REMARK    8  A    between atoms: C11_16  and  O4_17 
REMARK    9  A    between atoms: C11_16  and  C12_19 
REMARK   10  A    between atoms: C12_19  and  C13_20 
REMARK   11  A    between atoms: C12_19  and  N2_27 
REMARK   12  A    between atoms: C13_20  and  C14_21 
REMARK       I    between atoms: N2_27  and  C20_29 
REMARK   13  A    between atoms: C20_29  and  C21_31 
REMARK   14  A    between atoms: N3_33  and  C23_34 
REMARK   15  A    between atoms: C27_38  and  C28_39 
ROOT
HETATM    1  C12 UNL     1      18.288  30.553  15.287  1.00  0.00     0.118 C 
ENDROOT
BRANCH   1   2
HETATM    2  C11 UNL     1      19.490  30.559  16.178  1.00  0.00     0.155 C 
BRANCH   2   3
HETATM    3  C10 UNL     1      20.423  31.613  16.328  1.00  0.00     0.141 C 
BRANCH   3   4
HETATM    4  N1  UNL     1      20.492  32.496  15.124  1.00  0.00    -0.204 NA
BRANCH   4   5
HETATM    5  S1  UNL     1      21.630  31.781  14.060  1.00  0.00     0.243 S 
HETATM    6  O2  UNL     1      22.723  31.239  15.089  1.00  0.00    -0.206 OA
HETATM    7  O3  UNL     1      22.328  32.785  13.335  1.00  0.00    -0.206 OA
BRANCH   5   8
HETATM    8  C5  UNL     1      21.346  30.278  13.194  1.00  0.00     0.074 A 
HETATM    9  C4  UNL     1      21.110  30.353  11.845  1.00  0.00     0.027 A 
HETATM   10  C3  UNL     1      21.588  29.306  11.065  1.00  0.00     0.038 A 
HETATM   11  C2  UNL     1      22.363  28.161  11.582  1.00  0.00     0.068 A 
HETATM   12  C32 UNL     1      22.426  28.283  12.942  1.00  0.00     0.038 A 
HETATM   13  C31 UNL     1      21.985  29.173  13.884  1.00  0.00     0.027 A 
BRANCH  11  14
HETATM   14  O1  UNL     1      22.928  27.231  10.850  1.00  0.00    -0.356 OA
HETATM   15  C1  UNL     1      24.134  26.982  11.669  1.00  0.00     0.210 C 
ENDBRANCH  11  14
ENDBRANCH   5   8
ENDBRANCH   4   5
BRANCH   4  16
HETATM   16  C6  UNL     1      20.919  33.803  15.564  1.00  0.00     0.111 C 
BRANCH  16  17
HETATM   17  C7  UNL     1      20.772  34.214  16.957  1.00  0.00    -0.009 C 
HETATM   18  C8  UNL     1      19.607  35.000  17.217  1.00  0.00     0.011 C 
HETATM   19  C9  UNL     1      21.896  35.172  17.322  1.00  0.00     0.011 C 
ENDBRANCH  16  17
ENDBRANCH   4  16
ENDBRANCH   3   4
ENDBRANCH   2   3
BRANCH   2  20
HETATM   20  O4  UNL     1      18.946  30.137  17.438  1.00  0.00    -0.392 OA
ATOM     21  H4  UNL     1      19.536  29.559  17.906  1.00  0.00     0.210 HD
ENDBRANCH   2  20
ENDBRANCH   1   2
BRANCH   1  22
HETATM   22  C13 UNL     1      17.045  31.000  15.936  1.00  0.00     0.066 C 
BRANCH  22  23
HETATM   23  C14 UNL     1      16.659  32.382  15.864  1.00  0.00    -0.056 A 
HETATM   24  C15 UNL     1      15.984  33.102  16.743  1.00  0.00     0.007 A 
HETATM   25  C16 UNL     1      15.694  34.475  16.738  1.00  0.00     0.001 A 
HETATM   26  C17 UNL     1      16.118  35.161  15.663  1.00  0.00     0.000 A 
HETATM   27  C18 UNL     1      16.833  34.498  14.703  1.00  0.00     0.001 A 
HETATM   28  C19 UNL     1      17.084  33.161  14.755  1.00  0.00     0.007 A 
ENDBRANCH  22  23
ENDBRANCH   1  22
BRANCH   1  29
HETATM   29  N2  UNL     1      18.238  29.211  14.619  1.00  0.00    -0.351 N 
HETATM   30  C20 UNL     1      18.007  29.185  13.211  1.00  0.00     0.249 C 
HETATM   31  O5  UNL     1      17.762  30.271  12.633  1.00  0.00    -0.271 OA
ATOM     32  H2  UNL     1      18.365  28.349  15.151  1.00  0.00     0.163 HD
BRANCH  30  33
HETATM   33  C21 UNL     1      18.031  27.997  12.411  1.00  0.00     0.243 C 
HETATM   34  C22 UNL     1      17.702  28.243  10.955  1.00  0.00     0.177 C 
HETATM   35  N3  UNL     1      18.006  26.781  10.561  1.00  0.00    -0.291 N 
HETATM   36  C30 UNL     1      17.488  26.006  11.561  1.00  0.00     0.368 C 
HETATM   37  O6  UNL     1      17.143  24.823  11.441  1.00  0.00    -0.238 OA
HETATM   38  O7  UNL     1      17.339  26.868  12.736  1.00  0.00    -0.287 OA
BRANCH  35  39
HETATM   39  C23 UNL     1      18.651  26.742   9.328  1.00  0.00     0.040 A 
HETATM   40  C24 UNL     1      17.925  27.542   8.378  1.00  0.00     0.030 A 
HETATM   41  C25 UNL     1      18.353  27.547   7.113  1.00  0.00     0.003 A 
HETATM   42  C26 UNL     1      19.422  26.832   6.651  1.00  0.00     0.016 A 
HETATM   43  C27 UNL     1      20.113  26.075   7.588  1.00  0.00     0.050 A 
HETATM   44  C29 UNL     1      19.675  26.037   8.889  1.00  0.00     0.046 A 
BRANCH  43  45
HETATM   45  C28 UNL     1      21.362  25.394   7.154  1.00  0.00     0.417 C 
HETATM   46  F1  UNL     1      22.491  25.727   7.728  1.00  0.00    -0.166 F 
HETATM   47  F2  UNL     1      21.166  24.036   7.148  1.00  0.00    -0.166 F 
HETATM   48  F3  UNL     1      21.439  25.738   5.732  1.00  0.00    -0.166 F 
ENDBRANCH  43  45
ENDBRANCH  35  39
ENDBRANCH  30  33
ENDBRANCH   1  29
TORSDOF 15
ENDMDL
