MODEL 2
REMARK VINA RESULT: -9.797260167      1.023      1.496
REMARK  15 active torsions:
REMARK  status: ('A' for Active; 'I' for Inactive)
REMARK    1  A    between atoms: O1_2  and  C2_3 
REMARK    2  A    between atoms: C5_6  and  S1_7 
REMARK    3  A    between atoms: S1_7  and  N1_10 
REMARK    4  A    between atoms: N1_10  and  C6_11 
REMARK    5  A    between atoms: N1_10  and  C10_15 
REMARK    6  A    between atoms: C6_11  and  C7_12 
REMARK    7  A    between atoms: C10_15  and  C11_16 
REMARK    8  A    between atoms: C11_16  and  O4_17 
REMARK    9  A    between atoms: C11_16  and  C12_19 
REMARK   10  A    between atoms: C12_19  and  C13_20 
REMARK   11  A    between atoms: C12_19  and  N2_27 
REMARK   12  A    between atoms: C13_20  and  C14_21 
REMARK       I    between atoms: N2_27  and  C20_29 
REMARK   13  A    between atoms: C20_29  and  C21_31 
REMARK   14  A    between atoms: N3_33  and  C23_34 
REMARK   15  A    between atoms: C27_38  and  C28_39 
ROOT
HETATM    1  C12 UNL     1      18.195  30.569  15.230  1.00  0.00     0.118 C 
ENDROOT
BRANCH   1   2
HETATM    2  C11 UNL     1      19.384  30.580  16.138  1.00  0.00     0.155 C 
BRANCH   2   3
HETATM    3  C10 UNL     1      20.327  31.627  16.279  1.00  0.00     0.141 C 
BRANCH   3   4
HETATM    4  N1  UNL     1      20.422  32.485  15.059  1.00  0.00    -0.204 NA
BRANCH   4   5
HETATM    5  S1  UNL     1      21.583  31.750  14.036  1.00  0.00     0.243 S 
HETATM    6  O2  UNL     1      22.652  31.228  15.099  1.00  0.00    -0.206 OA
HETATM    7  O3  UNL     1      22.298  32.740  13.307  1.00  0.00    -0.206 OA
BRANCH   5   8
HETATM    8  C5  UNL     1      21.319  30.231  13.191  1.00  0.00     0.074 A 
HETATM    9  C4  UNL     1      21.049  30.286  11.848  1.00  0.00     0.027 A 
HETATM   10  C3  UNL     1      21.536  29.243  11.068  1.00  0.00     0.038 A 
HETATM   11  C2  UNL     1      22.354  28.124  11.577  1.00  0.00     0.068 A 
HETATM   12  C32 UNL     1      22.446  28.263  12.933  1.00  0.00     0.038 A 
HETATM   13  C31 UNL     1      22.005  29.151  13.876  1.00  0.00     0.027 A 
BRANCH  11  14
HETATM   14  O1  UNL     1      22.926  27.202  10.841  1.00  0.00    -0.356 OA
HETATM   15  C1  UNL     1      24.147  26.978  11.644  1.00  0.00     0.210 C 
ENDBRANCH  11  14
ENDBRANCH   5   8
ENDBRANCH   4   5
BRANCH   4  16
HETATM   16  C6  UNL     1      20.837  33.801  15.481  1.00  0.00     0.111 C 
BRANCH  16  17
HETATM   17  C7  UNL     1      20.736  34.211  16.879  1.00  0.00    -0.009 C 
HETATM   18  C8  UNL     1      19.607  35.038  17.167  1.00  0.00     0.011 C 
HETATM   19  C9  UNL     1      21.903  35.125  17.223  1.00  0.00     0.011 C 
ENDBRANCH  16  17
ENDBRANCH   4  16
ENDBRANCH   3   4
ENDBRANCH   2   3
BRANCH   2  20
HETATM   20  O4  UNL     1      18.818  30.190  17.398  1.00  0.00    -0.392 OA
ATOM     21  H4  UNL     1      18.433  29.323  17.363  1.00  0.00     0.210 HD
ENDBRANCH   2  20
ENDBRANCH   1   2
BRANCH   1  22
HETATM   22  C13 UNL     1      16.953  31.064  15.845  1.00  0.00     0.066 C 
BRANCH  22  23
HETATM   23  C14 UNL     1      16.635  32.464  15.782  1.00  0.00    -0.056 A 
HETATM   24  C15 UNL     1      16.019  33.216  16.678  1.00  0.00     0.007 A 
HETATM   25  C16 UNL     1      15.798  34.601  16.681  1.00  0.00     0.001 A 
HETATM   26  C17 UNL     1      16.227  35.266  15.595  1.00  0.00     0.000 A 
HETATM   27  C18 UNL     1      16.882  34.569  14.616  1.00  0.00     0.001 A 
HETATM   28  C19 UNL     1      17.068  33.222  14.662  1.00  0.00     0.007 A 
ENDBRANCH  22  23
ENDBRANCH   1  22
BRANCH   1  29
HETATM   29  N2  UNL     1      18.126  29.205  14.607  1.00  0.00    -0.351 N 
HETATM   30  C20 UNL     1      17.924  29.136  13.196  1.00  0.00     0.249 C 
HETATM   31  O5  UNL     1      17.719  30.206  12.576  1.00  0.00    -0.271 OA
ATOM     32  H2  UNL     1      18.218  28.360  15.172  1.00  0.00     0.163 HD
BRANCH  30  33
HETATM   33  C21 UNL     1      17.935  27.921  12.439  1.00  0.00     0.243 C 
HETATM   34  C22 UNL     1      17.581  28.115  10.981  1.00  0.00     0.177 C 
HETATM   35  N3  UNL     1      17.878  26.640  10.633  1.00  0.00    -0.291 N 
HETATM   36  C30 UNL     1      17.377  25.900  11.669  1.00  0.00     0.368 C 
HETATM   37  O6  UNL     1      17.031  24.714  11.596  1.00  0.00    -0.238 OA
HETATM   38  O7  UNL     1      17.248  26.804  12.815  1.00  0.00    -0.287 OA
BRANCH  35  39
HETATM   39  C23 UNL     1      18.503  26.557   9.393  1.00  0.00     0.040 A 
HETATM   40  C24 UNL     1      19.765  25.881   9.532  1.00  0.00     0.030 A 
HETATM   41  C25 UNL     1      20.546  25.792   8.452  1.00  0.00     0.003 A 
HETATM   42  C26 UNL     1      20.240  26.311   7.226  1.00  0.00     0.016 A 
HETATM   43  C27 UNL     1      19.013  26.951   7.113  1.00  0.00     0.050 A 
HETATM   44  C29 UNL     1      18.205  27.075   8.217  1.00  0.00     0.046 A 
BRANCH  43  45
HETATM   45  C28 UNL     1      18.582  27.407   5.764  1.00  0.00     0.417 C 
HETATM   46  F1  UNL     1      18.670  28.681   5.473  1.00  0.00    -0.166 F 
HETATM   47  F2  UNL     1      19.165  26.617   4.805  1.00  0.00    -0.166 F 
HETATM   48  F3  UNL     1      17.172  27.011   5.726  1.00  0.00    -0.166 F 
ENDBRANCH  43  45
ENDBRANCH  35  39
ENDBRANCH  30  33
ENDBRANCH   1  29
TORSDOF 15
ENDMDL
