MODEL 4
REMARK VINA RESULT: -9.539219427      2.352      6.081
REMARK  15 active torsions:
REMARK  status: ('A' for Active; 'I' for Inactive)
REMARK    1  A    between atoms: O1_2  and  C2_3 
REMARK    2  A    between atoms: C5_6  and  S1_7 
REMARK    3  A    between atoms: S1_7  and  N1_10 
REMARK    4  A    between atoms: N1_10  and  C6_11 
REMARK    5  A    between atoms: N1_10  and  C10_15 
REMARK    6  A    between atoms: C6_11  and  C7_12 
REMARK    7  A    between atoms: C10_15  and  C11_16 
REMARK    8  A    between atoms: C11_16  and  O4_17 
REMARK    9  A    between atoms: C11_16  and  C12_19 
REMARK   10  A    between atoms: C12_19  and  C13_20 
REMARK   11  A    between atoms: C12_19  and  N2_27 
REMARK   12  A    between atoms: C13_20  and  C14_21 
REMARK       I    between atoms: N2_27  and  C20_29 
REMARK   13  A    between atoms: C20_29  and  C21_31 
REMARK   14  A    between atoms: N3_33  and  C23_34 
REMARK   15  A    between atoms: C27_38  and  C28_39 
ROOT
HETATM    1  C12 UNL     1      19.588  29.096  13.867  1.00  0.00     0.118 C 
ENDROOT
BRANCH   1   2
HETATM    2  C11 UNL     1      20.170  29.458  15.197  1.00  0.00     0.155 C 
BRANCH   2   3
HETATM    3  C10 UNL     1      19.570  30.276  16.185  1.00  0.00     0.141 C 
BRANCH   3   4
HETATM    4  N1  UNL     1      19.951  31.715  16.050  1.00  0.00    -0.204 NA
BRANCH   4   5
HETATM    5  S1  UNL     1      18.598  32.515  15.367  1.00  0.00     0.243 S 
HETATM    6  O2  UNL     1      17.440  31.448  15.625  1.00  0.00    -0.206 OA
HETATM    7  O3  UNL     1      18.708  32.548  13.949  1.00  0.00    -0.206 OA
BRANCH   5   8
HETATM    8  C5  UNL     1      17.814  33.907  16.099  1.00  0.00     0.074 A 
HETATM    9  C4  UNL     1      16.510  34.157  15.759  1.00  0.00     0.027 A 
HETATM   10  C3  UNL     1      15.696  34.697  16.749  1.00  0.00     0.038 A 
HETATM   11  C2  UNL     1      16.128  34.967  18.135  1.00  0.00     0.068 A 
HETATM   12  C32 UNL     1      17.463  34.685  18.215  1.00  0.00     0.038 A 
HETATM   13  C31 UNL     1      18.435  34.219  17.373  1.00  0.00     0.027 A 
BRANCH  11  14
HETATM   14  O1  UNL     1      15.346  35.357  19.114  1.00  0.00    -0.356 OA
HETATM   15  C1  UNL     1      15.211  36.785  18.757  1.00  0.00     0.210 C 
ENDBRANCH  11  14
ENDBRANCH   5   8
ENDBRANCH   4   5
BRANCH   4  16
HETATM   16  C6  UNL     1      21.106  31.783  15.187  1.00  0.00     0.111 C 
BRANCH  16  17
HETATM   17  C7  UNL     1      22.108  32.832  15.351  1.00  0.00    -0.009 C 
HETATM   18  C8  UNL     1      23.375  32.529  14.764  1.00  0.00     0.011 C 
HETATM   19  C9  UNL     1      22.460  32.968  16.826  1.00  0.00     0.011 C 
ENDBRANCH  16  17
ENDBRANCH   4  16
ENDBRANCH   3   4
ENDBRANCH   2   3
BRANCH   2  20
HETATM   20  O4  UNL     1      20.566  28.182  15.722  1.00  0.00    -0.392 OA
ATOM     21  H4  UNL     1      21.283  27.801  15.229  1.00  0.00     0.210 HD
ENDBRANCH   2  20
ENDBRANCH   1   2
BRANCH   1  22
HETATM   22  C13 UNL     1      18.145  28.812  13.889  1.00  0.00     0.066 C 
BRANCH  22  23
HETATM   23  C14 UNL     1      17.465  28.480  12.667  1.00  0.00    -0.056 A 
HETATM   24  C15 UNL     1      17.087  29.279  11.684  1.00  0.00     0.007 A 
HETATM   25  C16 UNL     1      16.522  28.959  10.440  1.00  0.00     0.001 A 
HETATM   26  C17 UNL     1      16.280  27.655  10.224  1.00  0.00     0.000 A 
HETATM   27  C18 UNL     1      16.644  26.753  11.185  1.00  0.00     0.001 A 
HETATM   28  C19 UNL     1      17.187  27.117  12.378  1.00  0.00     0.007 A 
ENDBRANCH  22  23
ENDBRANCH   1  22
BRANCH   1  29
HETATM   29  N2  UNL     1      20.462  28.028  13.277  1.00  0.00    -0.351 N 
HETATM   30  C20 UNL     1      21.038  28.283  11.997  1.00  0.00     0.249 C 
HETATM   31  O5  UNL     1      20.704  29.332  11.397  1.00  0.00    -0.271 OA
ATOM     32  H2  UNL     1      20.638  27.154  13.773  1.00  0.00     0.163 HD
BRANCH  30  33
HETATM   33  C21 UNL     1      21.971  27.413  11.345  1.00  0.00     0.243 C 
HETATM   34  C22 UNL     1      21.313  26.374  10.463  1.00  0.00     0.177 C 
HETATM   35  N3  UNL     1      22.667  25.859   9.928  1.00  0.00    -0.291 N 
HETATM   36  C30 UNL     1      23.511  25.833  11.005  1.00  0.00     0.368 C 
HETATM   37  O6  UNL     1      24.512  25.112  11.108  1.00  0.00    -0.238 OA
HETATM   38  O7  UNL     1      22.944  26.731  12.014  1.00  0.00    -0.287 OA
BRANCH  35  39
HETATM   39  C23 UNL     1      22.565  25.561   8.573  1.00  0.00     0.040 A 
HETATM   40  C24 UNL     1      23.866  25.242   8.049  1.00  0.00     0.030 A 
HETATM   41  C25 UNL     1      23.971  25.018   6.737  1.00  0.00     0.003 A 
HETATM   42  C26 UNL     1      22.933  25.086   5.851  1.00  0.00     0.016 A 
HETATM   43  C27 UNL     1      21.685  25.387   6.380  1.00  0.00     0.050 A 
HETATM   44  C29 UNL     1      21.559  25.645   7.723  1.00  0.00     0.046 A 
BRANCH  43  45
HETATM   45  C28 UNL     1      20.508  25.334   5.472  1.00  0.00     0.417 C 
HETATM   46  F1  UNL     1      19.669  24.335   5.587  1.00  0.00    -0.166 F 
HETATM   47  F2  UNL     1      19.869  26.549   5.479  1.00  0.00    -0.166 F 
HETATM   48  F3  UNL     1      21.128  25.278   4.145  1.00  0.00    -0.166 F 
ENDBRANCH  43  45
ENDBRANCH  35  39
ENDBRANCH  30  33
ENDBRANCH   1  29
TORSDOF 15
ENDMDL
