MODEL 5
REMARK VINA RESULT: -9.407148892      5.251      9.131
REMARK  15 active torsions:
REMARK  status: ('A' for Active; 'I' for Inactive)
REMARK    1  A    between atoms: O1_2  and  C2_3 
REMARK    2  A    between atoms: C5_6  and  S1_7 
REMARK    3  A    between atoms: S1_7  and  N1_10 
REMARK    4  A    between atoms: N1_10  and  C6_11 
REMARK    5  A    between atoms: N1_10  and  C10_15 
REMARK    6  A    between atoms: C6_11  and  C7_12 
REMARK    7  A    between atoms: C10_15  and  C11_16 
REMARK    8  A    between atoms: C11_16  and  O4_17 
REMARK    9  A    between atoms: C11_16  and  C12_19 
REMARK   10  A    between atoms: C12_19  and  C13_20 
REMARK   11  A    between atoms: C12_19  and  N2_27 
REMARK   12  A    between atoms: C13_20  and  C14_21 
REMARK       I    between atoms: N2_27  and  C20_29 
REMARK   13  A    between atoms: C20_29  and  C21_31 
REMARK   14  A    between atoms: N3_33  and  C23_34 
REMARK   15  A    between atoms: C27_38  and  C28_39 
ROOT
HETATM    1  C12 UNL     1      17.790  31.008  14.920  1.00  0.00     0.118 C 
ENDROOT
BRANCH   1   2
HETATM    2  C11 UNL     1      18.803  30.434  15.860  1.00  0.00     0.155 C 
BRANCH   2   3
HETATM    3  C10 UNL     1      20.210  30.550  15.757  1.00  0.00     0.141 C 
BRANCH   3   4
HETATM    4  N1  UNL     1      20.649  31.933  15.396  1.00  0.00    -0.204 NA
BRANCH   4   5
HETATM    5  S1  UNL     1      21.821  31.764  14.157  1.00  0.00     0.243 S 
HETATM    6  O2  UNL     1      23.151  31.545  15.011  1.00  0.00    -0.206 OA
HETATM    7  O3  UNL     1      22.044  33.013  13.513  1.00  0.00    -0.206 OA
BRANCH   5   8
HETATM    8  C5  UNL     1      21.957  30.346  13.127  1.00  0.00     0.074 A 
HETATM    9  C4  UNL     1      22.185  29.137  13.732  1.00  0.00     0.027 A 
HETATM   10  C3  UNL     1      21.606  28.020  13.141  1.00  0.00     0.038 A 
HETATM   11  C2  UNL     1      20.733  28.058  11.951  1.00  0.00     0.068 A 
HETATM   12  C32 UNL     1      20.694  29.351  11.507  1.00  0.00     0.038 A 
HETATM   13  C31 UNL     1      21.224  30.552  11.891  1.00  0.00     0.027 A 
BRANCH  11  14
HETATM   14  O1  UNL     1      20.077  27.037  11.454  1.00  0.00    -0.356 OA
HETATM   15  C1  UNL     1      19.896  27.521  10.068  1.00  0.00     0.210 C 
ENDBRANCH  11  14
ENDBRANCH   5   8
ENDBRANCH   4   5
BRANCH   4  16
HETATM   16  C6  UNL     1      21.207  32.539  16.581  1.00  0.00     0.111 C 
BRANCH  16  17
HETATM   17  C7  UNL     1      20.774  33.859  17.027  1.00  0.00    -0.009 C 
HETATM   18  C8  UNL     1      20.923  34.888  16.046  1.00  0.00     0.011 C 
HETATM   19  C9  UNL     1      21.689  34.341  18.143  1.00  0.00     0.011 C 
ENDBRANCH  16  17
ENDBRANCH   4  16
ENDBRANCH   3   4
ENDBRANCH   2   3
BRANCH   2  20
HETATM   20  O4  UNL     1      18.320  30.866  17.141  1.00  0.00    -0.392 OA
ATOM     21  H4  UNL     1      17.371  30.852  17.188  1.00  0.00     0.210 HD
ENDBRANCH   2  20
ENDBRANCH   1   2
BRANCH   1  22
HETATM   22  C13 UNL     1      18.066  30.755  13.498  1.00  0.00     0.066 C 
BRANCH  22  23
HETATM   23  C14 UNL     1      17.461  29.627  12.844  1.00  0.00    -0.056 A 
HETATM   24  C15 UNL     1      16.892  29.565  11.652  1.00  0.00     0.007 A 
HETATM   25  C16 UNL     1      16.397  28.452  10.956  1.00  0.00     0.001 A 
HETATM   26  C17 UNL     1      16.460  27.278  11.606  1.00  0.00     0.000 A 
HETATM   27  C18 UNL     1      17.039  27.244  12.844  1.00  0.00     0.001 A 
HETATM   28  C19 UNL     1      17.503  28.356  13.478  1.00  0.00     0.007 A 
ENDBRANCH  22  23
ENDBRANCH   1  22
BRANCH   1  29
HETATM   29  N2  UNL     1      17.589  32.443  15.308  1.00  0.00    -0.351 N 
HETATM   30  C20 UNL     1      16.363  32.784  15.954  1.00  0.00     0.249 C 
HETATM   31  O5  UNL     1      15.489  31.892  16.071  1.00  0.00    -0.271 OA
ATOM     32  H2  UNL     1      18.301  33.149  15.117  1.00  0.00     0.163 HD
BRANCH  30  33
HETATM   33  C21 UNL     1      16.060  34.083  16.475  1.00  0.00     0.243 C 
HETATM   34  C22 UNL     1      17.121  34.622  17.409  1.00  0.00     0.177 C 
HETATM   35  N3  UNL     1      16.423  35.993  17.535  1.00  0.00    -0.291 N 
HETATM   36  C30 UNL     1      15.084  35.727  17.629  1.00  0.00     0.368 C 
HETATM   37  O6  UNL     1      14.245  36.471  18.153  1.00  0.00    -0.238 OA
HETATM   38  O7  UNL     1      14.878  34.381  17.088  1.00  0.00    -0.287 OA
BRANCH  35  39
HETATM   39  C23 UNL     1      17.370  37.013  17.554  1.00  0.00     0.040 A 
HETATM   40  C24 UNL     1      18.501  36.606  18.344  1.00  0.00     0.030 A 
HETATM   41  C25 UNL     1      19.473  37.500  18.546  1.00  0.00     0.003 A 
HETATM   42  C26 UNL     1      19.462  38.781  18.071  1.00  0.00     0.016 A 
HETATM   43  C27 UNL     1      18.365  39.148  17.304  1.00  0.00     0.050 A 
HETATM   44  C29 UNL     1      17.343  38.252  17.103  1.00  0.00     0.046 A 
BRANCH  43  45
HETATM   45  C28 UNL     1      18.380  40.486  16.654  1.00  0.00     0.417 C 
HETATM   46  F1  UNL     1      17.271  40.945  16.131  1.00  0.00    -0.166 F 
HETATM   47  F2  UNL     1      18.972  41.397  17.493  1.00  0.00    -0.166 F 
HETATM   48  F3  UNL     1      19.367  40.312  15.584  1.00  0.00    -0.166 F 
ENDBRANCH  43  45
ENDBRANCH  35  39
ENDBRANCH  30  33
ENDBRANCH   1  29
TORSDOF 15
ENDMDL
