MODEL 1
REMARK VINA RESULT: -9.445887813      0.000      0.000
REMARK  2 active torsions:
REMARK  status: ('A' for Active; 'I' for Inactive)
REMARK    1  A    between atoms: C4_7  and  C5_8 
REMARK    2  A    between atoms: C5_8  and  N2_9 
ROOT
HETATM    1  O1  UNL     1      48.665  56.557  12.593  1.00  0.00    -0.266 OA
HETATM    2  C1  UNL     1      48.874  55.799  11.600  1.00  0.00     0.273 A 
HETATM    3  N1  UNL     1      48.001  54.815  11.300  1.00  0.00    -0.320 N 
ATOM      4  H1  UNL     1      47.169  54.681  11.876  1.00  0.00     0.169 HD
HETATM    5  C2  UNL     1      48.222  54.001  10.235  1.00  0.00     0.063 A 
HETATM    6  C3  UNL     1      47.333  52.990   9.920  1.00  0.00     0.040 A 
HETATM    7  C4  UNL     1      47.544  52.157   8.845  1.00  0.00    -0.028 A 
HETATM    8  C10 UNL     1      48.676  52.363   8.087  1.00  0.00     0.011 A 
HETATM    9  C11 UNL     1      49.584  53.374   8.387  1.00  0.00     0.033 A 
HETATM   10  C12 UNL     1      49.339  54.189   9.472  1.00  0.00     0.066 A 
HETATM   11  N3  UNL     1      50.212  55.183   9.782  1.00  0.00    -0.315 N 
HETATM   12  C13 UNL     1      51.367  55.566   9.194  1.00  0.00     0.098 A 
HETATM   13  C14 UNL     1      51.911  56.638   9.873  1.00  0.00     0.020 A 
HETATM   14  C15 UNL     1      51.040  56.902  10.910  1.00  0.00     0.037 A 
HETATM   15  C16 UNL     1      50.003  55.993  10.832  1.00  0.00     0.107 A 
ENDROOT
BRANCH   7  16
HETATM   16  C5  UNL     1      46.638  51.052   8.444  1.00  0.00     0.311 C 
BRANCH  16  17
HETATM   17  N2  UNL     1      45.961  51.271   7.202  1.00  0.00     0.092 N 
HETATM   18  C6  UNL     1      45.246  50.025   6.886  1.00  0.00     0.273 C 
HETATM   19  C7  UNL     1      44.233  49.974   8.002  1.00  0.00     0.032 C 
HETATM   20  C8  UNL     1      43.900  51.418   8.306  1.00  0.00     0.032 C 
HETATM   21  C9  UNL     1      44.829  52.176   7.388  1.00  0.00     0.273 C 
ENDBRANCH  16  17
ENDBRANCH   7  16
TORSDOF 2
ENDMDL
