MODEL 4
REMARK VINA RESULT: -8.638423246      1.058      1.495
REMARK  2 active torsions:
REMARK  status: ('A' for Active; 'I' for Inactive)
REMARK    1  A    between atoms: C4_7  and  C5_8 
REMARK    2  A    between atoms: C5_8  and  N2_9 
ROOT
HETATM    1  O1  UNL     1      48.577  55.767  12.157  1.00  0.00    -0.266 OA
HETATM    2  C1  UNL     1      48.712  55.039  11.130  1.00  0.00     0.273 A 
HETATM    3  N1  UNL     1      47.794  54.093  10.841  1.00  0.00    -0.320 N 
ATOM      4  H1  UNL     1      46.987  53.965  11.453  1.00  0.00     0.169 HD
HETATM    5  C2  UNL     1      47.936  53.310   9.740  1.00  0.00     0.063 A 
HETATM    6  C3  UNL     1      47.001  52.339   9.436  1.00  0.00     0.040 A 
HETATM    7  C4  UNL     1      47.131  51.538   8.325  1.00  0.00    -0.028 A 
HETATM    8  C10 UNL     1      48.231  51.736   7.518  1.00  0.00     0.011 A 
HETATM    9  C11 UNL     1      49.185  52.708   7.806  1.00  0.00     0.033 A 
HETATM   10  C12 UNL     1      49.019  53.491   8.929  1.00  0.00     0.066 A 
HETATM   11  N3  UNL     1      49.939  54.447   9.228  1.00  0.00    -0.315 N 
HETATM   12  C13 UNL     1      51.075  54.814   8.595  1.00  0.00     0.098 A 
HETATM   13  C14 UNL     1      51.685  55.844   9.281  1.00  0.00     0.020 A 
HETATM   14  C15 UNL     1      50.876  56.099  10.369  1.00  0.00     0.037 A 
HETATM   15  C16 UNL     1      49.808  55.225  10.313  1.00  0.00     0.107 A 
ENDROOT
BRANCH   7  16
HETATM   16  C5  UNL     1      46.171  50.476   7.933  1.00  0.00     0.311 C 
BRANCH  16  17
HETATM   17  N2  UNL     1      44.963  50.467   8.701  1.00  0.00     0.092 N 
HETATM   18  C6  UNL     1      43.854  50.561   7.740  1.00  0.00     0.273 C 
HETATM   19  C7  UNL     1      43.985  49.251   7.005  1.00  0.00     0.032 C 
HETATM   20  C8  UNL     1      44.508  48.268   8.031  1.00  0.00     0.032 C 
HETATM   21  C9  UNL     1      44.715  49.136   9.250  1.00  0.00     0.273 C 
ENDBRANCH  16  17
ENDBRANCH   7  16
TORSDOF 2
ENDMDL
