MODEL 3
REMARK VINA RESULT: -9.109337222      1.293      1.905
REMARK  2 active torsions:
REMARK  status: ('A' for Active; 'I' for Inactive)
REMARK    1  A    between atoms: C4_7  and  C5_8 
REMARK    2  A    between atoms: C5_8  and  N2_9 
ROOT
HETATM    1  O1  UNL     1      48.454  56.548  12.530  1.00  0.00    -0.266 OA
HETATM    2  C1  UNL     1      48.797  55.825  11.549  1.00  0.00     0.273 A 
HETATM    3  N1  UNL     1      48.024  54.787  11.166  1.00  0.00    -0.320 N 
ATOM      4  H1  UNL     1      47.160  54.584  11.669  1.00  0.00     0.169 HD
HETATM    5  C2  UNL     1      48.390  54.010  10.113  1.00  0.00     0.063 A 
HETATM    6  C3  UNL     1      47.605  52.944   9.713  1.00  0.00     0.040 A 
HETATM    7  C4  UNL     1      47.962  52.148   8.650  1.00  0.00    -0.028 A 
HETATM    8  C10 UNL     1      49.135  52.447   7.989  1.00  0.00     0.011 A 
HETATM    9  C11 UNL     1      49.939  53.516   8.376  1.00  0.00     0.033 A 
HETATM   10  C12 UNL     1      49.549  54.291   9.447  1.00  0.00     0.066 A 
HETATM   11  N3  UNL     1      50.320  55.339   9.840  1.00  0.00    -0.315 N 
HETATM   12  C13 UNL     1      51.487  55.814   9.353  1.00  0.00     0.098 A 
HETATM   13  C14 UNL     1      51.895  56.909  10.087  1.00  0.00     0.020 A 
HETATM   14  C15 UNL     1      50.926  57.092  11.052  1.00  0.00     0.037 A 
HETATM   15  C16 UNL     1      49.968  56.113  10.878  1.00  0.00     0.107 A 
ENDROOT
BRANCH   7  16
HETATM   16  C5  UNL     1      47.174  50.988   8.162  1.00  0.00     0.311 C 
BRANCH  16  17
HETATM   17  N2  UNL     1      46.843  50.036   9.179  1.00  0.00     0.092 N 
HETATM   18  C6  UNL     1      45.942  49.054   8.558  1.00  0.00     0.273 C 
HETATM   19  C7  UNL     1      46.857  48.406   7.550  1.00  0.00     0.032 C 
HETATM   20  C8  UNL     1      48.231  48.433   8.184  1.00  0.00     0.032 C 
HETATM   21  C9  UNL     1      47.991  49.181   9.473  1.00  0.00     0.273 C 
ENDBRANCH  16  17
ENDBRANCH   7  16
TORSDOF 2
ENDMDL
