MODEL 6
REMARK VINA RESULT: -8.455280013      3.123      4.565
REMARK  2 active torsions:
REMARK  status: ('A' for Active; 'I' for Inactive)
REMARK    1  A    between atoms: C4_7  and  C5_8 
REMARK    2  A    between atoms: C5_8  and  N2_9 
ROOT
HETATM    1  O1  UNL     1      52.391  57.392  10.356  1.00  0.00    -0.266 OA
HETATM    2  C1  UNL     1      51.621  56.449  10.008  1.00  0.00     0.273 A 
HETATM    3  N1  UNL     1      51.877  55.740   8.889  1.00  0.00    -0.320 N 
ATOM      4  H1  UNL     1      52.695  55.965   8.321  1.00  0.00     0.169 HD
HETATM    5  C2  UNL     1      51.052  54.728   8.513  1.00  0.00     0.063 A 
HETATM    6  C3  UNL     1      51.307  53.995   7.368  1.00  0.00     0.040 A 
HETATM    7  C4  UNL     1      50.481  52.968   6.974  1.00  0.00    -0.028 A 
HETATM    8  C10 UNL     1      49.385  52.688   7.761  1.00  0.00     0.011 A 
HETATM    9  C11 UNL     1      49.111  53.413   8.918  1.00  0.00     0.033 A 
HETATM   10  C12 UNL     1      49.961  54.435   9.280  1.00  0.00     0.066 A 
HETATM   11  N3  UNL     1      49.712  55.155  10.406  1.00  0.00    -0.315 N 
HETATM   12  C13 UNL     1      48.718  55.063  11.317  1.00  0.00     0.098 A 
HETATM   13  C14 UNL     1      48.886  56.019  12.298  1.00  0.00     0.020 A 
HETATM   14  C15 UNL     1      50.031  56.708  11.955  1.00  0.00     0.037 A 
HETATM   15  C16 UNL     1      50.520  56.157  10.787  1.00  0.00     0.107 A 
ENDROOT
BRANCH   7  16
HETATM   16  C5  UNL     1      50.687  52.138   5.760  1.00  0.00     0.311 C 
BRANCH  16  17
HETATM   17  N2  UNL     1      51.563  51.023   5.955  1.00  0.00     0.092 N 
HETATM   18  C6  UNL     1      50.735  49.813   5.839  1.00  0.00     0.273 C 
HETATM   19  C7  UNL     1      50.322  49.873   4.390  1.00  0.00     0.032 C 
HETATM   20  C8  UNL     1      51.488  50.515   3.670  1.00  0.00     0.032 C 
HETATM   21  C9  UNL     1      52.436  50.849   4.797  1.00  0.00     0.273 C 
ENDBRANCH  16  17
ENDBRANCH   7  16
TORSDOF 2
ENDMDL
