MODEL 2
REMARK VINA RESULT: -9.338055498      0.532      1.061
REMARK  2 active torsions:
REMARK  status: ('A' for Active; 'I' for Inactive)
REMARK    1  A    between atoms: C4_7  and  C5_8 
REMARK    2  A    between atoms: C5_8  and  N2_9 
ROOT
HETATM    1  O1  UNL     1      48.671  56.570  12.628  1.00  0.00    -0.266 OA
HETATM    2  C1  UNL     1      48.896  55.827  11.629  1.00  0.00     0.273 A 
HETATM    3  N1  UNL     1      48.022  54.854  11.294  1.00  0.00    -0.320 N 
ATOM      4  H1  UNL     1      47.177  54.718  11.849  1.00  0.00     0.169 HD
HETATM    5  C2  UNL     1      48.262  54.055  10.222  1.00  0.00     0.063 A 
HETATM    6  C3  UNL     1      47.373  53.056   9.872  1.00  0.00     0.040 A 
HETATM    7  C4  UNL     1      47.601  52.237   8.789  1.00  0.00    -0.028 A 
HETATM    8  C10 UNL     1      48.751  52.446   8.059  1.00  0.00     0.011 A 
HETATM    9  C11 UNL     1      49.659  53.446   8.395  1.00  0.00     0.033 A 
HETATM   10  C12 UNL     1      49.396  54.246   9.487  1.00  0.00     0.066 A 
HETATM   11  N3  UNL     1      50.270  55.228   9.831  1.00  0.00    -0.315 N 
HETATM   12  C13 UNL     1      51.440  55.612   9.275  1.00  0.00     0.098 A 
HETATM   13  C14 UNL     1      51.976  56.668   9.982  1.00  0.00     0.020 A 
HETATM   14  C15 UNL     1      51.085  56.923  11.003  1.00  0.00     0.037 A 
HETATM   15  C16 UNL     1      50.043  56.024  10.889  1.00  0.00     0.107 A 
ENDROOT
BRANCH   7  16
HETATM   16  C5  UNL     1      46.696  51.145   8.351  1.00  0.00     0.311 C 
BRANCH  16  17
HETATM   17  N2  UNL     1      45.331  51.324   8.744  1.00  0.00     0.092 N 
HETATM   18  C6  UNL     1      44.676  52.073   7.660  1.00  0.00     0.273 C 
HETATM   19  C7  UNL     1      44.742  51.078   6.529  1.00  0.00     0.032 C 
HETATM   20  C8  UNL     1      44.632  49.719   7.186  1.00  0.00     0.032 C 
HETATM   21  C9  UNL     1      44.603  50.060   8.657  1.00  0.00     0.273 C 
ENDBRANCH  16  17
ENDBRANCH   7  16
TORSDOF 2
ENDMDL
