MODEL 7
REMARK VINA RESULT: -8.402873067      3.129      4.537
REMARK  2 active torsions:
REMARK  status: ('A' for Active; 'I' for Inactive)
REMARK    1  A    between atoms: C4_7  and  C5_8 
REMARK    2  A    between atoms: C5_8  and  N2_9 
ROOT
HETATM    1  O1  UNL     1      52.066  57.532   9.996  1.00  0.00    -0.266 OA
HETATM    2  C1  UNL     1      51.437  56.465   9.733  1.00  0.00     0.273 A 
HETATM    3  N1  UNL     1      51.847  55.664   8.727  1.00  0.00    -0.320 N 
ATOM      4  H1  UNL     1      52.666  55.921   8.176  1.00  0.00     0.169 HD
HETATM    5  C2  UNL     1      51.174  54.518   8.443  1.00  0.00     0.063 A 
HETATM    6  C3  UNL     1      51.587  53.692   7.415  1.00  0.00     0.040 A 
HETATM    7  C4  UNL     1      50.916  52.528   7.114  1.00  0.00    -0.028 A 
HETATM    8  C10 UNL     1      49.813  52.209   7.877  1.00  0.00     0.011 A 
HETATM    9  C11 UNL     1      49.381  53.027   8.918  1.00  0.00     0.033 A 
HETATM   10  C12 UNL     1      50.079  54.185   9.188  1.00  0.00     0.066 A 
HETATM   11  N3  UNL     1      49.675  54.998  10.200  1.00  0.00    -0.315 N 
HETATM   12  C13 UNL     1      48.643  54.891  11.065  1.00  0.00     0.098 A 
HETATM   13  C14 UNL     1      48.633  55.971  11.924  1.00  0.00     0.020 A 
HETATM   14  C15 UNL     1      49.707  56.753  11.552  1.00  0.00     0.037 A 
HETATM   15  C16 UNL     1      50.332  56.132  10.489  1.00  0.00     0.107 A 
ENDROOT
BRANCH   7  16
HETATM   16  C5  UNL     1      51.296  51.592   6.027  1.00  0.00     0.311 C 
BRANCH  16  17
HETATM   17  N2  UNL     1      50.504  51.719   4.842  1.00  0.00     0.092 N 
HETATM   18  C6  UNL     1      51.417  51.531   3.704  1.00  0.00     0.273 C 
HETATM   19  C7  UNL     1      51.819  50.089   3.881  1.00  0.00     0.032 C 
HETATM   20  C8  UNL     1      50.607  49.407   4.479  1.00  0.00     0.032 C 
HETATM   21  C9  UNL     1      49.642  50.551   4.674  1.00  0.00     0.273 C 
ENDBRANCH  16  17
ENDBRANCH   7  16
TORSDOF 2
ENDMDL
