MODEL 11
REMARK VINA RESULT: -7.475700560      2.151      6.781
REMARK  2 active torsions:
REMARK  status: ('A' for Active; 'I' for Inactive)
REMARK    1  A    between atoms: C4_7  and  C5_8 
REMARK    2  A    between atoms: C5_8  and  N2_9 
ROOT
HETATM    1  O1  UNL     1      43.989  51.070   9.230  1.00  0.00    -0.266 OA
HETATM    2  C1  UNL     1      45.166  51.367   8.869  1.00  0.00     0.273 A 
HETATM    3  N1  UNL     1      45.884  52.271   9.569  1.00  0.00    -0.320 N 
ATOM      4  H1  UNL     1      45.476  52.716  10.391  1.00  0.00     0.169 HD
HETATM    5  C2  UNL     1      47.146  52.592   9.184  1.00  0.00     0.063 A 
HETATM    6  C3  UNL     1      47.889  53.516   9.894  1.00  0.00     0.040 A 
HETATM    7  C4  UNL     1      49.169  53.852   9.517  1.00  0.00    -0.028 A 
HETATM    8  C10 UNL     1      49.693  53.234   8.402  1.00  0.00     0.011 A 
HETATM    9  C11 UNL     1      48.962  52.300   7.673  1.00  0.00     0.033 A 
HETATM   10  C12 UNL     1      47.682  51.989   8.082  1.00  0.00     0.066 A 
HETATM   11  N3  UNL     1      46.951  51.080   7.384  1.00  0.00    -0.315 N 
HETATM   12  C13 UNL     1      47.250  50.359   6.281  1.00  0.00     0.098 A 
HETATM   13  C14 UNL     1      46.180  49.559   5.935  1.00  0.00     0.020 A 
HETATM   14  C15 UNL     1      45.203  49.817   6.875  1.00  0.00     0.037 A 
HETATM   15  C16 UNL     1      45.703  50.755   7.755  1.00  0.00     0.107 A 
ENDROOT
BRANCH   7  16
HETATM   16  C5  UNL     1      50.028  54.834  10.226  1.00  0.00     0.311 C 
BRANCH  16  17
HETATM   17  N2  UNL     1      50.252  56.047   9.501  1.00  0.00     0.092 N 
HETATM   18  C6  UNL     1      50.042  57.150  10.451  1.00  0.00     0.273 C 
HETATM   19  C7  UNL     1      51.180  56.932  11.416  1.00  0.00     0.032 C 
HETATM   20  C8  UNL     1      52.306  56.361  10.582  1.00  0.00     0.032 C 
HETATM   21  C9  UNL     1      51.674  56.220   9.217  1.00  0.00     0.273 C 
ENDBRANCH  16  17
ENDBRANCH   7  16
TORSDOF 2
ENDMDL
