MODEL 6
REMARK VINA RESULT: -5.253882087      4.634      5.992
REMARK  8 active torsions:
REMARK  status: ('A' for Active; 'I' for Inactive)
REMARK    1  A    between atoms: C2_2  and  C3_3 
REMARK    2  A    between atoms: C3_3  and  C4_4 
REMARK    3  A    between atoms: C4_4  and  C5_5 
REMARK    4  A    between atoms: C6_6  and  C7_7 
REMARK    5  A    between atoms: C10_10  and  C11_11 
REMARK       I    between atoms: C11_11  and  N1_13 
REMARK    6  A    between atoms: N1_13  and  N2_15 
REMARK    7  A    between atoms: N2_15  and  C12_17 
REMARK    8  A    between atoms: C12_17  and  N3_19 
ROOT
HETATM    1  C7  UNL     1       1.595   5.707  14.375  1.00  0.00     0.129 A 
HETATM    2  C8  UNL     1       2.558   5.419  15.298  1.00  0.00     0.050 A 
HETATM    3  C9  UNL     1       3.338   6.524  15.456  1.00  0.00     0.046 A 
HETATM    4  C10 UNL     1       2.827   7.489  14.609  1.00  0.00     0.146 A 
HETATM    5  O2  UNL     1       1.818   6.966  14.005  1.00  0.00    -0.296 OA
ENDROOT
BRANCH   4   6
HETATM    6  C11 UNL     1       3.416   8.816  14.506  1.00  0.00     0.293 C 
HETATM    7  O1  UNL     1       4.676   8.999  14.632  1.00  0.00    -0.264 OA
HETATM    8  N1  UNL     1       2.667  10.011  14.259  1.00  0.00    -0.262 N 
ATOM      9  H1  UNL     1       1.655   9.951  14.154  1.00  0.00     0.190 HD
BRANCH   8  10
HETATM   10  N2  UNL     1       3.284  11.240  14.161  1.00  0.00    -0.274 N 
ATOM     11  H2  UNL     1       4.298  11.249  14.268  1.00  0.00     0.189 HD
BRANCH  10  12
HETATM   12  C12 UNL     1       2.664  12.490  13.927  1.00  0.00     0.186 C 
HETATM   13  S1  UNL     1       3.323  13.866  14.562  1.00  0.00    -0.040 SA
BRANCH  12  14
HETATM   14  N3  UNL     1       1.481  12.592  13.158  1.00  0.00    -0.370 N 
HETATM   15  C13 UNL     1       0.269  13.038  13.819  1.00  0.00     0.148 C 
ATOM     16  H3  UNL     1       1.480  12.359  12.165  1.00  0.00     0.161 HD
ENDBRANCH  12  14
ENDBRANCH  10  12
ENDBRANCH   8  10
ENDBRANCH   4   6
BRANCH   1  17
HETATM   17  C6  UNL     1       0.537   4.839  13.879  1.00  0.00    -0.041 C 
HETATM   18  C5  UNL     1      -0.337   4.127  13.437  1.00  0.00    -0.099 C 
BRANCH  18  19
HETATM   19  C4  UNL     1      -1.383   3.284  12.871  1.00  0.00     0.094 C 
BRANCH  19  20
HETATM   20  C3  UNL     1      -0.859   1.974  12.324  1.00  0.00     0.012 C 
BRANCH  20  21
HETATM   21  C2  UNL     1      -1.127   0.837  13.288  1.00  0.00    -0.004 C 
HETATM   22  C1  UNL     1      -0.057  -0.203  13.093  1.00  0.00     0.005 C 
ENDBRANCH  20  21
ENDBRANCH  19  20
ENDBRANCH  18  19
ENDBRANCH   1  17
TORSDOF 8
ENDMDL
