MODEL 1
REMARK VINA RESULT: -5.424923724      0.000      0.000
REMARK  8 active torsions:
REMARK  status: ('A' for Active; 'I' for Inactive)
REMARK    1  A    between atoms: C2_2  and  C3_3 
REMARK    2  A    between atoms: C3_3  and  C4_4 
REMARK    3  A    between atoms: C4_4  and  C5_5 
REMARK    4  A    between atoms: C6_6  and  C7_7 
REMARK    5  A    between atoms: C10_10  and  C11_11 
REMARK       I    between atoms: C11_11  and  N1_13 
REMARK    6  A    between atoms: N1_13  and  N2_15 
REMARK    7  A    between atoms: N2_15  and  C12_17 
REMARK    8  A    between atoms: C12_17  and  N3_19 
ROOT
HETATM    1  C7  UNL     1       2.031   5.146  14.290  1.00  0.00     0.129 A 
HETATM    2  C8  UNL     1       2.234   5.921  15.393  1.00  0.00     0.050 A 
HETATM    3  C9  UNL     1       3.563   6.214  15.466  1.00  0.00     0.046 A 
HETATM    4  C10 UNL     1       4.159   5.597  14.383  1.00  0.00     0.146 A 
HETATM    5  O2  UNL     1       3.229   4.991  13.732  1.00  0.00    -0.296 OA
ENDROOT
BRANCH   4   6
HETATM    6  C11 UNL     1       5.591   5.689  14.135  1.00  0.00     0.293 C 
HETATM    7  O1  UNL     1       6.057   5.814  12.950  1.00  0.00    -0.264 OA
HETATM    8  N1  UNL     1       6.588   5.651  15.161  1.00  0.00    -0.262 N 
ATOM      9  H1  UNL     1       6.299   5.545  16.133  1.00  0.00     0.190 HD
BRANCH   8  10
HETATM   10  N2  UNL     1       7.931   5.754  14.865  1.00  0.00    -0.274 N 
ATOM     11  H2  UNL     1       8.176   6.333  14.062  1.00  0.00     0.189 HD
BRANCH  10  12
HETATM   12  C12 UNL     1       9.007   5.144  15.553  1.00  0.00     0.186 C 
HETATM   13  S1  UNL     1      10.536   5.747  15.387  1.00  0.00    -0.040 SA
BRANCH  12  14
HETATM   14  N3  UNL     1       8.804   4.018  16.385  1.00  0.00    -0.370 N 
HETATM   15  C13 UNL     1       9.926   3.129  16.622  1.00  0.00     0.148 C 
ATOM     16  H3  UNL     1       7.894   3.836  16.807  1.00  0.00     0.161 HD
ENDBRANCH  12  14
ENDBRANCH  10  12
ENDBRANCH   8  10
ENDBRANCH   4   6
BRANCH   1  17
HETATM   17  C6  UNL     1       0.777   4.587  13.803  1.00  0.00    -0.041 C 
HETATM   18  C5  UNL     1      -0.250   4.110  13.374  1.00  0.00    -0.099 C 
BRANCH  18  19
HETATM   19  C4  UNL     1      -1.468   3.524  12.827  1.00  0.00     0.094 C 
BRANCH  19  20
HETATM   20  C3  UNL     1      -1.249   2.153  12.226  1.00  0.00     0.012 C 
BRANCH  20  21
HETATM   21  C2  UNL     1      -1.155   1.095  13.307  1.00  0.00    -0.004 C 
HETATM   22  C1  UNL     1      -0.118   0.089  12.887  1.00  0.00     0.005 C 
ENDBRANCH  20  21
ENDBRANCH  19  20
ENDBRANCH  18  19
ENDBRANCH   1  17
TORSDOF 8
ENDMDL
