MODEL 6
REMARK VINA RESULT: -6.913328543      2.523      4.824
REMARK  3 active torsions:
REMARK  status: ('A' for Active; 'I' for Inactive)
REMARK    1  A    between atoms: N1_2  and  C2_5 
REMARK    2  A    between atoms: C2_5  and  C4_7 
REMARK    3  A    between atoms: C4_7  and  C5_8 
ROOT
HETATM    1  C4  UNL     1      -5.362  -6.204  18.104  1.00  0.00     0.071 C 
ENDROOT
BRANCH   1   2
HETATM    2  C2  UNL     1      -6.630  -6.635  17.455  1.00  0.00     0.185 C 
HETATM    3  C3  UNL     1      -7.846  -5.916  17.996  1.00  0.00     0.040 C 
BRANCH   2   4
HETATM    4  N1  UNL     1      -6.809  -8.069  17.434  1.00  0.00    -0.075 N 
HETATM    5  C1  UNL     1      -8.178  -8.419  17.029  1.00  0.00     0.267 C 
ATOM      6  H12 UNL     1      -6.559  -8.493  18.327  1.00  0.00     0.277 HD
ATOM      7  H11 UNL     1      -6.113  -8.526  16.845  1.00  0.00     0.277 HD
ENDBRANCH   2   4
ENDBRANCH   1   2
BRANCH   1   8
HETATM    8  C5  UNL     1      -4.437  -5.470  17.247  1.00  0.00    -0.056 A 
HETATM    9  C6  UNL     1      -3.090  -5.756  17.170  1.00  0.00     0.007 A 
HETATM   10  C7  UNL     1      -2.240  -5.027  16.335  1.00  0.00     0.001 A 
HETATM   11  C8  UNL     1      -2.716  -3.999  15.560  1.00  0.00     0.000 A 
HETATM   12  C9  UNL     1      -4.058  -3.707  15.630  1.00  0.00     0.001 A 
HETATM   13  C10 UNL     1      -4.887  -4.434  16.458  1.00  0.00     0.007 A 
ENDBRANCH   1   8
TORSDOF 3
ENDMDL
