MODEL 8
REMARK VINA RESULT: -6.860446182      2.788      5.066
REMARK  3 active torsions:
REMARK  status: ('A' for Active; 'I' for Inactive)
REMARK    1  A    between atoms: N1_2  and  C2_5 
REMARK    2  A    between atoms: C2_5  and  C4_7 
REMARK    3  A    between atoms: C4_7  and  C5_8 
ROOT
HETATM    1  C4  UNL     1      -5.953  -7.225  17.816  1.00  0.00     0.071 C 
ENDROOT
BRANCH   1   2
HETATM    2  C2  UNL     1      -7.233  -7.213  17.056  1.00  0.00     0.185 C 
HETATM    3  C3  UNL     1      -8.346  -6.490  17.782  1.00  0.00     0.040 C 
BRANCH   2   4
HETATM    4  N1  UNL     1      -7.642  -8.518  16.592  1.00  0.00    -0.075 N 
HETATM    5  C1  UNL     1      -9.032  -8.799  16.979  1.00  0.00     0.267 C 
ATOM      6  H12 UNL     1      -7.005  -9.248  16.914  1.00  0.00     0.277 HD
ATOM      7  H11 UNL     1      -7.501  -8.622  15.588  1.00  0.00     0.277 HD
ENDBRANCH   2   4
ENDBRANCH   1   2
BRANCH   1   8
HETATM    8  C5  UNL     1      -5.016  -6.158  17.484  1.00  0.00    -0.056 A 
HETATM    9  C6  UNL     1      -3.718  -6.121  17.950  1.00  0.00     0.007 A 
HETATM   10  C7  UNL     1      -2.852  -5.080  17.606  1.00  0.00     0.001 A 
HETATM   11  C8  UNL     1      -3.264  -4.055  16.790  1.00  0.00     0.000 A 
HETATM   12  C9  UNL     1      -4.557  -4.084  16.321  1.00  0.00     0.001 A 
HETATM   13  C10 UNL     1      -5.401  -5.118  16.668  1.00  0.00     0.007 A 
ENDBRANCH   1   8
TORSDOF 3
ENDMDL
