MODEL 2
REMARK VINA RESULT: -7.525945002      0.040      1.417
REMARK  3 active torsions:
REMARK  status: ('A' for Active; 'I' for Inactive)
REMARK    1  A    between atoms: N1_2  and  C2_5 
REMARK    2  A    between atoms: C2_5  and  C4_7 
REMARK    3  A    between atoms: C4_7  and  C5_8 
ROOT
HETATM    1  C4  UNL     1      -3.475  -3.925  16.941  1.00  0.00     0.071 C 
ENDROOT
BRANCH   1   2
HETATM    2  C2  UNL     1      -3.123  -3.634  15.524  1.00  0.00     0.185 C 
HETATM    3  C3  UNL     1      -1.838  -4.300  15.085  1.00  0.00     0.040 C 
BRANCH   2   4
HETATM    4  N1  UNL     1      -3.145  -2.227  15.201  1.00  0.00    -0.075 N 
HETATM    5  C1  UNL     1      -4.022  -1.491  16.123  1.00  0.00     0.267 C 
ATOM      6  H12 UNL     1      -3.405  -2.068  14.227  1.00  0.00     0.277 HD
ATOM      7  H11 UNL     1      -2.206  -1.831  15.177  1.00  0.00     0.277 HD
ENDBRANCH   2   4
ENDBRANCH   1   2
BRANCH   1   8
HETATM    8  C5  UNL     1      -4.322  -5.093  17.150  1.00  0.00    -0.056 A 
HETATM    9  C6  UNL     1      -5.676  -5.102  16.885  1.00  0.00     0.007 A 
HETATM   10  C7  UNL     1      -6.450  -6.245  17.098  1.00  0.00     0.001 A 
HETATM   11  C8  UNL     1      -5.890  -7.402  17.581  1.00  0.00     0.000 A 
HETATM   12  C9  UNL     1      -4.541  -7.402  17.848  1.00  0.00     0.001 A 
HETATM   13  C10 UNL     1      -3.787  -6.268  17.632  1.00  0.00     0.007 A 
ENDBRANCH   1   8
TORSDOF 3
ENDMDL
