MODEL 4
REMARK VINA RESULT: -6.968256567      0.915      1.770
REMARK  3 active torsions:
REMARK  status: ('A' for Active; 'I' for Inactive)
REMARK    1  A    between atoms: N1_2  and  C2_5 
REMARK    2  A    between atoms: C2_5  and  C4_7 
REMARK    3  A    between atoms: C4_7  and  C5_8 
ROOT
HETATM    1  C4  UNL     1      -4.874  -3.583  16.321  1.00  0.00     0.071 C 
ENDROOT
BRANCH   1   2
HETATM    2  C2  UNL     1      -3.531  -3.099  15.899  1.00  0.00     0.185 C 
HETATM    3  C3  UNL     1      -3.505  -1.618  15.592  1.00  0.00     0.040 C 
BRANCH   2   4
HETATM    4  N1  UNL     1      -2.941  -3.885  14.840  1.00  0.00    -0.075 N 
HETATM    5  C1  UNL     1      -1.523  -4.155  15.117  1.00  0.00     0.267 C 
ATOM      6  H12 UNL     1      -3.070  -3.446  13.928  1.00  0.00     0.277 HD
ATOM      7  H11 UNL     1      -3.463  -4.745  14.673  1.00  0.00     0.277 HD
ENDBRANCH   2   4
ENDBRANCH   1   2
BRANCH   1   8
HETATM    8  C5  UNL     1      -4.909  -4.930  16.878  1.00  0.00    -0.056 A 
HETATM    9  C6  UNL     1      -3.808  -5.544  17.437  1.00  0.00     0.007 A 
HETATM   10  C7  UNL     1      -3.886  -6.837  17.962  1.00  0.00     0.001 A 
HETATM   11  C8  UNL     1      -5.063  -7.543  17.939  1.00  0.00     0.000 A 
HETATM   12  C9  UNL     1      -6.166  -6.937  17.383  1.00  0.00     0.001 A 
HETATM   13  C10 UNL     1      -6.076  -5.661  16.869  1.00  0.00     0.007 A 
ENDBRANCH   1   8
TORSDOF 3
ENDMDL
