MODEL 5
REMARK VINA RESULT: -6.940986842      2.488      5.001
REMARK  3 active torsions:
REMARK  status: ('A' for Active; 'I' for Inactive)
REMARK    1  A    between atoms: N1_2  and  C2_5 
REMARK    2  A    between atoms: C2_5  and  C4_7 
REMARK    3  A    between atoms: C4_7  and  C5_8 
ROOT
HETATM    1  C4  UNL     1      -5.255  -6.084  18.097  1.00  0.00     0.071 C 
ENDROOT
BRANCH   1   2
HETATM    2  C2  UNL     1      -6.532  -6.548  17.488  1.00  0.00     0.185 C 
HETATM    3  C3  UNL     1      -7.746  -5.842  18.049  1.00  0.00     0.040 C 
BRANCH   2   4
HETATM    4  N1  UNL     1      -6.685  -7.985  17.495  1.00  0.00    -0.075 N 
HETATM    5  C1  UNL     1      -8.043  -8.368  17.083  1.00  0.00     0.267 C 
ATOM      6  H12 UNL     1      -6.438  -8.386  18.400  1.00  0.00     0.277 HD
ATOM      7  H11 UNL     1      -5.975  -8.442  16.924  1.00  0.00     0.277 HD
ENDBRANCH   2   4
ENDBRANCH   1   2
BRANCH   1   8
HETATM    8  C5  UNL     1      -4.359  -5.363  17.201  1.00  0.00    -0.056 A 
HETATM    9  C6  UNL     1      -4.786  -4.372  16.342  1.00  0.00     0.007 A 
HETATM   10  C7  UNL     1      -3.892  -3.705  15.501  1.00  0.00     0.001 A 
HETATM   11  C8  UNL     1      -2.554  -4.014  15.498  1.00  0.00     0.000 A 
HETATM   12  C9  UNL     1      -2.120  -5.002  16.351  1.00  0.00     0.001 A 
HETATM   13  C10 UNL     1      -3.012  -5.652  17.177  1.00  0.00     0.007 A 
ENDBRANCH   1   8
TORSDOF 3
ENDMDL
