MODEL 1
REMARK VINA RESULT: -7.533732888      0.000      0.000
REMARK  3 active torsions:
REMARK  status: ('A' for Active; 'I' for Inactive)
REMARK    1  A    between atoms: N1_2  and  C2_5 
REMARK    2  A    between atoms: C2_5  and  C4_7 
REMARK    3  A    between atoms: C4_7  and  C5_8 
ROOT
HETATM    1  C4  UNL     1      -3.484  -3.917  16.953  1.00  0.00     0.071 C 
ENDROOT
BRANCH   1   2
HETATM    2  C2  UNL     1      -3.151  -3.629  15.531  1.00  0.00     0.185 C 
HETATM    3  C3  UNL     1      -1.880  -4.309  15.073  1.00  0.00     0.040 C 
BRANCH   2   4
HETATM    4  N1  UNL     1      -3.163  -2.221  15.209  1.00  0.00    -0.075 N 
HETATM    5  C1  UNL     1      -4.027  -1.479  16.138  1.00  0.00     0.267 C 
ATOM      6  H12 UNL     1      -3.427  -2.060  14.237  1.00  0.00     0.277 HD
ATOM      7  H11 UNL     1      -2.220  -1.834  15.180  1.00  0.00     0.277 HD
ENDBRANCH   2   4
ENDBRANCH   1   2
BRANCH   1   8
HETATM    8  C5  UNL     1      -4.277  -5.121  17.180  1.00  0.00    -0.056 A 
HETATM    9  C6  UNL     1      -3.742  -6.297  17.663  1.00  0.00     0.007 A 
HETATM   10  C7  UNL     1      -4.538  -7.426  17.868  1.00  0.00     0.001 A 
HETATM   11  C8  UNL     1      -5.883  -7.406  17.593  1.00  0.00     0.000 A 
HETATM   12  C9  UNL     1      -6.425  -6.237  17.111  1.00  0.00     0.001 A 
HETATM   13  C10 UNL     1      -5.628  -5.129  16.915  1.00  0.00     0.007 A 
ENDBRANCH   1   8
TORSDOF 3
ENDMDL
