MODEL 5
REMARK VINA RESULT: -7.479951449      1.077      1.305
REMARK  3 active torsions:
REMARK  status: ('A' for Active; 'I' for Inactive)
REMARK    1  A    between atoms: N1_2  and  C2_5 
REMARK    2  A    between atoms: C2_5  and  C4_7 
REMARK    3  A    between atoms: C4_7  and  C5_8 
ROOT
HETATM    1  C5  UNL     1      -5.186  -5.709  17.616  1.00  0.00    -0.053 A 
HETATM    2  C6  UNL     1      -5.130  -7.074  17.552  1.00  0.00     0.010 A 
HETATM    3  C7  UNL     1      -6.289  -7.804  17.402  1.00  0.00     0.040 A 
HETATM    4  C8  UNL     1      -7.520  -7.170  17.315  1.00  0.00     0.105 A 
HETATM    5  C9  UNL     1      -7.553  -5.805  17.382  1.00  0.00     0.105 A 
HETATM    6  C10 UNL     1      -6.403  -5.061  17.532  1.00  0.00     0.047 A 
HETATM    7  O1  UNL     1      -8.899  -5.451  17.269  1.00  0.00    -0.323 OA
HETATM    8  C11 UNL     1      -9.671  -6.594  17.611  1.00  0.00     0.352 C 
HETATM    9  O2  UNL     1      -8.822  -7.638  17.164  1.00  0.00    -0.323 OA
ENDROOT
BRANCH   1  10
HETATM   10  C4  UNL     1      -3.907  -4.944  17.780  1.00  0.00     0.071 C 
BRANCH  10  11
HETATM   11  C2  UNL     1      -3.610  -4.092  16.564  1.00  0.00     0.185 C 
HETATM   12  C3  UNL     1      -2.418  -4.660  15.843  1.00  0.00     0.040 C 
BRANCH  11  13
HETATM   13  N1  UNL     1      -3.462  -2.740  16.971  1.00  0.00    -0.075 N 
HETATM   14  C1  UNL     1      -4.297  -1.806  16.244  1.00  0.00     0.267 C 
ATOM     15  H12 UNL     1      -2.483  -2.458  16.922  1.00  0.00     0.277 HD
ATOM     16  H11 UNL     1      -3.618  -2.651  17.976  1.00  0.00     0.277 HD
ENDBRANCH  11  13
ENDBRANCH  10  11
ENDBRANCH   1  10
TORSDOF 3
ENDMDL
