MODEL 3
REMARK VINA RESULT: -7.751502462      3.438      5.673
REMARK  3 active torsions:
REMARK  status: ('A' for Active; 'I' for Inactive)
REMARK    1  A    between atoms: N1_2  and  C2_5 
REMARK    2  A    between atoms: C2_5  and  C4_7 
REMARK    3  A    between atoms: C4_7  and  C5_8 
ROOT
HETATM    1  C5  UNL     1      -4.755  -5.076  17.267  1.00  0.00    -0.053 A 
HETATM    2  C6  UNL     1      -5.075  -4.283  16.199  1.00  0.00     0.010 A 
HETATM    3  C7  UNL     1      -4.079  -3.789  15.387  1.00  0.00     0.040 A 
HETATM    4  C8  UNL     1      -2.747  -4.084  15.637  1.00  0.00     0.105 A 
HETATM    5  C9  UNL     1      -2.448  -4.876  16.709  1.00  0.00     0.105 A 
HETATM    6  C10 UNL     1      -3.433  -5.379  17.532  1.00  0.00     0.047 A 
HETATM    7  O1  UNL     1      -1.058  -5.001  16.716  1.00  0.00    -0.323 OA
HETATM    8  C11 UNL     1      -0.529  -3.922  15.958  1.00  0.00     0.352 C 
HETATM    9  O2  UNL     1      -1.560  -3.732  15.002  1.00  0.00    -0.323 OA
ENDROOT
BRANCH   1  10
HETATM   10  C4  UNL     1      -5.862  -5.598  18.132  1.00  0.00     0.071 C 
BRANCH  10  11
HETATM   11  C2  UNL     1      -6.964  -6.227  17.304  1.00  0.00     0.185 C 
HETATM   12  C3  UNL     1      -8.296  -5.746  17.810  1.00  0.00     0.040 C 
BRANCH  11  13
HETATM   13  N1  UNL     1      -6.803  -7.637  17.315  1.00  0.00    -0.075 N 
HETATM   14  C1  UNL     1      -7.986  -8.373  16.917  1.00  0.00     0.267 C 
ATOM     15  H12 UNL     1      -6.478  -7.952  18.230  1.00  0.00     0.277 HD
ATOM     16  H11 UNL     1      -6.004  -7.910  16.743  1.00  0.00     0.277 HD
ENDBRANCH  11  13
ENDBRANCH  10  11
ENDBRANCH   1  10
TORSDOF 3
ENDMDL
