MODEL 4
REMARK VINA RESULT: -7.511434221      3.413      5.359
REMARK  3 active torsions:
REMARK  status: ('A' for Active; 'I' for Inactive)
REMARK    1  A    between atoms: N1_2  and  C2_5 
REMARK    2  A    between atoms: C2_5  and  C4_7 
REMARK    3  A    between atoms: C4_7  and  C5_8 
ROOT
HETATM    1  C5  UNL     1      -4.756  -4.916  17.017  1.00  0.00    -0.053 A 
HETATM    2  C6  UNL     1      -3.970  -4.334  16.061  1.00  0.00     0.010 A 
HETATM    3  C7  UNL     1      -2.630  -4.128  16.304  1.00  0.00     0.040 A 
HETATM    4  C8  UNL     1      -2.062  -4.504  17.513  1.00  0.00     0.105 A 
HETATM    5  C9  UNL     1      -2.865  -5.083  18.455  1.00  0.00     0.105 A 
HETATM    6  C10 UNL     1      -4.208  -5.296  18.227  1.00  0.00     0.047 A 
HETATM    7  O1  UNL     1      -2.039  -5.352  19.548  1.00  0.00    -0.323 OA
HETATM    8  C11 UNL     1      -0.895  -4.516  19.432  1.00  0.00     0.352 C 
HETATM    9  O2  UNL     1      -0.770  -4.421  18.023  1.00  0.00    -0.323 OA
ENDROOT
BRANCH   1  10
HETATM   10  C4  UNL     1      -6.210  -5.126  16.722  1.00  0.00     0.071 C 
BRANCH  10  11
HETATM   11  C2  UNL     1      -6.887  -5.931  17.811  1.00  0.00     0.185 C 
HETATM   12  C3  UNL     1      -7.130  -7.329  17.312  1.00  0.00     0.040 C 
BRANCH  11  13
HETATM   13  N1  UNL     1      -8.057  -5.246  18.234  1.00  0.00    -0.075 N 
HETATM   14  C1  UNL     1      -9.295  -5.896  17.858  1.00  0.00     0.267 C 
ATOM     15  H12 UNL     1      -8.045  -4.282  17.901  1.00  0.00     0.277 HD
ATOM     16  H11 UNL     1      -8.031  -5.083  19.241  1.00  0.00     0.277 HD
ENDBRANCH  11  13
ENDBRANCH  10  11
ENDBRANCH   1  10
TORSDOF 3
ENDMDL
