MODEL 1
REMARK VINA RESULT: -7.951775320      0.000      0.000
REMARK  3 active torsions:
REMARK  status: ('A' for Active; 'I' for Inactive)
REMARK    1  A    between atoms: N1_2  and  C2_5 
REMARK    2  A    between atoms: C2_5  and  C4_7 
REMARK    3  A    between atoms: C4_7  and  C5_8 
ROOT
HETATM    1  C5  UNL     1      -4.454  -4.906  17.208  1.00  0.00    -0.053 A 
HETATM    2  C6  UNL     1      -3.990  -6.103  17.680  1.00  0.00     0.010 A 
HETATM    3  C7  UNL     1      -4.840  -7.184  17.766  1.00  0.00     0.040 A 
HETATM    4  C8  UNL     1      -6.168  -7.076  17.379  1.00  0.00     0.105 A 
HETATM    5  C9  UNL     1      -6.611  -5.871  16.911  1.00  0.00     0.105 A 
HETATM    6  C10 UNL     1      -5.773  -4.780  16.819  1.00  0.00     0.047 A 
HETATM    7  O1  UNL     1      -7.960  -6.053  16.603  1.00  0.00    -0.323 OA
HETATM    8  C11 UNL     1      -8.411  -7.194  17.322  1.00  0.00     0.352 C 
HETATM    9  O2  UNL     1      -7.229  -7.977  17.357  1.00  0.00    -0.323 OA
ENDROOT
BRANCH   1  10
HETATM   10  C4  UNL     1      -3.504  -3.750  17.127  1.00  0.00     0.071 C 
BRANCH  10  11
HETATM   11  C2  UNL     1      -3.214  -3.370  15.690  1.00  0.00     0.185 C 
HETATM   12  C3  UNL     1      -1.998  -4.119  15.217  1.00  0.00     0.040 C 
BRANCH  11  13
HETATM   13  N1  UNL     1      -3.107  -1.957  15.597  1.00  0.00    -0.075 N 
HETATM   14  C1  UNL     1      -4.210  -1.238  16.202  1.00  0.00     0.267 C 
ATOM     15  H12 UNL     1      -2.984  -1.671  14.626  1.00  0.00     0.277 HD
ATOM     16  H11 UNL     1      -2.219  -1.640  15.986  1.00  0.00     0.277 HD
ENDBRANCH  11  13
ENDBRANCH  10  11
ENDBRANCH   1  10
TORSDOF 3
ENDMDL
