MODEL 20
REMARK VINA RESULT: -6.679330537      1.093      1.534
REMARK  3 active torsions:
REMARK  status: ('A' for Active; 'I' for Inactive)
REMARK    1  A    between atoms: N1_2  and  C2_5 
REMARK    2  A    between atoms: C2_5  and  C4_7 
REMARK    3  A    between atoms: C4_7  and  C5_8 
ROOT
HETATM    1  C5  UNL     1      -4.320  -4.713  17.259  1.00  0.00    -0.053 A 
HETATM    2  C6  UNL     1      -3.788  -5.892  17.704  1.00  0.00     0.010 A 
HETATM    3  C7  UNL     1      -4.575  -7.021  17.765  1.00  0.00     0.040 A 
HETATM    4  C8  UNL     1      -5.908  -6.979  17.381  1.00  0.00     0.105 A 
HETATM    5  C9  UNL     1      -6.419  -5.790  16.941  1.00  0.00     0.105 A 
HETATM    6  C10 UNL     1      -5.645  -4.652  16.873  1.00  0.00     0.047 A 
HETATM    7  O1  UNL     1      -7.756  -6.042  16.629  1.00  0.00    -0.323 OA
HETATM    8  C11 UNL     1      -8.140  -7.222  17.322  1.00  0.00     0.352 C 
HETATM    9  O2  UNL     1      -6.916  -7.938  17.339  1.00  0.00    -0.323 OA
ENDROOT
BRANCH   1  10
HETATM   10  C4  UNL     1      -3.437  -3.502  17.204  1.00  0.00     0.071 C 
BRANCH  10  11
HETATM   11  C2  UNL     1      -2.678  -3.428  15.895  1.00  0.00     0.185 C 
HETATM   12  C3  UNL     1      -3.546  -3.967  14.791  1.00  0.00     0.040 C 
BRANCH  11  13
HETATM   13  N1  UNL     1      -1.433  -4.094  16.044  1.00  0.00    -0.075 N 
HETATM   14  C1  UNL     1      -0.448  -3.741  15.043  1.00  0.00     0.267 C 
ATOM     15  H12 UNL     1      -1.570  -5.105  16.069  1.00  0.00     0.277 HD
ATOM     16  H11 UNL     1      -1.059  -3.946  16.981  1.00  0.00     0.277 HD
ENDBRANCH  11  13
ENDBRANCH  10  11
ENDBRANCH   1  10
TORSDOF 3
ENDMDL
