MODEL 2
REMARK VINA RESULT: -7.791501479      3.299      5.306
REMARK  3 active torsions:
REMARK  status: ('A' for Active; 'I' for Inactive)
REMARK    1  A    between atoms: N1_2  and  C2_5 
REMARK    2  A    between atoms: C2_5  and  C4_7 
REMARK    3  A    between atoms: C4_7  and  C5_8 
ROOT
HETATM    1  C5  UNL     1      -6.626  -5.783  17.448  1.00  0.00    -0.053 A 
HETATM    2  C6  UNL     1      -6.019  -6.979  17.716  1.00  0.00     0.010 A 
HETATM    3  C7  UNL     1      -4.647  -7.083  17.656  1.00  0.00     0.040 A 
HETATM    4  C8  UNL     1      -3.866  -5.985  17.326  1.00  0.00     0.105 A 
HETATM    5  C9  UNL     1      -4.492  -4.799  17.060  1.00  0.00     0.105 A 
HETATM    6  C10 UNL     1      -5.864  -4.679  17.116  1.00  0.00     0.047 A 
HETATM    7  O1  UNL     1      -3.476  -3.889  16.763  1.00  0.00    -0.323 OA
HETATM    8  C11 UNL     1      -2.327  -4.639  16.394  1.00  0.00     0.352 C 
HETATM    9  O2  UNL     1      -2.493  -5.800  17.192  1.00  0.00    -0.323 OA
ENDROOT
BRANCH   1  10
HETATM   10  C4  UNL     1      -8.121  -5.703  17.521  1.00  0.00     0.071 C 
BRANCH  10  11
HETATM   11  C2  UNL     1      -8.772  -6.930  16.917  1.00  0.00     0.185 C 
HETATM   12  C3  UNL     1      -9.041  -6.678  15.459  1.00  0.00     0.040 C 
BRANCH  11  13
HETATM   13  N1  UNL     1      -9.922  -7.265  17.679  1.00  0.00    -0.075 N 
HETATM   14  C1  UNL     1     -10.669  -6.122  18.161  1.00  0.00     0.267 C 
ATOM     15  H12 UNL     1      -9.671  -7.880  18.453  1.00  0.00     0.277 HD
ATOM     16  H11 UNL     1     -10.531  -7.891  17.151  1.00  0.00     0.277 HD
ENDBRANCH  11  13
ENDBRANCH  10  11
ENDBRANCH   1  10
TORSDOF 3
ENDMDL
