MODEL 12
REMARK VINA RESULT: -7.084052301      1.288      1.805
REMARK  3 active torsions:
REMARK  status: ('A' for Active; 'I' for Inactive)
REMARK    1  A    between atoms: N1_2  and  C2_5 
REMARK    2  A    between atoms: C2_5  and  C4_7 
REMARK    3  A    between atoms: C4_7  and  C5_8 
ROOT
HETATM    1  C5  UNL     1      -4.309  -5.077  17.354  1.00  0.00    -0.053 A 
HETATM    2  C6  UNL     1      -3.961  -6.339  17.752  1.00  0.00     0.010 A 
HETATM    3  C7  UNL     1      -4.908  -7.339  17.772  1.00  0.00     0.040 A 
HETATM    4  C8  UNL     1      -6.218  -7.084  17.393  1.00  0.00     0.105 A 
HETATM    5  C9  UNL     1      -6.545  -5.817  17.000  1.00  0.00     0.105 A 
HETATM    6  C10 UNL     1      -5.609  -4.805  16.973  1.00  0.00     0.047 A 
HETATM    7  O1  UNL     1      -7.904  -5.855  16.682  1.00  0.00    -0.323 OA
HETATM    8  C11 UNL     1      -8.462  -6.990  17.330  1.00  0.00     0.352 C 
HETATM    9  O2  UNL     1      -7.357  -7.880  17.317  1.00  0.00    -0.323 OA
ENDROOT
BRANCH   1  10
HETATM   10  C4  UNL     1      -3.256  -4.011  17.343  1.00  0.00     0.071 C 
BRANCH  10  11
HETATM   11  C2  UNL     1      -1.872  -4.596  17.538  1.00  0.00     0.185 C 
HETATM   12  C3  UNL     1      -1.351  -4.189  18.889  1.00  0.00     0.040 C 
BRANCH  11  13
HETATM   13  N1  UNL     1      -1.049  -4.209  16.448  1.00  0.00    -0.075 N 
HETATM   14  C1  UNL     1      -1.769  -3.976  15.213  1.00  0.00     0.267 C 
ATOM     15  H12 UNL     1      -0.304  -4.891  16.304  1.00  0.00     0.277 HD
ATOM     16  H11 UNL     1      -0.491  -3.391  16.695  1.00  0.00     0.277 HD
ENDBRANCH  11  13
ENDBRANCH  10  11
ENDBRANCH   1  10
TORSDOF 3
ENDMDL
