MODEL 5
REMARK VINA RESULT: -9.076780385      0.955      1.730
REMARK  10 active torsions:
REMARK  status: ('A' for Active; 'I' for Inactive)
REMARK    1  A    between atoms: N5_13  and  C6_14 
REMARK    2  A    between atoms: C7_16  and  C8_17 
REMARK    3  A    between atoms: C8_17  and  O2_18 
REMARK    4  A    between atoms: O2_18  and  P1_19 
REMARK    5  A    between atoms: P1_19  and  O5_22 
REMARK    6  A    between atoms: O5_22  and  P2_23 
REMARK    7  A    between atoms: P2_23  and  O8_26 
REMARK    8  A    between atoms: O8_26  and  P3_27 
REMARK    9  A    between atoms: C9_31  and  O12_32 
REMARK   10  A    between atoms: C10_34  and  O13_35 
ROOT
HETATM    1  C6  UNL     1       0.644 -21.524 -30.268  1.00  0.00     0.159 C 
HETATM    2  O1  UNL     1       0.931 -22.318 -29.144  1.00  0.00    -0.326 OA
HETATM    3  C7  UNL     1       1.901 -23.116 -29.591  1.00  0.00     0.186 C 
HETATM    4  C9  UNL     1       2.390 -22.729 -30.993  1.00  0.00     0.186 C 
HETATM    5  C10 UNL     1       1.975 -21.235 -30.863  1.00  0.00     0.224 C 
ENDROOT
BRANCH   3   6
HETATM    6  C8  UNL     1       3.114 -23.513 -28.853  1.00  0.00     0.216 C 
BRANCH   6   7
HETATM    7  O2  UNL     1       3.254 -22.685 -27.711  1.00  0.00    -0.287 OA
BRANCH   7   8
HETATM    8  P1  UNL     1       4.989 -22.657 -27.528  1.00  0.00     0.417 P 
HETATM    9  O3  UNL     1       5.597 -22.216 -28.760  1.00  0.00    -0.624 OA
HETATM   10  O4  UNL     1       5.149 -21.413 -26.270  1.00  0.00    -0.624 OA
BRANCH   8  11
HETATM   11  O5  UNL     1       5.571 -24.056 -26.823  1.00  0.00    -0.180 OA
BRANCH  11  12
HETATM   12  P2  UNL     1       7.272 -24.160 -27.163  1.00  0.00     0.428 P 
HETATM   13  O6  UNL     1       7.798 -25.265 -26.295  1.00  0.00    -0.624 OA
HETATM   14  O7  UNL     1       8.068 -22.721 -26.918  1.00  0.00    -0.624 OA
BRANCH  12  15
HETATM   15  O8  UNL     1       7.398 -24.656 -28.797  1.00  0.00    -0.173 OA
BRANCH  15  16
HETATM   16  P3  UNL     1       8.891 -24.198 -29.407  1.00  0.00     0.431 P 
HETATM   17  O9  UNL     1       9.993 -24.328 -28.414  1.00  0.00    -0.616 OA
HETATM   18  O10 UNL     1       9.225 -25.205 -30.735  1.00  0.00    -0.616 OA
HETATM   19  O11 UNL     1       8.752 -22.584 -29.915  1.00  0.00    -0.616 OA
ENDBRANCH  15  16
ENDBRANCH  12  15
ENDBRANCH  11  12
ENDBRANCH   8  11
ENDBRANCH   7   8
ENDBRANCH   6   7
ENDBRANCH   3   6
BRANCH   4  20
HETATM   20  O12 UNL     1       1.620 -23.367 -31.912  1.00  0.00    -0.390 OA
ATOM     21  H12 UNL     1       1.896 -23.096 -32.779  1.00  0.00     0.210 HD
ENDBRANCH   4  20
BRANCH   1  22
HETATM   22  N5  UNL     1      -0.324 -20.547 -30.156  1.00  0.00    -0.273 N 
HETATM   23  C3  UNL     1      -1.225 -20.202 -31.090  1.00  0.00     0.146 A 
HETATM   24  N3  UNL     1      -1.308 -20.550 -32.365  1.00  0.00    -0.336 N 
HETATM   25  C4  UNL     1      -2.155 -19.362 -30.573  1.00  0.00     0.120 A 
HETATM   26  C2  UNL     1      -2.311 -20.070 -33.119  1.00  0.00     0.183 A 
ATOM     27  H3  UNL     1      -0.616 -21.179 -32.771  1.00  0.00     0.168 HD
HETATM   28  N2  UNL     1      -3.251 -19.245 -32.622  1.00  0.00    -0.339 N 
HETATM   29  C1  UNL     1      -3.183 -18.881 -31.343  1.00  0.00     0.148 A 
ATOM     30  H2  UNL     1      -4.006 -18.902 -33.218  1.00  0.00     0.167 HD
HETATM   31  N1  UNL     1      -4.249 -18.134 -30.793  1.00  0.00    -0.080 NA
HETATM   32  N4  UNL     1      -1.807 -19.171 -29.286  1.00  0.00    -0.346 N 
HETATM   33  C5  UNL     1      -0.694 -19.889 -29.041  1.00  0.00     0.192 A 
ATOM     34  H4  UNL     1      -2.300 -18.585 -28.613  1.00  0.00     0.167 HD
ENDBRANCH   1  22
BRANCH   5  35
HETATM   35  O13 UNL     1       1.983 -20.823 -32.189  1.00  0.00    -0.385 OA
ATOM     36  H13 UNL     1       2.802 -20.470 -32.517  1.00  0.00     0.210 HD
ENDBRANCH   5  35
TORSDOF 10
ENDMDL
