MODEL 12
REMARK VINA RESULT: -8.758208565      1.233      2.128
REMARK  10 active torsions:
REMARK  status: ('A' for Active; 'I' for Inactive)
REMARK    1  A    between atoms: N5_13  and  C6_14 
REMARK    2  A    between atoms: C7_16  and  C8_17 
REMARK    3  A    between atoms: C8_17  and  O2_18 
REMARK    4  A    between atoms: O2_18  and  P1_19 
REMARK    5  A    between atoms: P1_19  and  O5_22 
REMARK    6  A    between atoms: O5_22  and  P2_23 
REMARK    7  A    between atoms: P2_23  and  O8_26 
REMARK    8  A    between atoms: O8_26  and  P3_27 
REMARK    9  A    between atoms: C9_31  and  O12_32 
REMARK   10  A    between atoms: C10_34  and  O13_35 
ROOT
HETATM    1  C6  UNL     1       0.721 -21.595 -30.249  1.00  0.00     0.159 C 
HETATM    2  O1  UNL     1       0.993 -22.373 -29.111  1.00  0.00    -0.326 OA
HETATM    3  C7  UNL     1       1.950 -23.196 -29.542  1.00  0.00     0.186 C 
HETATM    4  C9  UNL     1       2.447 -22.844 -30.950  1.00  0.00     0.186 C 
HETATM    5  C10 UNL     1       2.057 -21.341 -30.849  1.00  0.00     0.224 C 
ENDROOT
BRANCH   3   6
HETATM    6  C8  UNL     1       3.156 -23.600 -28.795  1.00  0.00     0.216 C 
BRANCH   6   7
HETATM    7  O2  UNL     1       3.411 -22.647 -27.777  1.00  0.00    -0.287 OA
BRANCH   7   8
HETATM    8  P1  UNL     1       5.153 -22.708 -27.691  1.00  0.00     0.417 P 
HETATM    9  O3  UNL     1       5.706 -22.571 -29.016  1.00  0.00    -0.624 OA
HETATM   10  O4  UNL     1       5.467 -21.248 -26.727  1.00  0.00    -0.624 OA
BRANCH   8  11
HETATM   11  O5  UNL     1       5.693 -23.972 -26.741  1.00  0.00    -0.180 OA
BRANCH  11  12
HETATM   12  P2  UNL     1       7.304 -24.378 -27.255  1.00  0.00     0.428 P 
HETATM   13  O6  UNL     1       7.920 -25.136 -26.117  1.00  0.00    -0.624 OA
HETATM   14  O7  UNL     1       8.196 -23.045 -27.692  1.00  0.00    -0.624 OA
BRANCH  12  15
HETATM   15  O8  UNL     1       7.121 -25.449 -28.578  1.00  0.00    -0.173 OA
BRANCH  15  16
HETATM   16  P3  UNL     1       8.401 -26.532 -28.601  1.00  0.00     0.431 P 
HETATM   17  O9  UNL     1       9.694 -25.919 -28.190  1.00  0.00    -0.616 OA
HETATM   18  O10 UNL     1       8.020 -27.788 -27.520  1.00  0.00    -0.616 OA
HETATM   19  O11 UNL     1       8.519 -27.136 -30.183  1.00  0.00    -0.616 OA
ENDBRANCH  15  16
ENDBRANCH  12  15
ENDBRANCH  11  12
ENDBRANCH   8  11
ENDBRANCH   7   8
ENDBRANCH   6   7
ENDBRANCH   3   6
BRANCH   4  20
HETATM   20  O12 UNL     1       1.666 -23.486 -31.857  1.00  0.00    -0.390 OA
ATOM     21  H12 UNL     1       2.049 -24.336 -32.038  1.00  0.00     0.210 HD
ENDBRANCH   4  20
BRANCH   1  22
HETATM   22  N5  UNL     1      -0.231 -20.601 -30.157  1.00  0.00    -0.273 N 
HETATM   23  C3  UNL     1      -1.126 -20.259 -31.097  1.00  0.00     0.146 A 
HETATM   24  N3  UNL     1      -1.216 -20.631 -32.365  1.00  0.00    -0.336 N 
HETATM   25  C4  UNL     1      -2.042 -19.394 -30.597  1.00  0.00     0.120 A 
HETATM   26  C2  UNL     1      -2.211 -20.149 -33.129  1.00  0.00     0.183 A 
ATOM     27  H3  UNL     1      -0.535 -21.279 -32.759  1.00  0.00     0.168 HD
HETATM   28  N2  UNL     1      -3.137 -19.299 -32.648  1.00  0.00    -0.339 N 
HETATM   29  C1  UNL     1      -3.062 -18.911 -31.376  1.00  0.00     0.148 A 
ATOM     30  H2  UNL     1      -3.885 -18.955 -33.250  1.00  0.00     0.167 HD
HETATM   31  N1  UNL     1      -4.115 -18.135 -30.841  1.00  0.00    -0.080 NA
HETATM   32  N4  UNL     1      -1.690 -19.183 -29.314  1.00  0.00    -0.346 N 
HETATM   33  C5  UNL     1      -0.589 -19.914 -29.055  1.00  0.00     0.192 A 
ATOM     34  H4  UNL     1      -2.173 -18.575 -28.653  1.00  0.00     0.167 HD
ENDBRANCH   1  22
BRANCH   5  35
HETATM   35  O13 UNL     1       2.073 -20.954 -32.182  1.00  0.00    -0.385 OA
ATOM     36  H13 UNL     1       2.699 -21.395 -32.744  1.00  0.00     0.210 HD
ENDBRANCH   5  35
TORSDOF 10
ENDMDL
