MODEL 2
REMARK VINA RESULT: -9.295976565      1.607      2.685
REMARK  10 active torsions:
REMARK  status: ('A' for Active; 'I' for Inactive)
REMARK    1  A    between atoms: N5_13  and  C6_14 
REMARK    2  A    between atoms: C7_16  and  C8_17 
REMARK    3  A    between atoms: C8_17  and  O2_18 
REMARK    4  A    between atoms: O2_18  and  P1_19 
REMARK    5  A    between atoms: P1_19  and  O5_22 
REMARK    6  A    between atoms: O5_22  and  P2_23 
REMARK    7  A    between atoms: P2_23  and  O8_26 
REMARK    8  A    between atoms: O8_26  and  P3_27 
REMARK    9  A    between atoms: C9_31  and  O12_32 
REMARK   10  A    between atoms: C10_34  and  O13_35 
ROOT
HETATM    1  C6  UNL     1       0.590 -21.709 -30.939  1.00  0.00     0.159 C 
HETATM    2  O1  UNL     1       1.209 -22.355 -29.856  1.00  0.00    -0.326 OA
HETATM    3  C7  UNL     1       1.989 -23.253 -30.458  1.00  0.00     0.186 C 
HETATM    4  C9  UNL     1       2.021 -23.084 -31.983  1.00  0.00     0.186 C 
HETATM    5  C10 UNL     1       1.672 -21.568 -31.949  1.00  0.00     0.224 C 
ENDROOT
BRANCH   3   6
HETATM    6  C8  UNL     1       3.371 -23.603 -30.078  1.00  0.00     0.216 C 
BRANCH   6   7
HETATM    7  O2  UNL     1       3.405 -23.921 -28.697  1.00  0.00    -0.287 OA
BRANCH   7   8
HETATM    8  P1  UNL     1       4.527 -22.722 -28.107  1.00  0.00     0.417 P 
HETATM    9  O3  UNL     1       5.207 -22.108 -29.221  1.00  0.00    -0.624 OA
HETATM   10  O4  UNL     1       3.393 -21.577 -27.357  1.00  0.00    -0.624 OA
BRANCH   8  11
HETATM   11  O5  UNL     1       5.454 -23.296 -26.841  1.00  0.00    -0.180 OA
BRANCH  11  12
HETATM   12  P2  UNL     1       6.864 -24.059 -27.512  1.00  0.00     0.428 P 
HETATM   13  O6  UNL     1       7.835 -22.952 -27.797  1.00  0.00    -0.624 OA
HETATM   14  O7  UNL     1       6.524 -24.974 -28.858  1.00  0.00    -0.624 OA
BRANCH  12  15
HETATM   15  O8  UNL     1       7.514 -25.033 -26.262  1.00  0.00    -0.173 OA
BRANCH  15  16
HETATM   16  P3  UNL     1       8.709 -26.026 -26.892  1.00  0.00     0.431 P 
HETATM   17  O9  UNL     1       9.554 -25.349 -27.913  1.00  0.00    -0.616 OA
HETATM   18  O10 UNL     1       9.697 -26.512 -25.596  1.00  0.00    -0.616 OA
HETATM   19  O11 UNL     1       7.934 -27.373 -27.576  1.00  0.00    -0.616 OA
ENDBRANCH  15  16
ENDBRANCH  12  15
ENDBRANCH  11  12
ENDBRANCH   8  11
ENDBRANCH   7   8
ENDBRANCH   6   7
ENDBRANCH   3   6
BRANCH   4  20
HETATM   20  O12 UNL     1       1.002 -23.804 -32.519  1.00  0.00    -0.390 OA
ATOM     21  H12 UNL     1       1.294 -24.175 -33.343  1.00  0.00     0.210 HD
ENDBRANCH   4  20
BRANCH   1  22
HETATM   22  N5  UNL     1      -0.292 -20.681 -30.678  1.00  0.00    -0.273 N 
HETATM   23  C3  UNL     1      -1.333 -20.307 -31.439  1.00  0.00     0.146 A 
HETATM   24  N3  UNL     1      -1.670 -20.674 -32.666  1.00  0.00    -0.336 N 
HETATM   25  C4  UNL     1      -2.110 -19.410 -30.783  1.00  0.00     0.120 A 
HETATM   26  C2  UNL     1      -2.771 -20.156 -33.235  1.00  0.00     0.183 A 
ATOM     27  H3  UNL     1      -1.096 -21.346 -33.175  1.00  0.00     0.168 HD
HETATM   28  N2  UNL     1      -3.561 -19.274 -32.597  1.00  0.00    -0.339 N 
HETATM   29  C1  UNL     1      -3.239 -18.890 -31.363  1.00  0.00     0.148 A 
ATOM     30  H2  UNL     1      -4.396 -18.904 -33.052  1.00  0.00     0.167 HD
HETATM   31  N1  UNL     1      -4.147 -18.078 -30.647  1.00  0.00    -0.080 NA
HETATM   32  N4  UNL     1      -1.520 -19.213 -29.588  1.00  0.00    -0.346 N 
HETATM   33  C5  UNL     1      -0.416 -19.983 -29.533  1.00  0.00     0.192 A 
ATOM     34  H4  UNL     1      -1.851 -18.589 -28.853  1.00  0.00     0.167 HD
ENDBRANCH   1  22
BRANCH   5  35
HETATM   35  O13 UNL     1       1.269 -21.341 -33.259  1.00  0.00    -0.385 OA
ATOM     36  H13 UNL     1       1.321 -22.082 -33.851  1.00  0.00     0.210 HD
ENDBRANCH   5  35
TORSDOF 10
ENDMDL
