MODEL 9
REMARK VINA RESULT: -8.943671803      1.642      2.257
REMARK  10 active torsions:
REMARK  status: ('A' for Active; 'I' for Inactive)
REMARK    1  A    between atoms: N5_13  and  C6_14 
REMARK    2  A    between atoms: C7_16  and  C8_17 
REMARK    3  A    between atoms: C8_17  and  O2_18 
REMARK    4  A    between atoms: O2_18  and  P1_19 
REMARK    5  A    between atoms: P1_19  and  O5_22 
REMARK    6  A    between atoms: O5_22  and  P2_23 
REMARK    7  A    between atoms: P2_23  and  O8_26 
REMARK    8  A    between atoms: O8_26  and  P3_27 
REMARK    9  A    between atoms: C9_31  and  O12_32 
REMARK   10  A    between atoms: C10_34  and  O13_35 
ROOT
HETATM    1  C6  UNL     1       0.197 -22.378 -31.825  1.00  0.00     0.159 C 
HETATM    2  O1  UNL     1       0.508 -23.014 -30.611  1.00  0.00    -0.326 OA
HETATM    3  C7  UNL     1       1.637 -23.661 -30.901  1.00  0.00     0.186 C 
HETATM    4  C9  UNL     1       2.183 -23.309 -32.291  1.00  0.00     0.186 C 
HETATM    5  C10 UNL     1       1.510 -21.907 -32.339  1.00  0.00     0.224 C 
ENDROOT
BRANCH   3   6
HETATM    6  C8  UNL     1       2.825 -23.775 -30.035  1.00  0.00     0.216 C 
BRANCH   6   7
HETATM    7  O2  UNL     1       2.545 -23.171 -28.783  1.00  0.00    -0.287 OA
BRANCH   7   8
HETATM    8  P1  UNL     1       4.145 -22.688 -28.280  1.00  0.00     0.417 P 
HETATM    9  O3  UNL     1       4.747 -21.871 -29.305  1.00  0.00    -0.624 OA
HETATM   10  O4  UNL     1       3.739 -21.707 -26.855  1.00  0.00    -0.624 OA
BRANCH   8  11
HETATM   11  O5  UNL     1       5.030 -23.971 -27.678  1.00  0.00    -0.180 OA
BRANCH  11  12
HETATM   12  P2  UNL     1       6.650 -23.413 -27.384  1.00  0.00     0.428 P 
HETATM   13  O6  UNL     1       6.521 -22.254 -26.441  1.00  0.00    -0.624 OA
HETATM   14  O7  UNL     1       7.459 -23.015 -28.780  1.00  0.00    -0.624 OA
BRANCH  12  15
HETATM   15  O8  UNL     1       7.446 -24.687 -26.562  1.00  0.00    -0.173 OA
BRANCH  15  16
HETATM   16  P3  UNL     1       8.191 -25.693 -27.677  1.00  0.00     0.431 P 
HETATM   17  O9  UNL     1       7.393 -25.882 -28.919  1.00  0.00    -0.616 OA
HETATM   18  O10 UNL     1       9.681 -24.981 -28.084  1.00  0.00    -0.616 OA
HETATM   19  O11 UNL     1       8.445 -27.188 -26.913  1.00  0.00    -0.616 OA
ENDBRANCH  15  16
ENDBRANCH  12  15
ENDBRANCH  11  12
ENDBRANCH   8  11
ENDBRANCH   7   8
ENDBRANCH   6   7
ENDBRANCH   3   6
BRANCH   4  20
HETATM   20  O12 UNL     1       1.623 -24.147 -33.201  1.00  0.00    -0.390 OA
ATOM     21  H12 UNL     1       2.302 -24.711 -33.551  1.00  0.00     0.210 HD
ENDBRANCH   4  20
BRANCH   1  22
HETATM   22  N5  UNL     1      -0.929 -21.583 -31.885  1.00  0.00    -0.273 N 
HETATM   23  C3  UNL     1      -1.342 -20.709 -30.953  1.00  0.00     0.146 A 
HETATM   24  N3  UNL     1      -0.914 -20.515 -29.715  1.00  0.00    -0.336 N 
HETATM   25  C4  UNL     1      -2.359 -19.947 -31.426  1.00  0.00     0.120 A 
HETATM   26  C2  UNL     1      -1.490 -19.569 -28.954  1.00  0.00     0.183 A 
ATOM     27  H3  UNL     1      -0.152 -21.080 -29.341  1.00  0.00     0.168 HD
HETATM   28  N2  UNL     1      -2.493 -18.795 -29.409  1.00  0.00    -0.339 N 
HETATM   29  C1  UNL     1      -2.939 -18.976 -30.651  1.00  0.00     0.148 A 
ATOM     30  H2  UNL     1      -2.906 -18.079 -28.811  1.00  0.00     0.167 HD
HETATM   31  N1  UNL     1      -3.890 -18.068 -31.169  1.00  0.00    -0.080 NA
HETATM   32  N4  UNL     1      -2.590 -20.378 -32.682  1.00  0.00    -0.346 N 
HETATM   33  C5  UNL     1      -1.723 -21.372 -32.952  1.00  0.00     0.192 A 
ATOM     34  H4  UNL     1      -3.299 -20.014 -33.318  1.00  0.00     0.167 HD
ENDBRANCH   1  22
BRANCH   5  35
HETATM   35  O13 UNL     1       1.573 -21.609 -33.694  1.00  0.00    -0.385 OA
ATOM     36  H13 UNL     1       2.440 -21.582 -34.081  1.00  0.00     0.210 HD
ENDBRANCH   5  35
TORSDOF 10
ENDMDL
