MODEL 1
REMARK VINA RESULT: -10.584505738      0.000      0.000
REMARK  5 active torsions:
REMARK  status: ('A' for Active; 'I' for Inactive)
REMARK    1  A    between atoms: C6_6  and  C7_7 
REMARK       I    between atoms: C7_7  and  N1_9 
REMARK    2  A    between atoms: C12_14  and  O2_15 
REMARK    3  A    between atoms: C20_26  and  O3_27 
REMARK    4  A    between atoms: O3_27  and  C21_28 
REMARK    5  A    between atoms: C21_28  and  C22_29 
ROOT
HETATM    1  C7  UNL     1      26.257   4.226  36.165  1.00  0.00     0.279 C 
HETATM    2  O1  UNL     1      25.399   5.192  36.163  1.00  0.00    -0.265 OA
HETATM    3  N1  UNL     1      27.592   4.431  35.840  1.00  0.00    -0.272 N 
HETATM    4  C8  UNL     1      28.250   3.179  35.439  1.00  0.00     0.072 A 
HETATM    5  C9  UNL     1      27.553   2.447  34.503  1.00  0.00     0.032 A 
HETATM    6  C10 UNL     1      28.062   1.280  33.997  1.00  0.00     0.005 A 
HETATM    7  C11 UNL     1      29.309   0.865  34.466  1.00  0.00     0.039 A 
HETATM    8  C12 UNL     1      30.030   1.592  35.414  1.00  0.00     0.094 A 
HETATM    9  C13 UNL     1      29.510   2.745  35.905  1.00  0.00     0.093 A 
HETATM   10  N2  UNL     1      30.291   3.430  36.911  1.00  0.00    -0.354 N 
ATOM     11  H2  UNL     1      31.263   3.146  37.023  1.00  0.00     0.166 HD
HETATM   12  C14 UNL     1      29.801   4.492  37.775  1.00  0.00     0.034 C 
HETATM   13  C15 UNL     1      28.949   5.473  37.429  1.00  0.00     0.110 C 
HETATM   14  C16 UNL     1      28.378   5.600  36.010  1.00  0.00     0.080 C 
HETATM   15  C17 UNL     1      28.165   6.903  35.510  1.00  0.00     0.032 A 
HETATM   16  C18 UNL     1      29.155   7.878  35.854  1.00  0.00     0.020 A 
HETATM   17  C19 UNL     1      29.114   9.172  35.472  1.00  0.00     0.038 A 
HETATM   18  C20 UNL     1      28.082   9.636  34.705  1.00  0.00     0.072 A 
HETATM   19  C28 UNL     1      27.109   8.769  34.339  1.00  0.00     0.080 A 
HETATM   20  C29 UNL     1      27.169   7.435  34.743  1.00  0.00     0.131 A 
HETATM   21  F1  UNL     1      26.221   6.662  34.239  1.00  0.00    -0.205 F 
HETATM   22  S1  UNL     1      28.351   6.525  38.617  1.00  0.00     0.180 S 
HETATM   23  O4  UNL     1      28.236   7.957  38.340  1.00  0.00    -0.222 OA
HETATM   24  O5  UNL     1      27.016   5.991  39.207  1.00  0.00    -0.222 OA
HETATM   25  C30 UNL     1      29.423   6.367  40.063  1.00  0.00     0.155 C 
HETATM   26  C31 UNL     1      29.565   4.865  40.243  1.00  0.00    -0.029 C 
HETATM   27  C32 UNL     1      30.350   4.646  41.525  1.00  0.00     0.016 C 
HETATM   28  C33 UNL     1      28.269   4.144  40.382  1.00  0.00     0.016 C 
HETATM   29  C34 UNL     1      30.414   4.365  39.117  1.00  0.00     0.068 C 
ENDROOT
BRANCH   1  30
HETATM   30  C6  UNL     1      25.720   2.917  36.549  1.00  0.00     0.101 A 
HETATM   31  C5  UNL     1      24.474   2.517  36.025  1.00  0.00     0.035 A 
HETATM   32  C4  UNL     1      23.891   1.316  36.329  1.00  0.00     0.004 A 
HETATM   33  C3  UNL     1      24.528   0.437  37.186  1.00  0.00     0.024 A 
HETATM   34  C2  UNL     1      25.754   0.842  37.698  1.00  0.00     0.005 A 
HETATM   35  C1  UNL     1      26.443  -0.098  38.617  1.00  0.00     0.068 C 
HETATM   36  N3  UNL     1      26.278   2.032  37.363  1.00  0.00    -0.356 N 
ATOM     37  H3  UNL     1      27.181   2.276  37.768  1.00  0.00     0.166 HD
ENDBRANCH   1  30
BRANCH   8  38
HETATM   38  O2  UNL     1      31.261   1.195  35.887  1.00  0.00    -0.358 OA
ATOM     39  H2  UNL     1      31.921   1.807  36.191  1.00  0.00     0.217 HD
ENDBRANCH   8  38
BRANCH  18  40
HETATM   40  O3  UNL     1      28.097  10.975  34.344  1.00  0.00    -0.347 OA
BRANCH  40  41
HETATM   41  C21 UNL     1      28.693  11.396  33.145  1.00  0.00     0.214 C 
BRANCH  41  42
HETATM   42  C22 UNL     1      27.834  11.085  31.981  1.00  0.00    -0.034 A 
HETATM   43  C23 UNL     1      28.244  10.196  31.014  1.00  0.00     0.009 A 
HETATM   44  C24 UNL     1      27.429   9.917  29.933  1.00  0.00     0.001 A 
HETATM   45  C25 UNL     1      26.182  10.541  29.818  1.00  0.00     0.000 A 
HETATM   46  C26 UNL     1      25.769  11.430  30.784  1.00  0.00     0.001 A 
HETATM   47  C27 UNL     1      26.606  11.697  31.867  1.00  0.00     0.009 A 
ENDBRANCH  41  42
ENDBRANCH  40  41
ENDBRANCH  18  40
TORSDOF 5
ENDMDL
