MODEL 2
REMARK VINA RESULT: -10.578559538      2.058      3.219
REMARK  5 active torsions:
REMARK  status: ('A' for Active; 'I' for Inactive)
REMARK    1  A    between atoms: C6_6  and  C7_7 
REMARK       I    between atoms: C7_7  and  N1_9 
REMARK    2  A    between atoms: C12_14  and  O2_15 
REMARK    3  A    between atoms: C20_26  and  O3_27 
REMARK    4  A    between atoms: O3_27  and  C21_28 
REMARK    5  A    between atoms: C21_28  and  C22_29 
ROOT
HETATM    1  C7  UNL     1      27.535   4.805  38.877  1.00  0.00     0.279 C 
HETATM    2  O1  UNL     1      27.562   6.028  39.294  1.00  0.00    -0.265 OA
HETATM    3  N1  UNL     1      27.693   4.484  37.535  1.00  0.00    -0.272 N 
HETATM    4  C8  UNL     1      27.157   3.149  37.231  1.00  0.00     0.072 A 
HETATM    5  C9  UNL     1      25.887   2.926  37.713  1.00  0.00     0.032 A 
HETATM    6  C10 UNL     1      25.235   1.745  37.469  1.00  0.00     0.005 A 
HETATM    7  C11 UNL     1      25.910   0.783  36.715  1.00  0.00     0.039 A 
HETATM    8  C12 UNL     1      27.197   0.991  36.218  1.00  0.00     0.094 A 
HETATM    9  C13 UNL     1      27.826   2.166  36.471  1.00  0.00     0.093 A 
HETATM   10  N2  UNL     1      29.172   2.302  35.959  1.00  0.00    -0.354 N 
ATOM     11  H2  UNL     1      29.477   1.626  35.260  1.00  0.00     0.166 HD
HETATM   12  C14 UNL     1      30.123   3.326  36.360  1.00  0.00     0.034 C 
HETATM   13  C15 UNL     1      29.843   4.612  36.632  1.00  0.00     0.110 C 
HETATM   14  C16 UNL     1      28.420   5.180  36.535  1.00  0.00     0.080 C 
HETATM   15  C17 UNL     1      28.283   6.513  36.091  1.00  0.00     0.032 A 
HETATM   16  C18 UNL     1      29.171   6.924  35.048  1.00  0.00     0.020 A 
HETATM   17  C19 UNL     1      29.189   8.160  34.505  1.00  0.00     0.038 A 
HETATM   18  C20 UNL     1      28.322   9.121  34.942  1.00  0.00     0.072 A 
HETATM   19  C28 UNL     1      27.449   8.804  35.927  1.00  0.00     0.080 A 
HETATM   20  C29 UNL     1      27.445   7.521  36.475  1.00  0.00     0.131 A 
HETATM   21  F1  UNL     1      26.482   7.299  37.355  1.00  0.00    -0.205 F 
HETATM   22  S1  UNL     1      31.054   5.623  37.255  1.00  0.00     0.180 S 
HETATM   23  O4  UNL     1      31.185   6.997  36.770  1.00  0.00    -0.222 OA
HETATM   24  O5  UNL     1      31.042   5.609  38.809  1.00  0.00    -0.222 OA
HETATM   25  C30 UNL     1      32.640   4.815  36.942  1.00  0.00     0.155 C 
HETATM   26  C31 UNL     1      32.408   3.381  37.391  1.00  0.00    -0.029 C 
HETATM   27  C32 UNL     1      33.742   2.663  37.282  1.00  0.00     0.016 C 
HETATM   28  C33 UNL     1      31.942   3.252  38.799  1.00  0.00     0.016 C 
HETATM   29  C34 UNL     1      31.488   2.752  36.392  1.00  0.00     0.068 C 
ENDROOT
BRANCH   1  30
HETATM   30  C6  UNL     1      27.345   3.796  39.924  1.00  0.00     0.101 A 
HETATM   31  C5  UNL     1      26.408   4.050  40.945  1.00  0.00     0.035 A 
HETATM   32  C4  UNL     1      26.164   3.170  41.966  1.00  0.00     0.004 A 
HETATM   33  C3  UNL     1      26.854   1.972  42.024  1.00  0.00     0.024 A 
HETATM   34  C2  UNL     1      27.775   1.733  41.012  1.00  0.00     0.005 A 
HETATM   35  C1  UNL     1      28.517   0.449  41.067  1.00  0.00     0.068 C 
HETATM   36  N3  UNL     1      27.971   2.634  40.036  1.00  0.00    -0.356 N 
ATOM     37  H3  UNL     1      28.660   2.403  39.319  1.00  0.00     0.166 HD
ENDBRANCH   1  30
BRANCH   8  38
HETATM   38  O2  UNL     1      27.874   0.051  35.473  1.00  0.00    -0.358 OA
ATOM     39  H2  UNL     1      28.781   0.154  35.212  1.00  0.00     0.217 HD
ENDBRANCH   8  38
BRANCH  18  40
HETATM   40  O3  UNL     1      28.389  10.371  34.344  1.00  0.00    -0.347 OA
BRANCH  40  41
HETATM   41  C21 UNL     1      28.976  10.539  33.081  1.00  0.00     0.214 C 
BRANCH  41  42
HETATM   42  C22 UNL     1      27.951  10.654  32.022  1.00  0.00    -0.034 A 
HETATM   43  C23 UNL     1      26.913  11.551  32.132  1.00  0.00     0.009 A 
HETATM   44  C24 UNL     1      25.963  11.645  31.132  1.00  0.00     0.001 A 
HETATM   45  C25 UNL     1      26.054  10.824  30.002  1.00  0.00     0.000 A 
HETATM   46  C26 UNL     1      27.091   9.927  29.888  1.00  0.00     0.001 A 
HETATM   47  C27 UNL     1      28.039   9.848  30.908  1.00  0.00     0.009 A 
ENDBRANCH  41  42
ENDBRANCH  40  41
ENDBRANCH  18  40
TORSDOF 5
ENDMDL
