MODEL 3
REMARK VINA RESULT: -10.520464450      1.160      1.334
REMARK  5 active torsions:
REMARK  status: ('A' for Active; 'I' for Inactive)
REMARK    1  A    between atoms: C6_6  and  C7_7 
REMARK       I    between atoms: C7_7  and  N1_9 
REMARK    2  A    between atoms: C12_14  and  O2_15 
REMARK    3  A    between atoms: C20_26  and  O3_27 
REMARK    4  A    between atoms: O3_27  and  C21_28 
REMARK    5  A    between atoms: C21_28  and  C22_29 
ROOT
HETATM    1  C7  UNL     1      26.879   3.450  36.746  1.00  0.00     0.279 C 
HETATM    2  O1  UNL     1      26.071   4.389  37.113  1.00  0.00    -0.265 OA
HETATM    3  N1  UNL     1      27.985   3.706  35.945  1.00  0.00    -0.272 N 
HETATM    4  C8  UNL     1      28.458   2.488  35.271  1.00  0.00     0.072 A 
HETATM    5  C9  UNL     1      27.467   1.768  34.642  1.00  0.00     0.032 A 
HETATM    6  C10 UNL     1      27.761   0.634  33.930  1.00  0.00     0.005 A 
HETATM    7  C11 UNL     1      29.099   0.242  33.870  1.00  0.00     0.039 A 
HETATM    8  C12 UNL     1      30.117   0.958  34.501  1.00  0.00     0.094 A 
HETATM    9  C13 UNL     1      29.807   2.077  35.202  1.00  0.00     0.093 A 
HETATM   10  N2  UNL     1      30.903   2.752  35.862  1.00  0.00    -0.354 N 
ATOM     11  H2  UNL     1      31.848   2.493  35.582  1.00  0.00     0.166 HD
HETATM   12  C14 UNL     1      30.765   3.768  36.892  1.00  0.00     0.034 C 
HETATM   13  C15 UNL     1      29.831   4.735  36.939  1.00  0.00     0.110 C 
HETATM   14  C16 UNL     1      28.759   4.892  35.852  1.00  0.00     0.080 C 
HETATM   15  C17 UNL     1      28.351   6.204  35.528  1.00  0.00     0.032 A 
HETATM   16  C18 UNL     1      29.382   7.196  35.509  1.00  0.00     0.020 A 
HETATM   17  C19 UNL     1      29.179   8.501  35.227  1.00  0.00     0.038 A 
HETATM   18  C20 UNL     1      27.926   8.959  34.932  1.00  0.00     0.072 A 
HETATM   19  C28 UNL     1      26.900   8.075  34.929  1.00  0.00     0.080 A 
HETATM   20  C29 UNL     1      27.130   6.731  35.221  1.00  0.00     0.131 A 
HETATM   21  F1  UNL     1      26.072   5.947  35.085  1.00  0.00    -0.205 F 
HETATM   22  S1  UNL     1      29.717   5.727  38.309  1.00  0.00     0.180 S 
HETATM   23  O4  UNL     1      29.483   7.164  38.158  1.00  0.00    -0.222 OA
HETATM   24  O5  UNL     1      28.718   5.134  39.341  1.00  0.00    -0.222 OA
HETATM   25  C30 UNL     1      31.263   5.553  39.228  1.00  0.00     0.155 C 
HETATM   26  C31 UNL     1      31.485   4.051  39.277  1.00  0.00    -0.029 C 
HETATM   27  C32 UNL     1      32.705   3.813  40.151  1.00  0.00     0.016 C 
HETATM   28  C33 UNL     1      30.352   3.287  39.868  1.00  0.00     0.016 C 
HETATM   29  C34 UNL     1      31.847   3.615  37.891  1.00  0.00     0.068 C 
ENDROOT
BRANCH   1  30
HETATM   30  C6  UNL     1      26.549   2.113  37.250  1.00  0.00     0.101 A 
HETATM   31  C5  UNL     1      25.290   1.564  36.936  1.00  0.00     0.035 A 
HETATM   32  C4  UNL     1      24.891   0.325  37.364  1.00  0.00     0.004 A 
HETATM   33  C3  UNL     1      25.740  -0.441  38.143  1.00  0.00     0.024 A 
HETATM   34  C2  UNL     1      26.978   0.111  38.447  1.00  0.00     0.005 A 
HETATM   35  C1  UNL     1      27.893  -0.708  39.281  1.00  0.00     0.068 C 
HETATM   36  N3  UNL     1      27.314   1.330  37.997  1.00  0.00    -0.356 N 
ATOM     37  H3  UNL     1      28.236   1.684  38.252  1.00  0.00     0.166 HD
ENDBRANCH   1  30
BRANCH   8  38
HETATM   38  O2  UNL     1      31.441   0.582  34.450  1.00  0.00    -0.358 OA
ATOM     39  H2  UNL     1      32.150   1.202  34.327  1.00  0.00     0.217 HD
ENDBRANCH   8  38
BRANCH  18  40
HETATM   40  O3  UNL     1      27.782  10.309  34.650  1.00  0.00    -0.347 OA
BRANCH  40  41
HETATM   41  C21 UNL     1      28.490  10.909  33.598  1.00  0.00     0.214 C 
BRANCH  41  42
HETATM   42  C22 UNL     1      27.737  10.830  32.328  1.00  0.00    -0.034 A 
HETATM   43  C23 UNL     1      28.123   9.970  31.326  1.00  0.00     0.009 A 
HETATM   44  C24 UNL     1      27.407   9.909  30.145  1.00  0.00     0.001 A 
HETATM   45  C25 UNL     1      26.284  10.724  29.965  1.00  0.00     0.000 A 
HETATM   46  C26 UNL     1      25.894  11.585  30.966  1.00  0.00     0.001 A 
HETATM   47  C27 UNL     1      26.631  11.631  32.150  1.00  0.00     0.009 A 
ENDBRANCH  41  42
ENDBRANCH  40  41
ENDBRANCH  18  40
TORSDOF 5
ENDMDL
