MODEL 1
REMARK VINA RESULT: -8.211398709      0.000      0.000
REMARK  3 active torsions:
REMARK  status: ('A' for Active; 'I' for Inactive)
REMARK    1  A    between atoms: C2_2  and  C3_4 
REMARK    2  A    between atoms: C6_7  and  N1_8 
REMARK    3  A    between atoms: C8_10  and  C9_11 
ROOT
HETATM    1  C3  UNL     1     -30.900   9.757  21.535  1.00  0.00     0.009 A 
HETATM    2  C4  UNL     1     -32.073  10.259  20.977  1.00  0.00     0.017 A 
HETATM    3  C5  UNL     1     -33.017   9.428  20.433  1.00  0.00     0.031 A 
HETATM    4  C6  UNL     1     -32.817   8.059  20.430  1.00  0.00     0.037 A 
HETATM    5  C12 UNL     1     -31.662   7.515  20.974  1.00  0.00     0.031 A 
HETATM    6  C13 UNL     1     -30.729   8.391  21.516  1.00  0.00     0.017 A 
ENDROOT
BRANCH   4   7
HETATM    7  N1  UNL     1     -33.858   7.253  19.856  1.00  0.00    -0.317 N 
HETATM    8  C7  UNL     1     -34.003   7.017  18.437  1.00  0.00     0.148 C 
HETATM    9  C8  UNL     1     -35.373   6.396  18.331  1.00  0.00     0.114 C 
HETATM   10  C10 UNL     1     -35.484   5.613  19.613  1.00  0.00     0.120 C 
HETATM   11  C11 UNL     1     -34.876   6.577  20.567  1.00  0.00     0.225 C 
HETATM   12  O4  UNL     1     -35.173   6.782  21.759  1.00  0.00    -0.273 OA
BRANCH   9  13
HETATM   13  C9  UNL     1     -35.535   5.576  17.132  1.00  0.00     0.179 C 
HETATM   14  O2  UNL     1     -34.944   4.492  17.010  1.00  0.00    -0.648 OA
HETATM   15  O3  UNL     1     -36.359   6.017  16.115  1.00  0.00    -0.648 OA
ENDBRANCH   9  13
ENDBRANCH   4   7
BRANCH   1  16
HETATM   16  C2  UNL     1     -29.924  10.654  22.106  1.00  0.00     0.155 C 
HETATM   17  C1  UNL     1     -29.955  12.092  21.826  1.00  0.00     0.096 C 
HETATM   18  O1  UNL     1     -29.035  10.187  22.854  1.00  0.00    -0.293 OA
ENDBRANCH   1  16
TORSDOF 3
ENDMDL
