MODEL 2
REMARK VINA RESULT: -8.146448997      0.157      1.135
REMARK  3 active torsions:
REMARK  status: ('A' for Active; 'I' for Inactive)
REMARK    1  A    between atoms: C2_2  and  C3_4 
REMARK    2  A    between atoms: C6_7  and  N1_8 
REMARK    3  A    between atoms: C8_10  and  C9_11 
ROOT
HETATM    1  C3  UNL     1     -30.985   9.914  21.525  1.00  0.00     0.009 A 
HETATM    2  C4  UNL     1     -30.851   8.528  21.498  1.00  0.00     0.017 A 
HETATM    3  C5  UNL     1     -31.821   7.728  20.955  1.00  0.00     0.031 A 
HETATM    4  C6  UNL     1     -32.963   8.291  20.416  1.00  0.00     0.037 A 
HETATM    5  C12 UNL     1     -33.141   9.667  20.421  1.00  0.00     0.031 A 
HETATM    6  C13 UNL     1     -32.134  10.446  20.982  1.00  0.00     0.017 A 
ENDROOT
BRANCH   4   7
HETATM    7  N1  UNL     1     -33.928   7.388  19.852  1.00  0.00    -0.317 N 
HETATM    8  C7  UNL     1     -34.064   7.139  18.434  1.00  0.00     0.148 C 
HETATM    9  C8  UNL     1     -35.369   6.388  18.342  1.00  0.00     0.114 C 
HETATM   10  C10 UNL     1     -35.390   5.598  19.624  1.00  0.00     0.120 C 
HETATM   11  C11 UNL     1     -34.868   6.617  20.573  1.00  0.00     0.225 C 
HETATM   12  O4  UNL     1     -35.171   6.792  21.768  1.00  0.00    -0.273 OA
BRANCH   9  13
HETATM   13  C9  UNL     1     -35.463   5.556  17.144  1.00  0.00     0.179 C 
HETATM   14  O2  UNL     1     -34.898   4.454  17.081  1.00  0.00    -0.648 OA
HETATM   15  O3  UNL     1     -36.194   6.007  16.062  1.00  0.00    -0.648 OA
ENDBRANCH   9  13
ENDBRANCH   4   7
BRANCH   1  16
HETATM   16  C2  UNL     1     -29.946  10.736  22.098  1.00  0.00     0.155 C 
HETATM   17  C1  UNL     1     -29.914  12.185  21.882  1.00  0.00     0.096 C 
HETATM   18  O1  UNL     1     -29.058  10.193  22.794  1.00  0.00    -0.293 OA
ENDBRANCH   1  16
TORSDOF 3
ENDMDL
