MODEL 3
REMARK VINA RESULT: -8.089669122      1.553      2.322
REMARK  3 active torsions:
REMARK  status: ('A' for Active; 'I' for Inactive)
REMARK    1  A    between atoms: C2_2  and  C3_4 
REMARK    2  A    between atoms: C6_7  and  N1_8 
REMARK    3  A    between atoms: C8_10  and  C9_11 
ROOT
HETATM    1  C3  UNL     1     -30.994   9.515  21.529  1.00  0.00     0.009 A 
HETATM    2  C4  UNL     1     -32.229  10.026  21.138  1.00  0.00     0.017 A 
HETATM    3  C5  UNL     1     -33.250   9.202  20.744  1.00  0.00     0.031 A 
HETATM    4  C6  UNL     1     -33.068   7.831  20.730  1.00  0.00     0.037 A 
HETATM    5  C12 UNL     1     -31.854   7.276  21.110  1.00  0.00     0.031 A 
HETATM    6  C13 UNL     1     -30.843   8.146  21.503  1.00  0.00     0.017 A 
ENDROOT
BRANCH   4   7
HETATM    7  N1  UNL     1     -34.190   7.032  20.319  1.00  0.00    -0.317 N 
HETATM    8  C7  UNL     1     -35.446   6.982  21.032  1.00  0.00     0.148 C 
HETATM    9  C8  UNL     1     -36.152   5.808  20.400  1.00  0.00     0.114 C 
HETATM   10  C10 UNL     1     -35.677   5.863  18.972  1.00  0.00     0.120 C 
HETATM   11  C11 UNL     1     -34.243   6.195  19.181  1.00  0.00     0.225 C 
HETATM   12  O4  UNL     1     -33.257   5.829  18.514  1.00  0.00    -0.273 OA
BRANCH   9  13
HETATM   13  C9  UNL     1     -37.606   5.880  20.534  1.00  0.00     0.179 C 
HETATM   14  O2  UNL     1     -38.207   5.209  21.387  1.00  0.00    -0.648 OA
HETATM   15  O3  UNL     1     -38.324   6.708  19.693  1.00  0.00    -0.648 OA
ENDBRANCH   9  13
ENDBRANCH   4   7
BRANCH   1  16
HETATM   16  C2  UNL     1     -29.936  10.405  21.945  1.00  0.00     0.155 C 
HETATM   17  C1  UNL     1     -29.961  11.829  21.603  1.00  0.00     0.096 C 
HETATM   18  O1  UNL     1     -28.981   9.943  22.610  1.00  0.00    -0.293 OA
ENDBRANCH   1  16
TORSDOF 3
ENDMDL
