MODEL 2
REMARK VINA RESULT: -6.280977380      0.998      1.085
REMARK  2 active torsions:
REMARK  status: ('A' for Active; 'I' for Inactive)
REMARK    1  A    between atoms: C2_2  and  C3_3 
REMARK    2  A    between atoms: N1_6  and  C5_7 
ROOT
HETATM    1  C3  UNL     1     -35.958   7.833   9.295  1.00  0.00     0.127 A 
HETATM    2  C4  UNL     1     -34.743   8.051   8.502  1.00  0.00     0.269 A 
HETATM    3  O1  UNL     1     -33.542   8.235   8.905  1.00  0.00    -0.270 OA
HETATM    4  N1  UNL     1     -35.145   8.024   7.140  1.00  0.00    -0.049 N 
HETATM    5  N6  UNL     1     -36.519   7.802   7.115  1.00  0.00    -0.284 N 
ATOM      6  H6  UNL     1     -37.065   7.738   6.255  1.00  0.00     0.187 HD
HETATM    7  C6  UNL     1     -37.022   7.688   8.277  1.00  0.00     0.014 A 
HETATM    8  C7  UNL     1     -38.469   7.438   8.646  1.00  0.00     0.066 C 
ENDROOT
BRANCH   4   9
HETATM    9  C5  UNL     1     -34.226   8.204   6.061  1.00  0.00     0.738 A 
HETATM   10  N2  UNL     1     -34.558   8.748   4.879  1.00  0.00    -0.113 N 
HETATM   11  N3  UNL     1     -33.509   8.778   4.106  1.00  0.00    -0.213 N 
ATOM     12  H2  UNL     1     -35.486   9.085   4.625  1.00  0.00     0.207 HD
HETATM   13  N4  UNL     1     -32.506   8.257   4.786  1.00  0.00    -0.213 N 
ATOM     14  H3  UNL     1     -33.471   9.137   3.153  1.00  0.00     0.210 HD
HETATM   15  N5  UNL     1     -32.926   7.904   5.972  1.00  0.00    -0.113 N 
ATOM     16  H4  UNL     1     -31.553   8.147   4.440  1.00  0.00     0.210 HD
ATOM     17  H5  UNL     1     -32.361   7.474   6.704  1.00  0.00     0.207 HD
ENDBRANCH   4   9
BRANCH   1  18
HETATM   18  C2  UNL     1     -35.794   6.545  10.085  1.00  0.00     0.015 C 
HETATM   19  C1  UNL     1     -35.221   6.710  11.443  1.00  0.00     0.006 C 
ENDBRANCH   1  18
TORSDOF 2
ENDMDL
