MODEL 1
REMARK VINA RESULT: -6.303784699      0.000      0.000
REMARK  2 active torsions:
REMARK  status: ('A' for Active; 'I' for Inactive)
REMARK    1  A    between atoms: C2_2  and  C3_3 
REMARK    2  A    between atoms: N1_6  and  C5_7 
ROOT
HETATM    1  C3  UNL     1     -35.342   7.834  10.360  1.00  0.00     0.127 A 
HETATM    2  C4  UNL     1     -34.265   8.042   9.385  1.00  0.00     0.269 A 
HETATM    3  O1  UNL     1     -33.029   8.296   9.596  1.00  0.00    -0.270 OA
HETATM    4  N1  UNL     1     -34.858   7.909   8.102  1.00  0.00    -0.049 N 
HETATM    5  N6  UNL     1     -36.210   7.637   8.292  1.00  0.00    -0.284 N 
ATOM      6  H6  UNL     1     -36.870   7.496   7.528  1.00  0.00     0.187 HD
HETATM    7  C6  UNL     1     -36.534   7.584   9.520  1.00  0.00     0.014 A 
HETATM    8  C7  UNL     1     -37.900   7.307  10.112  1.00  0.00     0.066 C 
ENDROOT
BRANCH   4   9
HETATM    9  C5  UNL     1     -34.114   8.049   6.890  1.00  0.00     0.738 A 
HETATM   10  N2  UNL     1     -34.618   8.564   5.758  1.00  0.00    -0.113 N 
HETATM   11  N3  UNL     1     -33.699   8.561   4.834  1.00  0.00    -0.213 N 
ATOM     12  H2  UNL     1     -35.572   8.904   5.639  1.00  0.00     0.207 HD
HETATM   13  N4  UNL     1     -32.608   8.048   5.367  1.00  0.00    -0.213 N 
ATOM     14  H3  UNL     1     -33.804   8.893   3.876  1.00  0.00     0.210 HD
HETATM   15  N5  UNL     1     -32.844   7.732   6.613  1.00  0.00    -0.113 N 
ATOM     16  H4  UNL     1     -31.719   7.918   4.883  1.00  0.00     0.210 HD
ATOM     17  H5  UNL     1     -32.177   7.316   7.262  1.00  0.00     0.207 HD
ENDBRANCH   4   9
BRANCH   1  18
HETATM   18  C2  UNL     1     -35.008   6.609  11.195  1.00  0.00     0.015 C 
HETATM   19  C1  UNL     1     -34.955   6.842  12.659  1.00  0.00     0.006 C 
ENDBRANCH   1  18
TORSDOF 2
ENDMDL
