MODEL 3
REMARK VINA RESULT: -5.847140317      1.645      2.257
REMARK  2 active torsions:
REMARK  status: ('A' for Active; 'I' for Inactive)
REMARK    1  A    between atoms: C2_2  and  C3_3 
REMARK    2  A    between atoms: N1_6  and  C5_7 
ROOT
HETATM    1  C3  UNL     1     -35.972   6.305  11.604  1.00  0.00     0.127 A 
HETATM    2  C4  UNL     1     -35.264   7.256  10.740  1.00  0.00     0.269 A 
HETATM    3  O1  UNL     1     -34.403   8.147  11.062  1.00  0.00    -0.270 OA
HETATM    4  N1  UNL     1     -35.720   7.010   9.418  1.00  0.00    -0.049 N 
HETATM    5  N6  UNL     1     -36.647   5.973   9.482  1.00  0.00    -0.284 N 
ATOM      6  H6  UNL     1     -37.131   5.597   8.667  1.00  0.00     0.187 HD
HETATM    7  C6  UNL     1     -36.825   5.544  10.665  1.00  0.00     0.014 A 
HETATM    8  C7  UNL     1     -37.743   4.430  11.124  1.00  0.00     0.066 C 
ENDROOT
BRANCH   4   9
HETATM    9  C5  UNL     1     -35.251   7.751   8.290  1.00  0.00     0.738 A 
HETATM   10  N2  UNL     1     -33.956   8.009   8.049  1.00  0.00    -0.113 N 
HETATM   11  N3  UNL     1     -33.849   8.700   6.950  1.00  0.00    -0.213 N 
ATOM     12  H2  UNL     1     -33.177   7.710   8.636  1.00  0.00     0.207 HD
HETATM   13  N4  UNL     1     -35.067   8.886   6.483  1.00  0.00    -0.213 N 
ATOM     14  H3  UNL     1     -32.983   9.035   6.529  1.00  0.00     0.210 HD
HETATM   15  N5  UNL     1     -35.928   8.317   7.285  1.00  0.00    -0.113 N 
ATOM     16  H4  UNL     1     -35.302   9.394   5.630  1.00  0.00     0.210 HD
ATOM     17  H5  UNL     1     -36.941   8.307   7.166  1.00  0.00     0.207 HD
ENDBRANCH   4   9
BRANCH   1  18
HETATM   18  C2  UNL     1     -34.947   5.392  12.258  1.00  0.00     0.015 C 
HETATM   19  C1  UNL     1     -34.535   5.788  13.626  1.00  0.00     0.006 C 
ENDBRANCH   1  18
TORSDOF 2
ENDMDL
