MODEL 1
REMARK VINA RESULT: -6.844058719      0.000      0.000
REMARK  10 active torsions:
REMARK  status: ('A' for Active; 'I' for Inactive)
REMARK    1  A    between atoms: C2_2  and  C3_3 
REMARK    2  A    between atoms: C3_3  and  C4_4 
REMARK       I    between atoms: C4_4  and  N1_6 
REMARK    3  A    between atoms: N1_6  and  C5_8 
REMARK    4  A    between atoms: N2_10  and  O2_12 
REMARK    5  A    between atoms: O2_12  and  C7_13 
REMARK       I    between atoms: C7_13  and  N3_15 
REMARK    6  A    between atoms: N3_15  and  C8_17 
REMARK    7  A    between atoms: C14_24  and  C15_25 
REMARK    8  A    between atoms: C15_25  and  O5_26 
REMARK    9  A    between atoms: C16_28  and  O6_29 
REMARK   10  A    between atoms: C17_31  and  O7_32 
ROOT
HETATM    1  C5  UNL     1     -14.087 -10.047   6.290  1.00  0.00     0.192 C 
HETATM    2  C6  UNL     1     -14.511  -8.919   5.438  1.00  0.00     0.165 C 
HETATM    3  N2  UNL     1     -13.711  -8.092   4.868  1.00  0.00    -0.236 N 
ATOM      4  H2  UNL     1     -12.705  -8.197   4.995  1.00  0.00     0.197 HD
HETATM    5  O4  UNL     1     -15.874  -8.742   5.240  1.00  0.00    -0.326 OA
HETATM    6  C14 UNL     1     -16.787  -9.763   5.527  1.00  0.00     0.185 C 
HETATM    7  C16 UNL     1     -16.508 -10.481   6.804  1.00  0.00     0.180 C 
HETATM    8  C17 UNL     1     -15.149 -10.218   7.369  1.00  0.00     0.180 C 
ENDROOT
BRANCH   1   9
HETATM    9  N1  UNL     1     -13.901 -11.262   5.535  1.00  0.00    -0.346 N 
HETATM   10  C4  UNL     1     -12.833 -12.172   5.817  1.00  0.00     0.218 C 
HETATM   11  O1  UNL     1     -12.070 -11.852   6.758  1.00  0.00    -0.274 OA
ATOM     12  H1  UNL     1     -14.550 -11.479   4.778  1.00  0.00     0.163 HD
BRANCH  10  13
HETATM   13  C3  UNL     1     -12.606 -13.413   5.081  1.00  0.00     0.102 C 
BRANCH  13  14
HETATM   14  C2  UNL     1     -13.943 -14.087   4.829  1.00  0.00     0.005 C 
HETATM   15  C1  UNL     1     -13.991 -14.594   3.419  1.00  0.00     0.005 C 
ENDBRANCH  13  14
ENDBRANCH  10  13
ENDBRANCH   1   9
BRANCH   3  16
HETATM   16  O2  UNL     1     -14.193  -7.068   4.090  1.00  0.00    -0.179 OA
BRANCH  16  17
HETATM   17  C7  UNL     1     -14.363  -7.272   2.702  1.00  0.00     0.387 C 
HETATM   18  O3  UNL     1     -13.951  -6.341   1.982  1.00  0.00    -0.236 OA
HETATM   19  N3  UNL     1     -14.953  -8.439   2.194  1.00  0.00    -0.301 N 
ATOM     20  H3  UNL     1     -15.260  -9.138   2.869  1.00  0.00     0.171 HD
BRANCH  19  21
HETATM   21  C8  UNL     1     -15.157  -8.727   0.832  1.00  0.00     0.036 A 
HETATM   22  C9  UNL     1     -16.294  -8.384   0.156  1.00  0.00     0.029 A 
HETATM   23  C10 UNL     1     -16.427  -8.724  -1.197  1.00  0.00     0.002 A 
HETATM   24  C11 UNL     1     -15.442  -9.396  -1.876  1.00  0.00     0.000 A 
HETATM   25  C12 UNL     1     -14.298  -9.736  -1.186  1.00  0.00     0.002 A 
HETATM   26  C13 UNL     1     -14.152  -9.414   0.131  1.00  0.00     0.029 A 
ENDBRANCH  19  21
ENDBRANCH  16  17
ENDBRANCH   3  16
BRANCH   8  27
HETATM   27  O7  UNL     1     -15.124  -9.078   8.152  1.00  0.00    -0.390 OA
ATOM     28  H7  UNL     1     -15.546  -8.387   7.655  1.00  0.00     0.210 HD
ENDBRANCH   8  27
BRANCH   6  29
HETATM   29  C15 UNL     1     -18.195  -9.156   5.543  1.00  0.00     0.199 C 
BRANCH  29  30
HETATM   30  O5  UNL     1     -18.240  -8.047   6.369  1.00  0.00    -0.398 OA
ATOM     31  H5  UNL     1     -18.783  -8.216   7.129  1.00  0.00     0.209 HD
ENDBRANCH  29  30
ENDBRANCH   6  29
BRANCH   7  32
HETATM   32  O6  UNL     1     -16.730 -11.859   6.701  1.00  0.00    -0.390 OA
ATOM     33  H6  UNL     1     -17.605 -12.063   6.390  1.00  0.00     0.210 HD
ENDBRANCH   7  32
TORSDOF 10
ENDMDL
