MODEL 2
REMARK VINA RESULT: -6.822946716      0.509      1.043
REMARK  10 active torsions:
REMARK  status: ('A' for Active; 'I' for Inactive)
REMARK    1  A    between atoms: C2_2  and  C3_3 
REMARK    2  A    between atoms: C3_3  and  C4_4 
REMARK       I    between atoms: C4_4  and  N1_6 
REMARK    3  A    between atoms: N1_6  and  C5_8 
REMARK    4  A    between atoms: N2_10  and  O2_12 
REMARK    5  A    between atoms: O2_12  and  C7_13 
REMARK       I    between atoms: C7_13  and  N3_15 
REMARK    6  A    between atoms: N3_15  and  C8_17 
REMARK    7  A    between atoms: C14_24  and  C15_25 
REMARK    8  A    between atoms: C15_25  and  O5_26 
REMARK    9  A    between atoms: C16_28  and  O6_29 
REMARK   10  A    between atoms: C17_31  and  O7_32 
ROOT
HETATM    1  C5  UNL     1     -14.118  -9.991   6.371  1.00  0.00     0.192 C 
HETATM    2  C6  UNL     1     -14.646  -8.942   5.478  1.00  0.00     0.165 C 
HETATM    3  N2  UNL     1     -13.933  -8.043   4.902  1.00  0.00    -0.236 N 
ATOM      4  H2  UNL     1     -12.924  -8.029   5.054  1.00  0.00     0.197 HD
HETATM    5  O4  UNL     1     -16.016  -8.927   5.245  1.00  0.00    -0.326 OA
HETATM    6  C14 UNL     1     -16.813 -10.038   5.541  1.00  0.00     0.185 C 
HETATM    7  C16 UNL     1     -16.486 -10.687   6.843  1.00  0.00     0.180 C 
HETATM    8  C17 UNL     1     -15.180 -10.256   7.430  1.00  0.00     0.180 C 
ENDROOT
BRANCH   1   9
HETATM    9  N1  UNL     1     -13.776 -11.196   5.654  1.00  0.00    -0.346 N 
HETATM   10  C4  UNL     1     -12.561 -11.909   5.910  1.00  0.00     0.218 C 
HETATM   11  O1  UNL     1     -11.814 -11.426   6.791  1.00  0.00    -0.274 OA
ATOM     12  H1  UNL     1     -14.419 -11.549   4.945  1.00  0.00     0.163 HD
BRANCH  10  13
HETATM   13  C3  UNL     1     -12.174 -13.131   5.211  1.00  0.00     0.102 C 
BRANCH  13  14
HETATM   14  C2  UNL     1     -13.405 -13.998   5.014  1.00  0.00     0.005 C 
HETATM   15  C1  UNL     1     -13.639 -14.212   3.549  1.00  0.00     0.005 C 
ENDBRANCH  13  14
ENDBRANCH  10  13
ENDBRANCH   1   9
BRANCH   3  16
HETATM   16  O2  UNL     1     -14.508  -7.101   4.085  1.00  0.00    -0.179 OA
BRANCH  16  17
HETATM   17  C7  UNL     1     -14.548  -7.323   2.690  1.00  0.00     0.387 C 
HETATM   18  O3  UNL     1     -14.022  -6.427   2.002  1.00  0.00    -0.236 OA
HETATM   19  N3  UNL     1     -15.140  -8.471   2.142  1.00  0.00    -0.301 N 
ATOM     20  H3  UNL     1     -15.546  -9.142   2.793  1.00  0.00     0.171 HD
BRANCH  19  21
HETATM   21  C8  UNL     1     -15.220  -8.775   0.771  1.00  0.00     0.036 A 
HETATM   22  C9  UNL     1     -14.209  -9.377   0.076  1.00  0.00     0.029 A 
HETATM   23  C10 UNL     1     -14.361  -9.630  -1.293  1.00  0.00     0.002 A 
HETATM   24  C11 UNL     1     -15.507  -9.291  -1.970  1.00  0.00     0.000 A 
HETATM   25  C12 UNL     1     -16.522  -8.686  -1.260  1.00  0.00     0.002 A 
HETATM   26  C13 UNL     1     -16.389  -8.432   0.073  1.00  0.00     0.029 A 
ENDBRANCH  19  21
ENDBRANCH  16  17
ENDBRANCH   3  16
BRANCH   8  27
HETATM   27  O7  UNL     1     -15.304  -9.101   8.181  1.00  0.00    -0.390 OA
ATOM     28  H7  UNL     1     -15.363  -8.374   7.571  1.00  0.00     0.210 HD
ENDBRANCH   8  27
BRANCH   6  29
HETATM   29  C15 UNL     1     -18.281  -9.597   5.509  1.00  0.00     0.199 C 
BRANCH  29  30
HETATM   30  O5  UNL     1     -18.966 -10.098   6.602  1.00  0.00    -0.398 OA
ATOM     31  H5  UNL     1     -19.854  -9.762   6.624  1.00  0.00     0.209 HD
ENDBRANCH  29  30
ENDBRANCH   6  29
BRANCH   7  32
HETATM   32  O6  UNL     1     -16.547 -12.084   6.774  1.00  0.00    -0.390 OA
ATOM     33  H6  UNL     1     -17.439 -12.405   6.715  1.00  0.00     0.210 HD
ENDBRANCH   7  32
TORSDOF 10
ENDMDL
