MODEL 3
REMARK VINA RESULT: -6.693215276      0.945      1.236
REMARK  10 active torsions:
REMARK  status: ('A' for Active; 'I' for Inactive)
REMARK    1  A    between atoms: C2_2  and  C3_3 
REMARK    2  A    between atoms: C3_3  and  C4_4 
REMARK       I    between atoms: C4_4  and  N1_6 
REMARK    3  A    between atoms: N1_6  and  C5_8 
REMARK    4  A    between atoms: N2_10  and  O2_12 
REMARK    5  A    between atoms: O2_12  and  C7_13 
REMARK       I    between atoms: C7_13  and  N3_15 
REMARK    6  A    between atoms: N3_15  and  C8_17 
REMARK    7  A    between atoms: C14_24  and  C15_25 
REMARK    8  A    between atoms: C15_25  and  O5_26 
REMARK    9  A    between atoms: C16_28  and  O6_29 
REMARK   10  A    between atoms: C17_31  and  O7_32 
ROOT
HETATM    1  C5  UNL     1     -13.823  -9.833   5.883  1.00  0.00     0.192 C 
HETATM    2  C6  UNL     1     -14.450  -8.673   5.219  1.00  0.00     0.165 C 
HETATM    3  N2  UNL     1     -13.808  -7.737   4.620  1.00  0.00    -0.236 N 
ATOM      4  H2  UNL     1     -12.789  -7.770   4.585  1.00  0.00     0.197 HD
HETATM    5  O4  UNL     1     -15.837  -8.592   5.244  1.00  0.00    -0.326 OA
HETATM    6  C14 UNL     1     -16.623  -9.705   5.562  1.00  0.00     0.185 C 
HETATM    7  C16 UNL     1     -16.099 -10.507   6.705  1.00  0.00     0.180 C 
HETATM    8  C17 UNL     1     -14.690 -10.184   7.085  1.00  0.00     0.180 C 
ENDROOT
BRANCH   1   9
HETATM    9  N1  UNL     1     -13.675 -10.958   4.992  1.00  0.00    -0.346 N 
HETATM   10  C4  UNL     1     -12.512 -11.791   5.013  1.00  0.00     0.218 C 
HETATM   11  O1  UNL     1     -11.631 -11.487   5.849  1.00  0.00    -0.274 OA
ATOM     12  H1  UNL     1     -14.422 -11.165   4.328  1.00  0.00     0.163 HD
BRANCH  10  13
HETATM   13  C3  UNL     1     -12.319 -12.940   4.132  1.00  0.00     0.102 C 
BRANCH  13  14
HETATM   14  C2  UNL     1     -13.250 -14.057   4.568  1.00  0.00     0.005 C 
HETATM   15  C1  UNL     1     -13.868 -14.695   3.361  1.00  0.00     0.005 C 
ENDBRANCH  13  14
ENDBRANCH  10  13
ENDBRANCH   1   9
BRANCH   3  16
HETATM   16  O2  UNL     1     -14.473  -6.692   4.028  1.00  0.00    -0.179 OA
BRANCH  16  17
HETATM   17  C7  UNL     1     -14.905  -6.815   2.688  1.00  0.00     0.387 C 
HETATM   18  O3  UNL     1     -14.100  -6.387   1.837  1.00  0.00    -0.236 OA
HETATM   19  N3  UNL     1     -16.147  -7.378   2.361  1.00  0.00    -0.301 N 
ATOM     20  H3  UNL     1     -16.733  -7.694   3.133  1.00  0.00     0.171 HD
BRANCH  19  21
HETATM   21  C8  UNL     1     -16.654  -7.543   1.060  1.00  0.00     0.036 A 
HETATM   22  C9  UNL     1     -17.644  -6.760   0.535  1.00  0.00     0.029 A 
HETATM   23  C10 UNL     1     -18.106  -7.002  -0.765  1.00  0.00     0.002 A 
HETATM   24  C11 UNL     1     -17.592  -8.011  -1.541  1.00  0.00     0.000 A 
HETATM   25  C12 UNL     1     -16.594  -8.795  -1.004  1.00  0.00     0.002 A 
HETATM   26  C13 UNL     1     -16.133  -8.573   0.260  1.00  0.00     0.029 A 
ENDBRANCH  19  21
ENDBRANCH  16  17
ENDBRANCH   3  16
BRANCH   8  27
HETATM   27  O7  UNL     1     -14.620  -9.119   7.964  1.00  0.00    -0.390 OA
ATOM     28  H7  UNL     1     -13.800  -9.199   8.438  1.00  0.00     0.210 HD
ENDBRANCH   8  27
BRANCH   6  29
HETATM   29  C15 UNL     1     -18.048  -9.220   5.847  1.00  0.00     0.199 C 
BRANCH  29  30
HETATM   30  O5  UNL     1     -18.030  -7.978   6.454  1.00  0.00    -0.398 OA
ATOM     31  H5  UNL     1     -18.141  -8.061   7.394  1.00  0.00     0.209 HD
ENDBRANCH  29  30
ENDBRANCH   6  29
BRANCH   7  32
HETATM   32  O6  UNL     1     -16.241 -11.885   6.501  1.00  0.00    -0.390 OA
ATOM     33  H6  UNL     1     -15.563 -12.388   6.937  1.00  0.00     0.210 HD
ENDBRANCH   7  32
TORSDOF 10
ENDMDL
