MODEL 3
REMARK VINA RESULT: -5.339924921      1.560      1.975
REMARK  8 active torsions:
REMARK  status: ('A' for Active; 'I' for Inactive)
REMARK    1  A    between atoms: C2_2  and  C3_3 
REMARK    2  A    between atoms: C3_3  and  C4_4 
REMARK    3  A    between atoms: C4_4  and  C5_5 
REMARK       I    between atoms: C5_5  and  N1_7 
REMARK    4  A    between atoms: N1_7  and  C6_9 
REMARK    5  A    between atoms: C8_15  and  C9_16 
REMARK    6  A    between atoms: C9_16  and  O3_17 
REMARK    7  A    between atoms: C10_19  and  O4_20 
REMARK    8  A    between atoms: C11_22  and  O5_23 
ROOT
HETATM    1  C6  UNL     1      -2.801  18.051  13.313  1.00  0.00     0.190 C 
HETATM    2  C7  UNL     1      -3.992  17.296  12.847  1.00  0.00     0.138 C 
HETATM    3  N2  UNL     1      -4.142  17.085  11.600  1.00  0.00    -0.382 N 
ATOM      4  H21 UNL     1      -4.960  16.567  11.279  1.00  0.00     0.158 HD
ATOM      5  H22 UNL     1      -3.443  17.436  10.946  1.00  0.00     0.158 HD
HETATM    6  O2  UNL     1      -4.941  16.819  13.736  1.00  0.00    -0.327 OA
HETATM    7  C8  UNL     1      -5.247  17.472  14.955  1.00  0.00     0.185 C 
HETATM    8  C10 UNL     1      -4.350  18.687  15.039  1.00  0.00     0.180 C 
HETATM    9  C11 UNL     1      -2.930  18.197  14.808  1.00  0.00     0.180 C 
ENDROOT
BRANCH   1  10
HETATM   10  N1  UNL     1      -1.572  17.526  12.866  1.00  0.00    -0.346 N 
HETATM   11  C5  UNL     1      -0.896  18.031  11.704  1.00  0.00     0.218 C 
HETATM   12  O1  UNL     1      -1.476  18.960  11.130  1.00  0.00    -0.274 OA
ATOM     13  H1  UNL     1      -1.147  16.758  13.387  1.00  0.00     0.163 HD
BRANCH  11  14
HETATM   14  C4  UNL     1       0.381  17.473  11.254  1.00  0.00     0.103 C 
BRANCH  14  15
HETATM   15  C3  UNL     1       0.253  16.519  10.126  1.00  0.00     0.009 C 
BRANCH  15  16
HETATM   16  C2  UNL     1       0.359  17.210   8.811  1.00  0.00    -0.004 C 
HETATM   17  C1  UNL     1      -0.615  16.516   7.852  1.00  0.00     0.005 C 
ENDBRANCH  15  16
ENDBRANCH  14  15
ENDBRANCH  11  14
ENDBRANCH   1  10
BRANCH   9  18
HETATM   18  O5  UNL     1      -2.024  19.142  15.316  1.00  0.00    -0.390 OA
ATOM     19  H5  UNL     1      -2.221  19.367  16.218  1.00  0.00     0.210 HD
ENDBRANCH   9  18
BRANCH   8  20
HETATM   20  O4  UNL     1      -4.489  19.396  16.204  1.00  0.00    -0.390 OA
ATOM     21  H4  UNL     1      -3.850  20.091  16.307  1.00  0.00     0.210 HD
ENDBRANCH   8  20
BRANCH   7  22
HETATM   22  C9  UNL     1      -6.712  17.839  15.030  1.00  0.00     0.199 C 
BRANCH  22  23
HETATM   23  O3  UNL     1      -6.847  19.212  14.802  1.00  0.00    -0.398 OA
ATOM     24  H3  UNL     1      -7.732  19.390  14.506  1.00  0.00     0.209 HD
ENDBRANCH  22  23
ENDBRANCH   7  22
TORSDOF 8
ENDMDL
