MODEL 2
REMARK VINA RESULT: -5.501347708      3.551      4.141
REMARK  8 active torsions:
REMARK  status: ('A' for Active; 'I' for Inactive)
REMARK    1  A    between atoms: C2_2  and  C3_3 
REMARK    2  A    between atoms: C3_3  and  C4_4 
REMARK    3  A    between atoms: C4_4  and  C5_5 
REMARK       I    between atoms: C5_5  and  N1_7 
REMARK    4  A    between atoms: N1_7  and  C6_9 
REMARK    5  A    between atoms: C8_15  and  C9_16 
REMARK    6  A    between atoms: C9_16  and  O3_17 
REMARK    7  A    between atoms: C10_19  and  O4_20 
REMARK    8  A    between atoms: C11_22  and  O5_23 
ROOT
HETATM    1  C6  UNL     1      -4.170  16.569  12.669  1.00  0.00     0.190 C 
HETATM    2  C7  UNL     1      -3.553  17.919  12.646  1.00  0.00     0.138 C 
HETATM    3  N2  UNL     1      -2.386  18.059  12.157  1.00  0.00    -0.382 N 
ATOM      4  H21 UNL     1      -1.961  18.987  12.140  1.00  0.00     0.158 HD
ATOM      5  H22 UNL     1      -1.897  17.243  11.790  1.00  0.00     0.158 HD
HETATM    6  O2  UNL     1      -4.217  19.028  13.144  1.00  0.00    -0.327 OA
HETATM    7  C8  UNL     1      -5.141  18.952  14.216  1.00  0.00     0.185 C 
HETATM    8  C10 UNL     1      -5.221  17.497  14.622  1.00  0.00     0.180 C 
HETATM    9  C11 UNL     1      -5.505  16.706  13.356  1.00  0.00     0.180 C 
ENDROOT
BRANCH   1  10
HETATM   10  N1  UNL     1      -4.204  15.927  11.415  1.00  0.00    -0.346 N 
HETATM   11  C5  UNL     1      -3.947  14.522  11.262  1.00  0.00     0.218 C 
HETATM   12  O1  UNL     1      -3.695  13.924  12.314  1.00  0.00    -0.274 OA
ATOM     13  H1  UNL     1      -4.418  16.480  10.585  1.00  0.00     0.163 HD
BRANCH  11  14
HETATM   14  C4  UNL     1      -3.987  13.871   9.951  1.00  0.00     0.103 C 
BRANCH  14  15
HETATM   15  C3  UNL     1      -5.113  12.920   9.789  1.00  0.00     0.009 C 
BRANCH  15  16
HETATM   16  C2  UNL     1      -6.428  13.619   9.818  1.00  0.00    -0.004 C 
HETATM   17  C1  UNL     1      -7.023  13.529   8.408  1.00  0.00     0.005 C 
ENDBRANCH  15  16
ENDBRANCH  14  15
ENDBRANCH  11  14
ENDBRANCH   1  10
BRANCH   9  18
HETATM   18  O5  UNL     1      -6.041  15.455  13.699  1.00  0.00    -0.390 OA
ATOM     19  H5  UNL     1      -6.908  15.537  14.080  1.00  0.00     0.210 HD
ENDBRANCH   9  18
BRANCH   8  20
HETATM   20  O4  UNL     1      -6.129  17.253  15.621  1.00  0.00    -0.390 OA
ATOM     21  H4  UNL     1      -5.898  16.517  16.175  1.00  0.00     0.210 HD
ENDBRANCH   8  20
BRANCH   7  22
HETATM   22  C9  UNL     1      -4.723  19.843  15.365  1.00  0.00     0.199 C 
BRANCH  22  23
HETATM   23  O3  UNL     1      -3.832  19.140  16.182  1.00  0.00    -0.398 OA
ATOM     24  H3  UNL     1      -4.314  18.481  16.668  1.00  0.00     0.209 HD
ENDBRANCH  22  23
ENDBRANCH   7  22
TORSDOF 8
ENDMDL
