MODEL 1
REMARK VINA RESULT: -5.698764277      0.000      0.000
REMARK  8 active torsions:
REMARK  status: ('A' for Active; 'I' for Inactive)
REMARK    1  A    between atoms: C2_2  and  C3_3 
REMARK    2  A    between atoms: C3_3  and  C4_4 
REMARK    3  A    between atoms: C4_4  and  C5_5 
REMARK       I    between atoms: C5_5  and  N1_7 
REMARK    4  A    between atoms: N1_7  and  C6_9 
REMARK    5  A    between atoms: C8_15  and  C9_16 
REMARK    6  A    between atoms: C9_16  and  O3_17 
REMARK    7  A    between atoms: C10_19  and  O4_20 
REMARK    8  A    between atoms: C11_22  and  O5_23 
ROOT
HETATM    1  C6  UNL     1      -2.137  18.170  12.244  1.00  0.00     0.190 C 
HETATM    2  C7  UNL     1      -3.530  18.626  12.002  1.00  0.00     0.138 C 
HETATM    3  N2  UNL     1      -3.863  19.005  10.834  1.00  0.00    -0.382 N 
ATOM      4  H21 UNL     1      -4.819  19.319  10.667  1.00  0.00     0.158 HD
ATOM      5  H22 UNL     1      -3.170  18.989  10.086  1.00  0.00     0.158 HD
HETATM    6  O2  UNL     1      -4.472  18.648  13.018  1.00  0.00    -0.327 OA
HETATM    7  C8  UNL     1      -4.132  18.875  14.375  1.00  0.00     0.185 C 
HETATM    8  C10 UNL     1      -2.630  19.049  14.427  1.00  0.00     0.180 C 
HETATM    9  C11 UNL     1      -2.027  17.850  13.714  1.00  0.00     0.180 C 
ENDROOT
BRANCH   1  10
HETATM   10  N1  UNL     1      -1.704  17.149  11.375  1.00  0.00    -0.346 N 
HETATM   11  C5  UNL     1      -0.372  17.109  10.837  1.00  0.00     0.218 C 
HETATM   12  O1  UNL     1       0.360  18.038  11.198  1.00  0.00    -0.274 OA
ATOM     13  H1  UNL     1      -2.360  16.411  11.117  1.00  0.00     0.163 HD
BRANCH  11  14
HETATM   14  C4  UNL     1       0.061  16.040   9.935  1.00  0.00     0.103 C 
BRANCH  14  15
HETATM   15  C3  UNL     1       0.199  16.468   8.523  1.00  0.00     0.009 C 
BRANCH  15  16
HETATM   16  C2  UNL     1      -1.091  16.354   7.788  1.00  0.00    -0.004 C 
HETATM   17  C1  UNL     1      -1.388  17.726   7.172  1.00  0.00     0.005 C 
ENDBRANCH  15  16
ENDBRANCH  14  15
ENDBRANCH  11  14
ENDBRANCH   1  10
BRANCH   9  18
HETATM   18  O5  UNL     1      -0.689  17.697  14.111  1.00  0.00    -0.390 OA
ATOM     19  H5  UNL     1      -0.623  17.337  14.988  1.00  0.00     0.210 HD
ENDBRANCH   9  18
BRANCH   8  20
HETATM   20  O4  UNL     1      -2.139  19.220  15.696  1.00  0.00    -0.390 OA
ATOM     21  H4  UNL     1      -2.058  20.130  15.955  1.00  0.00     0.210 HD
ENDBRANCH   8  20
BRANCH   7  22
HETATM   22  C9  UNL     1      -4.865  20.075  14.931  1.00  0.00     0.199 C 
BRANCH  22  23
HETATM   23  O3  UNL     1      -4.757  20.065  16.325  1.00  0.00    -0.398 OA
ATOM     24  H3  UNL     1      -5.292  20.764  16.681  1.00  0.00     0.209 HD
ENDBRANCH  22  23
ENDBRANCH   7  22
TORSDOF 8
ENDMDL
