MODEL 19
REMARK VINA RESULT: -4.937996732      2.973      6.484
REMARK  8 active torsions:
REMARK  status: ('A' for Active; 'I' for Inactive)
REMARK    1  A    between atoms: C2_2  and  C3_3 
REMARK    2  A    between atoms: C3_3  and  C4_4 
REMARK    3  A    between atoms: C4_4  and  C5_5 
REMARK       I    between atoms: C5_5  and  N1_7 
REMARK    4  A    between atoms: N1_7  and  C6_9 
REMARK    5  A    between atoms: C8_15  and  C9_16 
REMARK    6  A    between atoms: C9_16  and  O3_17 
REMARK    7  A    between atoms: C10_19  and  O4_20 
REMARK    8  A    between atoms: C11_22  and  O5_23 
ROOT
HETATM    1  C6  UNL     1      -3.584  16.561  11.759  1.00  0.00     0.190 C 
HETATM    2  C7  UNL     1      -3.241  17.527  10.685  1.00  0.00     0.138 C 
HETATM    3  N2  UNL     1      -4.150  18.291  10.225  1.00  0.00    -0.382 N 
ATOM      4  H21 UNL     1      -3.915  18.955   9.487  1.00  0.00     0.158 HD
ATOM      5  H22 UNL     1      -5.095  18.227  10.603  1.00  0.00     0.158 HD
HETATM    6  O2  UNL     1      -1.957  17.614  10.172  1.00  0.00    -0.327 OA
HETATM    7  C8  UNL     1      -1.082  16.502  10.100  1.00  0.00     0.185 C 
HETATM    8  C10 UNL     1      -1.825  15.322  10.685  1.00  0.00     0.180 C 
HETATM    9  C11 UNL     1      -2.339  15.762  12.047  1.00  0.00     0.180 C 
ENDROOT
BRANCH   1  10
HETATM   10  N1  UNL     1      -4.196  17.144  12.886  1.00  0.00    -0.346 N 
HETATM   11  C5  UNL     1      -5.269  16.505  13.597  1.00  0.00     0.218 C 
HETATM   12  O1  UNL     1      -5.610  15.407  13.141  1.00  0.00    -0.274 OA
ATOM     13  H1  UNL     1      -3.866  18.053  13.210  1.00  0.00     0.163 HD
BRANCH  11  14
HETATM   14  C4  UNL     1      -5.893  17.125  14.767  1.00  0.00     0.103 C 
BRANCH  14  15
HETATM   15  C3  UNL     1      -7.374  17.050  14.766  1.00  0.00     0.009 C 
BRANCH  15  16
HETATM   16  C2  UNL     1      -7.968  17.971  13.758  1.00  0.00    -0.004 C 
HETATM   17  C1  UNL     1      -7.886  19.390  14.333  1.00  0.00     0.005 C 
ENDBRANCH  15  16
ENDBRANCH  14  15
ENDBRANCH  11  14
ENDBRANCH   1  10
BRANCH   9  18
HETATM   18  O5  UNL     1      -2.620  14.628  12.826  1.00  0.00    -0.390 OA
ATOM     19  H5  UNL     1      -2.698  14.847  13.748  1.00  0.00     0.210 HD
ENDBRANCH   9  18
BRANCH   8  20
HETATM   20  O4  UNL     1      -1.079  14.172  10.741  1.00  0.00    -0.390 OA
ATOM     21  H4  UNL     1      -1.570  13.387  10.530  1.00  0.00     0.210 HD
ENDBRANCH   8  20
BRANCH   7  22
HETATM   22  C9  UNL     1      -0.634  16.245   8.679  1.00  0.00     0.199 C 
BRANCH  22  23
HETATM   23  O3  UNL     1      -1.542  15.375   8.068  1.00  0.00    -0.398 OA
ATOM     24  H3  UNL     1      -1.338  15.317   7.142  1.00  0.00     0.209 HD
ENDBRANCH  22  23
ENDBRANCH   7  22
TORSDOF 8
ENDMDL
