MODEL 2
REMARK VINA RESULT: -7.585793456      2.573      4.275
REMARK  19 active torsions:
REMARK  status: ('A' for Active; 'I' for Inactive)
REMARK    1  A    between atoms: C2_2  and  C3_3 
REMARK    2  A    between atoms: C3_3  and  C4_4 
REMARK    3  A    between atoms: C3_3  and  C15_30 
REMARK    4  A    between atoms: C4_4  and  S1_5 
REMARK    5  A    between atoms: S1_5  and  C5_6 
REMARK    6  A    between atoms: C5_6  and  C6_7 
REMARK    7  A    between atoms: C6_7  and  N1_8 
REMARK    8  A    between atoms: C6_7  and  C12_22 
REMARK       I    between atoms: N1_8  and  C7_10 
REMARK    9  A    between atoms: C7_10  and  C8_12 
REMARK   10  A    between atoms: C8_12  and  C9_13 
REMARK   11  A    between atoms: C9_13  and  C10_14 
REMARK   12  A    between atoms: C10_14  and  N2_15 
REMARK   13  A    between atoms: C10_14  and  C11_19 
REMARK       I    between atoms: C12_22  and  N3_24 
REMARK   14  A    between atoms: N3_24  and  C13_26 
REMARK   15  A    between atoms: C13_26  and  C14_27 
REMARK   16  A    between atoms: C15_30  and  C16_32 
REMARK   17  A    between atoms: C19_35  and  O8_36 
REMARK   18  A    between atoms: O8_36  and  C20_37 
REMARK   19  A    between atoms: C20_37  and  C21_38 
ROOT
HETATM    1  C6  UNL     1      11.118   7.567  25.261  1.00  0.00     0.185 C 
ENDROOT
BRANCH   1   2
HETATM    2  C5  UNL     1      11.642   6.137  25.571  1.00  0.00     0.108 C 
BRANCH   2   3
HETATM    3  S1  UNL     1      10.807   5.049  24.416  1.00  0.00    -0.166 SA
BRANCH   3   4
HETATM    4  C4  UNL     1      10.347   3.456  25.075  1.00  0.00     0.086 C 
BRANCH   4   5
HETATM    5  C3  UNL     1       9.061   3.490  25.903  1.00  0.00     0.069 C 
BRANCH   5   6
HETATM    6  C2  UNL     1       8.150   4.564  25.455  1.00  0.00     0.009 C 
HETATM    7  C1  UNL     1       6.678   4.215  25.501  1.00  0.00     0.006 C 
ENDBRANCH   5   6
BRANCH   5   8
HETATM    8  C15 UNL     1       9.318   3.317  27.312  1.00  0.00     0.166 C 
HETATM    9  O7  UNL     1      10.502   3.618  27.724  1.00  0.00    -0.292 OA
BRANCH   8  10
HETATM   10  C16 UNL     1       8.429   2.846  28.336  1.00  0.00     0.034 A 
HETATM   11  C17 UNL     1       8.452   1.445  28.560  1.00  0.00     0.020 A 
HETATM   12  C18 UNL     1       7.654   0.848  29.490  1.00  0.00     0.039 A 
HETATM   13  C19 UNL     1       6.811   1.655  30.217  1.00  0.00     0.092 A 
HETATM   14  C22 UNL     1       6.768   3.029  30.020  1.00  0.00     0.090 A 
HETATM   15 CL1  UNL     1       5.702   4.073  30.930  1.00  0.00    -0.080 Cl
HETATM   16  C23 UNL     1       7.600   3.622  29.058  1.00  0.00     0.072 A 
HETATM   17 CL2  UNL     1       7.582   5.354  28.863  1.00  0.00    -0.081 Cl
BRANCH  13  18
HETATM   18  O8  UNL     1       5.975   1.116  31.174  1.00  0.00    -0.339 OA
BRANCH  18  19
HETATM   19  C20 UNL     1       6.178   1.155  32.551  1.00  0.00     0.288 C 
BRANCH  19  20
HETATM   20  C21 UNL     1       6.778  -0.108  33.036  1.00  0.00     0.198 C 
HETATM   21  O9  UNL     1       6.891  -1.138  32.347  1.00  0.00    -0.646 OA
HETATM   22  O10 UNL     1       7.243  -0.151  34.344  1.00  0.00    -0.646 OA
ENDBRANCH  19  20
ENDBRANCH  18  19
ENDBRANCH  13  18
ENDBRANCH   8  10
ENDBRANCH   5   8
ENDBRANCH   4   5
ENDBRANCH   3   4
ENDBRANCH   2   3
ENDBRANCH   1   2
BRANCH   1  23
HETATM   23  N1  UNL     1      10.460   7.411  23.955  1.00  0.00    -0.347 N 
HETATM   24  C7  UNL     1       9.369   8.228  23.596  1.00  0.00     0.218 C 
HETATM   25  O1  UNL     1       8.984   9.096  24.418  1.00  0.00    -0.274 OA
ATOM     26  H1  UNL     1      10.797   6.705  23.301  1.00  0.00     0.163 HD
BRANCH  24  27
HETATM   27  C8  UNL     1       8.658   8.112  22.305  1.00  0.00     0.105 C 
BRANCH  27  28
HETATM   28  C9  UNL     1       9.633   7.712  21.208  1.00  0.00     0.053 C 
BRANCH  28  29
HETATM   29  C10 UNL     1       9.513   8.658  20.037  1.00  0.00     0.283 C 
BRANCH  29  30
HETATM   30  N2  UNL     1       9.463   7.953  18.778  1.00  0.00    -0.065 N 
ATOM     31  H23 UNL     1       9.888   7.029  18.853  1.00  0.00     0.275 HD
ATOM     32  H22 UNL     1       8.510   7.671  18.548  1.00  0.00     0.275 HD
ATOM     33  H21 UNL     1       9.882   8.494  18.021  1.00  0.00     0.275 HD
ENDBRANCH  29  30
BRANCH  29  34
HETATM   34  C11 UNL     1      10.718   9.537  20.050  1.00  0.00     0.204 C 
HETATM   35  O2  UNL     1      11.745   9.228  20.670  1.00  0.00    -0.646 OA
HETATM   36  O3  UNL     1      10.686  10.737  19.341  1.00  0.00    -0.646 OA
ENDBRANCH  29  34
ENDBRANCH  28  29
ENDBRANCH  27  28
ENDBRANCH  24  27
ENDBRANCH   1  23
BRANCH   1  37
HETATM   37  C12 UNL     1      12.298   8.441  25.043  1.00  0.00     0.241 C 
HETATM   38  O4  UNL     1      12.738   8.683  23.871  1.00  0.00    -0.271 OA
HETATM   39  N3  UNL     1      12.994   9.051  26.118  1.00  0.00    -0.349 N 
ATOM     40  H3  UNL     1      12.692   8.903  27.082  1.00  0.00     0.163 HD
BRANCH  39  41
HETATM   41  C13 UNL     1      14.134   9.885  25.828  1.00  0.00     0.235 C 
BRANCH  41  42
HETATM   42  C14 UNL     1      15.363   9.187  26.214  1.00  0.00     0.191 C 
HETATM   43  O5  UNL     1      15.908   8.353  25.470  1.00  0.00    -0.647 OA
HETATM   44  O6  UNL     1      15.928   9.474  27.463  1.00  0.00    -0.647 OA
ENDBRANCH  41  42
ENDBRANCH  39  41
ENDBRANCH   1  37
TORSDOF 19
ENDMDL
