MODEL 3
REMARK VINA RESULT: -7.537175207      2.271      5.026
REMARK  19 active torsions:
REMARK  status: ('A' for Active; 'I' for Inactive)
REMARK    1  A    between atoms: C2_2  and  C3_3 
REMARK    2  A    between atoms: C3_3  and  C4_4 
REMARK    3  A    between atoms: C3_3  and  C15_30 
REMARK    4  A    between atoms: C4_4  and  S1_5 
REMARK    5  A    between atoms: S1_5  and  C5_6 
REMARK    6  A    between atoms: C5_6  and  C6_7 
REMARK    7  A    between atoms: C6_7  and  N1_8 
REMARK    8  A    between atoms: C6_7  and  C12_22 
REMARK       I    between atoms: N1_8  and  C7_10 
REMARK    9  A    between atoms: C7_10  and  C8_12 
REMARK   10  A    between atoms: C8_12  and  C9_13 
REMARK   11  A    between atoms: C9_13  and  C10_14 
REMARK   12  A    between atoms: C10_14  and  N2_15 
REMARK   13  A    between atoms: C10_14  and  C11_19 
REMARK       I    between atoms: C12_22  and  N3_24 
REMARK   14  A    between atoms: N3_24  and  C13_26 
REMARK   15  A    between atoms: C13_26  and  C14_27 
REMARK   16  A    between atoms: C15_30  and  C16_32 
REMARK   17  A    between atoms: C19_35  and  O8_36 
REMARK   18  A    between atoms: O8_36  and  C20_37 
REMARK   19  A    between atoms: C20_37  and  C21_38 
ROOT
HETATM    1  C6  UNL     1      10.336   6.994  25.062  1.00  0.00     0.185 C 
ENDROOT
BRANCH   1   2
HETATM    2  C5  UNL     1      11.072   5.631  24.935  1.00  0.00     0.108 C 
BRANCH   2   3
HETATM    3  S1  UNL     1       9.894   4.508  24.182  1.00  0.00    -0.166 SA
BRANCH   3   4
HETATM    4  C4  UNL     1       9.459   3.091  25.177  1.00  0.00     0.086 C 
BRANCH   4   5
HETATM    5  C3  UNL     1       8.260   3.340  26.096  1.00  0.00     0.069 C 
BRANCH   5   6
HETATM    6  C2  UNL     1       7.377   4.400  25.568  1.00  0.00     0.009 C 
HETATM    7  C1  UNL     1       5.912   4.245  25.916  1.00  0.00     0.006 C 
ENDBRANCH   5   6
BRANCH   5   8
HETATM    8  C15 UNL     1       8.639   3.357  27.488  1.00  0.00     0.166 C 
HETATM    9  O7  UNL     1       9.664   4.074  27.799  1.00  0.00    -0.292 OA
BRANCH   8  10
HETATM   10  C16 UNL     1       8.027   2.674  28.593  1.00  0.00     0.034 A 
HETATM   11  C17 UNL     1       8.346   1.295  28.703  1.00  0.00     0.020 A 
HETATM   12  C18 UNL     1       7.832   0.512  29.693  1.00  0.00     0.039 A 
HETATM   13  C19 UNL     1       6.981   1.103  30.596  1.00  0.00     0.092 A 
HETATM   14  C22 UNL     1       6.652   2.451  30.513  1.00  0.00     0.090 A 
HETATM   15 CL1  UNL     1       5.569   3.223  31.647  1.00  0.00    -0.080 Cl
HETATM   16  C23 UNL     1       7.195   3.239  29.487  1.00  0.00     0.072 A 
HETATM   17 CL2  UNL     1       6.825   4.941  29.429  1.00  0.00    -0.081 Cl
BRANCH  13  18
HETATM   18  O8  UNL     1       6.423   0.368  31.622  1.00  0.00    -0.339 OA
BRANCH  18  19
HETATM   19  C20 UNL     1       6.958  -0.790  32.181  1.00  0.00     0.288 C 
BRANCH  19  20
HETATM   20  C21 UNL     1       6.438  -1.010  33.549  1.00  0.00     0.198 C 
HETATM   21  O9  UNL     1       6.998  -0.605  34.583  1.00  0.00    -0.646 OA
HETATM   22  O10 UNL     1       5.248  -1.712  33.690  1.00  0.00    -0.646 OA
ENDBRANCH  19  20
ENDBRANCH  18  19
ENDBRANCH  13  18
ENDBRANCH   8  10
ENDBRANCH   5   8
ENDBRANCH   4   5
ENDBRANCH   3   4
ENDBRANCH   2   3
ENDBRANCH   1   2
BRANCH   1  23
HETATM   23  N1  UNL     1      11.241   7.932  24.379  1.00  0.00    -0.347 N 
HETATM   24  C7  UNL     1      10.755   9.145  23.851  1.00  0.00     0.218 C 
HETATM   25  O1  UNL     1       9.534   9.405  23.991  1.00  0.00    -0.274 OA
ATOM     26  H1  UNL     1      12.230   7.702  24.286  1.00  0.00     0.163 HD
BRANCH  24  27
HETATM   27  C8  UNL     1      11.609  10.122  23.143  1.00  0.00     0.105 C 
BRANCH  27  28
HETATM   28  C9  UNL     1      12.879   9.444  22.651  1.00  0.00     0.053 C 
BRANCH  28  29
HETATM   29  C10 UNL     1      14.092  10.121  23.242  1.00  0.00     0.283 C 
BRANCH  29  30
HETATM   30  N2  UNL     1      15.012  10.565  22.221  1.00  0.00    -0.065 N 
ATOM     31  H23 UNL     1      15.979  10.377  22.486  1.00  0.00     0.275 HD
ATOM     32  H22 UNL     1      14.956   9.976  21.390  1.00  0.00     0.275 HD
ATOM     33  H21 UNL     1      14.876  11.549  21.987  1.00  0.00     0.275 HD
ENDBRANCH  29  30
BRANCH  29  34
HETATM   34  C11 UNL     1      14.781   9.122  24.110  1.00  0.00     0.204 C 
HETATM   35  O2  UNL     1      15.922   8.715  23.856  1.00  0.00    -0.646 OA
HETATM   36  O3  UNL     1      14.120   8.640  25.239  1.00  0.00    -0.646 OA
ENDBRANCH  29  34
ENDBRANCH  28  29
ENDBRANCH  27  28
ENDBRANCH  24  27
ENDBRANCH   1  23
BRANCH   1  37
HETATM   37  C12 UNL     1      10.336   7.372  26.498  1.00  0.00     0.241 C 
HETATM   38  O4  UNL     1      11.323   7.984  27.025  1.00  0.00    -0.271 OA
HETATM   39  N3  UNL     1       9.244   7.078  27.355  1.00  0.00    -0.349 N 
ATOM     40  H3  UNL     1       8.421   6.593  26.997  1.00  0.00     0.163 HD
BRANCH  39  41
HETATM   41  C13 UNL     1       9.318   7.473  28.740  1.00  0.00     0.235 C 
BRANCH  41  42
HETATM   42  C14 UNL     1       8.084   8.166  29.118  1.00  0.00     0.191 C 
HETATM   43  O5  UNL     1       7.340   8.693  28.273  1.00  0.00    -0.647 OA
HETATM   44  O6  UNL     1       7.745   8.231  30.475  1.00  0.00    -0.647 OA
ENDBRANCH  41  42
ENDBRANCH  39  41
ENDBRANCH   1  37
TORSDOF 19
ENDMDL
