MODEL 1
REMARK VINA RESULT: -7.604294631      0.000      0.000
REMARK  19 active torsions:
REMARK  status: ('A' for Active; 'I' for Inactive)
REMARK    1  A    between atoms: C2_2  and  C3_3 
REMARK    2  A    between atoms: C3_3  and  C4_4 
REMARK    3  A    between atoms: C3_3  and  C15_30 
REMARK    4  A    between atoms: C4_4  and  S1_5 
REMARK    5  A    between atoms: S1_5  and  C5_6 
REMARK    6  A    between atoms: C5_6  and  C6_7 
REMARK    7  A    between atoms: C6_7  and  N1_8 
REMARK    8  A    between atoms: C6_7  and  C12_22 
REMARK       I    between atoms: N1_8  and  C7_10 
REMARK    9  A    between atoms: C7_10  and  C8_12 
REMARK   10  A    between atoms: C8_12  and  C9_13 
REMARK   11  A    between atoms: C9_13  and  C10_14 
REMARK   12  A    between atoms: C10_14  and  N2_15 
REMARK   13  A    between atoms: C10_14  and  C11_19 
REMARK       I    between atoms: C12_22  and  N3_24 
REMARK   14  A    between atoms: N3_24  and  C13_26 
REMARK   15  A    between atoms: C13_26  and  C14_27 
REMARK   16  A    between atoms: C15_30  and  C16_32 
REMARK   17  A    between atoms: C19_35  and  O8_36 
REMARK   18  A    between atoms: O8_36  and  C20_37 
REMARK   19  A    between atoms: C20_37  and  C21_38 
ROOT
HETATM    1  C6  UNL     1      10.884   7.421  25.458  1.00  0.00     0.185 C 
ENDROOT
BRANCH   1   2
HETATM    2  C5  UNL     1      10.650   7.610  26.983  1.00  0.00     0.108 C 
BRANCH   2   3
HETATM    3  S1  UNL     1      10.401   5.964  27.648  1.00  0.00    -0.166 SA
BRANCH   3   4
HETATM    4  C4  UNL     1       8.771   5.653  28.305  1.00  0.00     0.086 C 
BRANCH   4   5
HETATM    5  C3  UNL     1       7.879   4.844  27.360  1.00  0.00     0.069 C 
BRANCH   5   6
HETATM    6  C2  UNL     1       7.635   5.561  26.091  1.00  0.00     0.009 C 
HETATM    7  C1  UNL     1       7.263   4.679  24.919  1.00  0.00     0.006 C 
ENDBRANCH   5   6
BRANCH   5   8
HETATM    8  C15 UNL     1       6.775   4.228  28.052  1.00  0.00     0.166 C 
HETATM    9  O7  UNL     1       5.595   4.649  27.750  1.00  0.00    -0.292 OA
BRANCH   8  10
HETATM   10  C16 UNL     1       6.805   3.196  29.052  1.00  0.00     0.034 A 
HETATM   11  C17 UNL     1       7.334   1.952  28.621  1.00  0.00     0.020 A 
HETATM   12  C18 UNL     1       7.415   0.875  29.452  1.00  0.00     0.039 A 
HETATM   13  C19 UNL     1       6.962   1.029  30.741  1.00  0.00     0.092 A 
HETATM   14  C22 UNL     1       6.441   2.236  31.190  1.00  0.00     0.090 A 
HETATM   15 CL1  UNL     1       5.856   2.454  32.823  1.00  0.00    -0.080 Cl
HETATM   16  C23 UNL     1       6.369   3.333  30.317  1.00  0.00     0.072 A 
HETATM   17 CL2  UNL     1       5.771   4.859  30.910  1.00  0.00    -0.081 Cl
BRANCH  13  18
HETATM   18  O8  UNL     1       7.014  -0.021  31.635  1.00  0.00    -0.339 OA
BRANCH  18  19
HETATM   19  C20 UNL     1       5.934  -0.800  32.042  1.00  0.00     0.288 C 
BRANCH  19  20
HETATM   20  C21 UNL     1       5.995  -1.075  33.495  1.00  0.00     0.198 C 
HETATM   21  O9  UNL     1       6.837  -0.580  34.265  1.00  0.00    -0.646 OA
HETATM   22  O10 UNL     1       5.052  -1.940  34.037  1.00  0.00    -0.646 OA
ENDBRANCH  19  20
ENDBRANCH  18  19
ENDBRANCH  13  18
ENDBRANCH   8  10
ENDBRANCH   5   8
ENDBRANCH   4   5
ENDBRANCH   3   4
ENDBRANCH   2   3
ENDBRANCH   1   2
BRANCH   1  23
HETATM   23  N1  UNL     1      11.333   6.024  25.355  1.00  0.00    -0.347 N 
HETATM   24  C7  UNL     1      10.977   5.234  24.243  1.00  0.00     0.218 C 
HETATM   25  O1  UNL     1      10.278   5.759  23.343  1.00  0.00    -0.274 OA
ATOM     26  H1  UNL     1      11.908   5.623  26.096  1.00  0.00     0.163 HD
BRANCH  24  27
HETATM   27  C8  UNL     1      11.386   3.821  24.088  1.00  0.00     0.105 C 
BRANCH  27  28
HETATM   28  C9  UNL     1      10.162   2.919  24.122  1.00  0.00     0.053 C 
BRANCH  28  29
HETATM   29  C10 UNL     1      10.570   1.504  24.457  1.00  0.00     0.283 C 
BRANCH  29  30
HETATM   30  N2  UNL     1      10.006   0.548  23.532  1.00  0.00    -0.065 N 
ATOM     31  H23 UNL     1       9.381   1.001  22.865  1.00  0.00     0.275 HD
ATOM     32  H22 UNL     1      10.711   0.202  22.881  1.00  0.00     0.275 HD
ATOM     33  H21 UNL     1       9.540  -0.220  24.015  1.00  0.00     0.275 HD
ENDBRANCH  29  30
BRANCH  29  34
HETATM   34  C11 UNL     1      10.060   1.206  25.828  1.00  0.00     0.204 C 
HETATM   35  O2  UNL     1       9.489   0.140  26.094  1.00  0.00    -0.646 OA
HETATM   36  O3  UNL     1      10.237   2.155  26.834  1.00  0.00    -0.646 OA
ENDBRANCH  29  34
ENDBRANCH  28  29
ENDBRANCH  27  28
ENDBRANCH  24  27
ENDBRANCH   1  23
BRANCH   1  37
HETATM   37  C12 UNL     1      12.039   8.270  25.071  1.00  0.00     0.241 C 
HETATM   38  O4  UNL     1      12.320   8.492  23.848  1.00  0.00    -0.271 OA
HETATM   39  N3  UNL     1      12.886   8.876  26.035  1.00  0.00    -0.349 N 
ATOM     40  H3  UNL     1      12.715   8.742  27.032  1.00  0.00     0.163 HD
BRANCH  39  41
HETATM   41  C13 UNL     1      13.991   9.684  25.583  1.00  0.00     0.235 C 
BRANCH  41  42
HETATM   42  C14 UNL     1      15.252   9.074  26.010  1.00  0.00     0.191 C 
HETATM   43  O5  UNL     1      15.844   8.229  25.315  1.00  0.00    -0.647 OA
HETATM   44  O6  UNL     1      15.796   9.459  27.242  1.00  0.00    -0.647 OA
ENDBRANCH  41  42
ENDBRANCH  39  41
ENDBRANCH   1  37
TORSDOF 19
ENDMDL
