MODEL 1
REMARK VINA RESULT: -9.023721100      0.000      0.000
REMARK  13 active torsions:
REMARK  status: ('A' for Active; 'I' for Inactive)
REMARK    1  A    between atoms: N1_1  and  C1_5 
REMARK    2  A    between atoms: C1_5  and  C2_6 
REMARK    3  A    between atoms: C1_5  and  C24_39 
REMARK    4  A    between atoms: C2_6  and  C3_7 
REMARK    5  A    between atoms: C3_7  and  C4_8 
REMARK       I    between atoms: C4_8  and  N2_10 
REMARK    6  A    between atoms: N2_10  and  C5_12 
REMARK    7  A    between atoms: C5_12  and  C6_13 
REMARK    8  A    between atoms: C5_12  and  C21_31 
REMARK    9  A    between atoms: C6_13  and  S1_14 
REMARK   10  A    between atoms: S1_14  and  C7_15 
REMARK   11  A    between atoms: C20_28  and  O2_29 
REMARK       I    between atoms: C21_31  and  N3_33 
REMARK   12  A    between atoms: N3_33  and  C22_35 
REMARK   13  A    between atoms: C22_35  and  C23_36 
ROOT
HETATM    1  C5  UNL     1      16.986  16.889  29.117  1.00  0.00     0.185 C 
ENDROOT
BRANCH   1   2
HETATM    2  N2  UNL     1      16.661  16.224  30.393  1.00  0.00    -0.347 N 
HETATM    3  C4  UNL     1      17.069  16.780  31.614  1.00  0.00     0.218 C 
HETATM    4  O1  UNL     1      17.713  17.842  31.735  1.00  0.00    -0.274 OA
ATOM      5  H2  UNL     1      16.135  15.350  30.387  1.00  0.00     0.163 HD
BRANCH   3   6
HETATM    6  C3  UNL     1      16.704  16.044  32.884  1.00  0.00     0.105 C 
BRANCH   6   7
HETATM    7  C2  UNL     1      17.878  15.217  33.314  1.00  0.00     0.053 C 
BRANCH   7   8
HETATM    8  C1  UNL     1      17.530  13.770  33.428  1.00  0.00     0.283 C 
BRANCH   8   9
HETATM    9  N1  UNL     1      16.932  13.350  32.154  1.00  0.00    -0.065 N 
ATOM     10  H13 UNL     1      16.248  14.019  31.799  1.00  0.00     0.275 HD
ATOM     11  H12 UNL     1      17.587  13.399  31.374  1.00  0.00     0.275 HD
ATOM     12  H11 UNL     1      16.541  12.418  32.286  1.00  0.00     0.275 HD
ENDBRANCH   8   9
BRANCH   8  13
HETATM   13  C24 UNL     1      16.633  13.476  34.547  1.00  0.00     0.204 C 
HETATM   14  O6  UNL     1      17.007  13.070  35.654  1.00  0.00    -0.646 OA
HETATM   15  O7  UNL     1      15.254  13.667  34.354  1.00  0.00    -0.646 OA
ENDBRANCH   8  13
ENDBRANCH   7   8
ENDBRANCH   6   7
ENDBRANCH   3   6
ENDBRANCH   1   2
BRANCH   1  16
HETATM   16  C6  UNL     1      18.288  16.328  28.626  1.00  0.00     0.109 C 
BRANCH  16  17
HETATM   17  S1  UNL     1      19.365  17.484  27.838  1.00  0.00    -0.154 SA
BRANCH  17  18
HETATM   18  C7  UNL     1      19.416  19.073  28.638  1.00  0.00     0.114 C 
HETATM   19  C8  UNL     1      19.505  20.194  27.645  1.00  0.00    -0.030 A 
HETATM   20  C9  UNL     1      19.308  19.940  26.316  1.00  0.00     0.009 A 
HETATM   21  C13 UNL     1      19.646  21.472  28.171  1.00  0.00    -0.018 A 
HETATM   22  C10 UNL     1      19.244  21.031  25.465  1.00  0.00     0.001 A 
HETATM   23  C11 UNL     1      19.376  22.305  25.961  1.00  0.00     0.001 A 
HETATM   24  C12 UNL     1      19.579  22.548  27.324  1.00  0.00     0.013 A 
HETATM   25  C14 UNL     1      20.016  21.677  29.567  1.00  0.00    -0.017 A 
HETATM   26  C15 UNL     1      19.988  22.943  30.147  1.00  0.00     0.013 A 
HETATM   27  C19 UNL     1      20.248  20.590  30.355  1.00  0.00    -0.017 A 
HETATM   28  C16 UNL     1      20.188  23.108  31.501  1.00  0.00     0.001 A 
HETATM   29  C17 UNL     1      20.414  21.987  32.267  1.00  0.00     0.001 A 
HETATM   30  C18 UNL     1      20.443  20.733  31.698  1.00  0.00     0.011 A 
HETATM   31  C20 UNL     1      20.440  19.252  29.678  1.00  0.00     0.170 C 
BRANCH  31  32
HETATM   32  O2  UNL     1      20.440  18.242  30.619  1.00  0.00    -0.389 OA
ATOM     33  H2  UNL     1      21.300  17.862  30.759  1.00  0.00     0.210 HD
ENDBRANCH  31  32
ENDBRANCH  17  18
ENDBRANCH  16  17
ENDBRANCH   1  16
BRANCH   1  34
HETATM   34  C21 UNL     1      15.853  16.605  28.168  1.00  0.00     0.241 C 
HETATM   35  O3  UNL     1      15.992  15.719  27.268  1.00  0.00    -0.271 OA
HETATM   36  N3  UNL     1      14.614  17.260  28.198  1.00  0.00    -0.349 N 
ATOM     37  H3  UNL     1      14.440  17.982  28.898  1.00  0.00     0.163 HD
BRANCH  36  38
HETATM   38  C22 UNL     1      13.553  16.912  27.218  1.00  0.00     0.235 C 
BRANCH  38  39
HETATM   39  C23 UNL     1      12.686  15.895  27.828  1.00  0.00     0.191 C 
HETATM   40  O4  UNL     1      12.942  14.655  27.780  1.00  0.00    -0.647 OA
HETATM   41  O5  UNL     1      11.537  16.275  28.489  1.00  0.00    -0.647 OA
ENDBRANCH  38  39
ENDBRANCH  36  38
ENDBRANCH   1  34
TORSDOF 13
ENDMDL
