MODEL 2
REMARK VINA RESULT: -9.015492973      1.073      1.267
REMARK  13 active torsions:
REMARK  status: ('A' for Active; 'I' for Inactive)
REMARK    1  A    between atoms: N1_1  and  C1_5 
REMARK    2  A    between atoms: C1_5  and  C2_6 
REMARK    3  A    between atoms: C1_5  and  C24_39 
REMARK    4  A    between atoms: C2_6  and  C3_7 
REMARK    5  A    between atoms: C3_7  and  C4_8 
REMARK       I    between atoms: C4_8  and  N2_10 
REMARK    6  A    between atoms: N2_10  and  C5_12 
REMARK    7  A    between atoms: C5_12  and  C6_13 
REMARK    8  A    between atoms: C5_12  and  C21_31 
REMARK    9  A    between atoms: C6_13  and  S1_14 
REMARK   10  A    between atoms: S1_14  and  C7_15 
REMARK   11  A    between atoms: C20_28  and  O2_29 
REMARK       I    between atoms: C21_31  and  N3_33 
REMARK   12  A    between atoms: N3_33  and  C22_35 
REMARK   13  A    between atoms: C22_35  and  C23_36 
ROOT
HETATM    1  C5  UNL     1      17.383  16.998  28.044  1.00  0.00     0.185 C 
ENDROOT
BRANCH   1   2
HETATM    2  N2  UNL     1      17.411  16.879  29.514  1.00  0.00    -0.347 N 
HETATM    3  C4  UNL     1      17.212  18.004  30.327  1.00  0.00     0.218 C 
HETATM    4  O1  UNL     1      17.001  19.160  29.908  1.00  0.00    -0.274 OA
ATOM      5  H2  UNL     1      17.576  15.968  29.943  1.00  0.00     0.163 HD
BRANCH   3   6
HETATM    6  C3  UNL     1      17.256  17.809  31.827  1.00  0.00     0.105 C 
BRANCH   6   7
HETATM    7  C2  UNL     1      16.406  16.628  32.184  1.00  0.00     0.053 C 
BRANCH   7   8
HETATM    8  C1  UNL     1      17.175  15.591  32.934  1.00  0.00     0.283 C 
BRANCH   8   9
HETATM    9  N1  UNL     1      17.228  14.383  32.101  1.00  0.00    -0.065 N 
ATOM     10  H13 UNL     1      16.470  14.338  31.420  1.00  0.00     0.275 HD
ATOM     11  H12 UNL     1      18.004  14.391  31.438  1.00  0.00     0.275 HD
ATOM     12  H11 UNL     1      17.248  13.576  32.724  1.00  0.00     0.275 HD
ENDBRANCH   8   9
BRANCH   8  13
HETATM   13  C24 UNL     1      16.613  15.292  34.251  1.00  0.00     0.204 C 
HETATM   14  O6  UNL     1      17.206  15.470  35.322  1.00  0.00    -0.646 OA
HETATM   15  O7  UNL     1      15.309  14.768  34.308  1.00  0.00    -0.646 OA
ENDBRANCH   8  13
ENDBRANCH   7   8
ENDBRANCH   6   7
ENDBRANCH   3   6
ENDBRANCH   1   2
BRANCH   1  16
HETATM   16  C6  UNL     1      18.645  16.387  27.511  1.00  0.00     0.109 C 
BRANCH  16  17
HETATM   17  S1  UNL     1      19.994  17.503  27.285  1.00  0.00    -0.154 SA
BRANCH  17  18
HETATM   18  C7  UNL     1      19.882  18.971  28.285  1.00  0.00     0.114 C 
HETATM   19  C8  UNL     1      19.755  20.208  27.446  1.00  0.00    -0.030 A 
HETATM   20  C9  UNL     1      19.509  20.097  26.106  1.00  0.00     0.009 A 
HETATM   21  C13 UNL     1      19.756  21.418  28.130  1.00  0.00    -0.018 A 
HETATM   22  C10 UNL     1      19.244  21.265  25.411  1.00  0.00     0.001 A 
HETATM   23  C11 UNL     1      19.234  22.472  26.064  1.00  0.00     0.001 A 
HETATM   24  C12 UNL     1      19.490  22.570  27.436  1.00  0.00     0.013 A 
HETATM   25  C14 UNL     1      20.184  21.497  29.521  1.00  0.00    -0.017 A 
HETATM   26  C15 UNL     1      20.023  22.665  30.264  1.00  0.00     0.013 A 
HETATM   27  C19 UNL     1      20.610  20.365  30.147  1.00  0.00    -0.017 A 
HETATM   28  C16 UNL     1      20.285  22.686  31.617  1.00  0.00     0.001 A 
HETATM   29  C17 UNL     1      20.710  21.523  32.217  1.00  0.00     0.001 A 
HETATM   30  C18 UNL     1      20.871  20.367  31.487  1.00  0.00     0.011 A 
HETATM   31  C20 UNL     1      20.937  19.163  29.291  1.00  0.00     0.170 C 
BRANCH  31  32
HETATM   32  O2  UNL     1      21.135  18.053  30.089  1.00  0.00    -0.389 OA
ATOM     33  H2  UNL     1      21.993  17.662  29.978  1.00  0.00     0.210 HD
ENDBRANCH  31  32
ENDBRANCH  17  18
ENDBRANCH  16  17
ENDBRANCH   1  16
BRANCH   1  34
HETATM   34  C21 UNL     1      16.155  16.274  27.563  1.00  0.00     0.241 C 
HETATM   35  O3  UNL     1      16.104  15.846  26.368  1.00  0.00    -0.271 OA
HETATM   36  N3  UNL     1      15.025  16.024  28.354  1.00  0.00    -0.349 N 
ATOM     37  H3  UNL     1      15.004  16.343  29.323  1.00  0.00     0.163 HD
BRANCH  36  38
HETATM   38  C22 UNL     1      13.856  15.299  27.791  1.00  0.00     0.235 C 
BRANCH  38  39
HETATM   39  C23 UNL     1      12.763  16.264  27.616  1.00  0.00     0.191 C 
HETATM   40  O4  UNL     1      12.776  17.165  26.727  1.00  0.00    -0.647 OA
HETATM   41  O5  UNL     1      11.659  16.212  28.442  1.00  0.00    -0.647 OA
ENDBRANCH  38  39
ENDBRANCH  36  38
ENDBRANCH   1  34
TORSDOF 13
ENDMDL
