MODEL 3
REMARK VINA RESULT: -8.970961555      1.529      1.836
REMARK  13 active torsions:
REMARK  status: ('A' for Active; 'I' for Inactive)
REMARK    1  A    between atoms: N1_1  and  C1_5 
REMARK    2  A    between atoms: C1_5  and  C2_6 
REMARK    3  A    between atoms: C1_5  and  C24_39 
REMARK    4  A    between atoms: C2_6  and  C3_7 
REMARK    5  A    between atoms: C3_7  and  C4_8 
REMARK       I    between atoms: C4_8  and  N2_10 
REMARK    6  A    between atoms: N2_10  and  C5_12 
REMARK    7  A    between atoms: C5_12  and  C6_13 
REMARK    8  A    between atoms: C5_12  and  C21_31 
REMARK    9  A    between atoms: C6_13  and  S1_14 
REMARK   10  A    between atoms: S1_14  and  C7_15 
REMARK   11  A    between atoms: C20_28  and  O2_29 
REMARK       I    between atoms: C21_31  and  N3_33 
REMARK   12  A    between atoms: N3_33  and  C22_35 
REMARK   13  A    between atoms: C22_35  and  C23_36 
ROOT
HETATM    1  C5  UNL     1      17.061  16.863  29.031  1.00  0.00     0.185 C 
ENDROOT
BRANCH   1   2
HETATM    2  N2  UNL     1      16.749  16.385  30.391  1.00  0.00    -0.347 N 
HETATM    3  C4  UNL     1      17.031  17.180  31.511  1.00  0.00     0.218 C 
HETATM    4  O1  UNL     1      17.548  18.315  31.470  1.00  0.00    -0.274 OA
ATOM      5  H2  UNL     1      16.323  15.467  30.518  1.00  0.00     0.163 HD
BRANCH   3   6
HETATM    6  C3  UNL     1      16.688  16.627  32.876  1.00  0.00     0.105 C 
BRANCH   6   7
HETATM    7  C2  UNL     1      17.656  15.533  33.210  1.00  0.00     0.053 C 
BRANCH   7   8
HETATM    8  C1  UNL     1      19.066  15.926  32.920  1.00  0.00     0.283 C 
BRANCH   8   9
HETATM    9  N1  UNL     1      19.851  14.695  32.755  1.00  0.00    -0.065 N 
ATOM     10  H13 UNL     1      19.851  14.111  33.592  1.00  0.00     0.275 HD
ATOM     11  H12 UNL     1      19.411  14.026  32.124  1.00  0.00     0.275 HD
ATOM     12  H11 UNL     1      20.789  14.961  32.459  1.00  0.00     0.275 HD
ENDBRANCH   8   9
BRANCH   8  13
HETATM   13  C24 UNL     1      19.652  16.784  33.951  1.00  0.00     0.204 C 
HETATM   14  O6  UNL     1      19.979  16.397  35.079  1.00  0.00    -0.646 OA
HETATM   15  O7  UNL     1      19.860  18.140  33.641  1.00  0.00    -0.646 OA
ENDBRANCH   8  13
ENDBRANCH   7   8
ENDBRANCH   6   7
ENDBRANCH   3   6
ENDBRANCH   1   2
BRANCH   1  16
HETATM   16  C6  UNL     1      18.413  16.332  28.658  1.00  0.00     0.109 C 
BRANCH  16  17
HETATM   17  S1  UNL     1      19.493  17.486  27.870  1.00  0.00    -0.154 SA
BRANCH  17  18
HETATM   18  C7  UNL     1      19.500  19.094  28.634  1.00  0.00     0.114 C 
HETATM   19  C8  UNL     1      19.552  20.194  27.616  1.00  0.00    -0.030 A 
HETATM   20  C9  UNL     1      19.358  19.905  26.294  1.00  0.00     0.009 A 
HETATM   21  C13 UNL     1      19.657  21.487  28.113  1.00  0.00    -0.018 A 
HETATM   22  C10 UNL     1      19.259  20.974  25.419  1.00  0.00     0.001 A 
HETATM   23  C11 UNL     1      19.355  22.261  25.886  1.00  0.00     0.001 A 
HETATM   24  C12 UNL     1      19.555  22.541  27.242  1.00  0.00     0.013 A 
HETATM   25  C14 UNL     1      20.026  21.734  29.502  1.00  0.00    -0.017 A 
HETATM   26  C15 UNL     1      19.963  23.012  30.053  1.00  0.00     0.013 A 
HETATM   27  C19 UNL     1      20.292  20.672  30.313  1.00  0.00    -0.017 A 
HETATM   28  C16 UNL     1      20.162  23.213  31.402  1.00  0.00     0.001 A 
HETATM   29  C17 UNL     1      20.424  22.117  32.192  1.00  0.00     0.001 A 
HETATM   30  C18 UNL     1      20.489  20.852  31.652  1.00  0.00     0.011 A 
HETATM   31  C20 UNL     1      20.521  19.326  29.666  1.00  0.00     0.170 C 
BRANCH  31  32
HETATM   32  O2  UNL     1      20.555  18.338  30.630  1.00  0.00    -0.389 OA
ATOM     33  H2  UNL     1      20.073  18.565  31.415  1.00  0.00     0.210 HD
ENDBRANCH  31  32
ENDBRANCH  17  18
ENDBRANCH  16  17
ENDBRANCH   1  16
BRANCH   1  34
HETATM   34  C21 UNL     1      15.979  16.348  28.121  1.00  0.00     0.241 C 
HETATM   35  O3  UNL     1      16.072  16.527  26.867  1.00  0.00    -0.271 OA
HETATM   36  N3  UNL     1      14.837  15.663  28.560  1.00  0.00    -0.349 N 
ATOM     37  H3  UNL     1      14.703  15.488  29.556  1.00  0.00     0.163 HD
BRANCH  36  38
HETATM   38  C22 UNL     1      13.820  15.191  27.585  1.00  0.00     0.235 C 
BRANCH  38  39
HETATM   39  C23 UNL     1      12.714  16.158  27.576  1.00  0.00     0.191 C 
HETATM   40  O4  UNL     1      11.743  16.100  28.386  1.00  0.00    -0.647 OA
HETATM   41  O5  UNL     1      12.705  17.186  26.656  1.00  0.00    -0.647 OA
ENDBRANCH  38  39
ENDBRANCH  36  38
ENDBRANCH   1  34
TORSDOF 13
ENDMDL
