MODEL 12
REMARK VINA RESULT: -8.295053044      1.977      5.818
REMARK  13 active torsions:
REMARK  status: ('A' for Active; 'I' for Inactive)
REMARK    1  A    between atoms: N1_1  and  C1_5 
REMARK    2  A    between atoms: C1_5  and  C2_6 
REMARK    3  A    between atoms: C1_5  and  C24_39 
REMARK    4  A    between atoms: C2_6  and  C3_7 
REMARK    5  A    between atoms: C3_7  and  C4_8 
REMARK       I    between atoms: C4_8  and  N2_10 
REMARK    6  A    between atoms: N2_10  and  C5_12 
REMARK    7  A    between atoms: C5_12  and  C6_13 
REMARK    8  A    between atoms: C5_12  and  C21_31 
REMARK    9  A    between atoms: C6_13  and  S1_14 
REMARK   10  A    between atoms: S1_14  and  C7_15 
REMARK   11  A    between atoms: C20_28  and  O2_29 
REMARK       I    between atoms: C21_31  and  N3_33 
REMARK   12  A    between atoms: N3_33  and  C22_35 
REMARK   13  A    between atoms: C22_35  and  C23_36 
ROOT
HETATM    1  C5  UNL     1      18.315  15.658  30.825  1.00  0.00     0.185 C 
ENDROOT
BRANCH   1   2
HETATM    2  N2  UNL     1      16.987  15.842  30.210  1.00  0.00    -0.347 N 
HETATM    3  C4  UNL     1      16.811  15.689  28.827  1.00  0.00     0.218 C 
HETATM    4  O1  UNL     1      17.716  15.395  28.021  1.00  0.00    -0.274 OA
ATOM      5  H2  UNL     1      16.188  16.084  30.797  1.00  0.00     0.163 HD
BRANCH   3   6
HETATM    6  C3  UNL     1      15.423  15.895  28.263  1.00  0.00     0.105 C 
BRANCH   6   7
HETATM    7  C2  UNL     1      15.539  16.221  26.805  1.00  0.00     0.053 C 
BRANCH   7   8
HETATM    8  C1  UNL     1      14.374  15.711  26.023  1.00  0.00     0.283 C 
BRANCH   8   9
HETATM    9  N1  UNL     1      14.884  15.186  24.750  1.00  0.00    -0.065 N 
ATOM     10  H13 UNL     1      14.668  15.790  23.957  1.00  0.00     0.275 HD
ATOM     11  H12 UNL     1      15.901  15.231  24.681  1.00  0.00     0.275 HD
ATOM     12  H11 UNL     1      14.521  14.240  24.636  1.00  0.00     0.275 HD
ENDBRANCH   8   9
BRANCH   8  13
HETATM   13  C24 UNL     1      13.343  16.725  25.794  1.00  0.00     0.204 C 
HETATM   14  O6  UNL     1      12.991  17.566  26.629  1.00  0.00    -0.646 OA
HETATM   15  O7  UNL     1      12.707  16.747  24.540  1.00  0.00    -0.646 OA
ENDBRANCH   8  13
ENDBRANCH   7   8
ENDBRANCH   6   7
ENDBRANCH   3   6
ENDBRANCH   1   2
BRANCH   1  16
HETATM   16  C6  UNL     1      18.711  16.959  31.458  1.00  0.00     0.109 C 
BRANCH  16  17
HETATM   17  S1  UNL     1      20.296  17.580  30.989  1.00  0.00    -0.154 SA
BRANCH  17  18
HETATM   18  C7  UNL     1      20.219  18.984  29.898  1.00  0.00     0.114 C 
HETATM   19  C8  UNL     1      20.037  20.267  30.654  1.00  0.00    -0.030 A 
HETATM   20  C9  UNL     1      20.180  20.280  32.014  1.00  0.00     0.009 A 
HETATM   21  C13 UNL     1      19.870  21.414  29.888  1.00  0.00    -0.018 A 
HETATM   22  C10 UNL     1      20.159  21.514  32.642  1.00  0.00     0.001 A 
HETATM   23  C11 UNL     1      19.999  22.662  31.907  1.00  0.00     0.001 A 
HETATM   24  C12 UNL     1      19.853  22.632  30.516  1.00  0.00     0.013 A 
HETATM   25  C14 UNL     1      19.560  21.332  28.466  1.00  0.00    -0.017 A 
HETATM   26  C15 UNL     1      19.564  22.465  27.655  1.00  0.00     0.013 A 
HETATM   27  C19 UNL     1      19.410  20.105  27.892  1.00  0.00    -0.017 A 
HETATM   28  C16 UNL     1      19.423  22.361  26.288  1.00  0.00     0.001 A 
HETATM   29  C17 UNL     1      19.280  21.106  25.743  1.00  0.00     0.001 A 
HETATM   30  C18 UNL     1      19.274  19.982  26.539  1.00  0.00     0.011 A 
HETATM   31  C20 UNL     1      19.240  18.913  28.804  1.00  0.00     0.170 C 
BRANCH  31  32
HETATM   32  O2  UNL     1      19.326  17.743  28.074  1.00  0.00    -0.389 OA
ATOM     33  H2  UNL     1      18.953  17.818  27.204  1.00  0.00     0.210 HD
ENDBRANCH  31  32
ENDBRANCH  17  18
ENDBRANCH  16  17
ENDBRANCH   1  16
BRANCH   1  34
HETATM   34  C21 UNL     1      18.185  14.552  31.838  1.00  0.00     0.241 C 
HETATM   35  O3  UNL     1      18.747  14.666  32.971  1.00  0.00    -0.271 OA
HETATM   36  N3  UNL     1      17.469  13.366  31.624  1.00  0.00    -0.349 N 
ATOM     37  H3  UNL     1      16.994  13.214  30.734  1.00  0.00     0.163 HD
BRANCH  36  38
HETATM   38  C22 UNL     1      17.396  12.328  32.685  1.00  0.00     0.235 C 
BRANCH  38  39
HETATM   39  C23 UNL     1      16.388  11.338  32.286  1.00  0.00     0.191 C 
HETATM   40  O4  UNL     1      15.691  10.690  33.122  1.00  0.00    -0.647 OA
HETATM   41  O5  UNL     1      16.165  11.081  30.949  1.00  0.00    -0.647 OA
ENDBRANCH  38  39
ENDBRANCH  36  38
ENDBRANCH   1  34
TORSDOF 13
ENDMDL
