MODEL 4
REMARK VINA RESULT: -8.792524859      1.632      5.516
REMARK  13 active torsions:
REMARK  status: ('A' for Active; 'I' for Inactive)
REMARK    1  A    between atoms: N1_1  and  C1_5 
REMARK    2  A    between atoms: C1_5  and  C2_6 
REMARK    3  A    between atoms: C1_5  and  C24_39 
REMARK    4  A    between atoms: C2_6  and  C3_7 
REMARK    5  A    between atoms: C3_7  and  C4_8 
REMARK       I    between atoms: C4_8  and  N2_10 
REMARK    6  A    between atoms: N2_10  and  C5_12 
REMARK    7  A    between atoms: C5_12  and  C6_13 
REMARK    8  A    between atoms: C5_12  and  C21_31 
REMARK    9  A    between atoms: C6_13  and  S1_14 
REMARK   10  A    between atoms: S1_14  and  C7_15 
REMARK   11  A    between atoms: C20_28  and  O2_29 
REMARK       I    between atoms: C21_31  and  N3_33 
REMARK   12  A    between atoms: N3_33  and  C22_35 
REMARK   13  A    between atoms: C22_35  and  C23_36 
ROOT
HETATM    1  C5  UNL     1      18.762  15.498  30.352  1.00  0.00     0.185 C 
ENDROOT
BRANCH   1   2
HETATM    2  N2  UNL     1      17.605  15.655  29.450  1.00  0.00    -0.347 N 
HETATM    3  C4  UNL     1      17.702  15.309  28.095  1.00  0.00     0.218 C 
HETATM    4  O1  UNL     1      18.726  14.854  27.545  1.00  0.00    -0.274 OA
ATOM      5  H2  UNL     1      16.726  16.020  29.817  1.00  0.00     0.163 HD
BRANCH   3   6
HETATM    6  C3  UNL     1      16.478  15.499  27.227  1.00  0.00     0.105 C 
BRANCH   6   7
HETATM    7  C2  UNL     1      15.262  15.498  28.103  1.00  0.00     0.053 C 
BRANCH   7   8
HETATM    8  C1  UNL     1      14.027  15.138  27.346  1.00  0.00     0.283 C 
BRANCH   8   9
HETATM    9  N1  UNL     1      14.377  15.077  25.921  1.00  0.00    -0.065 N 
ATOM     10  H13 UNL     1      13.565  14.940  25.319  1.00  0.00     0.275 HD
ATOM     11  H12 UNL     1      14.673  15.978  25.546  1.00  0.00     0.275 HD
ATOM     12  H11 UNL     1      15.082  14.349  25.805  1.00  0.00     0.275 HD
ENDBRANCH   8   9
BRANCH   8  13
HETATM   13  C24 UNL     1      12.918  16.066  27.571  1.00  0.00     0.204 C 
HETATM   14  O6  UNL     1      12.022  15.895  28.406  1.00  0.00    -0.646 OA
HETATM   15  O7  UNL     1      12.863  17.231  26.786  1.00  0.00    -0.646 OA
ENDBRANCH   8  13
ENDBRANCH   7   8
ENDBRANCH   6   7
ENDBRANCH   3   6
ENDBRANCH   1   2
BRANCH   1  16
HETATM   16  C6  UNL     1      18.972  16.803  31.062  1.00  0.00     0.109 C 
BRANCH  16  17
HETATM   17  S1  UNL     1      20.512  17.604  30.741  1.00  0.00    -0.154 SA
BRANCH  17  18
HETATM   18  C7  UNL     1      20.366  19.042  29.703  1.00  0.00     0.114 C 
HETATM   19  C8  UNL     1      20.150  20.290  30.508  1.00  0.00    -0.030 A 
HETATM   20  C9  UNL     1      20.314  20.258  31.865  1.00  0.00     0.009 A 
HETATM   21  C13 UNL     1      19.929  21.456  29.787  1.00  0.00    -0.018 A 
HETATM   22  C10 UNL     1      20.258  21.467  32.538  1.00  0.00     0.001 A 
HETATM   23  C11 UNL     1      20.045  22.635  31.848  1.00  0.00     0.001 A 
HETATM   24  C12 UNL     1      19.878  22.650  30.459  1.00  0.00     0.013 A 
HETATM   25  C14 UNL     1      19.599  21.414  28.367  1.00  0.00    -0.017 A 
HETATM   26  C15 UNL     1      19.549  22.575  27.599  1.00  0.00     0.013 A 
HETATM   27  C19 UNL     1      19.485  20.204  27.751  1.00  0.00    -0.017 A 
HETATM   28  C16 UNL     1      19.390  22.515  26.231  1.00  0.00     0.001 A 
HETATM   29  C17 UNL     1      19.283  21.276  25.642  1.00  0.00     0.001 A 
HETATM   30  C18 UNL     1      19.331  20.125  26.397  1.00  0.00     0.011 A 
HETATM   31  C20 UNL     1      19.373  18.974  28.621  1.00  0.00     0.170 C 
BRANCH  31  32
HETATM   32  O2  UNL     1      19.489  17.836  27.848  1.00  0.00    -0.389 OA
ATOM     33  H2  UNL     1      18.760  17.713  27.252  1.00  0.00     0.210 HD
ENDBRANCH  31  32
ENDBRANCH  17  18
ENDBRANCH  16  17
ENDBRANCH   1  16
BRANCH   1  34
HETATM   34  C21 UNL     1      18.432  14.381  31.306  1.00  0.00     0.241 C 
HETATM   35  O3  UNL     1      19.259  13.432  31.474  1.00  0.00    -0.271 OA
HETATM   36  N3  UNL     1      17.245  14.301  32.048  1.00  0.00    -0.349 N 
ATOM     37  H3  UNL     1      16.541  15.033  31.957  1.00  0.00     0.163 HD
BRANCH  36  38
HETATM   38  C22 UNL     1      17.007  13.158  32.967  1.00  0.00     0.235 C 
BRANCH  38  39
HETATM   39  C23 UNL     1      16.431  13.685  34.210  1.00  0.00     0.191 C 
HETATM   40  O4  UNL     1      16.811  13.309  35.358  1.00  0.00    -0.647 OA
HETATM   41  O5  UNL     1      15.431  14.633  34.159  1.00  0.00    -0.647 OA
ENDBRANCH  38  39
ENDBRANCH  36  38
ENDBRANCH   1  34
TORSDOF 13
ENDMDL
