MODEL 6
REMARK VINA RESULT: -7.850687364      2.970      9.232
REMARK  7 active torsions:
REMARK  status: ('A' for Active; 'I' for Inactive)
REMARK    1  A    between atoms: N1_2  and  C2_5 
REMARK    2  A    between atoms: C2_5  and  C4_7 
REMARK       I    between atoms: C4_7  and  N2_9 
REMARK    3  A    between atoms: N2_9  and  C5_11 
REMARK    4  A    between atoms: C5_11  and  C6_12 
REMARK    5  A    between atoms: C5_11  and  C24_35 
REMARK       I    between atoms: C6_12  and  N3_14 
REMARK    6  A    between atoms: C10_18  and  C11_19 
REMARK    7  A    between atoms: C12_22  and  C13_23 
ROOT
HETATM    1  C6  UNL     1      76.051  63.106  15.100  1.00  0.00     0.267 C 
HETATM    2  O2  UNL     1      77.135  62.597  14.745  1.00  0.00    -0.266 OA
HETATM    3  N3  UNL     1      75.640  64.353  14.555  1.00  0.00    -0.336 N 
HETATM    4  C7  UNL     1      74.492  65.124  15.100  1.00  0.00     0.127 C 
HETATM    5  C8  UNL     1      75.393  66.370  15.522  1.00  0.00     0.022 C 
HETATM    6  C9  UNL     1      76.047  66.593  14.187  1.00  0.00     0.034 C 
HETATM    7  C10 UNL     1      76.076  65.191  13.515  1.00  0.00     0.144 C 
ENDROOT
BRANCH   1   8
HETATM    8  C5  UNL     1      75.230  62.386  16.104  1.00  0.00     0.084 C 
BRANCH   8   9
HETATM    9  N2  UNL     1      74.887  61.044  15.742  1.00  0.00    -0.324 N 
HETATM   10  C4  UNL     1      73.674  60.623  15.194  1.00  0.00     0.252 C 
HETATM   11  O1  UNL     1      72.776  61.469  14.962  1.00  0.00    -0.271 OA
ATOM     12  H2  UNL     1      75.597  60.329  15.898  1.00  0.00     0.169 HD
BRANCH  10  13
HETATM   13  C2  UNL     1      73.401  59.215  14.871  1.00  0.00     0.272 C 
HETATM   14  C3  UNL     1      71.924  59.152  14.427  1.00  0.00     0.050 C 
BRANCH  13  15
HETATM   15  N1  UNL     1      73.460  58.436  16.081  1.00  0.00    -0.067 N 
HETATM   16  C1  UNL     1      72.266  58.537  16.922  1.00  0.00     0.267 C 
ATOM     17  H12 UNL     1      74.294  58.673  16.617  1.00  0.00     0.277 HD
ATOM     18  H11 UNL     1      73.663  57.459  15.866  1.00  0.00     0.277 HD
ENDBRANCH  13  15
ENDBRANCH  10  13
ENDBRANCH   8   9
BRANCH   8  19
HETATM   19  C24 UNL     1      75.339  62.748  17.514  1.00  0.00     0.041 C 
HETATM   20  C25 UNL     1      74.307  62.282  18.484  1.00  0.00     0.011 C 
HETATM   21  C26 UNL     1      74.417  63.074  19.765  1.00  0.00     0.001 C 
HETATM   22  C27 UNL     1      75.662  63.881  19.800  1.00  0.00     0.000 C 
HETATM   23  C28 UNL     1      76.916  63.204  19.324  1.00  0.00     0.001 C 
HETATM   24  C29 UNL     1      76.682  62.296  18.121  1.00  0.00     0.011 C 
ENDBRANCH   8  19
ENDBRANCH   1   8
BRANCH   7  25
HETATM   25  C11 UNL     1      77.438  65.067  12.977  1.00  0.00     0.074 A 
HETATM   26  N4  UNL     1      78.125  64.136  12.403  1.00  0.00    -0.351 N 
HETATM   27  C12 UNL     1      79.366  64.324  11.992  1.00  0.00     0.050 A 
ATOM     28  H4  UNL     1      77.694  63.222  12.262  1.00  0.00     0.166 HD
HETATM   29  C23 UNL     1      79.899  65.567  12.206  1.00  0.00     0.082 A 
HETATM   30  S1  UNL     1      78.591  66.355  12.967  1.00  0.00    -0.084 SA
BRANCH  27  31
HETATM   31  C13 UNL     1      80.085  63.243  11.281  1.00  0.00     0.002 A 
HETATM   32  C14 UNL     1      79.601  62.910  10.037  1.00  0.00     0.014 A 
HETATM   33  C15 UNL     1      80.039  61.844   9.308  1.00  0.00     0.002 A 
HETATM   34  C16 UNL     1      81.035  61.048   9.861  1.00  0.00     0.012 A 
HETATM   35  C17 UNL     1      81.542  61.349  11.101  1.00  0.00    -0.025 A 
HETATM   36  C18 UNL     1      82.511  60.530  11.624  1.00  0.00     0.012 A 
HETATM   37  C22 UNL     1      81.064  62.461  11.818  1.00  0.00    -0.013 A 
HETATM   38  C19 UNL     1      83.016  60.821  12.889  1.00  0.00     0.001 A 
HETATM   39  C20 UNL     1      82.530  61.903  13.558  1.00  0.00     0.001 A 
HETATM   40  C21 UNL     1      81.560  62.749  13.068  1.00  0.00     0.013 A 
ENDBRANCH  27  31
ENDBRANCH   7  25
TORSDOF 7
ENDMDL
