MODEL 4
REMARK VINA RESULT: -7.908314415      2.382      8.389
REMARK  7 active torsions:
REMARK  status: ('A' for Active; 'I' for Inactive)
REMARK    1  A    between atoms: N1_2  and  C2_5 
REMARK    2  A    between atoms: C2_5  and  C4_7 
REMARK       I    between atoms: C4_7  and  N2_9 
REMARK    3  A    between atoms: N2_9  and  C5_11 
REMARK    4  A    between atoms: C5_11  and  C6_12 
REMARK    5  A    between atoms: C5_11  and  C24_35 
REMARK       I    between atoms: C6_12  and  N3_14 
REMARK    6  A    between atoms: C10_18  and  C11_19 
REMARK    7  A    between atoms: C12_22  and  C13_23 
ROOT
HETATM    1  C6  UNL     1      79.120  62.949  12.623  1.00  0.00     0.267 C 
HETATM    2  O2  UNL     1      80.347  63.104  12.793  1.00  0.00    -0.266 OA
HETATM    3  N3  UNL     1      78.638  61.802  11.932  1.00  0.00    -0.336 N 
HETATM    4  C7  UNL     1      77.226  61.672  11.489  1.00  0.00     0.127 C 
HETATM    5  C8  UNL     1      77.606  61.611   9.942  1.00  0.00     0.022 C 
HETATM    6  C9  UNL     1      78.605  60.492  10.035  1.00  0.00     0.034 C 
HETATM    7  C10 UNL     1      79.193  60.598  11.471  1.00  0.00     0.144 C 
ENDROOT
BRANCH   1   8
HETATM    8  C5  UNL     1      78.199  63.990  13.139  1.00  0.00     0.084 C 
BRANCH   8   9
HETATM    9  N2  UNL     1      77.699  63.742  14.457  1.00  0.00    -0.324 N 
HETATM   10  C4  UNL     1      76.371  63.472  14.797  1.00  0.00     0.252 C 
HETATM   11  O1  UNL     1      75.503  63.414  13.892  1.00  0.00    -0.271 OA
ATOM     12  H2  UNL     1      78.375  63.763  15.220  1.00  0.00     0.169 HD
BRANCH  10  13
HETATM   13  C2  UNL     1      75.942  63.249  16.185  1.00  0.00     0.272 C 
HETATM   14  C3  UNL     1      75.409  64.605  16.696  1.00  0.00     0.050 C 
BRANCH  13  15
HETATM   15  N1  UNL     1      77.099  62.974  16.997  1.00  0.00    -0.067 N 
HETATM   16  C1  UNL     1      76.792  62.620  18.384  1.00  0.00     0.267 C 
ATOM     17  H12 UNL     1      77.751  63.758  16.965  1.00  0.00     0.277 HD
ATOM     18  H11 UNL     1      77.675  62.252  16.563  1.00  0.00     0.277 HD
ENDBRANCH  13  15
ENDBRANCH  10  13
ENDBRANCH   8   9
BRANCH   8  19
HETATM   19  C24 UNL     1      78.329  65.365  12.664  1.00  0.00     0.041 C 
HETATM   20  C25 UNL     1      77.445  66.430  13.216  1.00  0.00     0.011 C 
HETATM   21  C26 UNL     1      77.498  67.649  12.326  1.00  0.00     0.001 C 
HETATM   22  C27 UNL     1      78.595  67.548  11.333  1.00  0.00     0.000 C 
HETATM   23  C28 UNL     1      79.913  67.031  11.835  1.00  0.00     0.001 C 
HETATM   24  C29 UNL     1      79.761  65.905  12.853  1.00  0.00     0.011 C 
ENDBRANCH   8  19
ENDBRANCH   1   8
BRANCH   7  25
HETATM   25  C11 UNL     1      80.645  60.466  11.286  1.00  0.00     0.074 A 
HETATM   26  N4  UNL     1      81.666  60.313  12.062  1.00  0.00    -0.351 N 
HETATM   27  C12 UNL     1      82.897  60.199  11.596  1.00  0.00     0.050 A 
ATOM     28  H4  UNL     1      81.517  60.278  13.070  1.00  0.00     0.166 HD
HETATM   29  C23 UNL     1      83.044  60.253  10.236  1.00  0.00     0.082 A 
HETATM   30  S1  UNL     1      81.423  60.457   9.743  1.00  0.00    -0.084 SA
BRANCH  27  31
HETATM   31  C13 UNL     1      84.024  59.959  12.526  1.00  0.00     0.002 A 
HETATM   32  C14 UNL     1      84.785  58.840  12.279  1.00  0.00     0.014 A 
HETATM   33  C15 UNL     1      85.761  58.382  13.115  1.00  0.00     0.002 A 
HETATM   34  C16 UNL     1      85.997  59.092  14.286  1.00  0.00     0.012 A 
HETATM   35  C17 UNL     1      85.256  60.215  14.565  1.00  0.00    -0.025 A 
HETATM   36  C18 UNL     1      85.504  60.881  15.739  1.00  0.00     0.012 A 
HETATM   37  C22 UNL     1      84.262  60.655  13.674  1.00  0.00    -0.013 A 
HETATM   38  C19 UNL     1      84.744  62.010  16.036  1.00  0.00     0.001 A 
HETATM   39  C20 UNL     1      83.787  62.408  15.154  1.00  0.00     0.001 A 
HETATM   40  C21 UNL     1      83.508  61.769  13.966  1.00  0.00     0.013 A 
ENDBRANCH  27  31
ENDBRANCH   7  25
TORSDOF 7
ENDMDL
