MODEL 1
REMARK VINA RESULT: -8.409404428      0.000      0.000
REMARK  7 active torsions:
REMARK  status: ('A' for Active; 'I' for Inactive)
REMARK    1  A    between atoms: N1_2  and  C2_5 
REMARK    2  A    between atoms: C2_5  and  C4_7 
REMARK       I    between atoms: C4_7  and  N2_9 
REMARK    3  A    between atoms: N2_9  and  C5_11 
REMARK    4  A    between atoms: C5_11  and  C6_12 
REMARK    5  A    between atoms: C5_11  and  C24_35 
REMARK       I    between atoms: C6_12  and  N3_14 
REMARK    6  A    between atoms: C10_18  and  C11_19 
REMARK    7  A    between atoms: C12_22  and  C13_23 
ROOT
HETATM    1  C6  UNL     1      80.718  61.206  13.324  1.00  0.00     0.267 C 
HETATM    2  O2  UNL     1      79.939  60.306  13.699  1.00  0.00    -0.266 OA
HETATM    3  N3  UNL     1      80.286  62.561  13.312  1.00  0.00    -0.336 N 
HETATM    4  C7  UNL     1      81.068  63.644  12.661  1.00  0.00     0.127 C 
HETATM    5  C8  UNL     1      79.927  63.974  11.598  1.00  0.00     0.022 C 
HETATM    6  C9  UNL     1      78.805  64.168  12.577  1.00  0.00     0.034 C 
HETATM    7  C10 UNL     1      79.169  63.266  13.790  1.00  0.00     0.144 C 
ENDROOT
BRANCH   1   8
HETATM    8  C5  UNL     1      82.081  60.820  12.883  1.00  0.00     0.084 C 
BRANCH   8   9
HETATM    9  N2  UNL     1      82.985  60.506  13.948  1.00  0.00    -0.324 N 
HETATM   10  C4  UNL     1      83.955  61.357  14.482  1.00  0.00     0.252 C 
HETATM   11  O1  UNL     1      84.069  62.522  14.031  1.00  0.00    -0.271 OA
ATOM     12  H2  UNL     1      82.913  59.574  14.355  1.00  0.00     0.169 HD
BRANCH  10  13
HETATM   13  C2  UNL     1      84.858  60.941  15.566  1.00  0.00     0.272 C 
HETATM   14  C3  UNL     1      84.998  62.159  16.503  1.00  0.00     0.050 C 
BRANCH  13  15
HETATM   15  N1  UNL     1      86.176  60.733  15.025  1.00  0.00    -0.067 N 
HETATM   16  C1  UNL     1      86.241  59.728  13.963  1.00  0.00     0.267 C 
ATOM     17  H12 UNL     1      86.835  60.506  15.770  1.00  0.00     0.277 HD
ATOM     18  H11 UNL     1      86.574  61.617  14.705  1.00  0.00     0.277 HD
ENDBRANCH  13  15
ENDBRANCH  10  13
ENDBRANCH   8   9
BRANCH   8  19
HETATM   19  C24 UNL     1      82.264  60.199  11.575  1.00  0.00     0.041 C 
HETATM   20  C25 UNL     1      81.582  60.768  10.378  1.00  0.00     0.011 C 
HETATM   21  C26 UNL     1      81.610  59.766   9.249  1.00  0.00     0.001 C 
HETATM   22  C27 UNL     1      82.523  58.636   9.549  1.00  0.00     0.000 C 
HETATM   23  C28 UNL     1      83.849  58.987  10.163  1.00  0.00     0.001 C 
HETATM   24  C29 UNL     1      83.752  60.121  11.178  1.00  0.00     0.011 C 
ENDBRANCH   8  19
ENDBRANCH   1   8
BRANCH   7  25
HETATM   25  C11 UNL     1      77.921  62.559  14.113  1.00  0.00     0.074 A 
HETATM   26  N4  UNL     1      77.113  62.522  15.120  1.00  0.00    -0.351 N 
HETATM   27  C12 UNL     1      76.018  61.784  15.120  1.00  0.00     0.050 A 
ATOM     28  H4  UNL     1      77.328  63.083  15.944  1.00  0.00     0.166 HD
HETATM   29  C23 UNL     1      75.776  61.048  13.991  1.00  0.00     0.082 A 
HETATM   30  S1  UNL     1      77.121  61.474  13.032  1.00  0.00    -0.084 SA
BRANCH  27  31
HETATM   31  C13 UNL     1      75.093  61.828  16.275  1.00  0.00     0.002 A 
HETATM   32  C14 UNL     1      73.788  61.473  16.019  1.00  0.00     0.014 A 
HETATM   33  C15 UNL     1      72.773  61.601  16.920  1.00  0.00     0.002 A 
HETATM   34  C16 UNL     1      73.078  62.123  18.171  1.00  0.00     0.012 A 
HETATM   35  C17 UNL     1      74.370  62.488  18.462  1.00  0.00    -0.025 A 
HETATM   36  C18 UNL     1      74.632  63.018  19.701  1.00  0.00     0.012 A 
HETATM   37  C22 UNL     1      75.389  62.336  17.505  1.00  0.00    -0.013 A 
HETATM   38  C19 UNL     1      75.937  63.406  19.995  1.00  0.00     0.001 A 
HETATM   39  C20 UNL     1      76.900  63.249  19.045  1.00  0.00     0.001 A 
HETATM   40  C21 UNL     1      76.678  62.722  17.792  1.00  0.00     0.013 A 
ENDBRANCH  27  31
ENDBRANCH   7  25
TORSDOF 7
ENDMDL
