MODEL 10
REMARK VINA RESULT: -7.627220065      1.641      1.897
REMARK  7 active torsions:
REMARK  status: ('A' for Active; 'I' for Inactive)
REMARK    1  A    between atoms: N1_2  and  C2_5 
REMARK    2  A    between atoms: C2_5  and  C4_7 
REMARK       I    between atoms: C4_7  and  N2_9 
REMARK    3  A    between atoms: N2_9  and  C5_11 
REMARK    4  A    between atoms: C5_11  and  C6_12 
REMARK    5  A    between atoms: C5_11  and  C24_35 
REMARK       I    between atoms: C6_12  and  N3_14 
REMARK    6  A    between atoms: C10_18  and  C11_19 
REMARK    7  A    between atoms: C12_22  and  C13_23 
ROOT
HETATM    1  C6  UNL     1      80.822  60.397  13.086  1.00  0.00     0.267 C 
HETATM    2  O2  UNL     1      80.051  60.020  13.993  1.00  0.00    -0.266 OA
HETATM    3  N3  UNL     1      80.456  61.488  12.250  1.00  0.00    -0.336 N 
HETATM    4  C7  UNL     1      81.207  61.834  11.015  1.00  0.00     0.127 C 
HETATM    5  C8  UNL     1      79.964  61.556  10.055  1.00  0.00     0.022 C 
HETATM    6  C9  UNL     1      78.977  62.442  10.761  1.00  0.00     0.034 C 
HETATM    7  C10 UNL     1      79.440  62.457  12.245  1.00  0.00     0.144 C 
ENDROOT
BRANCH   1   8
HETATM    8  C5  UNL     1      82.103  59.671  12.903  1.00  0.00     0.084 C 
BRANCH   8   9
HETATM    9  N2  UNL     1      83.025  59.807  13.990  1.00  0.00    -0.324 N 
HETATM   10  C4  UNL     1      83.949  60.840  14.161  1.00  0.00     0.252 C 
HETATM   11  O1  UNL     1      83.998  61.769  13.319  1.00  0.00    -0.271 OA
ATOM     12  H2  UNL     1      83.005  59.081  14.706  1.00  0.00     0.169 HD
BRANCH  10  13
HETATM   13  C2  UNL     1      84.875  60.888  15.302  1.00  0.00     0.272 C 
HETATM   14  C3  UNL     1      84.702  62.282  15.941  1.00  0.00     0.050 C 
BRANCH  13  15
HETATM   15  N1  UNL     1      86.228  60.870  14.809  1.00  0.00    -0.067 N 
HETATM   16  C1  UNL     1      86.533  59.743  13.925  1.00  0.00     0.267 C 
ATOM     17  H12 UNL     1      86.890  60.903  15.584  1.00  0.00     0.277 HD
ATOM     18  H11 UNL     1      86.453  61.753  14.351  1.00  0.00     0.277 HD
ENDBRANCH  13  15
ENDBRANCH  10  13
ENDBRANCH   8   9
BRANCH   8  19
HETATM   19  C24 UNL     1      82.135  58.469  12.075  1.00  0.00     0.041 C 
HETATM   20  C25 UNL     1      80.950  58.100  11.250  1.00  0.00     0.011 C 
HETATM   21  C26 UNL     1      81.070  56.665  10.796  1.00  0.00     0.001 C 
HETATM   22  C27 UNL     1      82.426  56.125  11.059  1.00  0.00     0.000 C 
HETATM   23  C28 UNL     1      83.584  57.026  10.738  1.00  0.00     0.001 C 
HETATM   24  C29 UNL     1      83.315  58.486  11.082  1.00  0.00     0.011 C 
ENDBRANCH   8  19
ENDBRANCH   1   8
BRANCH   7  25
HETATM   25  C11 UNL     1      78.207  62.250  13.019  1.00  0.00     0.074 A 
HETATM   26  N4  UNL     1      77.546  62.921  13.903  1.00  0.00    -0.351 N 
HETATM   27  C12 UNL     1      76.418  62.479  14.427  1.00  0.00     0.050 A 
ATOM     28  H4  UNL     1      77.909  63.825  14.206  1.00  0.00     0.166 HD
HETATM   29  C23 UNL     1      75.975  61.261  13.987  1.00  0.00     0.082 A 
HETATM   30  S1  UNL     1      77.197  60.856  12.868  1.00  0.00    -0.084 SA
BRANCH  27  31
HETATM   31  C13 UNL     1      75.667  63.318  15.389  1.00  0.00     0.002 A 
HETATM   32  C14 UNL     1      74.811  64.247  14.841  1.00  0.00     0.014 A 
HETATM   33  C15 UNL     1      74.159  65.202  15.565  1.00  0.00     0.002 A 
HETATM   34  C16 UNL     1      74.374  65.234  16.937  1.00  0.00     0.012 A 
HETATM   35  C17 UNL     1      75.221  64.322  17.518  1.00  0.00    -0.025 A 
HETATM   36  C18 UNL     1      75.424  64.395  18.874  1.00  0.00     0.012 A 
HETATM   37  C22 UNL     1      75.872  63.352  16.736  1.00  0.00    -0.013 A 
HETATM   38  C19 UNL     1      76.296  63.484  19.465  1.00  0.00     0.001 A 
HETATM   39  C20 UNL     1      76.912  62.559  18.679  1.00  0.00     0.001 A 
HETATM   40  C21 UNL     1      76.735  62.452  17.317  1.00  0.00     0.013 A 
ENDBRANCH  27  31
ENDBRANCH   7  25
TORSDOF 7
ENDMDL
