MODEL 3
REMARK VINA RESULT: -8.012284649      2.275      8.614
REMARK  7 active torsions:
REMARK  status: ('A' for Active; 'I' for Inactive)
REMARK    1  A    between atoms: N1_2  and  C2_5 
REMARK    2  A    between atoms: C2_5  and  C4_7 
REMARK       I    between atoms: C4_7  and  N2_9 
REMARK    3  A    between atoms: N2_9  and  C5_11 
REMARK    4  A    between atoms: C5_11  and  C6_12 
REMARK    5  A    between atoms: C5_11  and  C24_35 
REMARK       I    between atoms: C6_12  and  N3_14 
REMARK    6  A    between atoms: C10_18  and  C11_19 
REMARK    7  A    between atoms: C12_22  and  C13_23 
ROOT
HETATM    1  C6  UNL     1      78.376  62.388  14.009  1.00  0.00     0.267 C 
HETATM    2  O2  UNL     1      79.559  62.784  13.969  1.00  0.00    -0.266 OA
HETATM    3  N3  UNL     1      78.021  61.149  13.407  1.00  0.00    -0.336 N 
HETATM    4  C7  UNL     1      76.608  60.733  13.210  1.00  0.00     0.127 C 
HETATM    5  C8  UNL     1      76.728  60.701  11.620  1.00  0.00     0.022 C 
HETATM    6  C9  UNL     1      77.929  59.802  11.538  1.00  0.00     0.034 C 
HETATM    7  C10 UNL     1      78.717  60.063  12.852  1.00  0.00     0.144 C 
ENDROOT
BRANCH   1   8
HETATM    8  C5  UNL     1      77.368  63.245  14.680  1.00  0.00     0.084 C 
BRANCH   8   9
HETATM    9  N2  UNL     1      77.205  62.989  16.078  1.00  0.00    -0.324 N 
HETATM   10  C4  UNL     1      76.132  62.321  16.674  1.00  0.00     0.252 C 
HETATM   11  O1  UNL     1      75.211  61.868  15.952  1.00  0.00    -0.271 OA
ATOM     12  H2  UNL     1      77.941  63.325  16.698  1.00  0.00     0.169 HD
BRANCH  10  13
HETATM   13  C2  UNL     1      76.037  62.121  18.127  1.00  0.00     0.272 C 
HETATM   14  C3  UNL     1      74.581  62.456  18.514  1.00  0.00     0.050 C 
BRANCH  13  15
HETATM   15  N1  UNL     1      76.838  63.116  18.792  1.00  0.00    -0.067 N 
HETATM   16  C1  UNL     1      76.136  63.848  19.849  1.00  0.00     0.267 C 
ATOM     17  H12 UNL     1      77.235  63.766  18.114  1.00  0.00     0.277 HD
ATOM     18  H11 UNL     1      77.695  62.699  19.156  1.00  0.00     0.277 HD
ENDBRANCH  13  15
ENDBRANCH  10  13
ENDBRANCH   8   9
BRANCH   8  19
HETATM   19  C24 UNL     1      77.095  64.579  14.153  1.00  0.00     0.041 C 
HETATM   20  C25 UNL     1      76.926  64.781  12.686  1.00  0.00     0.011 C 
HETATM   21  C26 UNL     1      77.032  66.251  12.357  1.00  0.00     0.001 C 
HETATM   22  C27 UNL     1      77.000  67.084  13.583  1.00  0.00     0.000 C 
HETATM   23  C28 UNL     1      75.990  66.706  14.628  1.00  0.00     0.001 C 
HETATM   24  C29 UNL     1      75.830  65.197  14.782  1.00  0.00     0.011 C 
ENDBRANCH   8  19
ENDBRANCH   1   8
BRANCH   7  25
HETATM   25  C11 UNL     1      80.115  60.212  12.422  1.00  0.00     0.074 A 
HETATM   26  N4  UNL     1      81.273  60.064  12.974  1.00  0.00    -0.351 N 
HETATM   27  C12 UNL     1      82.400  60.253  12.313  1.00  0.00     0.050 A 
ATOM     28  H4  UNL     1      81.320  59.791  13.956  1.00  0.00     0.166 HD
HETATM   29  C23 UNL     1      82.284  60.620  10.999  1.00  0.00     0.082 A 
HETATM   30  S1  UNL     1      80.588  60.658  10.821  1.00  0.00    -0.084 SA
BRANCH  27  31
HETATM   31  C13 UNL     1      83.701  60.007  12.976  1.00  0.00     0.002 A 
HETATM   32  C14 UNL     1      84.409  58.913  12.532  1.00  0.00     0.014 A 
HETATM   33  C15 UNL     1      85.545  58.449  13.126  1.00  0.00     0.002 A 
HETATM   34  C16 UNL     1      86.012  59.124  14.247  1.00  0.00     0.012 A 
HETATM   35  C17 UNL     1      85.332  60.220  14.718  1.00  0.00    -0.025 A 
HETATM   36  C18 UNL     1      85.812  60.852  15.838  1.00  0.00     0.012 A 
HETATM   37  C22 UNL     1      84.166  60.669  14.073  1.00  0.00    -0.013 A 
HETATM   38  C19 UNL     1      85.116  61.954  16.330  1.00  0.00     0.001 A 
HETATM   39  C20 UNL     1      83.989  62.361  15.684  1.00  0.00     0.001 A 
HETATM   40  C21 UNL     1      83.475  61.755  14.558  1.00  0.00     0.013 A 
ENDBRANCH  27  31
ENDBRANCH   7  25
TORSDOF 7
ENDMDL
