MODEL 1
REMARK VINA RESULT: -5.795463231      0.000      0.000
REMARK  7 active torsions:
REMARK  status: ('A' for Active; 'I' for Inactive)
REMARK    1  A    between atoms: N1_2  and  C2_5 
REMARK    2  A    between atoms: C2_5  and  C4_7 
REMARK       I    between atoms: C4_7  and  N2_9 
REMARK    3  A    between atoms: N2_9  and  C5_11 
REMARK    4  A    between atoms: C5_11  and  C6_12 
REMARK    5  A    between atoms: C5_11  and  C24_35 
REMARK       I    between atoms: C6_12  and  N3_14 
REMARK    6  A    between atoms: C10_18  and  C11_19 
REMARK    7  A    between atoms: C13_23  and  C14_24 
ROOT
HETATM    1  C6  UNL     1      74.214  65.546  14.339  1.00  0.00     0.243 C 
HETATM    2  O2  UNL     1      73.560  65.606  13.233  1.00  0.00    -0.271 OA
HETATM    3  N3  UNL     1      74.768  64.321  14.737  1.00  0.00    -0.340 N 
HETATM    4  C7  UNL     1      74.652  63.063  14.045  1.00  0.00     0.127 C 
HETATM    5  C8  UNL     1      74.575  62.061  15.185  1.00  0.00     0.022 C 
HETATM    6  C9  UNL     1      74.855  62.850  16.469  1.00  0.00     0.034 C 
HETATM    7  C10 UNL     1      75.585  64.070  15.891  1.00  0.00     0.144 C 
ENDROOT
BRANCH   1   8
HETATM    8  C5  UNL     1      74.345  66.769  15.128  1.00  0.00     0.181 C 
BRANCH   8   9
HETATM    9  N2  UNL     1      74.848  67.878  14.345  1.00  0.00    -0.346 N 
HETATM   10  C4  UNL     1      76.198  68.038  13.947  1.00  0.00     0.248 C 
HETATM   11  O1  UNL     1      77.083  67.210  14.258  1.00  0.00    -0.271 OA
ATOM     12  H2  UNL     1      74.183  68.596  14.059  1.00  0.00     0.163 HD
BRANCH  10  13
HETATM   13  C2  UNL     1      76.632  69.222  13.128  1.00  0.00     0.272 C 
HETATM   14  C3  UNL     1      76.254  70.461  13.927  1.00  0.00     0.050 C 
BRANCH  13  15
HETATM   15  N1  UNL     1      75.898  69.249  11.895  1.00  0.00    -0.067 N 
HETATM   16  C1  UNL     1      76.444  70.263  11.001  1.00  0.00     0.267 C 
ATOM     17  H12 UNL     1      74.899  69.378  12.051  1.00  0.00     0.277 HD
ATOM     18  H11 UNL     1      75.866  68.330  11.453  1.00  0.00     0.277 HD
ENDBRANCH  13  15
ENDBRANCH  10  13
ENDBRANCH   8   9
BRANCH   8  19
HETATM   19  C24 UNL     1      73.042  67.235  15.750  1.00  0.00     0.018 C 
HETATM   20  C25 UNL     1      73.224  68.630  16.363  1.00  0.00     0.007 C 
HETATM   21  C26 UNL     1      71.835  69.252  16.401  1.00  0.00     0.000 C 
HETATM   22  C27 UNL     1      70.859  68.166  16.787  1.00  0.00     0.000 C 
HETATM   23  C28 UNL     1      71.478  67.122  17.654  1.00  0.00     0.000 C 
HETATM   24  C29 UNL     1      72.528  66.362  16.845  1.00  0.00     0.007 C 
ENDBRANCH   8  19
ENDBRANCH   1   8
BRANCH   7  25
HETATM   25  C11 UNL     1      76.931  63.592  15.379  1.00  0.00     0.075 A 
HETATM   26  N4  UNL     1      77.668  64.090  14.414  1.00  0.00    -0.350 N 
HETATM   27  C12 UNL     1      78.811  63.543  14.104  1.00  0.00     0.061 A 
ATOM     28  H4  UNL     1      77.344  64.911  13.902  1.00  0.00     0.166 HD
HETATM   29  C13 UNL     1      79.697  63.978  13.091  1.00  0.00     0.002 A 
HETATM   30  C23 UNL     1      79.195  62.444  14.827  1.00  0.00     0.034 A 
HETATM   31  C20 UNL     1      80.864  63.298  12.885  1.00  0.00     0.014 A 
HETATM   32  C21 UNL     1      81.275  62.183  13.602  1.00  0.00     0.002 A 
HETATM   33  C22 UNL     1      80.398  61.761  14.599  1.00  0.00     0.021 A 
HETATM   34  S1  UNL     1      77.876  62.269  15.909  1.00  0.00    -0.072 SA
BRANCH  29  35
HETATM   35  C14 UNL     1      79.390  65.139  12.259  1.00  0.00    -0.024 A 
HETATM   36  C15 UNL     1      79.907  66.380  12.588  1.00  0.00     0.012 A 
HETATM   37  C16 UNL     1      79.617  67.473  11.799  1.00  0.00     0.001 A 
HETATM   38  C17 UNL     1      78.816  67.329  10.689  1.00  0.00     0.000 A 
HETATM   39  C18 UNL     1      78.275  66.093  10.323  1.00  0.00     0.001 A 
HETATM   40  C19 UNL     1      78.591  65.034  11.136  1.00  0.00     0.012 A 
ENDBRANCH  29  35
ENDBRANCH   7  25
TORSDOF 7
ENDMDL
