MODEL 2
REMARK VINA RESULT: -5.708694283      5.540      9.916
REMARK  7 active torsions:
REMARK  status: ('A' for Active; 'I' for Inactive)
REMARK    1  A    between atoms: N1_2  and  C2_5 
REMARK    2  A    between atoms: C2_5  and  C4_7 
REMARK       I    between atoms: C4_7  and  N2_9 
REMARK    3  A    between atoms: N2_9  and  C5_11 
REMARK    4  A    between atoms: C5_11  and  C6_12 
REMARK    5  A    between atoms: C5_11  and  C24_35 
REMARK       I    between atoms: C6_12  and  N3_14 
REMARK    6  A    between atoms: C10_18  and  C11_19 
REMARK    7  A    between atoms: C13_23  and  C14_24 
ROOT
HETATM    1  C6  UNL     1      80.921  59.241  13.512  1.00  0.00     0.243 C 
HETATM    2  O2  UNL     1      80.500  58.774  14.634  1.00  0.00    -0.271 OA
HETATM    3  N3  UNL     1      80.048  59.998  12.717  1.00  0.00    -0.340 N 
HETATM    4  C7  UNL     1      78.667  60.289  13.002  1.00  0.00     0.127 C 
HETATM    5  C8  UNL     1      78.031  60.271  11.622  1.00  0.00     0.022 C 
HETATM    6  C9  UNL     1      79.184  60.152  10.620  1.00  0.00     0.034 C 
HETATM    7  C10 UNL     1      80.351  60.659  11.479  1.00  0.00     0.144 C 
ENDROOT
BRANCH   1   8
HETATM    8  C5  UNL     1      82.301  58.956  13.123  1.00  0.00     0.181 C 
BRANCH   8   9
HETATM    9  N2  UNL     1      83.228  59.118  14.224  1.00  0.00    -0.346 N 
HETATM   10  C4  UNL     1      84.010  60.276  14.456  1.00  0.00     0.248 C 
HETATM   11  O1  UNL     1      83.959  61.272  13.702  1.00  0.00    -0.271 OA
ATOM     12  H2  UNL     1      83.325  58.343  14.879  1.00  0.00     0.163 HD
BRANCH  10  13
HETATM   13  C2  UNL     1      84.946  60.360  15.631  1.00  0.00     0.272 C 
HETATM   14  C3  UNL     1      84.650  61.683  16.324  1.00  0.00     0.050 C 
BRANCH  13  15
HETATM   15  N1  UNL     1      86.302  60.399  15.163  1.00  0.00    -0.067 N 
HETATM   16  C1  UNL     1      86.607  59.201  14.389  1.00  0.00     0.267 C 
ATOM     17  H12 UNL     1      86.963  60.537  15.927  1.00  0.00     0.277 HD
ATOM     18  H11 UNL     1      86.498  61.251  14.637  1.00  0.00     0.277 HD
ENDBRANCH  13  15
ENDBRANCH  10  13
ENDBRANCH   8   9
BRANCH   8  19
HETATM   19  C24 UNL     1      82.506  57.551  12.589  1.00  0.00     0.018 C 
HETATM   20  C25 UNL     1      83.745  56.919  13.238  1.00  0.00     0.007 C 
HETATM   21  C26 UNL     1      83.541  55.414  13.147  1.00  0.00     0.000 C 
HETATM   22  C27 UNL     1      82.918  55.117  11.803  1.00  0.00     0.000 C 
HETATM   23  C28 UNL     1      83.312  56.107  10.759  1.00  0.00     0.000 C 
HETATM   24  C29 UNL     1      82.718  57.469  11.115  1.00  0.00     0.007 C 
ENDBRANCH   8  19
ENDBRANCH   1   8
BRANCH   7  25
HETATM   25  C11 UNL     1      80.134  62.142  11.709  1.00  0.00     0.075 A 
HETATM   26  N4  UNL     1      79.557  63.021  10.924  1.00  0.00    -0.350 N 
HETATM   27  C12 UNL     1      79.459  64.270  11.287  1.00  0.00     0.061 A 
ATOM     28  H4  UNL     1      79.182  62.725  10.022  1.00  0.00     0.166 HD
HETATM   29  C13 UNL     1      78.863  65.311  10.538  1.00  0.00     0.002 A 
HETATM   30  C23 UNL     1      79.978  64.609  12.508  1.00  0.00     0.034 A 
HETATM   31  C20 UNL     1      78.836  66.576  11.054  1.00  0.00     0.014 A 
HETATM   32  C21 UNL     1      79.356  66.945  12.287  1.00  0.00     0.002 A 
HETATM   33  C22 UNL     1      79.940  65.914  13.019  1.00  0.00     0.021 A 
HETATM   34  S1  UNL     1      80.579  63.098  13.055  1.00  0.00    -0.072 SA
BRANCH  29  35
HETATM   35  C14 UNL     1      78.277  65.065   9.223  1.00  0.00    -0.024 A 
HETATM   36  C15 UNL     1      79.050  65.218   8.084  1.00  0.00     0.012 A 
HETATM   37  C16 UNL     1      78.494  64.982   6.844  1.00  0.00     0.001 A 
HETATM   38  C17 UNL     1      77.177  64.597   6.741  1.00  0.00     0.000 A 
HETATM   39  C18 UNL     1      76.364  64.431   7.867  1.00  0.00     0.001 A 
HETATM   40  C19 UNL     1      76.959  64.675   9.078  1.00  0.00     0.012 A 
ENDBRANCH  29  35
ENDBRANCH   7  25
TORSDOF 7
ENDMDL
