MODEL 3
REMARK VINA RESULT: -5.703399347      9.049     14.583
REMARK  7 active torsions:
REMARK  status: ('A' for Active; 'I' for Inactive)
REMARK    1  A    between atoms: N1_2  and  C2_5 
REMARK    2  A    between atoms: C2_5  and  C4_7 
REMARK       I    between atoms: C4_7  and  N2_9 
REMARK    3  A    between atoms: N2_9  and  C5_11 
REMARK    4  A    between atoms: C5_11  and  C6_12 
REMARK    5  A    between atoms: C5_11  and  C24_35 
REMARK       I    between atoms: C6_12  and  N3_14 
REMARK    6  A    between atoms: C10_18  and  C11_19 
REMARK    7  A    between atoms: C13_23  and  C14_24 
ROOT
HETATM    1  C6  UNL     1      88.609  57.448  11.740  1.00  0.00     0.243 C 
HETATM    2  O2  UNL     1      89.137  56.390  12.247  1.00  0.00    -0.271 OA
HETATM    3  N3  UNL     1      87.242  57.689  11.937  1.00  0.00    -0.340 N 
HETATM    4  C7  UNL     1      86.314  56.835  12.632  1.00  0.00     0.127 C 
HETATM    5  C8  UNL     1      85.032  57.016  11.834  1.00  0.00     0.022 C 
HETATM    6  C9  UNL     1      85.307  58.143  10.833  1.00  0.00     0.034 C 
HETATM    7  C10 UNL     1      86.492  58.838  11.516  1.00  0.00     0.144 C 
ENDROOT
BRANCH   1   8
HETATM    8  C5  UNL     1      89.472  58.351  10.980  1.00  0.00     0.181 C 
BRANCH   8   9
HETATM    9  N2  UNL     1      90.640  58.760  11.733  1.00  0.00    -0.346 N 
HETATM   10  C4  UNL     1      90.701  59.902  12.569  1.00  0.00     0.248 C 
HETATM   11  O1  UNL     1      89.723  60.667  12.719  1.00  0.00    -0.271 OA
ATOM     12  H2  UNL     1      91.478  58.185  11.656  1.00  0.00     0.163 HD
BRANCH  10  13
HETATM   13  C2  UNL     1      91.957  60.250  13.320  1.00  0.00     0.272 C 
HETATM   14  C3  UNL     1      92.578  58.931  13.755  1.00  0.00     0.050 C 
BRANCH  13  15
HETATM   15  N1  UNL     1      91.620  60.992  14.501  1.00  0.00    -0.067 N 
HETATM   16  C1  UNL     1      92.830  61.397  15.209  1.00  0.00     0.267 C 
ATOM     17  H12 UNL     1      90.982  60.476  15.105  1.00  0.00     0.277 HD
ATOM     18  H11 UNL     1      91.019  61.789  14.291  1.00  0.00     0.277 HD
ENDBRANCH  13  15
ENDBRANCH  10  13
ENDBRANCH   8   9
BRANCH   8  19
HETATM   19  C24 UNL     1      89.982  57.756   9.681  1.00  0.00     0.018 C 
HETATM   20  C25 UNL     1      90.964  58.727   9.011  1.00  0.00     0.007 C 
HETATM   21  C26 UNL     1      91.849  57.871   8.117  1.00  0.00     0.000 C 
HETATM   22  C27 UNL     1      90.974  56.818   7.480  1.00  0.00     0.000 C 
HETATM   23  C28 UNL     1      89.567  57.277   7.298  1.00  0.00     0.000 C 
HETATM   24  C29 UNL     1      88.924  57.469   8.670  1.00  0.00     0.007 C 
ENDBRANCH   8  19
ENDBRANCH   1   8
BRANCH   7  25
HETATM   25  C11 UNL     1      85.965  59.502  12.774  1.00  0.00     0.075 A 
HETATM   26  N4  UNL     1      84.839  60.155  12.950  1.00  0.00    -0.350 N 
HETATM   27  C12 UNL     1      84.546  60.667  14.113  1.00  0.00     0.061 A 
ATOM     28  H4  UNL     1      84.189  60.262  12.171  1.00  0.00     0.166 HD
HETATM   29  C13 UNL     1      83.373  61.389  14.434  1.00  0.00     0.002 A 
HETATM   30  C23 UNL     1      85.455  60.489  15.122  1.00  0.00     0.034 A 
HETATM   31  C20 UNL     1      83.207  61.866  15.704  1.00  0.00     0.014 A 
HETATM   32  C21 UNL     1      84.113  61.701  16.742  1.00  0.00     0.002 A 
HETATM   33  C22 UNL     1      85.265  60.987  16.419  1.00  0.00     0.021 A 
HETATM   34  S1  UNL     1      86.681  59.594  14.324  1.00  0.00    -0.072 SA
BRANCH  29  35
HETATM   35  C14 UNL     1      82.335  61.638  13.437  1.00  0.00    -0.024 A 
HETATM   36  C15 UNL     1      82.071  60.689  12.465  1.00  0.00     0.012 A 
HETATM   37  C16 UNL     1      81.089  60.927  11.526  1.00  0.00     0.001 A 
HETATM   38  C17 UNL     1      80.376  62.103  11.556  1.00  0.00     0.000 A 
HETATM   39  C18 UNL     1      80.612  63.086  12.523  1.00  0.00     0.001 A 
HETATM   40  C19 UNL     1      81.597  62.806  13.435  1.00  0.00     0.012 A 
ENDBRANCH  29  35
ENDBRANCH   7  25
TORSDOF 7
ENDMDL
