MODEL 1
REMARK VINA RESULT: -5.997849953      0.000      0.000
REMARK  2 active torsions:
REMARK  status: ('A' for Active; 'I' for Inactive)
REMARK    1  A    between atoms: C1_2  and  C2_4 
REMARK    2  A    between atoms: C7_9  and  C8_10 
ROOT
HETATM    1  C2  UNL     1      24.918   7.296  17.549  1.00  0.00     0.098 C 
HETATM    2  C3  UNL     1      23.458   7.274  17.856  1.00  0.00     0.016 C 
HETATM    3  C4  UNL     1      22.783   8.602  17.692  1.00  0.00     0.001 C 
HETATM    4  C5  UNL     1      23.726   9.556  16.990  1.00  0.00     0.001 C 
HETATM    5  C6  UNL     1      24.218   8.868  15.745  1.00  0.00     0.013 C 
HETATM    6  C7  UNL     1      25.241   7.828  16.184  1.00  0.00     0.069 C 
ENDROOT
BRANCH   6   7
HETATM    7  C8  UNL     1      25.309   6.756  15.163  1.00  0.00     0.102 A 
HETATM    8  N1  UNL     1      26.396   6.072  14.767  1.00  0.00    -0.287 N 
HETATM    9  N2  UNL     1      26.090   5.185  13.833  1.00  0.00    -0.278 N 
ATOM     10  H1  UNL     1      27.335   6.218  15.138  1.00  0.00     0.188 HD
HETATM   11  C9  UNL     1      24.772   5.288  13.608  1.00  0.00     0.171 A 
ATOM     12  H2  UNL     1      26.735   4.544  13.371  1.00  0.00     0.189 HD
HETATM   13  S1  UNL     1      23.880   4.297  12.429  1.00  0.00    -0.012 SA
HETATM   14  N3  UNL     1      24.307   6.247  14.424  1.00  0.00    -0.323 N 
ATOM     15  H3  UNL     1      23.334   6.547  14.476  1.00  0.00     0.169 HD
ENDBRANCH   6   7
BRANCH   1  16
HETATM   16  C1  UNL     1      25.498   5.967  17.808  1.00  0.00     0.177 C 
HETATM   17  O1  UNL     1      26.696   5.880  18.144  1.00  0.00    -0.648 OA
HETATM   18  O2  UNL     1      24.759   4.807  17.688  1.00  0.00    -0.648 OA
ENDBRANCH   1  16
TORSDOF 2
ENDMDL
