MODEL 3
REMARK VINA RESULT: -5.685156074      3.672      5.707
REMARK  2 active torsions:
REMARK  status: ('A' for Active; 'I' for Inactive)
REMARK    1  A    between atoms: C1_2  and  C2_4 
REMARK    2  A    between atoms: C7_9  and  C8_10 
ROOT
HETATM    1  C2  UNL     1      24.043   4.821  12.232  1.00  0.00     0.098 C 
HETATM    2  C3  UNL     1      23.863   5.657  11.010  1.00  0.00     0.016 C 
HETATM    3  C4  UNL     1      22.979   5.032   9.973  1.00  0.00     0.001 C 
HETATM    4  C5  UNL     1      22.283   3.828  10.572  1.00  0.00     0.001 C 
HETATM    5  C6  UNL     1      21.640   4.273  11.858  1.00  0.00     0.013 C 
HETATM    6  C7  UNL     1      22.754   4.421  12.886  1.00  0.00     0.069 C 
ENDROOT
BRANCH   6   7
HETATM    7  C8  UNL     1      22.326   5.386  13.927  1.00  0.00     0.102 A 
HETATM    8  N1  UNL     1      21.687   6.554  13.743  1.00  0.00    -0.287 N 
HETATM    9  N2  UNL     1      21.460   7.162  14.898  1.00  0.00    -0.278 N 
ATOM     10  H1  UNL     1      21.413   6.925  12.833  1.00  0.00     0.188 HD
HETATM   11  C9  UNL     1      21.962   6.376  15.862  1.00  0.00     0.171 A 
ATOM     12  H2  UNL     1      20.991   8.058  15.029  1.00  0.00     0.189 HD
HETATM   13  S1  UNL     1      21.901   6.765  17.598  1.00  0.00    -0.012 SA
HETATM   14  N3  UNL     1      22.486   5.299  15.258  1.00  0.00    -0.323 N 
ATOM     15  H3  UNL     1      22.940   4.524  15.741  1.00  0.00     0.169 HD
ENDBRANCH   6   7
BRANCH   1  16
HETATM   16  C1  UNL     1      24.980   5.487  13.154  1.00  0.00     0.177 C 
HETATM   17  O1  UNL     1      25.925   4.835  13.638  1.00  0.00    -0.648 OA
HETATM   18  O2  UNL     1      24.846   6.817  13.502  1.00  0.00    -0.648 OA
ENDBRANCH   1  16
TORSDOF 2
ENDMDL
