MODEL 2
REMARK VINA RESULT: -5.816153063      3.544      5.534
REMARK  2 active torsions:
REMARK  status: ('A' for Active; 'I' for Inactive)
REMARK    1  A    between atoms: C1_2  and  C2_4 
REMARK    2  A    between atoms: C7_9  and  C8_10 
ROOT
HETATM    1  C2  UNL     1      23.286   5.851  11.590  1.00  0.00     0.098 C 
HETATM    2  C3  UNL     1      21.809   5.678  11.710  1.00  0.00     0.016 C 
HETATM    3  C4  UNL     1      21.321   4.324  11.295  1.00  0.00     0.001 C 
HETATM    4  C5  UNL     1      22.507   3.399  11.121  1.00  0.00     0.001 C 
HETATM    5  C6  UNL     1      23.333   3.486  12.375  1.00  0.00     0.013 C 
HETATM    6  C7  UNL     1      24.078   4.814  12.329  1.00  0.00     0.069 C 
ENDROOT
BRANCH   6   7
HETATM    7  C8  UNL     1      24.404   5.233  13.714  1.00  0.00     0.102 A 
HETATM    8  N1  UNL     1      25.620   5.495  14.223  1.00  0.00    -0.287 N 
HETATM    9  N2  UNL     1      25.539   5.844  15.498  1.00  0.00    -0.278 N 
ATOM     10  H1  UNL     1      26.491   5.434  13.695  1.00  0.00     0.188 HD
HETATM   11  C9  UNL     1      24.242   5.809  15.835  1.00  0.00     0.171 A 
ATOM     12  H2  UNL     1      26.318   6.093  16.108  1.00  0.00     0.189 HD
HETATM   13  S1  UNL     1      23.622   6.200  17.457  1.00  0.00    -0.012 SA
HETATM   14  N3  UNL     1      23.561   5.436  14.741  1.00  0.00    -0.323 N 
ATOM     15  H3  UNL     1      22.548   5.323  14.695  1.00  0.00     0.169 HD
ENDBRANCH   6   7
BRANCH   1  16
HETATM   16  C1  UNL     1      23.654   7.231  11.953  1.00  0.00     0.177 C 
HETATM   17  O1  UNL     1      24.643   7.760  11.410  1.00  0.00    -0.648 OA
HETATM   18  O2  UNL     1      22.938   7.962  12.880  1.00  0.00    -0.648 OA
ENDBRANCH   1  16
TORSDOF 2
ENDMDL
