MODEL 11
REMARK VINA RESULT: -4.731735545      3.138      4.100
REMARK  2 active torsions:
REMARK  status: ('A' for Active; 'I' for Inactive)
REMARK       I    between atoms: C2_2  and  N1_4 
REMARK    1  A    between atoms: N1_4  and  C3_6 
REMARK    2  A    between atoms: C6_10  and  C7_11 
ROOT
HETATM    1  C3  UNL     1     -34.921   5.931  16.402  1.00  0.00     0.059 A 
HETATM    2  C4  UNL     1     -35.235   7.223  16.216  1.00  0.00     0.038 A 
HETATM    3  C5  UNL     1     -35.824   7.900  17.248  1.00  0.00     0.053 A 
HETATM    4  S1  UNL     1     -35.936   6.734  18.472  1.00  0.00    -0.093 SA
HETATM    5  C6  UNL     1     -35.224   5.400  17.631  1.00  0.00     0.108 A 
ENDROOT
BRANCH   1   6
HETATM    6  N1  UNL     1     -34.300   5.079  15.422  1.00  0.00    -0.326 N 
HETATM    7  C2  UNL     1     -35.015   4.527  14.350  1.00  0.00     0.218 C 
HETATM    8  C1  UNL     1     -34.227   3.647  13.394  1.00  0.00     0.117 C 
HETATM    9  O1  UNL     1     -36.218   4.696  14.121  1.00  0.00    -0.274 OA
ATOM     10  H1  UNL     1     -33.305   4.869  15.510  1.00  0.00     0.169 HD
ENDBRANCH   1   6
BRANCH   5  11
HETATM   11  C7  UNL     1     -35.033   4.062  18.184  1.00  0.00     0.218 C 
HETATM   12  O2  UNL     1     -34.633   3.110  17.427  1.00  0.00    -0.643 OA
HETATM   13  O3  UNL     1     -35.248   3.697  19.487  1.00  0.00    -0.643 OA
ENDBRANCH   5  11
TORSDOF 2
ENDMDL
