MODEL 12
REMARK VINA RESULT: -4.680708694      5.202      6.075
REMARK  2 active torsions:
REMARK  status: ('A' for Active; 'I' for Inactive)
REMARK       I    between atoms: C2_2  and  N1_4 
REMARK    1  A    between atoms: N1_4  and  C3_6 
REMARK    2  A    between atoms: C6_10  and  C7_11 
ROOT
HETATM    1  C3  UNL     1     -36.257   4.696  12.822  1.00  0.00     0.059 A 
HETATM    2  C4  UNL     1     -35.744   4.384  11.622  1.00  0.00     0.038 A 
HETATM    3  C5  UNL     1     -36.437   3.511  10.829  1.00  0.00     0.053 A 
HETATM    4  S1  UNL     1     -37.801   3.131  11.759  1.00  0.00    -0.093 SA
HETATM    5  C6  UNL     1     -37.451   4.101  13.148  1.00  0.00     0.108 A 
ENDROOT
BRANCH   1   6
HETATM    6  N1  UNL     1     -35.657   5.593  13.775  1.00  0.00    -0.326 N 
HETATM    7  C2  UNL     1     -34.604   5.200  14.612  1.00  0.00     0.218 C 
HETATM    8  C1  UNL     1     -34.069   6.254  15.567  1.00  0.00     0.117 C 
HETATM    9  O1  UNL     1     -34.080   4.080  14.636  1.00  0.00    -0.274 OA
ATOM     10  H1  UNL     1     -36.009   6.548  13.842  1.00  0.00     0.169 HD
ENDBRANCH   1   6
BRANCH   5  11
HETATM   11  C7  UNL     1     -38.290   4.198  14.339  1.00  0.00     0.218 C 
HETATM   12  O2  UNL     1     -39.566   4.157  14.227  1.00  0.00    -0.643 OA
HETATM   13  O3  UNL     1     -37.840   4.336  15.626  1.00  0.00    -0.643 OA
ENDBRANCH   5  11
TORSDOF 2
ENDMDL
