MODEL 6
REMARK VINA RESULT: -4.859944872      2.959      4.237
REMARK  2 active torsions:
REMARK  status: ('A' for Active; 'I' for Inactive)
REMARK       I    between atoms: C2_2  and  N1_4 
REMARK    1  A    between atoms: N1_4  and  C3_6 
REMARK    2  A    between atoms: C6_10  and  C7_11 
ROOT
HETATM    1  C3  UNL     1     -36.044   5.551  16.393  1.00  0.00     0.059 A 
HETATM    2  C4  UNL     1     -36.880   6.595  16.279  1.00  0.00     0.038 A 
HETATM    3  C5  UNL     1     -36.990   7.453  17.338  1.00  0.00     0.053 A 
HETATM    4  S1  UNL     1     -35.929   6.802  18.487  1.00  0.00    -0.093 SA
HETATM    5  C6  UNL     1     -35.365   5.439  17.581  1.00  0.00     0.108 A 
ENDROOT
BRANCH   1   6
HETATM    6  N1  UNL     1     -35.812   4.558  15.376  1.00  0.00    -0.326 N 
HETATM    7  C2  UNL     1     -34.827   4.711  14.392  1.00  0.00     0.218 C 
HETATM    8  C1  UNL     1     -34.696   3.581  13.384  1.00  0.00     0.117 C 
HETATM    9  O1  UNL     1     -34.065   5.679  14.277  1.00  0.00    -0.274 OA
ATOM     10  H1  UNL     1     -36.385   3.713  15.373  1.00  0.00     0.169 HD
ENDBRANCH   1   6
BRANCH   5  11
HETATM   11  C7  UNL     1     -34.394   4.457  18.056  1.00  0.00     0.218 C 
HETATM   12  O2  UNL     1     -34.647   3.206  17.949  1.00  0.00    -0.643 OA
HETATM   13  O3  UNL     1     -33.185   4.742  18.634  1.00  0.00    -0.643 OA
ENDBRANCH   5  11
TORSDOF 2
ENDMDL
