MODEL 19
REMARK VINA RESULT: -4.499553593      3.664      5.111
REMARK  2 active torsions:
REMARK  status: ('A' for Active; 'I' for Inactive)
REMARK       I    between atoms: C2_2  and  N1_4 
REMARK    1  A    between atoms: N1_4  and  C3_6 
REMARK    2  A    between atoms: C6_10  and  C7_11 
ROOT
HETATM    1  C3  UNL     1     -36.423   5.683  15.171  1.00  0.00     0.059 A 
HETATM    2  C4  UNL     1     -37.117   6.780  14.831  1.00  0.00     0.038 A 
HETATM    3  C5  UNL     1     -36.999   7.890  15.621  1.00  0.00     0.053 A 
HETATM    4  S1  UNL     1     -35.921   7.399  16.833  1.00  0.00    -0.093 SA
HETATM    5  C6  UNL     1     -35.645   5.777  16.298  1.00  0.00     0.108 A 
ENDROOT
BRANCH   1   6
HETATM    6  N1  UNL     1     -36.435   4.436  14.450  1.00  0.00    -0.326 N 
HETATM    7  C2  UNL     1     -35.594   4.197  13.354  1.00  0.00     0.218 C 
HETATM    8  C1  UNL     1     -35.717   2.835  12.692  1.00  0.00     0.117 C 
HETATM    9  O1  UNL     1     -34.771   4.994  12.888  1.00  0.00    -0.274 OA
ATOM     10  H1  UNL     1     -37.077   3.701  14.747  1.00  0.00     0.169 HD
ENDBRANCH   1   6
BRANCH   5  11
HETATM   11  C7  UNL     1     -34.771   4.811  16.959  1.00  0.00     0.218 C 
HETATM   12  O2  UNL     1     -33.665   5.199  17.474  1.00  0.00    -0.643 OA
HETATM   13  O3  UNL     1     -35.018   3.470  17.092  1.00  0.00    -0.643 OA
ENDBRANCH   5  11
TORSDOF 2
ENDMDL
