MODEL 1
REMARK VINA RESULT: -5.440161368      0.000      0.000
REMARK  2 active torsions:
REMARK  status: ('A' for Active; 'I' for Inactive)
REMARK       I    between atoms: C2_2  and  N1_4 
REMARK    1  A    between atoms: N1_4  and  C3_6 
REMARK    2  A    between atoms: C6_10  and  C7_11 
ROOT
HETATM    1  C3  UNL     1     -35.407   6.305  18.751  1.00  0.00     0.059 A 
HETATM    2  C4  UNL     1     -35.432   6.882  17.539  1.00  0.00     0.038 A 
HETATM    3  C5  UNL     1     -36.505   6.636  16.728  1.00  0.00     0.053 A 
HETATM    4  S1  UNL     1     -37.474   5.604  17.659  1.00  0.00    -0.093 SA
HETATM    5  C6  UNL     1     -36.479   5.510  19.071  1.00  0.00     0.108 A 
ENDROOT
BRANCH   1   6
HETATM    6  N1  UNL     1     -34.354   6.459  19.722  1.00  0.00    -0.326 N 
HETATM    7  C2  UNL     1     -33.223   5.632  19.737  1.00  0.00     0.218 C 
HETATM    8  C1  UNL     1     -32.194   5.912  20.819  1.00  0.00     0.117 C 
HETATM    9  O1  UNL     1     -32.996   4.705  18.950  1.00  0.00    -0.274 OA
ATOM     10  H1  UNL     1     -34.435   7.196  20.423  1.00  0.00     0.169 HD
ENDBRANCH   1   6
BRANCH   5  11
HETATM   11  C7  UNL     1     -36.791   4.738  20.270  1.00  0.00     0.218 C 
HETATM   12  O2  UNL     1     -35.999   3.809  20.656  1.00  0.00    -0.643 OA
HETATM   13  O3  UNL     1     -37.894   4.907  21.066  1.00  0.00    -0.643 OA
ENDBRANCH   5  11
TORSDOF 2
ENDMDL
