MODEL 2
REMARK VINA RESULT: -5.402137151      1.183      1.183
REMARK  2 active torsions:
REMARK  status: ('A' for Active; 'I' for Inactive)
REMARK       I    between atoms: C2_2  and  N1_4 
REMARK    1  A    between atoms: N1_4  and  C3_6 
REMARK    2  A    between atoms: C6_10  and  C7_11 
ROOT
HETATM    1  C3  UNL     1     -34.426   5.826  18.448  1.00  0.00     0.059 A 
HETATM    2  C4  UNL     1     -34.206   6.143  17.163  1.00  0.00     0.038 A 
HETATM    3  C5  UNL     1     -35.028   5.602  16.214  1.00  0.00     0.053 A 
HETATM    4  S1  UNL     1     -36.104   4.655  17.117  1.00  0.00    -0.093 SA
HETATM    5  C6  UNL     1     -35.474   4.974  18.696  1.00  0.00     0.108 A 
ENDROOT
BRANCH   1   6
HETATM    6  N1  UNL     1     -33.655   6.307  19.566  1.00  0.00    -0.326 N 
HETATM    7  C2  UNL     1     -32.628   5.552  20.146  1.00  0.00     0.218 C 
HETATM    8  C1  UNL     1     -31.900   6.189  21.319  1.00  0.00     0.117 C 
HETATM    9  O1  UNL     1     -32.268   4.425  19.787  1.00  0.00    -0.274 OA
ATOM     10  H1  UNL     1     -33.865   7.230  19.948  1.00  0.00     0.169 HD
ENDBRANCH   1   6
BRANCH   5  11
HETATM   11  C7  UNL     1     -36.001   4.420  19.940  1.00  0.00     0.218 C 
HETATM   12  O2  UNL     1     -35.638   3.254  20.324  1.00  0.00    -0.643 OA
HETATM   13  O3  UNL     1     -36.885   5.042  20.782  1.00  0.00    -0.643 OA
ENDBRANCH   5  11
TORSDOF 2
ENDMDL
