MODEL 6
REMARK VINA RESULT: -6.895611935      0.931      1.142
REMARK  3 active torsions:
REMARK  status: ('A' for Active; 'I' for Inactive)
REMARK    1  A    between atoms: C1_2  and  C2_4 
REMARK    2  A    between atoms: N1_8  and  C5_9 
REMARK    3  A    between atoms: C10_14  and  O4_15 
ROOT
HETATM    1  C2  UNL     1      12.875  44.474  25.624  1.00  0.00     0.114 C 
HETATM    2  C3  UNL     1      14.109  45.298  25.335  1.00  0.00     0.120 C 
HETATM    3  C4  UNL     1      14.501  45.724  26.706  1.00  0.00     0.225 C 
HETATM    4  O3  UNL     1      15.580  46.264  27.037  1.00  0.00    -0.273 OA
HETATM    5  N1  UNL     1      13.443  45.415  27.601  1.00  0.00    -0.315 N 
HETATM    6  C11 UNL     1      12.247  45.318  26.747  1.00  0.00     0.148 C 
ENDROOT
BRANCH   5   7
HETATM    7  C5  UNL     1      13.428  45.214  28.994  1.00  0.00     0.070 A 
HETATM    8  C6  UNL     1      13.495  46.290  29.889  1.00  0.00     0.033 A 
HETATM    9  C7  UNL     1      13.481  46.087  31.233  1.00  0.00     0.002 A 
HETATM   10  C8  UNL     1      13.399  44.812  31.770  1.00  0.00     0.003 A 
HETATM   11  C9  UNL     1      13.331  43.737  30.913  1.00  0.00     0.039 A 
HETATM   12  C10 UNL     1      13.346  43.958  29.537  1.00  0.00     0.092 A 
BRANCH  12  13
HETATM   13  O4  UNL     1      13.277  42.847  28.702  1.00  0.00    -0.358 OA
ATOM     14  H4  UNL     1      13.807  42.082  28.891  1.00  0.00     0.217 HD
ENDBRANCH  12  13
ENDBRANCH   5   7
BRANCH   1  15
HETATM   15  C1  UNL     1      11.962  44.362  24.488  1.00  0.00     0.179 C 
HETATM   16  O1  UNL     1      10.801  44.801  24.561  1.00  0.00    -0.648 OA
HETATM   17  O2  UNL     1      12.420  43.758  23.328  1.00  0.00    -0.648 OA
ENDBRANCH   1  15
TORSDOF 3
ENDMDL
