MODEL 3
REMARK VINA RESULT: -7.082274916      1.472      2.247
REMARK  3 active torsions:
REMARK  status: ('A' for Active; 'I' for Inactive)
REMARK    1  A    between atoms: C1_2  and  C2_4 
REMARK    2  A    between atoms: N1_8  and  C5_9 
REMARK    3  A    between atoms: C10_14  and  O4_15 
ROOT
HETATM    1  C2  UNL     1      13.455  46.020  25.600  1.00  0.00     0.114 C 
HETATM    2  C3  UNL     1      11.963  46.225  25.726  1.00  0.00     0.120 C 
HETATM    3  C4  UNL     1      11.717  45.721  27.105  1.00  0.00     0.225 C 
HETATM    4  O3  UNL     1      10.665  45.856  27.769  1.00  0.00    -0.273 OA
HETATM    5  N1  UNL     1      12.883  45.052  27.562  1.00  0.00    -0.315 N 
HETATM    6  C11 UNL     1      13.604  44.677  26.334  1.00  0.00     0.148 C 
ENDROOT
BRANCH   5   7
HETATM    7  C5  UNL     1      13.347  44.767  28.860  1.00  0.00     0.070 A 
HETATM    8  C6  UNL     1      13.994  45.739  29.635  1.00  0.00     0.033 A 
HETATM    9  C7  UNL     1      14.440  45.455  30.887  1.00  0.00     0.002 A 
HETATM   10  C8  UNL     1      14.273  44.198  31.446  1.00  0.00     0.003 A 
HETATM   11  C9  UNL     1      13.639  43.225  30.707  1.00  0.00     0.039 A 
HETATM   12  C10 UNL     1      13.187  43.528  29.424  1.00  0.00     0.092 A 
BRANCH  12  13
HETATM   13  O4  UNL     1      12.552  42.519  28.706  1.00  0.00    -0.358 OA
ATOM     14  H4  UNL     1      12.476  41.650  29.081  1.00  0.00     0.217 HD
ENDBRANCH  12  13
ENDBRANCH   5   7
BRANCH   1  15
HETATM   15  C1  UNL     1      13.919  45.910  24.218  1.00  0.00     0.179 C 
HETATM   16  O1  UNL     1      15.134  45.857  23.960  1.00  0.00    -0.648 OA
HETATM   17  O2  UNL     1      12.975  45.864  23.204  1.00  0.00    -0.648 OA
ENDBRANCH   1  15
TORSDOF 3
ENDMDL
