MODEL 5
REMARK VINA RESULT: -7.016578915      2.073      5.483
REMARK  3 active torsions:
REMARK  status: ('A' for Active; 'I' for Inactive)
REMARK    1  A    between atoms: C1_2  and  C2_4 
REMARK    2  A    between atoms: N1_8  and  C5_9 
REMARK    3  A    between atoms: C10_14  and  O4_15 
ROOT
HETATM    1  C2  UNL     1      13.562  45.297  29.982  1.00  0.00     0.114 C 
HETATM    2  C3  UNL     1      13.105  43.857  29.930  1.00  0.00     0.120 C 
HETATM    3  C4  UNL     1      12.955  43.654  28.463  1.00  0.00     0.225 C 
HETATM    4  O3  UNL     1      12.786  42.561  27.878  1.00  0.00    -0.273 OA
HETATM    5  N1  UNL     1      13.035  44.914  27.816  1.00  0.00    -0.315 N 
HETATM    6  C11 UNL     1      12.694  45.894  28.861  1.00  0.00     0.148 C 
ENDROOT
BRANCH   5   7
HETATM    7  C5  UNL     1      13.366  45.264  26.493  1.00  0.00     0.070 A 
HETATM    8  C6  UNL     1      14.670  45.632  26.137  1.00  0.00     0.033 A 
HETATM    9  C7  UNL     1      14.980  45.970  24.858  1.00  0.00     0.002 A 
HETATM   10  C8  UNL     1      14.022  45.963  23.856  1.00  0.00     0.003 A 
HETATM   11  C9  UNL     1      12.733  45.604  24.178  1.00  0.00     0.039 A 
HETATM   12  C10 UNL     1      12.428  45.260  25.494  1.00  0.00     0.092 A 
BRANCH  12  13
HETATM   13  O4  UNL     1      11.113  44.904  25.782  1.00  0.00    -0.358 OA
ATOM     14  H4  UNL     1      10.567  45.491  26.291  1.00  0.00     0.217 HD
ENDBRANCH  12  13
ENDBRANCH   5   7
BRANCH   1  15
HETATM   15  C1  UNL     1      13.288  45.957  31.257  1.00  0.00     0.179 C 
HETATM   16  O1  UNL     1      13.209  47.195  31.326  1.00  0.00    -0.648 OA
HETATM   17  O2  UNL     1      13.116  45.171  32.385  1.00  0.00    -0.648 OA
ENDBRANCH   1  15
TORSDOF 3
ENDMDL
