MODEL 1
REMARK VINA RESULT: -7.689122578      0.000      0.000
REMARK  3 active torsions:
REMARK  status: ('A' for Active; 'I' for Inactive)
REMARK    1  A    between atoms: C1_2  and  C2_4 
REMARK    2  A    between atoms: N1_8  and  C5_9 
REMARK    3  A    between atoms: C10_14  and  O4_15 
ROOT
HETATM    1  C2  UNL     1      12.221  45.180  25.232  1.00  0.00     0.114 C 
HETATM    2  C3  UNL     1      13.576  45.787  24.948  1.00  0.00     0.120 C 
HETATM    3  C4  UNL     1      14.169  45.825  26.313  1.00  0.00     0.225 C 
HETATM    4  O3  UNL     1      15.364  46.060  26.598  1.00  0.00    -0.273 OA
HETATM    5  N1  UNL     1      13.150  45.548  27.262  1.00  0.00    -0.315 N 
HETATM    6  C11 UNL     1      11.893  45.872  26.566  1.00  0.00     0.148 C 
ENDROOT
BRANCH   5   7
HETATM    7  C5  UNL     1      13.211  45.062  28.581  1.00  0.00     0.070 A 
HETATM    8  C6  UNL     1      13.395  45.924  29.671  1.00  0.00     0.033 A 
HETATM    9  C7  UNL     1      13.455  45.446  30.941  1.00  0.00     0.002 A 
HETATM   10  C8  UNL     1      13.335  44.092  31.211  1.00  0.00     0.003 A 
HETATM   11  C9  UNL     1      13.152  43.223  30.159  1.00  0.00     0.039 A 
HETATM   12  C10 UNL     1      13.094  43.725  28.861  1.00  0.00     0.092 A 
BRANCH  12  13
HETATM   13  O4  UNL     1      12.909  42.817  27.823  1.00  0.00    -0.358 OA
ATOM     14  H4  UNL     1      13.662  42.486  27.346  1.00  0.00     0.217 HD
ENDBRANCH  12  13
ENDBRANCH   5   7
BRANCH   1  15
HETATM   15  C1  UNL     1      11.212  45.495  24.223  1.00  0.00     0.179 C 
HETATM   16  O1  UNL     1      10.445  44.614  23.798  1.00  0.00    -0.648 OA
HETATM   17  O2  UNL     1      11.127  46.796  23.754  1.00  0.00    -0.648 OA
ENDBRANCH   1  15
TORSDOF 3
ENDMDL
