MODEL 9
REMARK VINA RESULT: -6.675183972      2.405      5.761
REMARK  3 active torsions:
REMARK  status: ('A' for Active; 'I' for Inactive)
REMARK    1  A    between atoms: C1_2  and  C2_4 
REMARK    2  A    between atoms: N1_8  and  C5_9 
REMARK    3  A    between atoms: C10_14  and  O4_15 
ROOT
HETATM    1  C2  UNL     1      14.149  45.001  30.690  1.00  0.00     0.114 C 
HETATM    2  C3  UNL     1      13.577  43.602  30.646  1.00  0.00     0.120 C 
HETATM    3  C4  UNL     1      13.038  43.554  29.259  1.00  0.00     0.225 C 
HETATM    4  O3  UNL     1      12.635  42.536  28.653  1.00  0.00    -0.273 OA
HETATM    5  N1  UNL     1      13.053  44.866  28.717  1.00  0.00    -0.315 N 
HETATM    6  C11 UNL     1      13.074  45.755  29.890  1.00  0.00     0.148 C 
ENDROOT
BRANCH   5   7
HETATM    7  C5  UNL     1      13.059  45.325  27.387  1.00  0.00     0.070 A 
HETATM    8  C6  UNL     1      14.238  45.356  26.628  1.00  0.00     0.033 A 
HETATM    9  C7  UNL     1      14.235  45.802  25.345  1.00  0.00     0.002 A 
HETATM   10  C8  UNL     1      13.071  46.242  24.735  1.00  0.00     0.003 A 
HETATM   11  C9  UNL     1      11.899  46.222  25.457  1.00  0.00     0.039 A 
HETATM   12  C10 UNL     1      11.915  45.762  26.772  1.00  0.00     0.092 A 
BRANCH  12  13
HETATM   13  O4  UNL     1      10.711  45.757  27.471  1.00  0.00    -0.358 OA
ATOM     14  H4  UNL     1       9.909  46.008  27.028  1.00  0.00     0.217 HD
ENDBRANCH  12  13
ENDBRANCH   5   7
BRANCH   1  15
HETATM   15  C1  UNL     1      14.268  45.546  32.042  1.00  0.00     0.179 C 
HETATM   16  O1  UNL     1      15.371  45.907  32.485  1.00  0.00    -0.648 OA
HETATM   17  O2  UNL     1      13.122  45.653  32.815  1.00  0.00    -0.648 OA
ENDBRANCH   1  15
TORSDOF 3
ENDMDL
