MODEL 2
REMARK VINA RESULT: -7.115144968      1.976      5.538
REMARK  3 active torsions:
REMARK  status: ('A' for Active; 'I' for Inactive)
REMARK    1  A    between atoms: C1_2  and  C2_4 
REMARK    2  A    between atoms: N1_8  and  C5_9 
REMARK    3  A    between atoms: C10_14  and  O4_15 
ROOT
HETATM    1  C2  UNL     1      13.479  45.379  29.887  1.00  0.00     0.114 C 
HETATM    2  C3  UNL     1      13.203  43.893  29.897  1.00  0.00     0.120 C 
HETATM    3  C4  UNL     1      12.897  43.645  28.462  1.00  0.00     0.225 C 
HETATM    4  O3  UNL     1      12.794  42.529  27.906  1.00  0.00    -0.273 OA
HETATM    5  N1  UNL     1      12.738  44.894  27.806  1.00  0.00    -0.315 N 
HETATM    6  C11 UNL     1      12.410  45.843  28.883  1.00  0.00     0.148 C 
ENDROOT
BRANCH   5   7
HETATM    7  C5  UNL     1      12.854  45.257  26.451  1.00  0.00     0.070 A 
HETATM    8  C6  UNL     1      11.734  45.320  25.611  1.00  0.00     0.033 A 
HETATM    9  C7  UNL     1      11.856  45.671  24.304  1.00  0.00     0.002 A 
HETATM   10  C8  UNL     1      13.088  45.981  23.751  1.00  0.00     0.003 A 
HETATM   11  C9  UNL     1      14.204  45.928  24.554  1.00  0.00     0.039 A 
HETATM   12  C10 UNL     1      14.067  45.567  25.892  1.00  0.00     0.092 A 
BRANCH  12  13
HETATM   13  O4  UNL     1      15.218  45.524  26.673  1.00  0.00    -0.358 OA
ATOM     14  H4  UNL     1      16.054  45.324  26.269  1.00  0.00     0.217 HD
ENDBRANCH  12  13
ENDBRANCH   5   7
BRANCH   1  15
HETATM   15  C1  UNL     1      13.286  46.023  31.185  1.00  0.00     0.179 C 
HETATM   16  O1  UNL     1      13.285  47.262  31.283  1.00  0.00    -0.648 OA
HETATM   17  O2  UNL     1      13.103  45.221  32.301  1.00  0.00    -0.648 OA
ENDBRANCH   1  15
TORSDOF 3
ENDMDL
