MODEL 3
REMARK VINA RESULT: -11.567624388      2.026     13.256
REMARK  7 active torsions:
REMARK  status: ('A' for Active; 'I' for Inactive)
REMARK    1  A    between atoms: C5_5  and  N1_6 
REMARK       I    between atoms: N1_6  and  C6_8 
REMARK    2  A    between atoms: C6_8  and  C7_10 
REMARK    3  A    between atoms: C10_13  and  C11_14 
REMARK    4  A    between atoms: C11_14  and  N2_15 
REMARK    5  A    between atoms: C20_25  and  N4_26 
REMARK    6  A    between atoms: N4_26  and  C21_28 
REMARK    7  A    between atoms: C24_33  and  C25_34 
ROOT
HETATM    1  C1  UNL     1      11.068   7.705  16.504  1.00  0.00     0.050 C 
HETATM    2  C2  UNL     1      12.475   8.116  16.842  1.00  0.00    -0.035 A 
HETATM    3  C3  UNL     1      13.325   8.517  15.843  1.00  0.00     0.011 A 
HETATM    4  C4  UNL     1      14.633   8.902  16.133  1.00  0.00     0.030 A 
HETATM    5  C5  UNL     1      15.069   8.881  17.424  1.00  0.00     0.037 A 
HETATM    6  C19 UNL     1      14.170   8.465  18.418  1.00  0.00     0.060 A 
HETATM    7  C20 UNL     1      12.876   8.077  18.181  1.00  0.00     0.057 A 
ENDROOT
BRANCH   5   8
HETATM    8  N1  UNL     1      16.375   9.265  17.847  1.00  0.00    -0.323 N 
HETATM    9  C6  UNL     1      16.730   9.735  19.106  1.00  0.00     0.256 C 
HETATM   10  O1  UNL     1      15.853   9.847  20.000  1.00  0.00    -0.267 OA
ATOM     11  H1  UNL     1      17.123   9.187  17.158  1.00  0.00     0.169 HD
BRANCH   9  12
HETATM   12  C7  UNL     1      18.119  10.118  19.452  1.00  0.00     0.032 A 
HETATM   13  C8  UNL     1      18.731   9.636  20.577  1.00  0.00     0.017 A 
HETATM   14  C9  UNL     1      20.049  10.008  20.903  1.00  0.00     0.010 A 
HETATM   15  C10 UNL     1      20.742  10.866  20.089  1.00  0.00    -0.030 A 
HETATM   16  C17 UNL     1      20.102  11.335  18.967  1.00  0.00     0.010 A 
HETATM   17  C18 UNL     1      18.819  10.984  18.632  1.00  0.00     0.017 A 
BRANCH  15  18
HETATM   18  C11 UNL     1      22.116  11.266  20.413  1.00  0.00     0.311 C 
BRANCH  18  19
HETATM   19  N2  UNL     1      22.950  11.497  19.252  1.00  0.00     0.096 N 
HETATM   20  C12 UNL     1      24.335  11.380  19.591  1.00  0.00     0.303 C 
HETATM   21  C13 UNL     1      24.928  12.601  20.225  1.00  0.00     0.302 C 
HETATM   22  N3  UNL     1      24.853  13.667  19.225  1.00  0.00     0.087 N 
HETATM   23  C14 UNL     1      25.594  13.318  18.028  1.00  0.00     0.310 C 
HETATM   24  C15 UNL     1      23.465  13.903  18.972  1.00  0.00     0.302 C 
HETATM   25  C16 UNL     1      22.677  12.710  18.558  1.00  0.00     0.303 C 
ENDBRANCH  18  19
ENDBRANCH  15  18
ENDBRANCH   9  12
ENDBRANCH   5   8
BRANCH   7  26
HETATM   26  N4  UNL     1      11.977   7.657  19.191  1.00  0.00    -0.191 N 
ATOM     27  H4  UNL     1      12.141   6.722  19.565  1.00  0.00     0.184 HD
BRANCH  26  28
HETATM   28  C21 UNL     1      10.903   8.339  19.744  1.00  0.00     0.683 A 
HETATM   29  N5  UNL     1      10.758   9.658  19.410  1.00  0.00    -0.202 N 
HETATM   30  C22 UNL     1       9.776  10.437  19.867  1.00  0.00     0.108 A 
ATOM     31  H5  UNL     1      11.441  10.070  18.774  1.00  0.00     0.183 HD
HETATM   32  C23 UNL     1       8.835   9.872  20.742  1.00  0.00     0.048 A 
HETATM   33  C24 UNL     1       8.950   8.549  21.100  1.00  0.00     0.062 A 
HETATM   34  N7  UNL     1       9.973   7.872  20.579  1.00  0.00    -0.191 N 
ATOM     35  H7  UNL     1      10.053   6.891  20.848  1.00  0.00     0.184 HD
BRANCH  33  36
HETATM   36  C25 UNL     1       7.978   7.948  22.012  1.00  0.00     0.007 A 
HETATM   37  C26 UNL     1       6.841   8.587  22.452  1.00  0.00     0.016 A 
HETATM   38  C27 UNL     1       5.935   7.977  23.330  1.00  0.00     0.018 A 
HETATM   39  C28 UNL     1       6.172   6.696  23.776  1.00  0.00     0.087 A 
HETATM   40  N6  UNL     1       7.278   6.085  23.342  1.00  0.00    -0.374 N 
HETATM   41  C29 UNL     1       8.154   6.664  22.499  1.00  0.00     0.101 A 
ATOM     42  H6  UNL     1       7.467   5.136  23.663  1.00  0.00     0.164 HD
ENDBRANCH  33  36
ENDBRANCH  26  28
ENDBRANCH   7  26
TORSDOF 7
ENDMDL
