MODEL 6
REMARK VINA RESULT: -10.303103584      2.913      6.314
REMARK  7 active torsions:
REMARK  status: ('A' for Active; 'I' for Inactive)
REMARK    1  A    between atoms: C5_5  and  N1_6 
REMARK       I    between atoms: N1_6  and  C6_8 
REMARK    2  A    between atoms: C6_8  and  C7_10 
REMARK    3  A    between atoms: C10_13  and  C11_14 
REMARK    4  A    between atoms: C11_14  and  N2_15 
REMARK    5  A    between atoms: C20_25  and  N4_26 
REMARK    6  A    between atoms: N4_26  and  C21_28 
REMARK    7  A    between atoms: C24_33  and  C25_34 
ROOT
HETATM    1  C1  UNL     1      22.176  10.375  18.964  1.00  0.00     0.050 C 
HETATM    2  C2  UNL     1      20.714  10.091  19.166  1.00  0.00    -0.035 A 
HETATM    3  C3  UNL     1      20.293   8.802  19.370  1.00  0.00     0.011 A 
HETATM    4  C4  UNL     1      18.941   8.515  19.560  1.00  0.00     0.030 A 
HETATM    5  C5  UNL     1      18.032   9.529  19.544  1.00  0.00     0.037 A 
HETATM    6  C19 UNL     1      18.500  10.835  19.334  1.00  0.00     0.060 A 
HETATM    7  C20 UNL     1      19.818  11.164  19.141  1.00  0.00     0.057 A 
ENDROOT
BRANCH   5   8
HETATM    8  N1  UNL     1      16.629   9.365  19.741  1.00  0.00    -0.323 N 
HETATM    9  C6  UNL     1      15.662   9.261  18.747  1.00  0.00     0.256 C 
HETATM   10  O1  UNL     1      16.004   9.304  17.538  1.00  0.00    -0.267 OA
ATOM     11  H1  UNL     1      16.302   9.319  20.706  1.00  0.00     0.169 HD
BRANCH   9  12
HETATM   12  C7  UNL     1      14.221   9.099  19.049  1.00  0.00     0.032 A 
HETATM   13  C8  UNL     1      13.262   9.734  18.308  1.00  0.00     0.017 A 
HETATM   14  C9  UNL     1      11.894   9.580  18.603  1.00  0.00     0.010 A 
HETATM   15  C10 UNL     1      11.504   8.784  19.648  1.00  0.00    -0.030 A 
HETATM   16  C17 UNL     1      12.488   8.160  20.377  1.00  0.00     0.010 A 
HETATM   17  C18 UNL     1      13.825   8.297  20.104  1.00  0.00     0.017 A 
BRANCH  15  18
HETATM   18  C11 UNL     1      10.083   8.612  19.973  1.00  0.00     0.311 C 
BRANCH  18  19
HETATM   19  N2  UNL     1       9.822   8.406  21.382  1.00  0.00     0.096 N 
HETATM   20  C12 UNL     1       9.500   7.037  21.644  1.00  0.00     0.303 C 
HETATM   21  C13 UNL     1       8.078   6.664  21.355  1.00  0.00     0.302 C 
HETATM   22  N3  UNL     1       7.248   7.449  22.270  1.00  0.00     0.087 N 
HETATM   23  C14 UNL     1       7.568   7.155  23.654  1.00  0.00     0.310 C 
HETATM   24  C15 UNL     1       7.445   8.825  21.933  1.00  0.00     0.302 C 
HETATM   25  C16 UNL     1       8.858   9.292  21.942  1.00  0.00     0.303 C 
ENDBRANCH  18  19
ENDBRANCH  15  18
ENDBRANCH   9  12
ENDBRANCH   5   8
BRANCH   7  26
HETATM   26  N4  UNL     1      20.281  12.486  18.928  1.00  0.00    -0.191 N 
ATOM     27  H4  UNL     1      20.486  13.021  19.772  1.00  0.00     0.184 HD
BRANCH  26  28
HETATM   28  C21 UNL     1      20.494  13.154  17.731  1.00  0.00     0.683 A 
HETATM   29  N5  UNL     1      21.728  13.029  17.153  1.00  0.00    -0.202 N 
HETATM   30  C22 UNL     1      22.075  13.616  16.007  1.00  0.00     0.108 A 
ATOM     31  H5  UNL     1      22.424  12.454  17.628  1.00  0.00     0.183 HD
HETATM   32  C23 UNL     1      21.118  14.408  15.352  1.00  0.00     0.048 A 
HETATM   33  C24 UNL     1      19.868  14.556  15.904  1.00  0.00     0.062 A 
HETATM   34  N7  UNL     1      19.638  13.921  17.053  1.00  0.00    -0.191 N 
ATOM     35  H7  UNL     1      18.709  14.034  17.458  1.00  0.00     0.184 HD
BRANCH  33  36
HETATM   36  C25 UNL     1      18.862  15.380  15.234  1.00  0.00     0.007 A 
HETATM   37  C26 UNL     1      18.979  15.832  13.940  1.00  0.00     0.016 A 
HETATM   38  C27 UNL     1      17.993  16.624  13.334  1.00  0.00     0.018 A 
HETATM   39  C28 UNL     1      16.863  16.968  14.042  1.00  0.00     0.087 A 
HETATM   40  N6  UNL     1      16.760  16.523  15.297  1.00  0.00    -0.374 N 
HETATM   41  C29 UNL     1      17.702  15.763  15.886  1.00  0.00     0.101 A 
ATOM     42  H6  UNL     1      15.928  16.770  15.834  1.00  0.00     0.164 HD
ENDBRANCH  33  36
ENDBRANCH  26  28
ENDBRANCH   7  26
TORSDOF 7
ENDMDL
