MODEL 1
REMARK VINA RESULT: -11.701022162      0.000      0.000
REMARK  7 active torsions:
REMARK  status: ('A' for Active; 'I' for Inactive)
REMARK    1  A    between atoms: C5_5  and  N1_6 
REMARK       I    between atoms: N1_6  and  C6_8 
REMARK    2  A    between atoms: C6_8  and  C7_10 
REMARK    3  A    between atoms: C10_13  and  C11_14 
REMARK    4  A    between atoms: C11_14  and  N2_15 
REMARK    5  A    between atoms: C20_25  and  N4_26 
REMARK    6  A    between atoms: N4_26  and  C21_28 
REMARK    7  A    between atoms: C24_33  and  C25_34 
ROOT
HETATM    1  C1  UNL     1      14.976   9.087  15.579  1.00  0.00     0.050 C 
HETATM    2  C2  UNL     1      13.842   8.981  16.561  1.00  0.00    -0.035 A 
HETATM    3  C3  UNL     1      12.772   8.172  16.281  1.00  0.00     0.011 A 
HETATM    4  C4  UNL     1      11.710   8.058  17.177  1.00  0.00     0.030 A 
HETATM    5  C5  UNL     1      11.740   8.759  18.345  1.00  0.00     0.037 A 
HETATM    6  C19 UNL     1      12.852   9.577  18.597  1.00  0.00     0.060 A 
HETATM    7  C20 UNL     1      13.918   9.721  17.746  1.00  0.00     0.057 A 
ENDROOT
BRANCH   5   8
HETATM    8  N1  UNL     1      10.724   8.715  19.345  1.00  0.00    -0.323 N 
HETATM    9  C6  UNL     1      10.556   7.727  20.308  1.00  0.00     0.256 C 
HETATM   10  O1  UNL     1      11.354   6.756  20.351  1.00  0.00    -0.267 OA
ATOM     11  H1  UNL     1      10.055   9.485  19.355  1.00  0.00     0.169 HD
BRANCH   9  12
HETATM   12  C7  UNL     1       9.462   7.763  21.306  1.00  0.00     0.032 A 
HETATM   13  C8  UNL     1       9.005   6.620  21.905  1.00  0.00     0.017 A 
HETATM   14  C9  UNL     1       7.962   6.661  22.849  1.00  0.00     0.010 A 
HETATM   15  C10 UNL     1       7.385   7.859  23.183  1.00  0.00    -0.030 A 
HETATM   16  C17 UNL     1       7.862   8.990  22.566  1.00  0.00     0.010 A 
HETATM   17  C18 UNL     1       8.878   8.971  21.644  1.00  0.00     0.017 A 
BRANCH  15  18
HETATM   18  C11 UNL     1       6.295   7.921  24.164  1.00  0.00     0.311 C 
BRANCH  18  19
HETATM   19  N2  UNL     1       4.981   7.708  23.596  1.00  0.00     0.096 N 
HETATM   20  C12 UNL     1       4.197   8.902  23.668  1.00  0.00     0.303 C 
HETATM   21  C13 UNL     1       3.553   9.148  24.998  1.00  0.00     0.302 C 
HETATM   22  N3  UNL     1       2.616   8.045  25.217  1.00  0.00     0.087 N 
HETATM   23  C14 UNL     1       1.606   7.999  24.176  1.00  0.00     0.310 C 
HETATM   24  C15 UNL     1       3.394   6.847  25.292  1.00  0.00     0.302 C 
HETATM   25  C16 UNL     1       4.282   6.586  24.126  1.00  0.00     0.303 C 
ENDBRANCH  18  19
ENDBRANCH  15  18
ENDBRANCH   9  12
ENDBRANCH   5   8
BRANCH   7  26
HETATM   26  N4  UNL     1      15.036  10.550  18.009  1.00  0.00    -0.191 N 
ATOM     27  H4  UNL     1      14.920  11.533  17.762  1.00  0.00     0.184 HD
BRANCH  26  28
HETATM   28  C21 UNL     1      16.265  10.212  18.554  1.00  0.00     0.683 A 
HETATM   29  N5  UNL     1      16.306   9.128  19.389  1.00  0.00    -0.202 N 
HETATM   30  C22 UNL     1      17.416   8.690  19.985  1.00  0.00     0.108 A 
ATOM     31  H5  UNL     1      15.436   8.625  19.564  1.00  0.00     0.183 HD
HETATM   32  C23 UNL     1      18.614   9.381  19.743  1.00  0.00     0.048 A 
HETATM   33  C24 UNL     1      18.610  10.475  18.911  1.00  0.00     0.062 A 
HETATM   34  N7  UNL     1      17.440  10.818  18.373  1.00  0.00    -0.191 N 
ATOM     35  H7  UNL     1      17.444  11.630  17.756  1.00  0.00     0.184 HD
BRANCH  33  36
HETATM   36  C25 UNL     1      19.851  11.205  18.653  1.00  0.00     0.007 A 
HETATM   37  C26 UNL     1      19.927  12.337  17.873  1.00  0.00     0.016 A 
HETATM   38  C27 UNL     1      21.138  13.007  17.647  1.00  0.00     0.018 A 
HETATM   39  C28 UNL     1      22.298  12.533  18.217  1.00  0.00     0.087 A 
HETATM   40  N6  UNL     1      22.212  11.434  18.972  1.00  0.00    -0.374 N 
HETATM   41  C29 UNL     1      21.054  10.784  19.193  1.00  0.00     0.101 A 
ATOM     42  H6  UNL     1      23.064  11.070  19.400  1.00  0.00     0.164 HD
ENDBRANCH  33  36
ENDBRANCH  26  28
ENDBRANCH   7  26
TORSDOF 7
ENDMDL
