MODEL 4
REMARK VINA RESULT: -10.888730291      1.833     13.097
REMARK  7 active torsions:
REMARK  status: ('A' for Active; 'I' for Inactive)
REMARK    1  A    between atoms: C5_5  and  N1_6 
REMARK       I    between atoms: N1_6  and  C6_8 
REMARK    2  A    between atoms: C6_8  and  C7_10 
REMARK    3  A    between atoms: C10_13  and  C11_14 
REMARK    4  A    between atoms: C11_14  and  N2_15 
REMARK    5  A    between atoms: C20_25  and  N4_26 
REMARK    6  A    between atoms: N4_26  and  C21_28 
REMARK    7  A    between atoms: C24_33  and  C25_34 
ROOT
HETATM    1  C1  UNL     1      10.601   8.268  16.874  1.00  0.00     0.050 C 
HETATM    2  C2  UNL     1      12.059   8.552  17.107  1.00  0.00    -0.035 A 
HETATM    3  C3  UNL     1      12.953   8.416  16.076  1.00  0.00     0.011 A 
HETATM    4  C4  UNL     1      14.309   8.675  16.270  1.00  0.00     0.030 A 
HETATM    5  C5  UNL     1      14.749   9.067  17.498  1.00  0.00     0.037 A 
HETATM    6  C19 UNL     1      13.805   9.196  18.528  1.00  0.00     0.060 A 
HETATM    7  C20 UNL     1      12.463   8.952  18.385  1.00  0.00     0.057 A 
ENDROOT
BRANCH   5   8
HETATM    8  N1  UNL     1      16.105   9.374  17.815  1.00  0.00    -0.323 N 
HETATM    9  C6  UNL     1      16.610   9.677  19.075  1.00  0.00     0.256 C 
HETATM   10  O1  UNL     1      15.839   9.689  20.069  1.00  0.00    -0.267 OA
ATOM     11  H1  UNL     1      16.770   9.371  17.043  1.00  0.00     0.169 HD
BRANCH   9  12
HETATM   12  C7  UNL     1      18.039   9.991  19.307  1.00  0.00     0.032 A 
HETATM   13  C8  UNL     1      18.637   9.735  20.511  1.00  0.00     0.017 A 
HETATM   14  C9  UNL     1      19.994  10.040  20.728  1.00  0.00     0.010 A 
HETATM   15  C10 UNL     1      20.739  10.603  19.725  1.00  0.00    -0.030 A 
HETATM   16  C17 UNL     1      20.112  10.851  18.527  1.00  0.00     0.010 A 
HETATM   17  C18 UNL     1      18.792  10.560  18.297  1.00  0.00     0.017 A 
BRANCH  15  18
HETATM   18  C11 UNL     1      22.155  10.930  19.931  1.00  0.00     0.311 C 
BRANCH  18  19
HETATM   19  N2  UNL     1      22.407  12.338  20.156  1.00  0.00     0.096 N 
HETATM   20  C12 UNL     1      21.913  13.122  19.066  1.00  0.00     0.303 C 
HETATM   21  C13 UNL     1      22.821  13.178  17.875  1.00  0.00     0.302 C 
HETATM   22  N3  UNL     1      24.048  13.842  18.318  1.00  0.00     0.087 N 
HETATM   23  C14 UNL     1      23.774  15.183  18.800  1.00  0.00     0.310 C 
HETATM   24  C15 UNL     1      24.639  13.003  19.314  1.00  0.00     0.302 C 
HETATM   25  C16 UNL     1      23.760  12.656  20.465  1.00  0.00     0.303 C 
ENDBRANCH  18  19
ENDBRANCH  15  18
ENDBRANCH   9  12
ENDBRANCH   5   8
BRANCH   7  26
HETATM   26  N4  UNL     1      11.518   9.083  19.432  1.00  0.00    -0.191 N 
ATOM     27  H4  UNL     1      11.210  10.036  19.630  1.00  0.00     0.184 HD
BRANCH  26  28
HETATM   28  C21 UNL     1      10.952   8.097  20.227  1.00  0.00     0.683 A 
HETATM   29  N5  UNL     1      11.644   6.923  20.359  1.00  0.00    -0.202 N 
HETATM   30  C22 UNL     1      11.221   5.890  21.088  1.00  0.00     0.108 A 
ATOM     31  H5  UNL     1      12.535   6.834  19.871  1.00  0.00     0.183 HD
HETATM   32  C23 UNL     1       9.995   6.011  21.761  1.00  0.00     0.048 A 
HETATM   33  C24 UNL     1       9.273   7.175  21.650  1.00  0.00     0.062 A 
HETATM   34  N7  UNL     1       9.797   8.138  20.893  1.00  0.00    -0.191 N 
ATOM     35  H7  UNL     1       9.257   9.000  20.815  1.00  0.00     0.184 HD
BRANCH  33  36
HETATM   36  C25 UNL     1       7.992   7.314  22.343  1.00  0.00     0.007 A 
HETATM   37  C26 UNL     1       7.232   8.461  22.328  1.00  0.00     0.016 A 
HETATM   38  C27 UNL     1       6.011   8.555  23.009  1.00  0.00     0.018 A 
HETATM   39  C28 UNL     1       5.539   7.474  23.720  1.00  0.00     0.087 A 
HETATM   40  N6  UNL     1       6.284   6.366  23.727  1.00  0.00    -0.374 N 
HETATM   41  C29 UNL     1       7.459   6.267  23.076  1.00  0.00     0.101 A 
ATOM     42  H6  UNL     1       5.948   5.557  24.249  1.00  0.00     0.164 HD
ENDBRANCH  33  36
ENDBRANCH  26  28
ENDBRANCH   7  26
TORSDOF 7
ENDMDL
