MODEL 2
REMARK VINA RESULT: -11.671143208      2.046     13.171
REMARK  7 active torsions:
REMARK  status: ('A' for Active; 'I' for Inactive)
REMARK    1  A    between atoms: C5_5  and  N1_6 
REMARK       I    between atoms: N1_6  and  C6_8 
REMARK    2  A    between atoms: C6_8  and  C7_10 
REMARK    3  A    between atoms: C10_13  and  C11_14 
REMARK    4  A    between atoms: C11_14  and  N2_15 
REMARK    5  A    between atoms: C20_25  and  N4_26 
REMARK    6  A    between atoms: N4_26  and  C21_28 
REMARK    7  A    between atoms: C24_33  and  C25_34 
ROOT
HETATM    1  C1  UNL     1      10.972   7.820  16.729  1.00  0.00     0.050 C 
HETATM    2  C2  UNL     1      12.404   8.190  16.996  1.00  0.00    -0.035 A 
HETATM    3  C3  UNL     1      13.212   8.578  15.959  1.00  0.00     0.011 A 
HETATM    4  C4  UNL     1      14.543   8.926  16.183  1.00  0.00     0.030 A 
HETATM    5  C5  UNL     1      15.044   8.881  17.449  1.00  0.00     0.037 A 
HETATM    6  C19 UNL     1      14.187   8.479  18.485  1.00  0.00     0.060 A 
HETATM    7  C20 UNL     1      12.873   8.127  18.312  1.00  0.00     0.057 A 
ENDROOT
BRANCH   5   8
HETATM    8  N1  UNL     1      16.381   9.226  17.807  1.00  0.00    -0.323 N 
HETATM    9  C6  UNL     1      16.812   9.683  19.047  1.00  0.00     0.256 C 
HETATM   10  O1  UNL     1      15.984   9.817  19.985  1.00  0.00    -0.267 OA
ATOM     11  H1  UNL     1      17.091   9.128  17.082  1.00  0.00     0.169 HD
BRANCH   9  12
HETATM   12  C7  UNL     1      18.226  10.025  19.325  1.00  0.00     0.032 A 
HETATM   13  C8  UNL     1      18.777   9.831  20.563  1.00  0.00     0.017 A 
HETATM   14  C9  UNL     1      20.120  10.163  20.821  1.00  0.00     0.010 A 
HETATM   15  C10 UNL     1      20.900  10.689  19.825  1.00  0.00    -0.030 A 
HETATM   16  C17 UNL     1      20.322  10.874  18.592  1.00  0.00     0.010 A 
HETATM   17  C18 UNL     1      19.015  10.556  18.321  1.00  0.00     0.017 A 
BRANCH  15  18
HETATM   18  C11 UNL     1      22.303  11.042  20.075  1.00  0.00     0.311 C 
BRANCH  18  19
HETATM   19  N2  UNL     1      22.536  12.465  20.211  1.00  0.00     0.096 N 
HETATM   20  C12 UNL     1      22.066  13.168  19.057  1.00  0.00     0.303 C 
HETATM   21  C13 UNL     1      23.008  13.154  17.891  1.00  0.00     0.302 C 
HETATM   22  N3  UNL     1      24.215  13.860  18.322  1.00  0.00     0.087 N 
HETATM   23  C14 UNL     1      23.916  15.227  18.703  1.00  0.00     0.310 C 
HETATM   24  C15 UNL     1      24.785  13.096  19.389  1.00  0.00     0.302 C 
HETATM   25  C16 UNL     1      23.876  12.818  20.535  1.00  0.00     0.303 C 
ENDBRANCH  18  19
ENDBRANCH  15  18
ENDBRANCH   9  12
ENDBRANCH   5   8
BRANCH   7  26
HETATM   26  N4  UNL     1      12.016   7.721  19.365  1.00  0.00    -0.191 N 
ATOM     27  H4  UNL     1      12.257   6.836  19.810  1.00  0.00     0.184 HD
BRANCH  26  28
HETATM   28  C21 UNL     1      10.895   8.360  19.874  1.00  0.00     0.683 A 
HETATM   29  N5  UNL     1      10.690   9.661  19.503  1.00  0.00    -0.202 N 
HETATM   30  C22 UNL     1       9.658  10.398  19.917  1.00  0.00     0.108 A 
ATOM     31  H5  UNL     1      11.367  10.093  18.874  1.00  0.00     0.183 HD
HETATM   32  C23 UNL     1       8.725   9.805  20.782  1.00  0.00     0.048 A 
HETATM   33  C24 UNL     1       8.900   8.499  21.176  1.00  0.00     0.062 A 
HETATM   34  N7  UNL     1       9.969   7.864  20.697  1.00  0.00    -0.191 N 
ATOM     35  H7  UNL     1      10.093   6.896  20.993  1.00  0.00     0.184 HD
BRANCH  33  36
HETATM   36  C25 UNL     1       7.937   7.869  22.079  1.00  0.00     0.007 A 
HETATM   37  C26 UNL     1       6.833   8.511  22.592  1.00  0.00     0.016 A 
HETATM   38  C27 UNL     1       5.934   7.873  23.458  1.00  0.00     0.018 A 
HETATM   39  C28 UNL     1       6.147   6.561  23.817  1.00  0.00     0.087 A 
HETATM   40  N6  UNL     1       7.221   5.947  23.313  1.00  0.00    -0.374 N 
HETATM   41  C29 UNL     1       8.089   6.554  22.481  1.00  0.00     0.101 A 
ATOM     42  H6  UNL     1       7.392   4.975  23.571  1.00  0.00     0.164 HD
ENDBRANCH  33  36
ENDBRANCH  26  28
ENDBRANCH   7  26
TORSDOF 7
ENDMDL
