MODEL 5
REMARK VINA RESULT: -10.417575484      2.677      5.972
REMARK  7 active torsions:
REMARK  status: ('A' for Active; 'I' for Inactive)
REMARK    1  A    between atoms: C5_5  and  N1_6 
REMARK       I    between atoms: N1_6  and  C6_8 
REMARK    2  A    between atoms: C6_8  and  C7_10 
REMARK    3  A    between atoms: C10_13  and  C11_14 
REMARK    4  A    between atoms: C11_14  and  N2_15 
REMARK    5  A    between atoms: C20_25  and  N4_26 
REMARK    6  A    between atoms: N4_26  and  C21_28 
REMARK    7  A    between atoms: C24_33  and  C25_34 
ROOT
HETATM    1  C1  UNL     1      21.889  10.860  18.869  1.00  0.00     0.050 C 
HETATM    2  C2  UNL     1      20.447  10.539  19.147  1.00  0.00    -0.035 A 
HETATM    3  C3  UNL     1      20.121   9.725  20.201  1.00  0.00     0.011 A 
HETATM    4  C4  UNL     1      18.790   9.415  20.477  1.00  0.00     0.030 A 
HETATM    5  C5  UNL     1      17.804   9.928  19.690  1.00  0.00     0.037 A 
HETATM    6  C19 UNL     1      18.176  10.758  18.621  1.00  0.00     0.060 A 
HETATM    7  C20 UNL     1      19.470  11.090  18.311  1.00  0.00     0.057 A 
ENDROOT
BRANCH   5   8
HETATM    8  N1  UNL     1      16.410   9.697  19.880  1.00  0.00    -0.323 N 
HETATM    9  C6  UNL     1      15.493   9.333  18.900  1.00  0.00     0.256 C 
HETATM   10  O1  UNL     1      15.878   9.172  17.714  1.00  0.00    -0.267 OA
ATOM     11  H1  UNL     1      16.049   9.810  20.827  1.00  0.00     0.169 HD
BRANCH   9  12
HETATM   12  C7  UNL     1      14.056   9.121  19.192  1.00  0.00     0.032 A 
HETATM   13  C8  UNL     1      13.083   9.803  18.513  1.00  0.00     0.017 A 
HETATM   14  C9  UNL     1      11.719   9.600  18.798  1.00  0.00     0.010 A 
HETATM   15  C10 UNL     1      11.347   8.708  19.770  1.00  0.00    -0.030 A 
HETATM   16  C17 UNL     1      12.345   8.038  20.437  1.00  0.00     0.010 A 
HETATM   17  C18 UNL     1      13.678   8.222  20.173  1.00  0.00     0.017 A 
BRANCH  15  18
HETATM   18  C11 UNL     1       9.931   8.483  20.083  1.00  0.00     0.311 C 
BRANCH  18  19
HETATM   19  N2  UNL     1       9.662   8.304  21.494  1.00  0.00     0.096 N 
HETATM   20  C12 UNL     1       9.329   6.942  21.778  1.00  0.00     0.303 C 
HETATM   21  C13 UNL     1       7.906   6.573  21.488  1.00  0.00     0.302 C 
HETATM   22  N3  UNL     1       7.076   7.379  22.385  1.00  0.00     0.087 N 
HETATM   23  C14 UNL     1       7.387   7.107  23.775  1.00  0.00     0.310 C 
HETATM   24  C15 UNL     1       7.284   8.748  22.025  1.00  0.00     0.302 C 
HETATM   25  C16 UNL     1       8.700   9.205  22.034  1.00  0.00     0.303 C 
ENDBRANCH  18  19
ENDBRANCH  15  18
ENDBRANCH   9  12
ENDBRANCH   5   8
BRANCH   7  26
HETATM   26  N4  UNL     1      19.836  11.926  17.228  1.00  0.00    -0.191 N 
ATOM     27  H4  UNL     1      20.024  11.447  16.347  1.00  0.00     0.184 HD
BRANCH  26  28
HETATM   28  C21 UNL     1      19.973  13.306  17.198  1.00  0.00     0.683 A 
HETATM   29  N5  UNL     1      18.896  14.036  16.774  1.00  0.00    -0.202 N 
HETATM   30  C22 UNL     1      18.886  15.367  16.692  1.00  0.00     0.108 A 
ATOM     31  H5  UNL     1      18.051  13.532  16.506  1.00  0.00     0.183 HD
HETATM   32  C23 UNL     1      20.048  16.062  17.062  1.00  0.00     0.048 A 
HETATM   33  C24 UNL     1      21.150  15.361  17.491  1.00  0.00     0.062 A 
HETATM   34  N7  UNL     1      21.041  14.034  17.531  1.00  0.00    -0.191 N 
ATOM     35  H7  UNL     1      21.862  13.519  17.850  1.00  0.00     0.184 HD
BRANCH  33  36
HETATM   36  C25 UNL     1      22.369  16.073  17.876  1.00  0.00     0.007 A 
HETATM   37  C26 UNL     1      22.877  17.153  17.191  1.00  0.00     0.016 A 
HETATM   38  C27 UNL     1      24.050  17.806  17.591  1.00  0.00     0.018 A 
HETATM   39  C28 UNL     1      24.730  17.368  18.706  1.00  0.00     0.087 A 
HETATM   40  N6  UNL     1      24.228  16.320  19.364  1.00  0.00    -0.374 N 
HETATM   41  C29 UNL     1      23.101  15.686  18.986  1.00  0.00     0.101 A 
ATOM     42  H6  UNL     1      24.720  15.984  20.192  1.00  0.00     0.164 HD
ENDBRANCH  33  36
ENDBRANCH  26  28
ENDBRANCH   7  26
TORSDOF 7
ENDMDL
