MODEL 2
REMARK VINA RESULT: -10.288858131      1.959      2.774
REMARK  9 active torsions:
REMARK  status: ('A' for Active; 'I' for Inactive)
REMARK    1  A    between atoms: O1_2  and  C2_3 
REMARK    2  A    between atoms: C6_7  and  N1_8 
REMARK    3  A    between atoms: N1_8  and  C7_10 
REMARK    4  A    between atoms: C8_11  and  C9_12 
REMARK    5  A    between atoms: C15_22  and  S1_23 
REMARK    6  A    between atoms: S1_23  and  C16_26 
REMARK    7  A    between atoms: C20_30  and  C21_31 
REMARK    8  A    between atoms: C21_31  and  O5_32 
REMARK    9  A    between atoms: C21_31  and  N4_34 
ROOT
HETATM    1  C7  UNL     1      52.181  43.830  62.976  1.00  0.00     0.062 A 
HETATM    2  C8  UNL     1      52.740  43.125  61.935  1.00  0.00     0.072 A 
HETATM    3  C10 UNL     1      52.292  43.321  60.622  1.00  0.00     0.107 A 
HETATM    4  N3  UNL     1      51.307  44.217  60.430  1.00  0.00    -0.364 N 
ATOM      5  H3  UNL     1      50.970  44.372  59.480  1.00  0.00     0.165 HD
HETATM    6  C11 UNL     1      50.743  44.921  61.437  1.00  0.00     0.050 A 
HETATM    7  C12 UNL     1      49.733  45.831  61.213  1.00  0.00    -0.033 A 
HETATM    8  C13 UNL     1      49.272  46.034  59.821  1.00  0.00     0.050 C 
HETATM    9  C14 UNL     1      49.163  46.541  62.248  1.00  0.00     0.033 A 
HETATM   10  C15 UNL     1      49.581  46.371  63.563  1.00  0.00     0.065 A 
HETATM   11  C25 UNL     1      50.590  45.462  63.780  1.00  0.00     0.040 A 
HETATM   12  C26 UNL     1      51.176  44.737  62.744  1.00  0.00     0.020 A 
ENDROOT
BRANCH  10  13
HETATM   13  S1  UNL     1      48.821  47.289  64.858  1.00  0.00     0.206 S 
HETATM   14  O3  UNL     1      49.482  47.067  66.169  1.00  0.00    -0.217 OA
HETATM   15  O4  UNL     1      48.899  48.763  64.541  1.00  0.00    -0.217 OA
BRANCH  13  16
HETATM   16  C16 UNL     1      47.119  46.875  64.977  1.00  0.00     0.065 A 
HETATM   17  C17 UNL     1      46.438  46.945  66.154  1.00  0.00     0.024 A 
HETATM   18  C18 UNL     1      45.110  46.608  66.248  1.00  0.00     0.002 A 
HETATM   19  C19 UNL     1      44.457  46.180  65.082  1.00  0.00     0.016 A 
HETATM   20  C20 UNL     1      45.078  46.088  63.880  1.00  0.00     0.016 A 
HETATM   21  C24 UNL     1      46.426  46.446  63.856  1.00  0.00     0.039 A 
BRANCH  20  22
HETATM   22  C21 UNL     1      44.500  45.650  62.633  1.00  0.00     0.147 C 
BRANCH  22  23
HETATM   23  O5  UNL     1      43.591  44.694  62.707  1.00  0.00    -0.346 OA
ATOM     24  H5  UNL     1      43.601  44.044  62.014  1.00  0.00     0.219 HD
ENDBRANCH  22  23
BRANCH  22  25
HETATM   25  N4  UNL     1      44.725  46.058  61.324  1.00  0.00    -0.370 N 
HETATM   26  C22 UNL     1      43.737  46.973  60.695  1.00  0.00     0.151 C 
HETATM   27  C23 UNL     1      45.835  45.688  60.513  1.00  0.00     0.151 C 
ENDBRANCH  22  25
ENDBRANCH  20  22
ENDBRANCH  13  16
ENDBRANCH  10  13
BRANCH   1  28
HETATM   28  N1  UNL     1      52.679  43.623  64.282  1.00  0.00    -0.355 N 
ATOM     29  H1  UNL     1      52.436  42.740  64.732  1.00  0.00     0.166 HD
BRANCH  28  30
HETATM   30  C6  UNL     1      53.477  44.515  65.024  1.00  0.00     0.035 A 
HETATM   31  C5  UNL     1      53.255  44.718  66.362  1.00  0.00     0.029 A 
HETATM   32  C4  UNL     1      54.076  45.612  67.063  1.00  0.00     0.005 A 
HETATM   33  C3  UNL     1      55.091  46.284  66.448  1.00  0.00     0.037 A 
HETATM   34  C2  UNL     1      55.315  46.081  65.096  1.00  0.00     0.070 A 
HETATM   35  C27 UNL     1      54.503  45.202  64.421  1.00  0.00     0.066 A 
BRANCH  34  36
HETATM   36  O1  UNL     1      56.345  46.770  64.494  1.00  0.00    -0.356 OA
HETATM   37  C1  UNL     1      56.467  47.008  63.122  1.00  0.00     0.210 C 
ENDBRANCH  34  36
ENDBRANCH  28  30
ENDBRANCH   1  28
BRANCH   2  38
HETATM   38  C9  UNL     1      53.791  42.160  62.182  1.00  0.00     0.268 C 
HETATM   39  N2  UNL     1      55.140  42.523  62.006  1.00  0.00    -0.057 NA
HETATM   40  O2  UNL     1      53.501  41.007  62.552  1.00  0.00    -0.271 OA
ENDBRANCH   2  38
TORSDOF 9
ENDMDL
