MODEL 1
REMARK VINA RESULT: -10.375072441      0.000      0.000
REMARK  9 active torsions:
REMARK  status: ('A' for Active; 'I' for Inactive)
REMARK    1  A    between atoms: O1_2  and  C2_3 
REMARK    2  A    between atoms: C6_7  and  N1_8 
REMARK    3  A    between atoms: N1_8  and  C7_10 
REMARK    4  A    between atoms: C8_11  and  C9_12 
REMARK    5  A    between atoms: C15_22  and  S1_23 
REMARK    6  A    between atoms: S1_23  and  C16_26 
REMARK    7  A    between atoms: C20_30  and  C21_31 
REMARK    8  A    between atoms: C21_31  and  O5_32 
REMARK    9  A    between atoms: C21_31  and  N4_34 
ROOT
HETATM    1  C7  UNL     1      52.165  44.309  61.964  1.00  0.00     0.062 A 
HETATM    2  C8  UNL     1      52.618  43.816  60.761  1.00  0.00     0.072 A 
HETATM    3  C10 UNL     1      51.990  44.178  59.563  1.00  0.00     0.107 A 
HETATM    4  N3  UNL     1      50.941  45.018  59.641  1.00  0.00    -0.364 N 
ATOM      5  H3  UNL     1      50.474  45.293  58.777  1.00  0.00     0.165 HD
HETATM    6  C11 UNL     1      50.479  45.515  60.810  1.00  0.00     0.050 A 
HETATM    7  C12 UNL     1      49.402  46.371  60.863  1.00  0.00    -0.033 A 
HETATM    8  C13 UNL     1      48.749  46.751  59.589  1.00  0.00     0.050 C 
HETATM    9  C14 UNL     1      48.936  46.869  62.061  1.00  0.00     0.033 A 
HETATM   10  C15 UNL     1      49.534  46.529  63.270  1.00  0.00     0.065 A 
HETATM   11  C25 UNL     1      50.610  45.675  63.211  1.00  0.00     0.040 A 
HETATM   12  C26 UNL     1      51.091  45.164  62.008  1.00  0.00     0.020 A 
ENDROOT
BRANCH  10  13
HETATM   13  S1  UNL     1      48.904  47.177  64.780  1.00  0.00     0.206 S 
HETATM   14  O3  UNL     1      49.629  46.652  65.964  1.00  0.00    -0.217 OA
HETATM   15  O4  UNL     1      49.044  48.681  64.778  1.00  0.00    -0.217 OA
BRANCH  13  16
HETATM   16  C16 UNL     1      47.192  46.817  64.927  1.00  0.00     0.065 A 
HETATM   17  C17 UNL     1      46.529  46.927  66.112  1.00  0.00     0.024 A 
HETATM   18  C18 UNL     1      45.193  46.632  66.228  1.00  0.00     0.002 A 
HETATM   19  C19 UNL     1      44.511  46.206  65.078  1.00  0.00     0.016 A 
HETATM   20  C20 UNL     1      45.113  46.076  63.870  1.00  0.00     0.016 A 
HETATM   21  C24 UNL     1      46.471  46.392  63.824  1.00  0.00     0.039 A 
BRANCH  20  22
HETATM   22  C21 UNL     1      44.506  45.636  62.638  1.00  0.00     0.147 C 
BRANCH  22  23
HETATM   23  O5  UNL     1      43.666  44.620  62.724  1.00  0.00    -0.346 OA
ATOM     24  H5  UNL     1      42.795  44.757  62.368  1.00  0.00     0.219 HD
ENDBRANCH  22  23
BRANCH  22  25
HETATM   25  N4  UNL     1      44.641  46.093  61.333  1.00  0.00    -0.370 N 
HETATM   26  C22 UNL     1      45.752  45.548  60.511  1.00  0.00     0.151 C 
HETATM   27  C23 UNL     1      43.798  47.043  60.689  1.00  0.00     0.151 C 
ENDBRANCH  22  25
ENDBRANCH  20  22
ENDBRANCH  13  16
ENDBRANCH  10  13
BRANCH   1  28
HETATM   28  N1  UNL     1      52.842  43.940  63.148  1.00  0.00    -0.355 N 
ATOM     29  H1  UNL     1      53.662  44.491  63.400  1.00  0.00     0.166 HD
BRANCH  28  30
HETATM   30  C6  UNL     1      52.494  42.885  64.015  1.00  0.00     0.035 A 
HETATM   31  C5  UNL     1      52.170  41.645  63.526  1.00  0.00     0.029 A 
HETATM   32  C4  UNL     1      51.834  40.624  64.425  1.00  0.00     0.005 A 
HETATM   33  C3  UNL     1      51.823  40.831  65.773  1.00  0.00     0.037 A 
HETATM   34  C2  UNL     1      52.150  42.082  66.267  1.00  0.00     0.070 A 
HETATM   35  C27 UNL     1      52.477  43.075  65.376  1.00  0.00     0.066 A 
BRANCH  34  36
HETATM   36  O1  UNL     1      52.133  42.270  67.632  1.00  0.00    -0.356 OA
HETATM   37  C1  UNL     1      52.178  43.509  68.280  1.00  0.00     0.210 C 
ENDBRANCH  34  36
ENDBRANCH  28  30
ENDBRANCH   1  28
BRANCH   2  38
HETATM   38  C9  UNL     1      53.743  42.905  60.718  1.00  0.00     0.268 C 
HETATM   39  N2  UNL     1      53.636  41.680  60.032  1.00  0.00    -0.057 NA
HETATM   40  O2  UNL     1      54.807  43.207  61.289  1.00  0.00    -0.271 OA
ENDBRANCH   2  38
TORSDOF 9
ENDMDL
