MODEL 3
REMARK VINA RESULT: -10.239077837      2.713      8.214
REMARK  9 active torsions:
REMARK  status: ('A' for Active; 'I' for Inactive)
REMARK    1  A    between atoms: O1_2  and  C2_3 
REMARK    2  A    between atoms: C6_7  and  N1_8 
REMARK    3  A    between atoms: N1_8  and  C7_10 
REMARK    4  A    between atoms: C8_11  and  C9_12 
REMARK    5  A    between atoms: C15_22  and  S1_23 
REMARK    6  A    between atoms: S1_23  and  C16_26 
REMARK    7  A    between atoms: C20_30  and  C21_31 
REMARK    8  A    between atoms: C21_31  and  O5_32 
REMARK    9  A    between atoms: C21_31  and  N4_34 
ROOT
HETATM    1  C7  UNL     1      46.693  45.231  62.086  1.00  0.00     0.062 A 
HETATM    2  C8  UNL     1      45.829  45.633  61.093  1.00  0.00     0.072 A 
HETATM    3  C10 UNL     1      46.246  45.668  59.757  1.00  0.00     0.107 A 
HETATM    4  N3  UNL     1      47.513  45.296  59.493  1.00  0.00    -0.364 N 
ATOM      5  H3  UNL     1      47.833  45.314  58.525  1.00  0.00     0.165 HD
HETATM    6  C11 UNL     1      48.379  44.897  60.451  1.00  0.00     0.050 A 
HETATM    7  C12 UNL     1      49.671  44.523  60.154  1.00  0.00    -0.033 A 
HETATM    8  C13 UNL     1      50.101  44.559  58.738  1.00  0.00     0.050 C 
HETATM    9  C14 UNL     1      50.548  44.121  61.139  1.00  0.00     0.033 A 
HETATM   10  C15 UNL     1      50.168  44.076  62.476  1.00  0.00     0.065 A 
HETATM   11  C25 UNL     1      48.876  44.450  62.766  1.00  0.00     0.040 A 
HETATM   12  C26 UNL     1      47.979  44.858  61.781  1.00  0.00     0.020 A 
ENDROOT
BRANCH  10  13
HETATM   13  S1  UNL     1      51.320  43.568  63.706  1.00  0.00     0.206 S 
HETATM   14  O3  UNL     1      51.435  44.553  64.811  1.00  0.00    -0.217 OA
HETATM   15  O4  UNL     1      50.873  42.254  64.300  1.00  0.00    -0.217 OA
BRANCH  13  16
HETATM   16  C16 UNL     1      52.898  43.300  62.985  1.00  0.00     0.065 A 
HETATM   17  C17 UNL     1      53.248  42.105  62.435  1.00  0.00     0.024 A 
HETATM   18  C18 UNL     1      54.489  41.893  61.884  1.00  0.00     0.002 A 
HETATM   19  C19 UNL     1      55.405  42.956  61.900  1.00  0.00     0.016 A 
HETATM   20  C20 UNL     1      55.118  44.170  62.432  1.00  0.00     0.016 A 
HETATM   21  C24 UNL     1      53.841  44.315  62.975  1.00  0.00     0.039 A 
BRANCH  20  22
HETATM   22  C21 UNL     1      55.991  45.315  62.509  1.00  0.00     0.147 C 
BRANCH  22  23
HETATM   23  O5  UNL     1      55.803  46.261  61.606  1.00  0.00    -0.346 OA
ATOM     24  H5  UNL     1      55.771  47.155  61.928  1.00  0.00     0.219 HD
ENDBRANCH  22  23
BRANCH  22  25
HETATM   25  N4  UNL     1      57.027  45.623  63.381  1.00  0.00    -0.370 N 
HETATM   26  C22 UNL     1      56.962  45.083  64.764  1.00  0.00     0.151 C 
HETATM   27  C23 UNL     1      58.173  46.410  63.073  1.00  0.00     0.151 C 
ENDBRANCH  22  25
ENDBRANCH  20  22
ENDBRANCH  13  16
ENDBRANCH  10  13
BRANCH   1  28
HETATM   28  N1  UNL     1      46.225  45.185  63.418  1.00  0.00    -0.355 N 
ATOM     29  H1  UNL     1      45.594  44.420  63.658  1.00  0.00     0.166 HD
BRANCH  28  30
HETATM   30  C6  UNL     1      46.544  46.091  64.448  1.00  0.00     0.035 A 
HETATM   31  C5  UNL     1      47.719  46.799  64.429  1.00  0.00     0.029 A 
HETATM   32  C4  UNL     1      47.994  47.693  65.471  1.00  0.00     0.005 A 
HETATM   33  C3  UNL     1      47.124  47.878  66.505  1.00  0.00     0.037 A 
HETATM   34  C2  UNL     1      45.938  47.163  66.527  1.00  0.00     0.070 A 
HETATM   35  C27 UNL     1      45.680  46.289  65.499  1.00  0.00     0.066 A 
BRANCH  34  36
HETATM   36  O1  UNL     1      45.073  47.364  67.580  1.00  0.00    -0.356 OA
HETATM   37  C1  UNL     1      45.442  47.771  68.865  1.00  0.00     0.210 C 
ENDBRANCH  34  36
ENDBRANCH  28  30
ENDBRANCH   1  28
BRANCH   2  38
HETATM   38  C9  UNL     1      44.476  46.038  61.418  1.00  0.00     0.268 C 
HETATM   39  N2  UNL     1      43.917  47.181  60.816  1.00  0.00    -0.057 NA
HETATM   40  O2  UNL     1      43.808  45.373  62.230  1.00  0.00    -0.271 OA
ENDBRANCH   2  38
TORSDOF 9
ENDMDL
