MODEL 3
REMARK VINA RESULT: -7.929397523      0.096      1.046
REMARK  5 active torsions:
REMARK  status: ('A' for Active; 'I' for Inactive)
REMARK    1  A    between atoms: C1_2  and  C2_6 
REMARK    2  A    between atoms: C5_9  and  N3_10 
REMARK    3  A    between atoms: N4_12  and  N5_14 
REMARK    4  A    between atoms: N5_14  and  C6_16 
REMARK    5  A    between atoms: C9_19  and  C10_20 
ROOT
HETATM    1  N3  UNL     1      -0.887  16.409  19.492  1.00  0.00    -0.287 N 
ATOM      2  H3  UNL     1      -1.567  16.390  20.253  1.00  0.00     0.188 HD
HETATM    3  N4  UNL     1       0.061  17.085  19.609  1.00  0.00    -0.242 N 
ATOM      4  H4  UNL     1       0.003  17.557  20.512  1.00  0.00     0.208 HD
ENDROOT
BRANCH   3   5
HETATM    5  N5  UNL     1       1.224  17.486  18.992  1.00  0.00    -0.287 N 
ATOM      6  H5  UNL     1       1.609  17.089  18.134  1.00  0.00     0.188 HD
BRANCH   5   7
HETATM    7  C6  UNL     1       1.820  18.581  19.774  1.00  0.00     0.049 A 
HETATM    8  C7  UNL     1       1.022  19.138  20.736  1.00  0.00     0.032 A 
HETATM    9  C8  UNL     1       1.586  20.105  21.586  1.00  0.00     0.017 A 
HETATM   10  C9  UNL     1       2.895  20.449  21.426  1.00  0.00     0.005 A 
HETATM   11  C11 UNL     1       3.680  19.890  20.452  1.00  0.00     0.017 A 
HETATM   12  C12 UNL     1       3.104  18.923  19.607  1.00  0.00     0.032 A 
BRANCH  10  13
HETATM   13  C10 UNL     1       3.555  21.254  22.504  1.00  0.00     0.120 C 
HETATM   14  N6  UNL     1       4.129  22.496  22.244  1.00  0.00    -0.082 NA
HETATM   15  N7  UNL     1       3.566  20.758  23.713  1.00  0.00    -0.387 N 
ATOM     16  H72 UNL     1       3.146  19.848  23.903  1.00  0.00     0.157 HD
ATOM     17  H71 UNL     1       4.015  21.306  24.446  1.00  0.00     0.157 HD
ENDBRANCH  10  13
ENDBRANCH   5   7
ENDBRANCH   3   5
BRANCH   1  18
HETATM   18  C5  UNL     1      -1.143  15.604  18.330  1.00  0.00     0.049 A 
HETATM   19  C4  UNL     1      -0.838  14.266  18.362  1.00  0.00     0.032 A 
HETATM   20  C3  UNL     1      -1.111  13.551  17.202  1.00  0.00     0.017 A 
HETATM   21  C2  UNL     1      -1.649  14.105  16.071  1.00  0.00     0.005 A 
HETATM   22  C14 UNL     1      -1.949  15.469  16.088  1.00  0.00     0.017 A 
HETATM   23  C13 UNL     1      -1.696  16.224  17.214  1.00  0.00     0.032 A 
BRANCH  21  24
HETATM   24  C1  UNL     1      -1.945  13.304  14.887  1.00  0.00     0.120 C 
HETATM   25  N1  UNL     1      -1.353  12.001  14.877  1.00  0.00    -0.082 NA
HETATM   26  N2  UNL     1      -2.732  13.650  13.961  1.00  0.00    -0.387 N 
ATOM     27  H22 UNL     1      -2.939  13.091  13.134  1.00  0.00     0.157 HD
ATOM     28  H21 UNL     1      -3.154  14.579  13.969  1.00  0.00     0.157 HD
ENDBRANCH  21  24
ENDBRANCH   1  18
TORSDOF 5
ENDMDL
