MODEL 2
REMARK VINA RESULT: -7.970234566      1.336      1.786
REMARK  5 active torsions:
REMARK  status: ('A' for Active; 'I' for Inactive)
REMARK    1  A    between atoms: C1_2  and  C2_6 
REMARK    2  A    between atoms: C5_9  and  N3_10 
REMARK    3  A    between atoms: N4_12  and  N5_14 
REMARK    4  A    between atoms: N5_14  and  C6_16 
REMARK    5  A    between atoms: C9_19  and  C10_20 
ROOT
HETATM    1  N3  UNL     1       0.052  16.634  19.232  1.00  0.00    -0.287 N 
ATOM      2  H3  UNL     1      -0.187  16.407  20.197  1.00  0.00     0.188 HD
HETATM    3  N4  UNL     1       0.771  17.537  19.035  1.00  0.00    -0.242 N 
ATOM      4  H4  UNL     1       1.021  17.944  19.936  1.00  0.00     0.208 HD
ENDROOT
BRANCH   3   5
HETATM    5  N5  UNL     1       1.406  18.258  18.049  1.00  0.00    -0.287 N 
ATOM      6  H5  UNL     1       1.301  18.112  17.045  1.00  0.00     0.188 HD
BRANCH   5   7
HETATM    7  C6  UNL     1       2.261  19.274  18.684  1.00  0.00     0.049 A 
HETATM    8  C7  UNL     1       2.650  19.014  19.971  1.00  0.00     0.032 A 
HETATM    9  C8  UNL     1       3.563  19.895  20.577  1.00  0.00     0.017 A 
HETATM   10  C9  UNL     1       4.024  20.965  19.869  1.00  0.00     0.005 A 
HETATM   11  C11 UNL     1       3.619  21.217  18.586  1.00  0.00     0.017 A 
HETATM   12  C12 UNL     1       2.706  20.329  17.989  1.00  0.00     0.032 A 
BRANCH  10  13
HETATM   13  C10 UNL     1       5.197  21.723  20.413  1.00  0.00     0.120 C 
HETATM   14  N6  UNL     1       5.962  21.233  21.469  1.00  0.00    -0.082 NA
HETATM   15  N7  UNL     1       5.495  22.866  19.853  1.00  0.00    -0.387 N 
ATOM     16  H72 UNL     1       4.935  23.225  19.079  1.00  0.00     0.157 HD
ATOM     17  H71 UNL     1       6.293  23.382  20.223  1.00  0.00     0.157 HD
ENDBRANCH  10  13
ENDBRANCH   5   7
ENDBRANCH   3   5
BRANCH   1  18
HETATM   18  C5  UNL     1      -0.510  15.831  18.182  1.00  0.00     0.049 A 
HETATM   19  C4  UNL     1      -1.136  16.449  17.127  1.00  0.00     0.032 A 
HETATM   20  C3  UNL     1      -1.657  15.609  16.151  1.00  0.00     0.017 A 
HETATM   21  C2  UNL     1      -1.578  14.242  16.197  1.00  0.00     0.005 A 
HETATM   22  C14 UNL     1      -0.926  13.659  17.286  1.00  0.00     0.017 A 
HETATM   23  C13 UNL     1      -0.392  14.449  18.283  1.00  0.00     0.032 A 
BRANCH  21  24
HETATM   24  C1  UNL     1      -2.116  13.404  15.129  1.00  0.00     0.120 C 
HETATM   25  N1  UNL     1      -1.492  12.123  14.994  1.00  0.00    -0.082 NA
HETATM   26  N2  UNL     1      -3.116  13.702  14.415  1.00  0.00    -0.387 N 
ATOM     27  H22 UNL     1      -3.492  13.116  13.669  1.00  0.00     0.157 HD
ATOM     28  H21 UNL     1      -3.560  14.614  14.512  1.00  0.00     0.157 HD
ENDBRANCH  21  24
ENDBRANCH   1  18
TORSDOF 5
ENDMDL
