MODEL 1
REMARK VINA RESULT: -7.986711434      0.000      0.000
REMARK  5 active torsions:
REMARK  status: ('A' for Active; 'I' for Inactive)
REMARK    1  A    between atoms: C1_2  and  C2_6 
REMARK    2  A    between atoms: C5_9  and  N3_10 
REMARK    3  A    between atoms: N4_12  and  N5_14 
REMARK    4  A    between atoms: N5_14  and  C6_16 
REMARK    5  A    between atoms: C9_19  and  C10_20 
ROOT
HETATM    1  N3  UNL     1      -0.905  16.386  19.525  1.00  0.00    -0.287 N 
ATOM      2  H3  UNL     1      -1.562  16.338  20.303  1.00  0.00     0.188 HD
HETATM    3  N4  UNL     1       0.047  17.057  19.641  1.00  0.00    -0.242 N 
ATOM      4  H4  UNL     1       0.016  17.493  20.564  1.00  0.00     0.208 HD
ENDROOT
BRANCH   3   5
HETATM    5  N5  UNL     1       1.193  17.482  19.008  1.00  0.00    -0.287 N 
ATOM      6  H5  UNL     1       1.567  17.100  18.138  1.00  0.00     0.188 HD
BRANCH   5   7
HETATM    7  C6  UNL     1       1.788  18.576  19.792  1.00  0.00     0.049 A 
HETATM    8  C7  UNL     1       0.993  19.122  20.764  1.00  0.00     0.032 A 
HETATM    9  C8  UNL     1       1.558  20.087  21.616  1.00  0.00     0.017 A 
HETATM   10  C9  UNL     1       2.864  20.440  21.447  1.00  0.00     0.005 A 
HETATM   11  C11 UNL     1       3.644  19.893  20.464  1.00  0.00     0.017 A 
HETATM   12  C12 UNL     1       3.068  18.927  19.617  1.00  0.00     0.032 A 
BRANCH  10  13
HETATM   13  C10 UNL     1       3.527  21.244  22.525  1.00  0.00     0.120 C 
HETATM   14  N6  UNL     1       4.057  22.507  22.276  1.00  0.00    -0.082 NA
HETATM   15  N7  UNL     1       3.583  20.724  23.722  1.00  0.00    -0.387 N 
ATOM     16  H72 UNL     1       3.194  19.799  23.905  1.00  0.00     0.157 HD
ATOM     17  H71 UNL     1       4.034  21.271  24.456  1.00  0.00     0.157 HD
ENDBRANCH  10  13
ENDBRANCH   5   7
ENDBRANCH   3   5
BRANCH   1  18
HETATM   18  C5  UNL     1      -1.194  15.628  18.339  1.00  0.00     0.049 A 
HETATM   19  C4  UNL     1      -1.579  16.289  17.199  1.00  0.00     0.032 A 
HETATM   20  C3  UNL     1      -1.844  15.490  16.093  1.00  0.00     0.017 A 
HETATM   21  C2  UNL     1      -1.744  14.124  16.094  1.00  0.00     0.005 A 
HETATM   22  C14 UNL     1      -1.342  13.497  17.276  1.00  0.00     0.017 A 
HETATM   23  C13 UNL     1      -1.069  14.244  18.402  1.00  0.00     0.032 A 
BRANCH  21  24
HETATM   24  C1  UNL     1      -2.005  13.332  14.895  1.00  0.00     0.120 C 
HETATM   25  N1  UNL     1      -1.408  12.032  14.889  1.00  0.00    -0.082 NA
HETATM   26  N2  UNL     1      -2.768  13.686  13.951  1.00  0.00    -0.387 N 
ATOM     27  H22 UNL     1      -2.950  13.133  13.114  1.00  0.00     0.157 HD
ATOM     28  H21 UNL     1      -3.192  14.613  13.956  1.00  0.00     0.157 HD
ENDBRANCH  21  24
ENDBRANCH   1  18
TORSDOF 5
ENDMDL
