MODEL 18
REMARK VINA RESULT: -7.074871229      5.894      7.910
REMARK  5 active torsions:
REMARK  status: ('A' for Active; 'I' for Inactive)
REMARK    1  A    between atoms: C1_2  and  C2_6 
REMARK    2  A    between atoms: C5_9  and  N3_10 
REMARK    3  A    between atoms: N4_12  and  N5_14 
REMARK    4  A    between atoms: N5_14  and  C6_16 
REMARK    5  A    between atoms: C9_19  and  C10_20 
ROOT
HETATM    1  N3  UNL     1       3.261  21.419  17.091  1.00  0.00    -0.287 N 
ATOM      2  H3  UNL     1       3.693  22.112  17.703  1.00  0.00     0.188 HD
HETATM    3  N4  UNL     1       3.365  21.558  15.933  1.00  0.00    -0.242 N 
ATOM      4  H4  UNL     1       3.898  22.411  15.764  1.00  0.00     0.208 HD
ENDROOT
BRANCH   3   5
HETATM    5  N5  UNL     1       3.041  21.007  14.714  1.00  0.00    -0.287 N 
ATOM      6  H5  UNL     1       2.095  20.850  14.365  1.00  0.00     0.188 HD
BRANCH   5   7
HETATM    7  C6  UNL     1       4.285  20.683  13.997  1.00  0.00     0.049 A 
HETATM    8  C7  UNL     1       4.518  21.387  12.847  1.00  0.00     0.032 A 
HETATM    9  C8  UNL     1       5.748  21.197  12.192  1.00  0.00     0.017 A 
HETATM   10  C9  UNL     1       6.656  20.330  12.721  1.00  0.00     0.005 A 
HETATM   11  C11 UNL     1       6.405  19.624  13.868  1.00  0.00     0.017 A 
HETATM   12  C12 UNL     1       5.171  19.823  14.515  1.00  0.00     0.032 A 
BRANCH  10  13
HETATM   13  C10 UNL     1       8.055  20.350  12.184  1.00  0.00     0.120 C 
HETATM   14  N6  UNL     1       8.684  21.539  11.824  1.00  0.00    -0.082 NA
HETATM   15  N7  UNL     1       8.680  19.208  12.073  1.00  0.00    -0.387 N 
ATOM     16  H72 UNL     1       8.219  18.337  12.337  1.00  0.00     0.157 HD
ATOM     17  H71 UNL     1       9.632  19.222  11.708  1.00  0.00     0.157 HD
ENDBRANCH  10  13
ENDBRANCH   5   7
ENDBRANCH   3   5
BRANCH   1  18
HETATM   18  C5  UNL     1       2.557  20.322  17.694  1.00  0.00     0.049 A 
HETATM   19  C4  UNL     1       2.937  19.886  18.940  1.00  0.00     0.032 A 
HETATM   20  C3  UNL     1       2.212  18.821  19.458  1.00  0.00     0.017 A 
HETATM   21  C2  UNL     1       1.177  18.208  18.803  1.00  0.00     0.005 A 
HETATM   22  C14 UNL     1       0.823  18.690  17.541  1.00  0.00     0.017 A 
HETATM   23  C13 UNL     1       1.511  19.746  16.981  1.00  0.00     0.032 A 
BRANCH  21  24
HETATM   24  C1  UNL     1       0.427  17.110  19.406  1.00  0.00     0.120 C 
HETATM   25  N1  UNL     1       0.010  17.333  20.756  1.00  0.00    -0.082 NA
HETATM   26  N2  UNL     1       0.067  16.063  18.795  1.00  0.00    -0.387 N 
ATOM     27  H22 UNL     1      -0.456  15.295  19.216  1.00  0.00     0.157 HD
ATOM     28  H21 UNL     1       0.365  15.904  17.833  1.00  0.00     0.157 HD
ENDBRANCH  21  24
ENDBRANCH   1  18
TORSDOF 5
ENDMDL
