MODEL 15
REMARK VINA RESULT: -7.278286725      5.776      7.381
REMARK  5 active torsions:
REMARK  status: ('A' for Active; 'I' for Inactive)
REMARK    1  A    between atoms: C1_2  and  C2_6 
REMARK    2  A    between atoms: C5_9  and  N3_10 
REMARK    3  A    between atoms: N4_12  and  N5_14 
REMARK    4  A    between atoms: N5_14  and  C6_16 
REMARK    5  A    between atoms: C9_19  and  C10_20 
ROOT
HETATM    1  N3  UNL     1       2.408  20.741  16.891  1.00  0.00    -0.287 N 
ATOM      2  H3  UNL     1       2.621  21.475  17.566  1.00  0.00     0.188 HD
HETATM    3  N4  UNL     1       2.773  20.877  15.787  1.00  0.00    -0.242 N 
ATOM      4  H4  UNL     1       3.257  21.773  15.723  1.00  0.00     0.208 HD
ENDROOT
BRANCH   3   5
HETATM    5  N5  UNL     1       2.797  20.288  14.544  1.00  0.00    -0.287 N 
ATOM      6  H5  UNL     1       2.008  19.829  14.088  1.00  0.00     0.188 HD
BRANCH   5   7
HETATM    7  C6  UNL     1       4.150  20.429  13.980  1.00  0.00     0.049 A 
HETATM    8  C7  UNL     1       5.158  19.818  14.676  1.00  0.00     0.032 A 
HETATM    9  C8  UNL     1       6.447  19.824  14.115  1.00  0.00     0.017 A 
HETATM   10  C9  UNL     1       6.645  20.430  12.911  1.00  0.00     0.005 A 
HETATM   11  C11 UNL     1       5.628  21.045  12.230  1.00  0.00     0.017 A 
HETATM   12  C12 UNL     1       4.342  21.032  12.801  1.00  0.00     0.032 A 
BRANCH  10  13
HETATM   13  C10 UNL     1       7.940  20.184  12.196  1.00  0.00     0.120 C 
HETATM   14  N6  UNL     1       8.666  21.222  11.617  1.00  0.00    -0.082 NA
HETATM   15  N7  UNL     1       8.381  18.955  12.143  1.00  0.00    -0.387 N 
ATOM     16  H72 UNL     1       7.849  18.195  12.568  1.00  0.00     0.157 HD
ATOM     17  H71 UNL     1       9.262  18.788  11.657  1.00  0.00     0.157 HD
ENDBRANCH  10  13
ENDBRANCH   5   7
ENDBRANCH   3   5
BRANCH   1  18
HETATM   18  C5  UNL     1       1.677  19.590  17.344  1.00  0.00     0.049 A 
HETATM   19  C4  UNL     1       0.631  19.122  16.587  1.00  0.00     0.032 A 
HETATM   20  C3  UNL     1      -0.031  18.008  17.087  1.00  0.00     0.017 A 
HETATM   21  C2  UNL     1       0.301  17.382  18.260  1.00  0.00     0.005 A 
HETATM   22  C14 UNL     1       1.377  17.891  18.991  1.00  0.00     0.017 A 
HETATM   23  C13 UNL     1       2.067  18.996  18.539  1.00  0.00     0.032 A 
BRANCH  21  24
HETATM   24  C1  UNL     1      -0.408  16.195  18.727  1.00  0.00     0.120 C 
HETATM   25  N1  UNL     1      -1.448  16.447  19.677  1.00  0.00    -0.082 NA
HETATM   26  N2  UNL     1      -0.219  15.025  18.288  1.00  0.00    -0.387 N 
ATOM     27  H22 UNL     1      -0.714  14.194  18.614  1.00  0.00     0.157 HD
ATOM     28  H21 UNL     1       0.522  14.845  17.611  1.00  0.00     0.157 HD
ENDBRANCH  21  24
ENDBRANCH   1  18
TORSDOF 5
ENDMDL
