MODEL 19
REMARK VINA RESULT: -6.984312288      6.200      8.535
REMARK  5 active torsions:
REMARK  status: ('A' for Active; 'I' for Inactive)
REMARK    1  A    between atoms: C1_2  and  C2_6 
REMARK    2  A    between atoms: C5_9  and  N3_10 
REMARK    3  A    between atoms: N4_12  and  N5_14 
REMARK    4  A    between atoms: N5_14  and  C6_16 
REMARK    5  A    between atoms: C9_19  and  C10_20 
ROOT
HETATM    1  N3  UNL     1       3.135  21.009  13.971  1.00  0.00    -0.287 N 
ATOM      2  H3  UNL     1       2.366  21.031  13.302  1.00  0.00     0.188 HD
HETATM    3  N4  UNL     1       2.883  21.077  15.111  1.00  0.00    -0.242 N 
ATOM      4  H4  UNL     1       1.871  21.159  15.207  1.00  0.00     0.208 HD
ENDROOT
BRANCH   3   5
HETATM    5  N5  UNL     1       3.434  21.089  16.373  1.00  0.00    -0.287 N 
ATOM      6  H5  UNL     1       4.286  21.580  16.645  1.00  0.00     0.188 HD
BRANCH   5   7
HETATM    7  C6  UNL     1       2.590  20.275  17.264  1.00  0.00     0.049 A 
HETATM    8  C7  UNL     1       1.590  19.561  16.660  1.00  0.00     0.032 A 
HETATM    9  C8  UNL     1       0.835  18.679  17.452  1.00  0.00     0.017 A 
HETATM   10  C9  UNL     1       1.122  18.566  18.779  1.00  0.00     0.005 A 
HETATM   11  C11 UNL     1       2.120  19.294  19.372  1.00  0.00     0.017 A 
HETATM   12  C12 UNL     1       2.869  20.173  18.569  1.00  0.00     0.032 A 
BRANCH  10  13
HETATM   13  C10 UNL     1       0.513  17.429  19.543  1.00  0.00     0.120 C 
HETATM   14  N6  UNL     1       0.153  17.556  20.883  1.00  0.00    -0.082 NA
HETATM   15  N7  UNL     1       0.315  16.306  18.906  1.00  0.00    -0.387 N 
ATOM     16  H72 UNL     1       0.578  16.213  17.925  1.00  0.00     0.157 HD
ATOM     17  H71 UNL     1      -0.100  15.532  19.426  1.00  0.00     0.157 HD
ENDBRANCH  10  13
ENDBRANCH   5   7
ENDBRANCH   3   5
BRANCH   1  18
HETATM   18  C5  UNL     1       4.475  20.895  13.464  1.00  0.00     0.049 A 
HETATM   19  C4  UNL     1       4.908  21.783  12.510  1.00  0.00     0.032 A 
HETATM   20  C3  UNL     1       6.213  21.610  12.067  1.00  0.00     0.017 A 
HETATM   21  C2  UNL     1       7.054  20.629  12.522  1.00  0.00     0.005 A 
HETATM   22  C14 UNL     1       6.570  19.754  13.498  1.00  0.00     0.017 A 
HETATM   23  C13 UNL     1       5.281  19.881  13.971  1.00  0.00     0.032 A 
BRANCH  21  24
HETATM   24  C1  UNL     1       8.428  20.509  12.045  1.00  0.00     0.120 C 
HETATM   25  N1  UNL     1       9.076  21.752  11.753  1.00  0.00    -0.082 NA
HETATM   26  N2  UNL     1       9.072  19.424  11.969  1.00  0.00    -0.387 N 
ATOM     27  H22 UNL     1      10.032  19.340  11.636  1.00  0.00     0.157 HD
ATOM     28  H21 UNL     1       8.610  18.539  12.177  1.00  0.00     0.157 HD
ENDBRANCH  21  24
ENDBRANCH   1  18
TORSDOF 5
ENDMDL
