MODEL 9
REMARK VINA RESULT: -7.634412704      1.616      8.632
REMARK  5 active torsions:
REMARK  status: ('A' for Active; 'I' for Inactive)
REMARK    1  A    between atoms: C1_2  and  C2_6 
REMARK    2  A    between atoms: C5_9  and  N3_10 
REMARK    3  A    between atoms: N4_12  and  N5_14 
REMARK    4  A    between atoms: N5_14  and  C6_16 
REMARK    5  A    between atoms: C9_19  and  C10_20 
ROOT
HETATM    1  N3  UNL     1      -0.293  18.677  19.594  1.00  0.00    -0.287 N 
ATOM      2  H3  UNL     1      -1.130  19.233  19.769  1.00  0.00     0.188 HD
HETATM    3  N4  UNL     1      -0.408  17.516  19.493  1.00  0.00    -0.242 N 
ATOM      4  H4  UNL     1      -1.393  17.284  19.618  1.00  0.00     0.208 HD
ENDROOT
BRANCH   3   5
HETATM    5  N5  UNL     1       0.282  16.346  19.270  1.00  0.00    -0.287 N 
ATOM      6  H5  UNL     1       1.166  16.085  19.706  1.00  0.00     0.188 HD
BRANCH   5   7
HETATM    7  C6  UNL     1      -0.468  15.535  18.297  1.00  0.00     0.049 A 
HETATM    8  C7  UNL     1      -1.008  16.212  17.238  1.00  0.00     0.032 A 
HETATM    9  C8  UNL     1      -1.631  15.465  16.222  1.00  0.00     0.017 A 
HETATM   10  C9  UNL     1      -1.671  14.107  16.326  1.00  0.00     0.005 A 
HETATM   11  C11 UNL     1      -1.134  13.443  17.397  1.00  0.00     0.017 A 
HETATM   12  C12 UNL     1      -0.514  14.201  18.407  1.00  0.00     0.032 A 
BRANCH  10  13
HETATM   13  C10 UNL     1      -2.074  13.314  15.119  1.00  0.00     0.120 C 
HETATM   14  N6  UNL     1      -1.443  12.118  14.784  1.00  0.00    -0.082 NA
HETATM   15  N7  UNL     1      -3.054  13.775  14.388  1.00  0.00    -0.387 N 
ATOM     16  H72 UNL     1      -3.516  14.651  14.634  1.00  0.00     0.157 HD
ATOM     17  H71 UNL     1      -3.328  13.236  13.567  1.00  0.00     0.157 HD
ENDBRANCH  10  13
ENDBRANCH   5   7
ENDBRANCH   3   5
BRANCH   1  18
HETATM   18  C5  UNL     1       0.967  19.358  19.483  1.00  0.00     0.049 A 
HETATM   19  C4  UNL     1       1.770  19.464  20.592  1.00  0.00     0.032 A 
HETATM   20  C3  UNL     1       2.972  20.136  20.411  1.00  0.00     0.017 A 
HETATM   21  C2  UNL     1       3.374  20.679  19.218  1.00  0.00     0.005 A 
HETATM   22  C14 UNL     1       2.526  20.538  18.117  1.00  0.00     0.017 A 
HETATM   23  C13 UNL     1       1.321  19.881  18.244  1.00  0.00     0.032 A 
BRANCH  21  24
HETATM   24  C1  UNL     1       4.662  21.350  19.073  1.00  0.00     0.120 C 
HETATM   25  N1  UNL     1       5.044  21.637  17.724  1.00  0.00    -0.082 NA
HETATM   26  N2  UNL     1       5.377  21.752  20.035  1.00  0.00    -0.387 N 
ATOM     27  H22 UNL     1       6.277  22.220  19.933  1.00  0.00     0.157 HD
ATOM     28  H21 UNL     1       5.104  21.547  20.996  1.00  0.00     0.157 HD
ENDBRANCH  21  24
ENDBRANCH   1  18
TORSDOF 5
ENDMDL
