MODEL 4
REMARK VINA RESULT: -7.885716683      1.424      1.801
REMARK  5 active torsions:
REMARK  status: ('A' for Active; 'I' for Inactive)
REMARK    1  A    between atoms: C1_2  and  C2_6 
REMARK    2  A    between atoms: C5_9  and  N3_10 
REMARK    3  A    between atoms: N4_12  and  N5_14 
REMARK    4  A    between atoms: N5_14  and  C6_16 
REMARK    5  A    between atoms: C9_19  and  C10_20 
ROOT
HETATM    1  N3  UNL     1       0.113  16.506  19.226  1.00  0.00    -0.287 N 
ATOM      2  H3  UNL     1       0.014  16.175  20.186  1.00  0.00     0.188 HD
HETATM    3  N4  UNL     1       0.699  17.502  19.039  1.00  0.00    -0.242 N 
ATOM      4  H4  UNL     1       1.005  17.863  19.943  1.00  0.00     0.208 HD
ENDROOT
BRANCH   3   5
HETATM    5  N5  UNL     1       1.132  18.371  18.063  1.00  0.00    -0.287 N 
ATOM      6  H5  UNL     1       0.752  18.441  17.119  1.00  0.00     0.188 HD
BRANCH   5   7
HETATM    7  C6  UNL     1       2.233  19.182  18.608  1.00  0.00     0.049 A 
HETATM    8  C7  UNL     1       2.652  20.227  17.830  1.00  0.00     0.032 A 
HETATM    9  C8  UNL     1       3.619  21.100  18.359  1.00  0.00     0.017 A 
HETATM   10  C9  UNL     1       4.098  20.878  19.616  1.00  0.00     0.005 A 
HETATM   11  C11 UNL     1       3.676  19.822  20.379  1.00  0.00     0.017 A 
HETATM   12  C12 UNL     1       2.708  18.955  19.839  1.00  0.00     0.032 A 
BRANCH  10  13
HETATM   13  C10 UNL     1       4.900  21.961  20.271  1.00  0.00     0.120 C 
HETATM   14  N6  UNL     1       4.593  23.308  20.098  1.00  0.00    -0.082 NA
HETATM   15  N7  UNL     1       5.902  21.600  21.030  1.00  0.00    -0.387 N 
ATOM     16  H72 UNL     1       6.127  20.614  21.157  1.00  0.00     0.157 HD
ATOM     17  H71 UNL     1       6.448  22.337  21.476  1.00  0.00     0.157 HD
ENDBRANCH  10  13
ENDBRANCH   5   7
ENDBRANCH   3   5
BRANCH   1  18
HETATM   18  C5  UNL     1      -0.474  15.726  18.171  1.00  0.00     0.049 A 
HETATM   19  C4  UNL     1      -1.126  16.369  17.147  1.00  0.00     0.032 A 
HETATM   20  C3  UNL     1      -1.669  15.551  16.165  1.00  0.00     0.017 A 
HETATM   21  C2  UNL     1      -1.588  14.183  16.176  1.00  0.00     0.005 A 
HETATM   22  C14 UNL     1      -0.909  13.576  17.234  1.00  0.00     0.017 A 
HETATM   23  C13 UNL     1      -0.352  14.343  18.236  1.00  0.00     0.032 A 
BRANCH  21  24
HETATM   24  C1  UNL     1      -2.151  13.370  15.102  1.00  0.00     0.120 C 
HETATM   25  N1  UNL     1      -1.540  12.087  14.932  1.00  0.00    -0.082 NA
HETATM   26  N2  UNL     1      -3.160  13.689  14.411  1.00  0.00    -0.387 N 
ATOM     27  H22 UNL     1      -3.553  13.121  13.660  1.00  0.00     0.157 HD
ATOM     28  H21 UNL     1      -3.595  14.603  14.532  1.00  0.00     0.157 HD
ENDBRANCH  21  24
ENDBRANCH   1  18
TORSDOF 5
ENDMDL
