MODEL 1
REMARK VINA RESULT: -8.224318753      0.000      0.000
REMARK  10 active torsions:
REMARK  status: ('A' for Active; 'I' for Inactive)
REMARK    1  A    between atoms: C1_2  and  C2_6 
REMARK    2  A    between atoms: C5_9  and  O1_10 
REMARK    3  A    between atoms: O1_10  and  C6_11 
REMARK    4  A    between atoms: C6_11  and  C7_12 
REMARK    5  A    between atoms: C7_12  and  C8_13 
REMARK    6  A    between atoms: C8_13  and  C9_14 
REMARK    7  A    between atoms: C9_14  and  C10_15 
REMARK    8  A    between atoms: C10_15  and  O2_16 
REMARK    9  A    between atoms: O2_16  and  C11_17 
REMARK   10  A    between atoms: C14_20  and  C15_21 
ROOT
HETATM    1  C8  UNL     1     -12.576  23.857  48.644  1.00  0.00     0.004 C 
ENDROOT
BRANCH   1   2
HETATM    2  C7  UNL     1     -11.242  24.278  48.014  1.00  0.00     0.027 C 
BRANCH   2   3
HETATM    3  C6  UNL     1     -10.186  23.402  48.619  1.00  0.00     0.175 C 
BRANCH   3   4
HETATM    4  O1  UNL     1     -10.235  22.079  48.171  1.00  0.00    -0.351 OA
BRANCH   4   5
HETATM    5  C5  UNL     1      -9.772  21.078  49.030  1.00  0.00     0.068 A 
HETATM    6  C4  UNL     1      -9.785  19.748  48.666  1.00  0.00     0.037 A 
HETATM    7  C3  UNL     1      -9.336  18.743  49.491  1.00  0.00     0.017 A 
HETATM    8  C2  UNL     1      -8.839  19.049  50.757  1.00  0.00     0.005 A 
HETATM    9  C19 UNL     1      -8.833  20.381  51.107  1.00  0.00     0.017 A 
HETATM   10  C18 UNL     1      -9.279  21.368  50.284  1.00  0.00     0.037 A 
BRANCH   8  11
HETATM   11  C1  UNL     1      -8.368  17.991  51.625  1.00  0.00     0.120 C 
HETATM   12  N1  UNL     1      -9.019  16.721  51.575  1.00  0.00    -0.082 NA
HETATM   13  N2  UNL     1      -7.394  18.142  52.433  1.00  0.00    -0.387 N 
ATOM     14  H22 UNL     1      -7.062  17.397  53.045  1.00  0.00     0.157 HD
ATOM     15  H21 UNL     1      -6.930  19.049  52.469  1.00  0.00     0.157 HD
ENDBRANCH   8  11
ENDBRANCH   4   5
ENDBRANCH   3   4
ENDBRANCH   2   3
ENDBRANCH   1   2
BRANCH   1  16
HETATM   16  C9  UNL     1     -13.571  25.002  48.588  1.00  0.00     0.027 C 
BRANCH  16  17
HETATM   17  C10 UNL     1     -12.992  26.112  49.431  1.00  0.00     0.175 C 
BRANCH  17  18
HETATM   18  O2  UNL     1     -12.829  25.860  50.764  1.00  0.00    -0.351 OA
BRANCH  18  19
HETATM   19  C11 UNL     1     -13.833  25.595  51.655  1.00  0.00     0.068 A 
HETATM   20  C12 UNL     1     -13.636  24.551  52.584  1.00  0.00     0.037 A 
HETATM   21  C13 UNL     1     -14.633  24.290  53.471  1.00  0.00     0.017 A 
HETATM   22  C14 UNL     1     -15.842  24.997  53.516  1.00  0.00     0.005 A 
HETATM   23  C16 UNL     1     -16.020  26.007  52.609  1.00  0.00     0.017 A 
HETATM   24  C17 UNL     1     -15.014  26.296  51.688  1.00  0.00     0.037 A 
BRANCH  22  25
HETATM   25  C15 UNL     1     -16.837  24.635  54.503  1.00  0.00     0.120 C 
HETATM   26  N3  UNL     1     -17.065  23.263  54.814  1.00  0.00    -0.082 NA
HETATM   27  N4  UNL     1     -17.527  25.521  55.114  1.00  0.00    -0.387 N 
ATOM     28  H42 UNL     1     -17.365  26.503  54.891  1.00  0.00     0.157 HD
ATOM     29  H41 UNL     1     -18.229  25.267  55.809  1.00  0.00     0.157 HD
ENDBRANCH  22  25
ENDBRANCH  18  19
ENDBRANCH  17  18
ENDBRANCH  16  17
ENDBRANCH   1  16
TORSDOF 10
ENDMDL
