MODEL 4
REMARK VINA RESULT: -7.860291441      0.461      8.421
REMARK  10 active torsions:
REMARK  status: ('A' for Active; 'I' for Inactive)
REMARK    1  A    between atoms: C1_2  and  C2_6 
REMARK    2  A    between atoms: C5_9  and  O1_10 
REMARK    3  A    between atoms: O1_10  and  C6_11 
REMARK    4  A    between atoms: C6_11  and  C7_12 
REMARK    5  A    between atoms: C7_12  and  C8_13 
REMARK    6  A    between atoms: C8_13  and  C9_14 
REMARK    7  A    between atoms: C9_14  and  C10_15 
REMARK    8  A    between atoms: C10_15  and  O2_16 
REMARK    9  A    between atoms: O2_16  and  C11_17 
REMARK   10  A    between atoms: C14_20  and  C15_21 
ROOT
HETATM    1  C8  UNL     1     -12.897  23.828  48.618  1.00  0.00     0.004 C 
ENDROOT
BRANCH   1   2
HETATM    2  C7  UNL     1     -13.389  25.236  48.975  1.00  0.00     0.027 C 
BRANCH   2   3
HETATM    3  C6  UNL     1     -12.421  25.788  49.979  1.00  0.00     0.175 C 
BRANCH   3   4
HETATM    4  O1  UNL     1     -13.006  26.672  50.889  1.00  0.00    -0.351 OA
BRANCH   4   5
HETATM    5  C5  UNL     1     -13.974  26.170  51.764  1.00  0.00     0.068 A 
HETATM    6  C4  UNL     1     -13.700  25.133  52.630  1.00  0.00     0.037 A 
HETATM    7  C3  UNL     1     -14.633  24.619  53.500  1.00  0.00     0.017 A 
HETATM    8  C2  UNL     1     -15.922  25.148  53.532  1.00  0.00     0.005 A 
HETATM    9  C19 UNL     1     -16.182  26.182  52.661  1.00  0.00     0.017 A 
HETATM   10  C18 UNL     1     -15.252  26.684  51.804  1.00  0.00     0.037 A 
BRANCH   8  11
HETATM   11  C1  UNL     1     -16.905  24.607  54.446  1.00  0.00     0.120 C 
HETATM   12  N1  UNL     1     -17.000  23.189  54.591  1.00  0.00    -0.082 NA
HETATM   13  N2  UNL     1     -17.690  25.340  55.131  1.00  0.00    -0.387 N 
ATOM     14  H22 UNL     1     -18.383  24.959  55.776  1.00  0.00     0.157 HD
ATOM     15  H21 UNL     1     -17.622  26.352  55.028  1.00  0.00     0.157 HD
ENDBRANCH   8  11
ENDBRANCH   4   5
ENDBRANCH   3   4
ENDBRANCH   2   3
ENDBRANCH   1   2
BRANCH   1  16
HETATM   16  C9  UNL     1     -11.686  23.462  49.456  1.00  0.00     0.027 C 
BRANCH  16  17
HETATM   17  C10 UNL     1     -10.560  23.196  48.486  1.00  0.00     0.175 C 
BRANCH  17  18
HETATM   18  O2  UNL     1     -10.289  21.889  48.193  1.00  0.00    -0.351 OA
BRANCH  18  19
HETATM   19  C11 UNL     1      -9.806  20.958  49.071  1.00  0.00     0.068 A 
HETATM   20  C12 UNL     1      -9.951  19.594  48.738  1.00  0.00     0.037 A 
HETATM   21  C13 UNL     1      -9.468  18.669  49.609  1.00  0.00     0.017 A 
HETATM   22  C14 UNL     1      -8.836  18.991  50.818  1.00  0.00     0.005 A 
HETATM   23  C16 UNL     1      -8.702  20.317  51.130  1.00  0.00     0.017 A 
HETATM   24  C17 UNL     1      -9.188  21.287  50.253  1.00  0.00     0.037 A 
BRANCH  22  25
HETATM   25  C15 UNL     1      -8.359  17.925  51.673  1.00  0.00     0.120 C 
HETATM   26  N3  UNL     1      -8.984  16.644  51.629  1.00  0.00    -0.082 NA
HETATM   27  N4  UNL     1      -7.381  18.099  52.477  1.00  0.00    -0.387 N 
ATOM     28  H42 UNL     1      -6.934  19.015  52.509  1.00  0.00     0.157 HD
ATOM     29  H41 UNL     1      -7.045  17.348  53.080  1.00  0.00     0.157 HD
ENDBRANCH  22  25
ENDBRANCH  18  19
ENDBRANCH  17  18
ENDBRANCH  16  17
ENDBRANCH   1  16
TORSDOF 10
ENDMDL
