MODEL 5
REMARK VINA RESULT: -7.614505666      0.889      8.172
REMARK  10 active torsions:
REMARK  status: ('A' for Active; 'I' for Inactive)
REMARK    1  A    between atoms: C1_2  and  C2_6 
REMARK    2  A    between atoms: C5_9  and  O1_10 
REMARK    3  A    between atoms: O1_10  and  C6_11 
REMARK    4  A    between atoms: C6_11  and  C7_12 
REMARK    5  A    between atoms: C7_12  and  C8_13 
REMARK    6  A    between atoms: C8_13  and  C9_14 
REMARK    7  A    between atoms: C9_14  and  C10_15 
REMARK    8  A    between atoms: C10_15  and  O2_16 
REMARK    9  A    between atoms: O2_16  and  C11_17 
REMARK   10  A    between atoms: C14_20  and  C15_21 
ROOT
HETATM    1  C8  UNL     1     -11.979  24.582  48.273  1.00  0.00     0.004 C 
ENDROOT
BRANCH   1   2
HETATM    2  C7  UNL     1     -12.640  25.888  47.815  1.00  0.00     0.027 C 
BRANCH   2   3
HETATM    3  C6  UNL     1     -13.965  25.968  48.514  1.00  0.00     0.175 C 
BRANCH   3   4
HETATM    4  O1  UNL     1     -13.943  26.767  49.660  1.00  0.00    -0.351 OA
BRANCH   4   5
HETATM    5  C5  UNL     1     -14.327  26.187  50.872  1.00  0.00     0.068 A 
HETATM    6  C4  UNL     1     -15.541  26.471  51.460  1.00  0.00     0.037 A 
HETATM    7  C3  UNL     1     -15.943  25.916  52.652  1.00  0.00     0.017 A 
HETATM    8  C2  UNL     1     -15.109  25.021  53.321  1.00  0.00     0.005 A 
HETATM    9  C19 UNL     1     -13.900  24.746  52.723  1.00  0.00     0.017 A 
HETATM   10  C18 UNL     1     -13.510  25.301  51.543  1.00  0.00     0.037 A 
BRANCH   8  11
HETATM   11  C1  UNL     1     -15.532  24.436  54.575  1.00  0.00     0.120 C 
HETATM   12  N1  UNL     1     -16.733  23.664  54.603  1.00  0.00    -0.082 NA
HETATM   13  N2  UNL     1     -14.878  24.578  55.660  1.00  0.00    -0.387 N 
ATOM     14  H22 UNL     1     -15.176  24.166  56.544  1.00  0.00     0.157 HD
ATOM     15  H21 UNL     1     -14.020  25.130  55.640  1.00  0.00     0.157 HD
ENDBRANCH   8  11
ENDBRANCH   4   5
ENDBRANCH   3   4
ENDBRANCH   2   3
ENDBRANCH   1   2
BRANCH   1  16
HETATM   16  C9  UNL     1     -10.801  24.244  47.379  1.00  0.00     0.027 C 
BRANCH  16  17
HETATM   17  C10 UNL     1      -9.922  23.304  48.168  1.00  0.00     0.175 C 
BRANCH  17  18
HETATM   18  O2  UNL     1     -10.280  21.985  48.184  1.00  0.00    -0.351 OA
BRANCH  18  19
HETATM   19  C11 UNL     1      -9.806  21.040  49.052  1.00  0.00     0.068 A 
HETATM   20  C12 UNL     1      -9.835  19.690  48.643  1.00  0.00     0.037 A 
HETATM   21  C13 UNL     1      -9.361  18.751  49.504  1.00  0.00     0.017 A 
HETATM   22  C14 UNL     1      -8.846  19.046  50.774  1.00  0.00     0.005 A 
HETATM   23  C16 UNL     1      -8.823  20.360  51.159  1.00  0.00     0.017 A 
HETATM   24  C17 UNL     1      -9.303  21.344  50.294  1.00  0.00     0.037 A 
BRANCH  22  25
HETATM   25  C15 UNL     1      -8.367  17.968  51.612  1.00  0.00     0.120 C 
HETATM   26  N3  UNL     1      -8.986  16.686  51.544  1.00  0.00    -0.082 NA
HETATM   27  N4  UNL     1      -7.393  18.132  52.423  1.00  0.00    -0.387 N 
ATOM     28  H42 UNL     1      -6.950  19.050  52.472  1.00  0.00     0.157 HD
ATOM     29  H41 UNL     1      -7.055  17.372  53.014  1.00  0.00     0.157 HD
ENDBRANCH  22  25
ENDBRANCH  18  19
ENDBRANCH  17  18
ENDBRANCH  16  17
ENDBRANCH   1  16
TORSDOF 10
ENDMDL
