MODEL 18
REMARK VINA RESULT: -7.246201848      4.541      7.603
REMARK  10 active torsions:
REMARK  status: ('A' for Active; 'I' for Inactive)
REMARK    1  A    between atoms: C1_2  and  C2_6 
REMARK    2  A    between atoms: C5_9  and  O1_10 
REMARK    3  A    between atoms: O1_10  and  C6_11 
REMARK    4  A    between atoms: C6_11  and  C7_12 
REMARK    5  A    between atoms: C7_12  and  C8_13 
REMARK    6  A    between atoms: C8_13  and  C9_14 
REMARK    7  A    between atoms: C9_14  and  C10_15 
REMARK    8  A    between atoms: C10_15  and  O2_16 
REMARK    9  A    between atoms: O2_16  and  C11_17 
REMARK   10  A    between atoms: C14_20  and  C15_21 
ROOT
HETATM    1  C8  UNL     1     -12.446  24.790  48.031  1.00  0.00     0.004 C 
ENDROOT
BRANCH   1   2
HETATM    2  C7  UNL     1     -12.170  23.577  48.928  1.00  0.00     0.027 C 
BRANCH   2   3
HETATM    3  C6  UNL     1     -10.691  23.332  48.877  1.00  0.00     0.175 C 
BRANCH   3   4
HETATM    4  O1  UNL     1     -10.348  22.108  48.296  1.00  0.00    -0.351 OA
BRANCH   4   5
HETATM    5  C5  UNL     1      -9.856  21.100  49.130  1.00  0.00     0.068 A 
HETATM    6  C4  UNL     1      -9.940  19.768  48.785  1.00  0.00     0.037 A 
HETATM    7  C3  UNL     1      -9.465  18.757  49.586  1.00  0.00     0.017 A 
HETATM    8  C2  UNL     1      -8.865  19.058  50.808  1.00  0.00     0.005 A 
HETATM    9  C19 UNL     1      -8.788  20.392  51.140  1.00  0.00     0.017 A 
HETATM   10  C18 UNL     1      -9.262  21.386  50.341  1.00  0.00     0.037 A 
BRANCH   8  11
HETATM   11  C1  UNL     1      -8.366  17.994  51.652  1.00  0.00     0.120 C 
HETATM   12  N1  UNL     1      -9.014  16.721  51.608  1.00  0.00    -0.082 NA
HETATM   13  N2  UNL     1      -7.370  18.140  52.433  1.00  0.00    -0.387 N 
ATOM     14  H22 UNL     1      -7.018  17.390  53.028  1.00  0.00     0.157 HD
ATOM     15  H21 UNL     1      -6.908  19.048  52.465  1.00  0.00     0.157 HD
ENDBRANCH   8  11
ENDBRANCH   4   5
ENDBRANCH   3   4
ENDBRANCH   2   3
ENDBRANCH   1   2
BRANCH   1  16
HETATM   16  C9  UNL     1     -11.655  25.993  48.510  1.00  0.00     0.027 C 
BRANCH  16  17
HETATM   17  C10 UNL     1     -11.110  26.666  47.274  1.00  0.00     0.175 C 
BRANCH  17  18
HETATM   18  O2  UNL     1     -11.131  25.943  46.114  1.00  0.00    -0.351 OA
BRANCH  18  19
HETATM   19  C11 UNL     1     -10.032  25.494  45.434  1.00  0.00     0.068 A 
HETATM   20  C12 UNL     1      -9.254  26.439  44.732  1.00  0.00     0.037 A 
HETATM   21  C13 UNL     1      -8.161  25.993  44.058  1.00  0.00     0.017 A 
HETATM   22  C14 UNL     1      -7.761  24.651  44.021  1.00  0.00     0.005 A 
HETATM   23  C16 UNL     1      -8.524  23.743  44.707  1.00  0.00     0.017 A 
HETATM   24  C17 UNL     1      -9.652  24.174  45.406  1.00  0.00     0.037 A 
BRANCH  22  25
HETATM   25  C15 UNL     1      -6.578  24.284  43.272  1.00  0.00     0.120 C 
HETATM   26  N3  UNL     1      -5.342  24.079  43.950  1.00  0.00    -0.082 NA
HETATM   27  N4  UNL     1      -6.609  24.138  42.003  1.00  0.00    -0.387 N 
ATOM     28  H42 UNL     1      -7.494  24.285  41.517  1.00  0.00     0.157 HD
ATOM     29  H41 UNL     1      -5.776  23.879  41.474  1.00  0.00     0.157 HD
ENDBRANCH  22  25
ENDBRANCH  18  19
ENDBRANCH  17  18
ENDBRANCH  16  17
ENDBRANCH   1  16
TORSDOF 10
ENDMDL
