MODEL 3
REMARK VINA RESULT: -7.927250654      0.767      8.410
REMARK  10 active torsions:
REMARK  status: ('A' for Active; 'I' for Inactive)
REMARK    1  A    between atoms: C1_2  and  C2_6 
REMARK    2  A    between atoms: C5_9  and  O1_10 
REMARK    3  A    between atoms: O1_10  and  C6_11 
REMARK    4  A    between atoms: C6_11  and  C7_12 
REMARK    5  A    between atoms: C7_12  and  C8_13 
REMARK    6  A    between atoms: C8_13  and  C9_14 
REMARK    7  A    between atoms: C9_14  and  C10_15 
REMARK    8  A    between atoms: C10_15  and  O2_16 
REMARK    9  A    between atoms: O2_16  and  C11_17 
REMARK   10  A    between atoms: C14_20  and  C15_21 
ROOT
HETATM    1  C8  UNL     1     -11.956  23.858  49.801  1.00  0.00     0.004 C 
ENDROOT
BRANCH   1   2
HETATM    2  C7  UNL     1     -10.855  24.531  50.629  1.00  0.00     0.027 C 
BRANCH   2   3
HETATM    3  C6  UNL     1     -11.532  25.546  51.502  1.00  0.00     0.175 C 
BRANCH   3   4
HETATM    4  O1  UNL     1     -12.846  25.825  51.116  1.00  0.00    -0.351 OA
BRANCH   4   5
HETATM    5  C5  UNL     1     -13.875  25.496  52.003  1.00  0.00     0.068 A 
HETATM    6  C4  UNL     1     -15.101  26.125  51.956  1.00  0.00     0.037 A 
HETATM    7  C3  UNL     1     -16.130  25.823  52.816  1.00  0.00     0.017 A 
HETATM    8  C2  UNL     1     -15.959  24.840  53.790  1.00  0.00     0.005 A 
HETATM    9  C19 UNL     1     -14.729  24.221  53.826  1.00  0.00     0.017 A 
HETATM   10  C18 UNL     1     -13.716  24.527  52.971  1.00  0.00     0.037 A 
BRANCH   8  11
HETATM   11  C1  UNL     1     -17.041  24.522  54.696  1.00  0.00     0.120 C 
HETATM   12  N1  UNL     1     -17.326  23.149  54.970  1.00  0.00    -0.082 NA
HETATM   13  N2  UNL     1     -17.753  25.413  55.265  1.00  0.00    -0.387 N 
ATOM     14  H22 UNL     1     -18.516  25.189  55.903  1.00  0.00     0.157 HD
ATOM     15  H21 UNL     1     -17.550  26.394  55.069  1.00  0.00     0.157 HD
ENDBRANCH   8  11
ENDBRANCH   4   5
ENDBRANCH   3   4
ENDBRANCH   2   3
ENDBRANCH   1   2
BRANCH   1  16
HETATM   16  C9  UNL     1     -11.575  23.835  48.333  1.00  0.00     0.027 C 
BRANCH  16  17
HETATM   17  C10 UNL     1     -10.180  23.261  48.263  1.00  0.00     0.175 C 
BRANCH  17  18
HETATM   18  O2  UNL     1     -10.073  21.916  48.041  1.00  0.00    -0.351 OA
BRANCH  18  19
HETATM   19  C11 UNL     1      -9.650  20.989  48.953  1.00  0.00     0.068 A 
HETATM   20  C12 UNL     1      -9.650  19.631  48.567  1.00  0.00     0.037 A 
HETATM   21  C13 UNL     1      -9.227  18.710  49.472  1.00  0.00     0.017 A 
HETATM   22  C14 UNL     1      -8.791  19.029  50.765  1.00  0.00     0.005 A 
HETATM   23  C16 UNL     1      -8.795  20.350  51.128  1.00  0.00     0.017 A 
HETATM   24  C17 UNL     1      -9.225  21.316  50.218  1.00  0.00     0.037 A 
BRANCH  22  25
HETATM   25  C15 UNL     1      -8.361  17.967  51.650  1.00  0.00     0.120 C 
HETATM   26  N3  UNL     1      -8.975  16.684  51.572  1.00  0.00    -0.082 NA
HETATM   27  N4  UNL     1      -7.435  18.148  52.512  1.00  0.00    -0.387 N 
ATOM     28  H42 UNL     1      -6.995  19.067  52.569  1.00  0.00     0.157 HD
ATOM     29  H41 UNL     1      -7.131  17.400  53.136  1.00  0.00     0.157 HD
ENDBRANCH  22  25
ENDBRANCH  18  19
ENDBRANCH  17  18
ENDBRANCH  16  17
ENDBRANCH   1  16
TORSDOF 10
ENDMDL
