MODEL 16
REMARK VINA RESULT: -7.287652672      4.258      7.855
REMARK  10 active torsions:
REMARK  status: ('A' for Active; 'I' for Inactive)
REMARK    1  A    between atoms: C1_2  and  C2_6 
REMARK    2  A    between atoms: C5_9  and  O1_10 
REMARK    3  A    between atoms: O1_10  and  C6_11 
REMARK    4  A    between atoms: C6_11  and  C7_12 
REMARK    5  A    between atoms: C7_12  and  C8_13 
REMARK    6  A    between atoms: C8_13  and  C9_14 
REMARK    7  A    between atoms: C9_14  and  C10_15 
REMARK    8  A    between atoms: C10_15  and  O2_16 
REMARK    9  A    between atoms: O2_16  and  C11_17 
REMARK   10  A    between atoms: C14_20  and  C15_21 
ROOT
HETATM    1  C8  UNL     1     -12.187  24.628  49.559  1.00  0.00     0.004 C 
ENDROOT
BRANCH   1   2
HETATM    2  C7  UNL     1     -12.721  25.875  48.844  1.00  0.00     0.027 C 
BRANCH   2   3
HETATM    3  C6  UNL     1     -11.583  26.850  48.774  1.00  0.00     0.175 C 
BRANCH   3   4
HETATM    4  O1  UNL     1     -11.301  27.285  47.476  1.00  0.00    -0.351 OA
BRANCH   4   5
HETATM    5  C5  UNL     1     -10.551  26.444  46.650  1.00  0.00     0.068 A 
HETATM    6  C4  UNL     1      -9.209  26.216  46.874  1.00  0.00     0.037 A 
HETATM    7  C3  UNL     1      -8.447  25.394  46.077  1.00  0.00     0.017 A 
HETATM    8  C2  UNL     1      -9.026  24.747  44.987  1.00  0.00     0.005 A 
HETATM    9  C19 UNL     1     -10.366  24.984  44.775  1.00  0.00     0.017 A 
HETATM   10  C18 UNL     1     -11.113  25.799  45.569  1.00  0.00     0.037 A 
BRANCH   8  11
HETATM   11  C1  UNL     1      -8.225  23.883  44.148  1.00  0.00     0.120 C 
HETATM   12  N1  UNL     1      -6.804  24.028  44.172  1.00  0.00    -0.082 NA
HETATM   13  N2  UNL     1      -8.730  22.994  43.387  1.00  0.00    -0.387 N 
ATOM     14  H22 UNL     1      -8.164  22.385  42.796  1.00  0.00     0.157 HD
ATOM     15  H21 UNL     1      -9.744  22.891  43.370  1.00  0.00     0.157 HD
ENDBRANCH   8  11
ENDBRANCH   4   5
ENDBRANCH   3   4
ENDBRANCH   2   3
ENDBRANCH   1   2
BRANCH   1  16
HETATM   16  C9  UNL     1     -11.939  23.511  48.562  1.00  0.00     0.027 C 
BRANCH  16  17
HETATM   17  C10 UNL     1     -10.443  23.324  48.494  1.00  0.00     0.175 C 
BRANCH  17  18
HETATM   18  O2  UNL     1      -9.988  22.080  48.157  1.00  0.00    -0.351 OA
BRANCH  18  19
HETATM   19  C11 UNL     1      -9.591  21.110  49.037  1.00  0.00     0.068 A 
HETATM   20  C12 UNL     1      -9.552  19.776  48.579  1.00  0.00     0.037 A 
HETATM   21  C13 UNL     1      -9.155  18.813  49.452  1.00  0.00     0.017 A 
HETATM   22  C14 UNL     1      -8.782  19.068  50.779  1.00  0.00     0.005 A 
HETATM   23  C16 UNL     1      -8.824  20.367  51.211  1.00  0.00     0.017 A 
HETATM   24  C17 UNL     1      -9.228  21.375  50.335  1.00  0.00     0.037 A 
BRANCH  22  25
HETATM   25  C15 UNL     1      -8.375  17.966  51.625  1.00  0.00     0.120 C 
HETATM   26  N3  UNL     1      -9.064  16.721  51.551  1.00  0.00    -0.082 NA
HETATM   27  N4  UNL     1      -7.404  18.078  52.448  1.00  0.00    -0.387 N 
ATOM     28  H42 UNL     1      -6.911  18.969  52.501  1.00  0.00     0.157 HD
ATOM     29  H41 UNL     1      -7.117  17.301  53.044  1.00  0.00     0.157 HD
ENDBRANCH  22  25
ENDBRANCH  18  19
ENDBRANCH  17  18
ENDBRANCH  16  17
ENDBRANCH   1  16
TORSDOF 10
ENDMDL
