MODEL 2
REMARK VINA RESULT: -8.049120217      0.425      1.078
REMARK  10 active torsions:
REMARK  status: ('A' for Active; 'I' for Inactive)
REMARK    1  A    between atoms: C1_2  and  C2_6 
REMARK    2  A    between atoms: C5_9  and  O1_10 
REMARK    3  A    between atoms: O1_10  and  C6_11 
REMARK    4  A    between atoms: C6_11  and  C7_12 
REMARK    5  A    between atoms: C7_12  and  C8_13 
REMARK    6  A    between atoms: C8_13  and  C9_14 
REMARK    7  A    between atoms: C9_14  and  C10_15 
REMARK    8  A    between atoms: C10_15  and  O2_16 
REMARK    9  A    between atoms: O2_16  and  C11_17 
REMARK   10  A    between atoms: C14_20  and  C15_21 
ROOT
HETATM    1  C8  UNL     1     -12.974  23.972  48.610  1.00  0.00     0.004 C 
ENDROOT
BRANCH   1   2
HETATM    2  C7  UNL     1     -11.957  23.220  49.478  1.00  0.00     0.027 C 
BRANCH   2   3
HETATM    3  C6  UNL     1     -10.644  23.284  48.754  1.00  0.00     0.175 C 
BRANCH   3   4
HETATM    4  O1  UNL     1     -10.259  22.065  48.190  1.00  0.00    -0.351 OA
BRANCH   4   5
HETATM    5  C5  UNL     1      -9.790  21.064  49.045  1.00  0.00     0.068 A 
HETATM    6  C4  UNL     1      -9.888  19.728  48.719  1.00  0.00     0.037 A 
HETATM    7  C3  UNL     1      -9.436  18.723  49.542  1.00  0.00     0.017 A 
HETATM    8  C2  UNL     1      -8.847  19.036  50.766  1.00  0.00     0.005 A 
HETATM    9  C19 UNL     1      -8.756  20.374  51.079  1.00  0.00     0.017 A 
HETATM   10  C18 UNL     1      -9.207  21.362  50.258  1.00  0.00     0.037 A 
BRANCH   8  11
HETATM   11  C1  UNL     1      -8.372  17.978  51.632  1.00  0.00     0.120 C 
HETATM   12  N1  UNL     1      -9.065  16.729  51.635  1.00  0.00    -0.082 NA
HETATM   13  N2  UNL     1      -7.359  18.110  52.394  1.00  0.00    -0.387 N 
ATOM     14  H22 UNL     1      -7.023  17.365  53.005  1.00  0.00     0.157 HD
ATOM     15  H21 UNL     1      -6.864  19.003  52.392  1.00  0.00     0.157 HD
ENDBRANCH   8  11
ENDBRANCH   4   5
ENDBRANCH   3   4
ENDBRANCH   2   3
ENDBRANCH   1   2
BRANCH   1  16
HETATM   16  C9  UNL     1     -12.562  25.423  48.449  1.00  0.00     0.027 C 
BRANCH  16  17
HETATM   17  C10 UNL     1     -13.476  26.228  49.341  1.00  0.00     0.175 C 
BRANCH  17  18
HETATM   18  O2  UNL     1     -13.222  26.193  50.684  1.00  0.00    -0.351 OA
BRANCH  18  19
HETATM   19  C11 UNL     1     -14.090  25.763  51.649  1.00  0.00     0.068 A 
HETATM   20  C12 UNL     1     -15.331  26.426  51.767  1.00  0.00     0.037 A 
HETATM   21  C13 UNL     1     -16.195  25.997  52.725  1.00  0.00     0.017 A 
HETATM   22  C14 UNL     1     -15.926  24.936  53.601  1.00  0.00     0.005 A 
HETATM   23  C16 UNL     1     -14.719  24.302  53.476  1.00  0.00     0.017 A 
HETATM   24  C17 UNL     1     -13.814  24.722  52.502  1.00  0.00     0.037 A 
BRANCH  22  25
HETATM   25  C15 UNL     1     -16.919  24.562  54.585  1.00  0.00     0.120 C 
HETATM   26  N3  UNL     1     -17.128  23.187  54.897  1.00  0.00    -0.082 NA
HETATM   27  N4  UNL     1     -17.624  25.438  55.192  1.00  0.00    -0.387 N 
ATOM     28  H42 UNL     1     -17.474  26.422  54.969  1.00  0.00     0.157 HD
ATOM     29  H41 UNL     1     -18.324  25.175  55.886  1.00  0.00     0.157 HD
ENDBRANCH  22  25
ENDBRANCH  18  19
ENDBRANCH  17  18
ENDBRANCH  16  17
ENDBRANCH   1  16
TORSDOF 10
ENDMDL
