MODEL 11
REMARK VINA RESULT: -7.428335983      3.732      9.350
REMARK  10 active torsions:
REMARK  status: ('A' for Active; 'I' for Inactive)
REMARK    1  A    between atoms: C1_2  and  C2_6 
REMARK    2  A    between atoms: C5_9  and  O1_10 
REMARK    3  A    between atoms: O1_10  and  C6_11 
REMARK    4  A    between atoms: C6_11  and  C7_12 
REMARK    5  A    between atoms: C7_12  and  C8_13 
REMARK    6  A    between atoms: C8_13  and  C9_14 
REMARK    7  A    between atoms: C9_14  and  C10_15 
REMARK    8  A    between atoms: C10_15  and  O2_16 
REMARK    9  A    between atoms: O2_16  and  C11_17 
REMARK   10  A    between atoms: C14_20  and  C15_21 
ROOT
HETATM    1  C8  UNL     1     -12.270  23.570  49.317  1.00  0.00     0.004 C 
ENDROOT
BRANCH   1   2
HETATM    2  C7  UNL     1     -12.549  24.614  50.406  1.00  0.00     0.027 C 
BRANCH   2   3
HETATM    3  C6  UNL     1     -12.569  25.950  49.726  1.00  0.00     0.175 C 
BRANCH   3   4
HETATM    4  O1  UNL     1     -13.817  26.578  49.767  1.00  0.00    -0.351 OA
BRANCH   4   5
HETATM    5  C5  UNL     1     -14.447  26.866  48.553  1.00  0.00     0.068 A 
HETATM    6  C4  UNL     1     -13.828  26.636  47.342  1.00  0.00     0.037 A 
HETATM    7  C3  UNL     1     -14.424  26.911  46.134  1.00  0.00     0.017 A 
HETATM    8  C2  UNL     1     -15.711  27.446  46.096  1.00  0.00     0.005 A 
HETATM    9  C19 UNL     1     -16.317  27.671  47.313  1.00  0.00     0.017 A 
HETATM   10  C18 UNL     1     -15.719  27.396  48.504  1.00  0.00     0.037 A 
BRANCH   8  11
HETATM   11  C1  UNL     1     -16.338  27.736  44.825  1.00  0.00     0.120 C 
HETATM   12  N1  UNL     1     -17.764  27.707  44.741  1.00  0.00    -0.082 NA
HETATM   13  N2  UNL     1     -15.675  28.017  43.774  1.00  0.00    -0.387 N 
ATOM     14  H22 UNL     1     -16.117  28.222  42.878  1.00  0.00     0.157 HD
ATOM     15  H21 UNL     1     -14.657  28.037  43.834  1.00  0.00     0.157 HD
ENDBRANCH   8  11
ENDBRANCH   4   5
ENDBRANCH   3   4
ENDBRANCH   2   3
ENDBRANCH   1   2
BRANCH   1  16
HETATM   16  C9  UNL     1     -11.345  24.145  48.260  1.00  0.00     0.027 C 
BRANCH  16  17
HETATM   17  C10 UNL     1     -10.098  23.295  48.276  1.00  0.00     0.175 C 
BRANCH  17  18
HETATM   18  O2  UNL     1     -10.266  21.943  48.165  1.00  0.00    -0.351 OA
BRANCH  18  19
HETATM   19  C11 UNL     1      -9.797  21.005  49.044  1.00  0.00     0.068 A 
HETATM   20  C12 UNL     1      -9.850  19.649  48.658  1.00  0.00     0.037 A 
HETATM   21  C13 UNL     1      -9.381  18.718  49.530  1.00  0.00     0.017 A 
HETATM   22  C14 UNL     1      -8.849  19.027  50.790  1.00  0.00     0.005 A 
HETATM   23  C16 UNL     1      -8.804  20.346  51.153  1.00  0.00     0.017 A 
HETATM   24  C17 UNL     1      -9.278  21.322  50.277  1.00  0.00     0.037 A 
BRANCH  22  25
HETATM   25  C15 UNL     1      -8.378  17.955  51.641  1.00  0.00     0.120 C 
HETATM   26  N3  UNL     1      -9.002  16.675  51.585  1.00  0.00    -0.082 NA
HETATM   27  N4  UNL     1      -7.406  18.124  52.454  1.00  0.00    -0.387 N 
ATOM     28  H42 UNL     1      -6.959  19.040  52.494  1.00  0.00     0.157 HD
ATOM     29  H41 UNL     1      -7.073  17.369  53.054  1.00  0.00     0.157 HD
ENDBRANCH  22  25
ENDBRANCH  18  19
ENDBRANCH  17  18
ENDBRANCH  16  17
ENDBRANCH   1  16
TORSDOF 10
ENDMDL
