MODEL 2
REMARK VINA RESULT: -6.169551621      0.089      1.515
REMARK  1 active torsions:
REMARK  status: ('A' for Active; 'I' for Inactive)
REMARK    1  A    between atoms: C1_2  and  C2_6 
ROOT
HETATM    1  C2  UNL     1      -1.764  14.307  16.726  1.00  0.00     0.005 A 
HETATM    2  C3  UNL     1      -0.846  13.916  17.656  1.00  0.00     0.017 A 
HETATM    3  C4  UNL     1      -0.619  14.688  18.805  1.00  0.00     0.027 A 
HETATM    4  C5  UNL     1      -1.340  15.850  18.980  1.00  0.00     0.046 A 
HETATM    5  N3  UNL     1      -1.137  16.668  20.142  1.00  0.00    -0.102 NA
HETATM    6  C6  UNL     1      -2.277  16.278  18.062  1.00  0.00     0.027 A 
HETATM    7  C7  UNL     1      -2.466  15.498  16.958  1.00  0.00     0.017 A 
ENDROOT
BRANCH   1   8
HETATM    8  C1  UNL     1      -2.043  13.549  15.516  1.00  0.00     0.120 C 
HETATM    9  N1  UNL     1      -1.360  12.328  15.251  1.00  0.00    -0.082 NA
HETATM   10  N2  UNL     1      -2.899  13.918  14.631  1.00  0.00    -0.387 N 
ATOM     11  H22 UNL     1      -3.095  13.386  13.783  1.00  0.00     0.157 HD
ATOM     12  H21 UNL     1      -3.389  14.793  14.821  1.00  0.00     0.157 HD
ENDBRANCH   1   8
TORSDOF 1
ENDMDL
