MODEL 4
REMARK VINA RESULT: -5.707420403      0.993      1.811
REMARK  1 active torsions:
REMARK  status: ('A' for Active; 'I' for Inactive)
REMARK    1  A    between atoms: C1_2  and  C2_6 
ROOT
HETATM    1  C2  UNL     1      -1.374  13.944  16.889  1.00  0.00     0.005 A 
HETATM    2  C3  UNL     1      -0.654  14.114  18.035  1.00  0.00     0.017 A 
HETATM    3  C4  UNL     1      -0.874  15.229  18.858  1.00  0.00     0.027 A 
HETATM    4  C5  UNL     1      -1.832  16.150  18.490  1.00  0.00     0.046 A 
HETATM    5  N3  UNL     1      -2.087  17.303  19.305  1.00  0.00    -0.102 NA
HETATM    6  C6  UNL     1      -2.581  16.011  17.339  1.00  0.00     0.027 A 
HETATM    7  C7  UNL     1      -2.334  14.913  16.567  1.00  0.00     0.017 A 
ENDROOT
BRANCH   1   8
HETATM    8  C1  UNL     1      -1.191  12.809  15.997  1.00  0.00     0.120 C 
HETATM    9  N1  UNL     1      -0.082  11.931  16.158  1.00  0.00    -0.082 NA
HETATM   10  N2  UNL     1      -1.993  12.531  15.032  1.00  0.00    -0.387 N 
ATOM     11  H22 UNL     1      -1.864  11.736  14.406  1.00  0.00     0.157 HD
ATOM     12  H21 UNL     1      -2.788  13.161  14.916  1.00  0.00     0.157 HD
ENDBRANCH   1   8
TORSDOF 1
ENDMDL
