MODEL 3
REMARK VINA RESULT: -5.716567930      0.963      1.083
REMARK  1 active torsions:
REMARK  status: ('A' for Active; 'I' for Inactive)
REMARK    1  A    between atoms: C1_2  and  C2_6 
ROOT
HETATM    1  C2  UNL     1      -1.462  13.989  16.841  1.00  0.00     0.005 A 
HETATM    2  C3  UNL     1      -2.404  14.933  16.556  1.00  0.00     0.017 A 
HETATM    3  C4  UNL     1      -2.594  16.033  17.407  1.00  0.00     0.027 A 
HETATM    4  C5  UNL     1      -1.812  16.143  18.537  1.00  0.00     0.046 A 
HETATM    5  N3  UNL     1      -1.975  17.253  19.432  1.00  0.00    -0.102 NA
HETATM    6  C6  UNL     1      -0.849  15.209  18.858  1.00  0.00     0.027 A 
HETATM    7  C7  UNL     1      -0.697  14.155  18.004  1.00  0.00     0.017 A 
ENDROOT
BRANCH   1   8
HETATM    8  C1  UNL     1      -1.220  12.828  15.998  1.00  0.00     0.120 C 
HETATM    9  N1  UNL     1      -0.102  11.980  16.236  1.00  0.00    -0.082 NA
HETATM   10  N2  UNL     1      -1.975  12.500  15.011  1.00  0.00    -0.387 N 
ATOM     11  H22 UNL     1      -1.804  11.686  14.420  1.00  0.00     0.157 HD
ATOM     12  H21 UNL     1      -2.777  13.108  14.841  1.00  0.00     0.157 HD
ENDBRANCH   1   8
TORSDOF 1
ENDMDL
