MODEL 1
REMARK VINA RESULT: -6.175485239      0.000      0.000
REMARK  1 active torsions:
REMARK  status: ('A' for Active; 'I' for Inactive)
REMARK    1  A    between atoms: C1_2  and  C2_6 
ROOT
HETATM    1  C2  UNL     1      -1.837  14.408  16.696  1.00  0.00     0.005 A 
HETATM    2  C3  UNL     1      -2.509  15.569  16.941  1.00  0.00     0.017 A 
HETATM    3  C4  UNL     1      -2.242  16.318  18.097  1.00  0.00     0.027 A 
HETATM    4  C5  UNL     1      -1.290  15.861  18.983  1.00  0.00     0.046 A 
HETATM    5  N3  UNL     1      -0.988  16.599  20.176  1.00  0.00    -0.102 NA
HETATM    6  C6  UNL     1      -0.590  14.691  18.768  1.00  0.00     0.027 A 
HETATM    7  C7  UNL     1      -0.880  13.993  17.633  1.00  0.00     0.017 A 
ENDROOT
BRANCH   1   8
HETATM    8  C1  UNL     1      -2.070  13.589  15.516  1.00  0.00     0.120 C 
HETATM    9  N1  UNL     1      -1.357  12.371  15.326  1.00  0.00    -0.082 NA
HETATM   10  N2  UNL     1      -2.908  13.899  14.593  1.00  0.00    -0.387 N 
ATOM     11  H22 UNL     1      -3.070  13.325  13.765  1.00  0.00     0.157 HD
ATOM     12  H21 UNL     1      -3.419  14.772  14.729  1.00  0.00     0.157 HD
ENDBRANCH   1   8
TORSDOF 1
ENDMDL
