MODEL 8
REMARK VINA RESULT: -5.101442551      1.478      4.506
REMARK  1 active torsions:
REMARK  status: ('A' for Active; 'I' for Inactive)
REMARK    1  A    between atoms: C1_2  and  C2_6 
ROOT
HETATM    1  C2  UNL     1      -0.374  16.421  18.547  1.00  0.00     0.005 A 
HETATM    2  C3  UNL     1      -1.007  17.012  17.494  1.00  0.00     0.017 A 
HETATM    3  C4  UNL     1      -1.712  16.239  16.558  1.00  0.00     0.027 A 
HETATM    4  C5  UNL     1      -1.755  14.870  16.722  1.00  0.00     0.046 A 
HETATM    5  N3  UNL     1      -2.465  14.045  15.787  1.00  0.00    -0.102 NA
HETATM    6  C6  UNL     1      -1.128  14.237  17.775  1.00  0.00     0.027 A 
HETATM    7  C7  UNL     1      -0.453  15.025  18.661  1.00  0.00     0.017 A 
ENDROOT
BRANCH   1   8
HETATM    8  C1  UNL     1       0.371  17.168  19.548  1.00  0.00     0.120 C 
HETATM    9  N1  UNL     1      -0.124  17.294  20.877  1.00  0.00    -0.082 NA
HETATM   10  N2  UNL     1       1.493  17.748  19.309  1.00  0.00    -0.387 N 
ATOM     11  H22 UNL     1       2.015  18.272  20.011  1.00  0.00     0.157 HD
ATOM     12  H21 UNL     1       1.848  17.657  18.356  1.00  0.00     0.157 HD
ENDBRANCH   1   8
TORSDOF 1
ENDMDL
