MODEL 20
REMARK VINA RESULT: -3.834176623      4.297      5.379
REMARK  1 active torsions:
REMARK  status: ('A' for Active; 'I' for Inactive)
REMARK    1  A    between atoms: C1_2  and  C2_6 
ROOT
HETATM    1  C2  UNL     1      -1.346  17.119  19.927  1.00  0.00     0.004 A 
HETATM    2  C3  UNL     1      -1.820  15.892  19.560  1.00  0.00     0.015 A 
HETATM    3  C4  UNL     1      -1.704  15.390  18.256  1.00  0.00     0.001 A 
HETATM    4  C5  UNL     1      -1.091  16.174  17.329  1.00  0.00     0.000 A 
HETATM    5  C6  UNL     1      -0.588  17.424  17.624  1.00  0.00     0.001 A 
HETATM    6  C7  UNL     1      -0.725  17.874  18.917  1.00  0.00     0.015 A 
ENDROOT
BRANCH   1   7
HETATM    7  C1  UNL     1      -1.464  17.633  21.266  1.00  0.00     0.120 C 
HETATM    8  N1  UNL     1      -1.846  16.739  22.305  1.00  0.00    -0.082 NA
HETATM    9  N2  UNL     1      -1.240  18.842  21.540  1.00  0.00    -0.387 N 
ATOM     10  H22 UNL     1      -1.324  19.207  22.490  1.00  0.00     0.157 HD
ATOM     11  H21 UNL     1      -0.967  19.483  20.795  1.00  0.00     0.157 HD
ENDBRANCH   1   7
TORSDOF 1
ENDMDL
