MODEL 19
REMARK VINA RESULT: -3.846412150      4.301      5.218
REMARK  1 active torsions:
REMARK  status: ('A' for Active; 'I' for Inactive)
REMARK    1  A    between atoms: C1_2  and  C2_6 
ROOT
HETATM    1  C2  UNL     1      -1.340  17.140  19.936  1.00  0.00     0.004 A 
HETATM    2  C3  UNL     1      -0.732  17.860  18.947  1.00  0.00     0.015 A 
HETATM    3  C4  UNL     1      -0.594  17.386  17.636  1.00  0.00     0.001 A 
HETATM    4  C5  UNL     1      -1.093  16.152  17.353  1.00  0.00     0.000 A 
HETATM    5  C6  UNL     1      -1.719  15.366  18.298  1.00  0.00     0.001 A 
HETATM    6  C7  UNL     1      -1.831  15.874  19.572  1.00  0.00     0.015 A 
ENDROOT
BRANCH   1   7
HETATM    7  C1  UNL     1      -1.482  17.628  21.282  1.00  0.00     0.120 C 
HETATM    8  N1  UNL     1      -1.844  16.705  22.304  1.00  0.00    -0.082 NA
HETATM    9  N2  UNL     1      -1.296  18.838  21.579  1.00  0.00    -0.387 N 
ATOM     10  H22 UNL     1      -1.397  19.184  22.534  1.00  0.00     0.157 HD
ATOM     11  H21 UNL     1      -1.036  19.499  20.847  1.00  0.00     0.157 HD
ENDBRANCH   1   7
TORSDOF 1
ENDMDL
