MODEL 6
REMARK VINA RESULT: -4.716721300      1.114      1.871
REMARK  1 active torsions:
REMARK  status: ('A' for Active; 'I' for Inactive)
REMARK    1  A    between atoms: C1_2  and  C2_6 
ROOT
HETATM    1  C2  UNL     1      -1.296  13.633  16.712  1.00  0.00     0.004 A 
HETATM    2  C3  UNL     1      -0.452  13.695  17.784  1.00  0.00     0.015 A 
HETATM    3  C4  UNL     1      -0.563  14.671  18.783  1.00  0.00     0.001 A 
HETATM    4  C5  UNL     1      -1.560  15.590  18.664  1.00  0.00     0.000 A 
HETATM    5  C6  UNL     1      -2.449  15.591  17.610  1.00  0.00     0.001 A 
HETATM    6  C7  UNL     1      -2.301  14.614  16.653  1.00  0.00     0.015 A 
ENDROOT
BRANCH   1   7
HETATM    7  C1  UNL     1      -1.182  12.630  15.686  1.00  0.00     0.120 C 
HETATM    8  N1  UNL     1      -0.035  11.788  15.685  1.00  0.00    -0.082 NA
HETATM    9  N2  UNL     1      -2.063  12.478  14.798  1.00  0.00    -0.387 N 
ATOM     10  H22 UNL     1      -1.982  11.767  14.071  1.00  0.00     0.157 HD
ATOM     11  H21 UNL     1      -2.885  13.082  14.799  1.00  0.00     0.157 HD
ENDBRANCH   1   7
TORSDOF 1
ENDMDL
