MODEL 2
REMARK VINA RESULT: -5.342704900      0.030      1.586
REMARK  1 active torsions:
REMARK  status: ('A' for Active; 'I' for Inactive)
REMARK    1  A    between atoms: C1_2  and  C2_6 
ROOT
HETATM    1  C2  UNL     1      -1.571  14.295  16.498  1.00  0.00     0.004 A 
HETATM    2  C3  UNL     1      -0.941  13.715  17.561  1.00  0.00     0.015 A 
HETATM    3  C4  UNL     1      -0.415  14.455  18.630  1.00  0.00     0.001 A 
HETATM    4  C5  UNL     1      -0.547  15.808  18.588  1.00  0.00     0.000 A 
HETATM    5  C6  UNL     1      -1.170  16.465  17.548  1.00  0.00     0.001 A 
HETATM    6  C7  UNL     1      -1.670  15.697  16.522  1.00  0.00     0.015 A 
ENDROOT
BRANCH   1   7
HETATM    7  C1  UNL     1      -2.110  13.536  15.401  1.00  0.00     0.120 C 
HETATM    8  N1  UNL     1      -1.466  12.320  15.035  1.00  0.00    -0.082 NA
HETATM    9  N2  UNL     1      -3.129  13.913  14.763  1.00  0.00    -0.387 N 
ATOM     10  H22 UNL     1      -3.511  13.374  13.985  1.00  0.00     0.157 HD
ATOM     11  H21 UNL     1      -3.590  14.784  15.025  1.00  0.00     0.157 HD
ENDBRANCH   1   7
TORSDOF 1
ENDMDL
