MODEL 1
REMARK VINA RESULT: -5.372854787      0.000      0.000
REMARK  1 active torsions:
REMARK  status: ('A' for Active; 'I' for Inactive)
REMARK    1  A    between atoms: C1_2  and  C2_6 
ROOT
HETATM    1  C2  UNL     1      -1.581  14.323  16.478  1.00  0.00     0.004 A 
HETATM    2  C3  UNL     1      -1.668  15.685  16.526  1.00  0.00     0.015 A 
HETATM    3  C4  UNL     1      -1.146  16.445  17.582  1.00  0.00     0.001 A 
HETATM    4  C5  UNL     1      -0.530  15.779  18.596  1.00  0.00     0.000 A 
HETATM    5  C6  UNL     1      -0.403  14.406  18.618  1.00  0.00     0.001 A 
HETATM    6  C7  UNL     1      -0.931  13.703  17.559  1.00  0.00     0.015 A 
ENDROOT
BRANCH   1   7
HETATM    7  C1  UNL     1      -2.116  13.544  15.393  1.00  0.00     0.120 C 
HETATM    8  N1  UNL     1      -1.464  12.328  15.045  1.00  0.00    -0.082 NA
HETATM    9  N2  UNL     1      -3.137  13.905  14.750  1.00  0.00    -0.387 N 
ATOM     10  H22 UNL     1      -3.516  13.353  13.981  1.00  0.00     0.157 HD
ATOM     11  H21 UNL     1      -3.604  14.777  15.000  1.00  0.00     0.157 HD
ENDBRANCH   1   7
TORSDOF 1
ENDMDL
