MODEL 16
REMARK VINA RESULT: -3.938183645      3.750      4.832
REMARK  1 active torsions:
REMARK  status: ('A' for Active; 'I' for Inactive)
REMARK    1  A    between atoms: C1_2  and  C2_6 
ROOT
HETATM    1  C2  UNL     1       0.342  17.543  18.533  1.00  0.00     0.004 A 
HETATM    2  C3  UNL     1       0.180  18.171  17.331  1.00  0.00     0.015 A 
HETATM    3  C4  UNL     1       0.981  19.246  16.921  1.00  0.00     0.001 A 
HETATM    4  C5  UNL     1       1.956  19.669  17.770  1.00  0.00     0.000 A 
HETATM    5  C6  UNL     1       2.179  19.085  19.000  1.00  0.00     0.001 A 
HETATM    6  C7  UNL     1       1.368  18.033  19.359  1.00  0.00     0.015 A 
ENDROOT
BRANCH   1   7
HETATM    7  C1  UNL     1      -0.479  16.439  18.954  1.00  0.00     0.120 C 
HETATM    8  N1  UNL     1      -1.820  16.703  19.352  1.00  0.00    -0.082 NA
HETATM    9  N2  UNL     1      -0.048  15.255  18.978  1.00  0.00    -0.387 N 
ATOM     10  H22 UNL     1      -0.631  14.472  19.276  1.00  0.00     0.157 HD
ATOM     11  H21 UNL     1       0.912  15.065  18.693  1.00  0.00     0.157 HD
ENDBRANCH   1   7
TORSDOF 1
ENDMDL
