MODEL 15
REMARK VINA RESULT: -9.153253236      1.203      2.120
REMARK  14 active torsions:
REMARK  status: ('A' for Active; 'I' for Inactive)
REMARK    1  A    between atoms: N5_13  and  C6_14 
REMARK    2  A    between atoms: C7_16  and  C8_17 
REMARK    3  A    between atoms: C8_17  and  O2_18 
REMARK    4  A    between atoms: O2_18  and  P1_19 
REMARK    5  A    between atoms: P1_19  and  O5_22 
REMARK    6  A    between atoms: O5_22  and  P2_23 
REMARK    7  A    between atoms: P2_23  and  O8_26 
REMARK    8  A    between atoms: O8_26  and  C9_27 
REMARK    9  A    between atoms: C9_27  and  C10_28 
REMARK   10  A    between atoms: C11_30  and  O10_31 
REMARK   11  A    between atoms: C12_33  and  O11_34 
REMARK   12  A    between atoms: C13_36  and  O12_37 
REMARK   13  A    between atoms: C14_39  and  O13_40 
REMARK   14  A    between atoms: C15_42  and  O14_43 
ROOT
HETATM    1  C6  UNL     1       7.910 -23.079  -5.464  1.00  0.00     0.262 C 
HETATM    2  O1  UNL     1       7.603 -23.344  -4.140  1.00  0.00    -0.353 OA
HETATM    3  C7  UNL     1       6.219 -23.182  -4.131  1.00  0.00     0.180 C 
HETATM    4  C14 UNL     1       5.723 -23.937  -5.327  1.00  0.00     0.182 C 
HETATM    5  C15 UNL     1       6.963 -24.040  -6.189  1.00  0.00     0.198 C 
ENDROOT
BRANCH   3   6
HETATM    6  C8  UNL     1       5.609 -23.680  -2.839  1.00  0.00     0.216 C 
BRANCH   6   7
HETATM    7  O2  UNL     1       4.262 -23.962  -2.974  1.00  0.00    -0.287 OA
BRANCH   7   8
HETATM    8  P1  UNL     1       3.411 -22.983  -1.889  1.00  0.00     0.417 P 
HETATM    9  O3  UNL     1       3.702 -21.518  -2.110  1.00  0.00    -0.624 OA
HETATM   10  O4  UNL     1       3.960 -23.386  -0.321  1.00  0.00    -0.624 OA
BRANCH   8  11
HETATM   11  O5  UNL     1       1.761 -23.256  -1.925  1.00  0.00    -0.180 OA
BRANCH  11  12
HETATM   12  P2  UNL     1       1.074 -22.938  -3.417  1.00  0.00     0.417 P 
HETATM   13  O6  UNL     1      -0.207 -23.735  -3.546  1.00  0.00    -0.624 OA
HETATM   14  O7  UNL     1       2.130 -23.443  -4.651  1.00  0.00    -0.624 OA
BRANCH  12  15
HETATM   15  O8  UNL     1       0.721 -21.295  -3.635  1.00  0.00    -0.287 OA
BRANCH  15  16
HETATM   16  C9  UNL     1       1.398 -20.866  -4.760  1.00  0.00     0.216 C 
BRANCH  16  17
HETATM   17  C10 UNL     1       0.508 -20.264  -5.808  1.00  0.00     0.180 C 
HETATM   18  O9  UNL     1      -0.380 -21.232  -6.233  1.00  0.00    -0.349 OA
HETATM   19  C11 UNL     1      -1.479 -20.610  -6.775  1.00  0.00     0.288 C 
HETATM   20  C12 UNL     1      -1.557 -19.226  -6.211  1.00  0.00     0.204 C 
HETATM   21  C13 UNL     1      -0.439 -19.230  -5.186  1.00  0.00     0.182 C 
BRANCH  19  22
HETATM   22  O10 UNL     1      -2.617 -21.305  -6.308  1.00  0.00    -0.369 OA
ATOM     23  H10 UNL     1      -2.532 -22.203  -6.604  1.00  0.00     0.212 HD
ENDBRANCH  19  22
BRANCH  20  24
HETATM   24  O11 UNL     1      -1.241 -18.327  -7.235  1.00  0.00    -0.388 OA
ATOM     25  H11 UNL     1      -0.922 -17.528  -6.833  1.00  0.00     0.210 HD
ENDBRANCH  20  24
BRANCH  21  26
HETATM   26  O12 UNL     1       0.170 -17.989  -5.077  1.00  0.00    -0.390 OA
ATOM     27  H12 UNL     1       0.695 -17.793  -5.843  1.00  0.00     0.210 HD
ENDBRANCH  21  26
ENDBRANCH  16  17
ENDBRANCH  15  16
ENDBRANCH  12  15
ENDBRANCH  11  12
ENDBRANCH   8  11
ENDBRANCH   7   8
ENDBRANCH   6   7
ENDBRANCH   3   6
BRANCH   4  28
HETATM   28  O13 UNL     1       4.772 -23.230  -6.060  1.00  0.00    -0.390 OA
ATOM     29  H13 UNL     1       3.886 -23.362  -5.744  1.00  0.00     0.210 HD
ENDBRANCH   4  28
BRANCH   1  30
HETATM   30  N5  UNL     1       9.265 -23.364  -5.818  1.00  0.00    -0.297 N 
HETATM   31  C3  UNL     1      10.287 -22.510  -5.914  1.00  0.00     0.142 A 
HETATM   32  N3  UNL     1      10.375 -21.200  -5.723  1.00  0.00    -0.336 N 
HETATM   33  C4  UNL     1      11.440 -23.192  -6.286  1.00  0.00     0.119 A 
HETATM   34  C2  UNL     1      11.549 -20.558  -5.887  1.00  0.00     0.183 A 
ATOM     35  H3  UNL     1       9.546 -20.673  -5.449  1.00  0.00     0.168 HD
HETATM   36  N2  UNL     1      12.682 -21.226  -6.253  1.00  0.00    -0.339 N 
HETATM   37  C1  UNL     1      12.651 -22.554  -6.459  1.00  0.00     0.148 A 
ATOM     38  H2  UNL     1      13.558 -20.715  -6.370  1.00  0.00     0.167 HD
HETATM   39  N1  UNL     1      13.846 -23.222  -6.838  1.00  0.00    -0.080 NA
HETATM   40  N4  UNL     1      11.084 -24.470  -6.410  1.00  0.00    -0.346 N 
HETATM   41  C5  UNL     1       9.755 -24.575  -6.124  1.00  0.00     0.188 A 
ATOM     42  H4  UNL     1      11.700 -25.239  -6.673  1.00  0.00     0.167 HD
ENDBRANCH   1  30
BRANCH   5  43
HETATM   43  O14 UNL     1       6.746 -23.637  -7.492  1.00  0.00    -0.388 OA
ATOM     44  H14 UNL     1       7.305 -22.905  -7.723  1.00  0.00     0.210 HD
ENDBRANCH   5  43
TORSDOF 14
ENDMDL
