MODEL 3
REMARK VINA RESULT: -9.956987726      2.503      3.951
REMARK  14 active torsions:
REMARK  status: ('A' for Active; 'I' for Inactive)
REMARK    1  A    between atoms: N5_13  and  C6_14 
REMARK    2  A    between atoms: C7_16  and  C8_17 
REMARK    3  A    between atoms: C8_17  and  O2_18 
REMARK    4  A    between atoms: O2_18  and  P1_19 
REMARK    5  A    between atoms: P1_19  and  O5_22 
REMARK    6  A    between atoms: O5_22  and  P2_23 
REMARK    7  A    between atoms: P2_23  and  O8_26 
REMARK    8  A    between atoms: O8_26  and  C9_27 
REMARK    9  A    between atoms: C9_27  and  C10_28 
REMARK   10  A    between atoms: C11_30  and  O10_31 
REMARK   11  A    between atoms: C12_33  and  O11_34 
REMARK   12  A    between atoms: C13_36  and  O12_37 
REMARK   13  A    between atoms: C14_39  and  O13_40 
REMARK   14  A    between atoms: C15_42  and  O14_43 
ROOT
HETATM    1  C6  UNL     1       7.040 -21.683  -1.344  1.00  0.00     0.262 C 
HETATM    2  O1  UNL     1       6.436 -22.443  -2.332  1.00  0.00    -0.353 OA
HETATM    3  C7  UNL     1       5.789 -23.423  -1.581  1.00  0.00     0.180 C 
HETATM    4  C14 UNL     1       5.094 -22.684  -0.478  1.00  0.00     0.182 C 
HETATM    5  C15 UNL     1       5.848 -21.372  -0.435  1.00  0.00     0.198 C 
ENDROOT
BRANCH   3   6
HETATM    6  C8  UNL     1       4.832 -24.232  -2.429  1.00  0.00     0.216 C 
BRANCH   6   7
HETATM    7  O2  UNL     1       3.514 -23.877  -2.208  1.00  0.00    -0.287 OA
BRANCH   7   8
HETATM    8  P1  UNL     1       2.740 -23.775  -3.708  1.00  0.00     0.417 P 
HETATM    9  O3  UNL     1       1.382 -24.435  -3.683  1.00  0.00    -0.624 OA
HETATM   10  O4  UNL     1       3.709 -24.632  -4.825  1.00  0.00    -0.624 OA
BRANCH   8  11
HETATM   11  O5  UNL     1       2.608 -22.203  -4.264  1.00  0.00    -0.180 OA
BRANCH  11  12
HETATM   12  P2  UNL     1       1.184 -21.458  -3.801  1.00  0.00     0.417 P 
HETATM   13  O6  UNL     1       0.825 -21.913  -2.402  1.00  0.00    -0.624 OA
HETATM   14  O7  UNL     1      -0.073 -21.932  -4.843  1.00  0.00    -0.624 OA
BRANCH  12  15
HETATM   15  O8  UNL     1       1.300 -19.767  -3.813  1.00  0.00    -0.287 OA
BRANCH  15  16
HETATM   16  C9  UNL     1       1.314 -19.357  -5.131  1.00  0.00     0.216 C 
BRANCH  16  17
HETATM   17  C10 UNL     1       0.186 -18.434  -5.490  1.00  0.00     0.180 C 
HETATM   18  O9  UNL     1       0.420 -17.211  -4.893  1.00  0.00    -0.349 OA
HETATM   19  C11 UNL     1      -0.274 -16.247  -5.584  1.00  0.00     0.288 C 
HETATM   20  C12 UNL     1      -0.530 -16.758  -6.966  1.00  0.00     0.204 C 
HETATM   21  C13 UNL     1       0.241 -18.064  -6.977  1.00  0.00     0.182 C 
BRANCH  19  22
HETATM   22  O10 UNL     1       0.586 -15.134  -5.712  1.00  0.00    -0.369 OA
ATOM     23  H10 UNL     1       0.085 -14.367  -5.461  1.00  0.00     0.212 HD
ENDBRANCH  19  22
BRANCH  20  24
HETATM   24  O11 UNL     1      -1.898 -17.027  -7.078  1.00  0.00    -0.388 OA
ATOM     25  H11 UNL     1      -2.204 -16.649  -7.894  1.00  0.00     0.210 HD
ENDBRANCH  20  24
BRANCH  21  26
HETATM   26  O12 UNL     1      -0.381 -19.026  -7.759  1.00  0.00    -0.390 OA
ATOM     27  H12 UNL     1      -1.173 -18.688  -8.159  1.00  0.00     0.210 HD
ENDBRANCH  21  26
ENDBRANCH  16  17
ENDBRANCH  15  16
ENDBRANCH  12  15
ENDBRANCH  11  12
ENDBRANCH   8  11
ENDBRANCH   7   8
ENDBRANCH   6   7
ENDBRANCH   3   6
BRANCH   4  28
HETATM   28  O13 UNL     1       5.254 -23.289   0.767  1.00  0.00    -0.390 OA
ATOM     29  H13 UNL     1       5.324 -22.662   1.477  1.00  0.00     0.210 HD
ENDBRANCH   4  28
BRANCH   1  30
HETATM   30  N5  UNL     1       7.627 -20.469  -1.818  1.00  0.00    -0.297 N 
HETATM   31  C3  UNL     1       8.509 -20.313  -2.809  1.00  0.00     0.142 A 
HETATM   32  N3  UNL     1       9.092 -21.180  -3.627  1.00  0.00    -0.336 N 
HETATM   33  C4  UNL     1       8.828 -18.969  -2.952  1.00  0.00     0.119 A 
HETATM   34  C2  UNL     1       9.966 -20.761  -4.564  1.00  0.00     0.183 A 
ATOM     35  H3  UNL     1       8.877 -22.174  -3.547  1.00  0.00     0.168 HD
HETATM   36  N2  UNL     1      10.280 -19.440  -4.706  1.00  0.00    -0.339 N 
HETATM   37  C1  UNL     1       9.718 -18.518  -3.904  1.00  0.00     0.148 A 
ATOM     38  H2  UNL     1      10.945 -19.150  -5.424  1.00  0.00     0.167 HD
HETATM   39  N1  UNL     1      10.065 -17.151  -4.075  1.00  0.00    -0.080 NA
HETATM   40  N4  UNL     1       8.117 -18.325  -2.026  1.00  0.00    -0.346 N 
HETATM   41  C5  UNL     1       7.384 -19.242  -1.334  1.00  0.00     0.188 A 
ATOM     42  H4  UNL     1       8.121 -17.318  -1.863  1.00  0.00     0.167 HD
ENDBRANCH   1  30
BRANCH   5  43
HETATM   43  O14 UNL     1       6.266 -21.034   0.837  1.00  0.00    -0.388 OA
ATOM     44  H14 UNL     1       5.555 -20.659   1.343  1.00  0.00     0.210 HD
ENDBRANCH   5  43
TORSDOF 14
ENDMDL
