MODEL 20
REMARK VINA RESULT: -9.071750987      2.082      3.250
REMARK  14 active torsions:
REMARK  status: ('A' for Active; 'I' for Inactive)
REMARK    1  A    between atoms: N5_13  and  C6_14 
REMARK    2  A    between atoms: C7_16  and  C8_17 
REMARK    3  A    between atoms: C8_17  and  O2_18 
REMARK    4  A    between atoms: O2_18  and  P1_19 
REMARK    5  A    between atoms: P1_19  and  O5_22 
REMARK    6  A    between atoms: O5_22  and  P2_23 
REMARK    7  A    between atoms: P2_23  and  O8_26 
REMARK    8  A    between atoms: O8_26  and  C9_27 
REMARK    9  A    between atoms: C9_27  and  C10_28 
REMARK   10  A    between atoms: C11_30  and  O10_31 
REMARK   11  A    between atoms: C12_33  and  O11_34 
REMARK   12  A    between atoms: C13_36  and  O12_37 
REMARK   13  A    between atoms: C14_39  and  O13_40 
REMARK   14  A    between atoms: C15_42  and  O14_43 
ROOT
HETATM    1  C6  UNL     1       8.127 -22.713  -3.455  1.00  0.00     0.262 C 
HETATM    2  O1  UNL     1       6.814 -22.953  -3.825  1.00  0.00    -0.353 OA
HETATM    3  C7  UNL     1       6.735 -24.339  -3.709  1.00  0.00     0.180 C 
HETATM    4  C14 UNL     1       7.359 -24.664  -2.385  1.00  0.00     0.182 C 
HETATM    5  C15 UNL     1       8.195 -23.433  -2.105  1.00  0.00     0.198 C 
ENDROOT
BRANCH   3   6
HETATM    6  C8  UNL     1       5.306 -24.825  -3.809  1.00  0.00     0.216 C 
BRANCH   6   7
HETATM    7  O2  UNL     1       4.400 -23.865  -3.395  1.00  0.00    -0.287 OA
BRANCH   7   8
HETATM    8  P1  UNL     1       3.182 -23.755  -4.562  1.00  0.00     0.417 P 
HETATM    9  O3  UNL     1       1.950 -24.532  -4.160  1.00  0.00    -0.624 OA
HETATM   10  O4  UNL     1       3.797 -24.467  -5.990  1.00  0.00    -0.624 OA
BRANCH   8  11
HETATM   11  O5  UNL     1       2.774 -22.176  -4.928  1.00  0.00    -0.180 OA
BRANCH  11  12
HETATM   12  P2  UNL     1       1.517 -21.587  -3.994  1.00  0.00     0.417 P 
HETATM   13  O6  UNL     1       1.724 -22.028  -2.560  1.00  0.00    -0.624 OA
HETATM   14  O7  UNL     1       0.046 -22.246  -4.536  1.00  0.00    -0.624 OA
BRANCH  12  15
HETATM   15  O8  UNL     1       1.411 -19.896  -4.036  1.00  0.00    -0.287 OA
BRANCH  15  16
HETATM   16  C9  UNL     1       1.324 -19.514  -5.360  1.00  0.00     0.216 C 
BRANCH  16  17
HETATM   17  C10 UNL     1       0.195 -18.567  -5.644  1.00  0.00     0.180 C 
HETATM   18  O9  UNL     1       0.428 -17.394  -4.953  1.00  0.00    -0.349 OA
HETATM   19  C11 UNL     1      -0.268 -16.380  -5.566  1.00  0.00     0.288 C 
HETATM   20  C12 UNL     1      -0.525 -16.781  -6.984  1.00  0.00     0.204 C 
HETATM   21  C13 UNL     1       0.246 -18.082  -7.098  1.00  0.00     0.182 C 
BRANCH  19  22
HETATM   22  O10 UNL     1       0.592 -15.259  -5.609  1.00  0.00    -0.369 OA
ATOM     23  H10 UNL     1       0.732 -15.054  -6.526  1.00  0.00     0.212 HD
ENDBRANCH  19  22
BRANCH  20  24
HETATM   24  O11 UNL     1      -1.893 -17.042  -7.114  1.00  0.00    -0.388 OA
ATOM     25  H11 UNL     1      -2.334 -16.216  -7.276  1.00  0.00     0.210 HD
ENDBRANCH  20  24
BRANCH  21  26
HETATM   26  O12 UNL     1      -0.376 -18.981  -7.952  1.00  0.00    -0.390 OA
ATOM     27  H12 UNL     1      -0.378 -19.858  -7.588  1.00  0.00     0.210 HD
ENDBRANCH  21  26
ENDBRANCH  16  17
ENDBRANCH  15  16
ENDBRANCH  12  15
ENDBRANCH  11  12
ENDBRANCH   8  11
ENDBRANCH   7   8
ENDBRANCH   6   7
ENDBRANCH   3   6
BRANCH   4  28
HETATM   28  O13 UNL     1       8.235 -25.746  -2.448  1.00  0.00    -0.390 OA
ATOM     29  H13 UNL     1       7.907 -26.515  -1.997  1.00  0.00     0.210 HD
ENDBRANCH   4  28
BRANCH   1  30
HETATM   30  N5  UNL     1       8.445 -21.329  -3.291  1.00  0.00    -0.297 N 
HETATM   31  C3  UNL     1       9.288 -20.587  -4.014  1.00  0.00     0.142 A 
HETATM   32  N3  UNL     1      10.058 -20.873  -5.056  1.00  0.00    -0.336 N 
HETATM   33  C4  UNL     1       9.310 -19.286  -3.526  1.00  0.00     0.119 A 
HETATM   34  C2  UNL     1      10.835 -19.926  -5.617  1.00  0.00     0.183 A 
ATOM     35  H3  UNL     1      10.062 -21.819  -5.436  1.00  0.00     0.168 HD
HETATM   36  N2  UNL     1      10.858 -18.647  -5.140  1.00  0.00    -0.339 N 
HETATM   37  C1  UNL     1      10.097 -18.301  -4.086  1.00  0.00     0.148 A 
ATOM     38  H2  UNL     1      11.456 -17.949  -5.585  1.00  0.00     0.167 HD
HETATM   39  N1  UNL     1      10.142 -16.964  -3.612  1.00  0.00    -0.080 NA
HETATM   40  N4  UNL     1       8.463 -19.268  -2.498  1.00  0.00    -0.346 N 
HETATM   41  C5  UNL     1       7.935 -20.516  -2.355  1.00  0.00     0.188 A 
ATOM     42  H4  UNL     1       8.245 -18.457  -1.917  1.00  0.00     0.167 HD
ENDBRANCH   1  30
BRANCH   5  43
HETATM   43  O14 UNL     1       9.498 -23.734  -1.764  1.00  0.00    -0.388 OA
ATOM     44  H14 UNL     1       9.536 -24.481  -1.179  1.00  0.00     0.210 HD
ENDBRANCH   5  43
TORSDOF 14
ENDMDL
