MODEL 5
REMARK VINA RESULT: -9.678672835      1.578      2.576
REMARK  14 active torsions:
REMARK  status: ('A' for Active; 'I' for Inactive)
REMARK    1  A    between atoms: N5_13  and  C6_14 
REMARK    2  A    between atoms: C7_16  and  C8_17 
REMARK    3  A    between atoms: C8_17  and  O2_18 
REMARK    4  A    between atoms: O2_18  and  P1_19 
REMARK    5  A    between atoms: P1_19  and  O5_22 
REMARK    6  A    between atoms: O5_22  and  P2_23 
REMARK    7  A    between atoms: P2_23  and  O8_26 
REMARK    8  A    between atoms: O8_26  and  C9_27 
REMARK    9  A    between atoms: C9_27  and  C10_28 
REMARK   10  A    between atoms: C11_30  and  O10_31 
REMARK   11  A    between atoms: C12_33  and  O11_34 
REMARK   12  A    between atoms: C13_36  and  O12_37 
REMARK   13  A    between atoms: C14_39  and  O13_40 
REMARK   14  A    between atoms: C15_42  and  O14_43 
ROOT
HETATM    1  C6  UNL     1       9.015 -23.622  -6.147  1.00  0.00     0.262 C 
HETATM    2  O1  UNL     1       8.306 -23.769  -4.966  1.00  0.00    -0.353 OA
HETATM    3  C7  UNL     1       7.013 -23.440  -5.368  1.00  0.00     0.180 C 
HETATM    4  C14 UNL     1       6.787 -24.198  -6.641  1.00  0.00     0.182 C 
HETATM    5  C15 UNL     1       8.198 -24.501  -7.098  1.00  0.00     0.198 C 
ENDROOT
BRANCH   3   6
HETATM    6  C8  UNL     1       5.996 -23.782  -4.302  1.00  0.00     0.216 C 
BRANCH   6   7
HETATM    7  O2  UNL     1       4.705 -23.485  -4.701  1.00  0.00    -0.287 OA
BRANCH   7   8
HETATM    8  P1  UNL     1       3.719 -24.801  -4.305  1.00  0.00     0.417 P 
HETATM    9  O3  UNL     1       4.193 -25.498  -3.051  1.00  0.00    -0.624 OA
HETATM   10  O4  UNL     1       3.843 -25.919  -5.593  1.00  0.00    -0.624 OA
BRANCH   8  11
HETATM   11  O5  UNL     1       2.107 -24.383  -4.160  1.00  0.00    -0.180 OA
BRANCH  11  12
HETATM   12  P2  UNL     1       1.854 -23.072  -3.152  1.00  0.00     0.417 P 
HETATM   13  O6  UNL     1       2.769 -23.194  -1.951  1.00  0.00    -0.624 OA
HETATM   14  O7  UNL     1       0.250 -23.085  -2.590  1.00  0.00    -0.624 OA
BRANCH  12  15
HETATM   15  O8  UNL     1       2.156 -21.592  -3.921  1.00  0.00    -0.287 OA
BRANCH  15  16
HETATM   16  C9  UNL     1       0.975 -20.875  -3.925  1.00  0.00     0.216 C 
BRANCH  16  17
HETATM   17  C10 UNL     1       0.472 -20.547  -5.301  1.00  0.00     0.180 C 
HETATM   18  O9  UNL     1      -0.483 -21.481  -5.648  1.00  0.00    -0.349 OA
HETATM   19  C11 UNL     1      -1.290 -20.942  -6.620  1.00  0.00     0.288 C 
HETATM   20  C12 UNL     1      -1.203 -19.451  -6.524  1.00  0.00     0.204 C 
HETATM   21  C13 UNL     1      -0.355 -19.255  -5.282  1.00  0.00     0.182 C 
BRANCH  19  22
HETATM   22  O10 UNL     1      -2.619 -21.294  -6.293  1.00  0.00    -0.369 OA
ATOM     23  H10 UNL     1      -3.182 -20.628  -6.670  1.00  0.00     0.212 HD
ENDBRANCH  19  22
BRANCH  20  24
HETATM   24  O11 UNL     1      -0.499 -18.990  -7.641  1.00  0.00    -0.388 OA
ATOM     25  H11 UNL     1       0.419 -18.931  -7.404  1.00  0.00     0.210 HD
ENDBRANCH  20  24
BRANCH  21  26
HETATM   26  O12 UNL     1       0.457 -18.135  -5.379  1.00  0.00    -0.390 OA
ATOM     27  H12 UNL     1       0.562 -17.711  -4.536  1.00  0.00     0.210 HD
ENDBRANCH  21  26
ENDBRANCH  16  17
ENDBRANCH  15  16
ENDBRANCH  12  15
ENDBRANCH  11  12
ENDBRANCH   8  11
ENDBRANCH   7   8
ENDBRANCH   6   7
ENDBRANCH   3   6
BRANCH   4  28
HETATM   28  O13 UNL     1       6.192 -23.425  -7.636  1.00  0.00    -0.390 OA
ATOM     29  H13 UNL     1       6.760 -23.282  -8.384  1.00  0.00     0.210 HD
ENDBRANCH   4  28
BRANCH   1  30
HETATM   30  N5  UNL     1      10.364 -24.090  -6.081  1.00  0.00    -0.297 N 
HETATM   31  C3  UNL     1      11.488 -23.386  -6.240  1.00  0.00     0.142 A 
HETATM   32  N3  UNL     1      11.707 -22.103  -6.494  1.00  0.00    -0.336 N 
HETATM   33  C4  UNL     1      12.591 -24.219  -6.098  1.00  0.00     0.119 A 
HETATM   34  C2  UNL     1      12.963 -21.630  -6.611  1.00  0.00     0.183 A 
ATOM     35  H3  UNL     1      10.917 -21.467  -6.602  1.00  0.00     0.168 HD
HETATM   36  N2  UNL     1      14.049 -22.446  -6.472  1.00  0.00    -0.339 N 
HETATM   37  C1  UNL     1      13.885 -23.755  -6.213  1.00  0.00     0.148 A 
ATOM     38  H2  UNL     1      14.990 -22.061  -6.565  1.00  0.00     0.167 HD
HETATM   39  N1  UNL     1      15.033 -24.580  -6.074  1.00  0.00    -0.080 NA
HETATM   40  N4  UNL     1      12.102 -25.434  -5.851  1.00  0.00    -0.346 N 
HETATM   41  C5  UNL     1      10.742 -25.355  -5.841  1.00  0.00     0.188 A 
ATOM     42  H4  UNL     1      12.652 -26.279  -5.696  1.00  0.00     0.167 HD
ENDBRANCH   1  30
BRANCH   5  43
HETATM   43  O14 UNL     1       8.423 -24.153  -8.415  1.00  0.00    -0.388 OA
ATOM     44  H14 UNL     1       8.059 -24.800  -9.008  1.00  0.00     0.210 HD
ENDBRANCH   5  43
TORSDOF 14
ENDMDL
