MODEL 9
REMARK VINA RESULT: -9.256003747      1.660      2.268
REMARK  14 active torsions:
REMARK  status: ('A' for Active; 'I' for Inactive)
REMARK    1  A    between atoms: N5_13  and  C6_14 
REMARK    2  A    between atoms: C7_16  and  C8_17 
REMARK    3  A    between atoms: C8_17  and  O2_18 
REMARK    4  A    between atoms: O2_18  and  P1_19 
REMARK    5  A    between atoms: P1_19  and  O5_22 
REMARK    6  A    between atoms: O5_22  and  P2_23 
REMARK    7  A    between atoms: P2_23  and  O8_26 
REMARK    8  A    between atoms: O8_26  and  C9_27 
REMARK    9  A    between atoms: C9_27  and  C10_28 
REMARK   10  A    between atoms: C11_30  and  O10_31 
REMARK   11  A    between atoms: C12_33  and  O11_34 
REMARK   12  A    between atoms: C13_36  and  O12_37 
REMARK   13  A    between atoms: C14_39  and  O13_40 
REMARK   14  A    between atoms: C15_42  and  O14_43 
ROOT
HETATM    1  C6  UNL     1       8.795 -23.046  -5.552  1.00  0.00     0.262 C 
HETATM    2  O1  UNL     1       7.955 -23.419  -4.515  1.00  0.00    -0.353 OA
HETATM    3  C7  UNL     1       6.710 -23.413  -5.141  1.00  0.00     0.180 C 
HETATM    4  C14 UNL     1       6.910 -24.148  -6.431  1.00  0.00     0.182 C 
HETATM    5  C15 UNL     1       8.409 -24.063  -6.630  1.00  0.00     0.198 C 
ENDROOT
BRANCH   3   6
HETATM    6  C8  UNL     1       5.648 -24.048  -4.271  1.00  0.00     0.216 C 
BRANCH   6   7
HETATM    7  O2  UNL     1       4.753 -23.115  -3.779  1.00  0.00    -0.287 OA
BRANCH   7   8
HETATM    8  P1  UNL     1       3.251 -23.397  -4.503  1.00  0.00     0.417 P 
HETATM    9  O3  UNL     1       2.417 -24.369  -3.702  1.00  0.00    -0.624 OA
HETATM   10  O4  UNL     1       3.560 -24.116  -6.023  1.00  0.00    -0.624 OA
BRANCH   8  11
HETATM   11  O5  UNL     1       2.391 -21.990  -4.781  1.00  0.00    -0.180 OA
BRANCH  11  12
HETATM   12  P2  UNL     1       1.580 -21.436  -3.427  1.00  0.00     0.417 P 
HETATM   13  O6  UNL     1       2.537 -21.425  -2.254  1.00  0.00    -0.624 OA
HETATM   14  O7  UNL     1       0.305 -22.495  -3.052  1.00  0.00    -0.624 OA
BRANCH  12  15
HETATM   15  O8  UNL     1       0.954 -19.874  -3.637  1.00  0.00    -0.287 OA
BRANCH  15  16
HETATM   16  C9  UNL     1       1.008 -19.579  -4.985  1.00  0.00     0.216 C 
BRANCH  16  17
HETATM   17  C10 UNL     1      -0.024 -18.584  -5.428  1.00  0.00     0.180 C 
HETATM   18  O9  UNL     1       0.248 -17.375  -4.819  1.00  0.00    -0.349 OA
HETATM   19  C11 UNL     1      -0.326 -16.372  -5.562  1.00  0.00     0.288 C 
HETATM   20  C12 UNL     1      -0.514 -16.875  -6.958  1.00  0.00     0.204 C 
HETATM   21  C13 UNL     1       0.164 -18.231  -6.909  1.00  0.00     0.182 C 
BRANCH  19  22
HETATM   22  O10 UNL     1       0.616 -15.321  -5.631  1.00  0.00    -0.369 OA
ATOM     23  H10 UNL     1       0.502 -14.902  -6.475  1.00  0.00     0.212 HD
ENDBRANCH  19  22
BRANCH  20  24
HETATM   24  O11 UNL     1      -1.885 -17.051  -7.170  1.00  0.00    -0.388 OA
ATOM     25  H11 UNL     1      -2.330 -16.898  -6.345  1.00  0.00     0.210 HD
ENDBRANCH  20  24
BRANCH  21  26
HETATM   26  O12 UNL     1      -0.463 -19.155  -7.732  1.00  0.00    -0.390 OA
ATOM     27  H12 UNL     1      -0.909 -18.728  -8.453  1.00  0.00     0.210 HD
ENDBRANCH  21  26
ENDBRANCH  16  17
ENDBRANCH  15  16
ENDBRANCH  12  15
ENDBRANCH  11  12
ENDBRANCH   8  11
ENDBRANCH   7   8
ENDBRANCH   6   7
ENDBRANCH   3   6
BRANCH   4  28
HETATM   28  O13 UNL     1       6.317 -23.510  -7.518  1.00  0.00    -0.390 OA
ATOM     29  H13 UNL     1       6.278 -24.058  -8.294  1.00  0.00     0.210 HD
ENDBRANCH   4  28
BRANCH   1  30
HETATM   30  N5  UNL     1      10.186 -23.158  -5.246  1.00  0.00    -0.297 N 
HETATM   31  C3  UNL     1      10.800 -24.115  -4.544  1.00  0.00     0.142 A 
HETATM   32  N3  UNL     1      10.348 -25.207  -3.940  1.00  0.00    -0.336 N 
HETATM   33  C4  UNL     1      12.163 -23.852  -4.477  1.00  0.00     0.119 A 
HETATM   34  C2  UNL     1      11.190 -26.028  -3.284  1.00  0.00     0.183 A 
ATOM     35  H3  UNL     1       9.352 -25.426  -3.973  1.00  0.00     0.168 HD
HETATM   36  N2  UNL     1      12.530 -25.772  -3.217  1.00  0.00    -0.339 N 
HETATM   37  C1  UNL     1      13.043 -24.680  -3.812  1.00  0.00     0.148 A 
ATOM     38  H2  UNL     1      13.145 -26.412  -2.713  1.00  0.00     0.167 HD
HETATM   39  N1  UNL     1      14.440 -24.439  -3.725  1.00  0.00    -0.080 NA
HETATM   40  N4  UNL     1      12.349 -22.719  -5.154  1.00  0.00    -0.346 N 
HETATM   41  C5  UNL     1      11.142 -22.295  -5.622  1.00  0.00     0.188 A 
ATOM     42  H4  UNL     1      13.243 -22.249  -5.296  1.00  0.00     0.167 HD
ENDBRANCH   1  30
BRANCH   5  43
HETATM   43  O14 UNL     1       8.759 -23.613  -7.888  1.00  0.00    -0.388 OA
ATOM     44  H14 UNL     1       8.305 -24.100  -8.565  1.00  0.00     0.210 HD
ENDBRANCH   5  43
TORSDOF 14
ENDMDL
