MODEL 11
REMARK VINA RESULT: -7.923075335      3.768      7.623
REMARK  3 active torsions:
REMARK  status: ('A' for Active; 'I' for Inactive)
REMARK    1  A    between atoms: C2_2  and  C3_3 
REMARK    2  A    between atoms: C2_2  and  C10_12 
REMARK    3  A    between atoms: C6_6  and  C7_7 
ROOT
HETATM    1  C10 UNL     1      61.406  10.451  35.502  1.00  0.00    -0.019 A 
HETATM    2  C11 UNL     1      61.474   9.093  35.764  1.00  0.00     0.021 A 
HETATM    3  C12 UNL     1      60.858   8.550  36.900  1.00  0.00    -0.042 A 
HETATM    4  C13 UNL     1      60.183   9.371  37.757  1.00  0.00    -0.043 A 
HETATM    5  C14 UNL     1      60.098  10.744  37.516  1.00  0.00     0.016 A 
HETATM    6  C15 UNL     1      60.721  11.245  36.381  1.00  0.00    -0.050 A 
HETATM    7  C16 UNL     1      60.585  12.705  36.140  1.00  0.00     0.049 C 
HETATM    8  C17 UNL     1      59.534   8.792  38.968  1.00  0.00    -0.020 C 
HETATM    9  C18 UNL     1      60.540   8.682  40.090  1.00  0.00     0.020 C 
HETATM   10  C19 UNL     1      58.420   9.685  39.469  1.00  0.00     0.020 C 
HETATM   11  C20 UNL     1      59.018   7.435  38.626  1.00  0.00     0.015 C 
HETATM   12  C21 UNL     1      60.179   6.545  38.231  1.00  0.00     0.015 C 
HETATM   13  C22 UNL     1      60.975   7.102  37.110  1.00  0.00    -0.020 C 
HETATM   14  C23 UNL     1      62.435   6.693  37.351  1.00  0.00     0.020 C 
HETATM   15  C24 UNL     1      60.528   6.417  35.821  1.00  0.00     0.020 C 
ENDROOT
BRANCH   1  16
HETATM   16  C2  UNL     1      62.041  11.000  34.294  1.00  0.00    -0.025 C 
HETATM   17  C1  UNL     1      61.313  11.342  33.246  1.00  0.00     0.025 C 
BRANCH  16  18
HETATM   18  C3  UNL     1      63.513  11.151  34.254  1.00  0.00    -0.026 A 
HETATM   19  C4  UNL     1      64.151  11.883  33.280  1.00  0.00     0.013 A 
HETATM   20  C5  UNL     1      65.547  11.994  33.256  1.00  0.00     0.019 A 
HETATM   21  C6  UNL     1      66.328  11.375  34.204  1.00  0.00     0.040 A 
HETATM   22  C8  UNL     1      65.683  10.644  35.177  1.00  0.00     0.019 A 
HETATM   23  C9  UNL     1      64.307  10.534  35.200  1.00  0.00     0.013 A 
BRANCH  21  24
HETATM   24  C7  UNL     1      67.795  11.487  34.187  1.00  0.00     0.209 C 
HETATM   25  O1  UNL     1      68.361  12.459  33.632  1.00  0.00    -0.644 OA
HETATM   26  O2  UNL     1      68.577  10.524  34.784  1.00  0.00    -0.644 OA
ENDBRANCH  21  24
ENDBRANCH  16  18
ENDBRANCH   1  16
TORSDOF 3
ENDMDL
