MODEL 7
REMARK VINA RESULT: -8.723886788      3.709      7.554
REMARK  3 active torsions:
REMARK  status: ('A' for Active; 'I' for Inactive)
REMARK    1  A    between atoms: C2_2  and  C3_3 
REMARK    2  A    between atoms: C2_2  and  C10_12 
REMARK    3  A    between atoms: C6_6  and  C7_7 
ROOT
HETATM    1  C10 UNL     1      61.953  10.723  35.844  1.00  0.00    -0.019 A 
HETATM    2  C11 UNL     1      62.045   9.346  35.962  1.00  0.00     0.021 A 
HETATM    3  C12 UNL     1      61.246   8.650  36.879  1.00  0.00    -0.042 A 
HETATM    4  C13 UNL     1      60.366   9.339  37.664  1.00  0.00    -0.043 A 
HETATM    5  C14 UNL     1      60.253  10.727  37.564  1.00  0.00     0.016 A 
HETATM    6  C15 UNL     1      61.061  11.381  36.644  1.00  0.00    -0.050 A 
HETATM    7  C16 UNL     1      60.892  12.855  36.543  1.00  0.00     0.049 C 
HETATM    8  C17 UNL     1      59.522   8.597  38.644  1.00  0.00    -0.020 C 
HETATM    9  C18 UNL     1      60.287   8.388  39.930  1.00  0.00     0.020 C 
HETATM   10  C19 UNL     1      58.280   9.385  39.000  1.00  0.00     0.020 C 
HETATM   11  C20 UNL     1      59.164   7.274  38.055  1.00  0.00     0.015 C 
HETATM   12  C21 UNL     1      60.430   6.478  37.811  1.00  0.00     0.015 C 
HETATM   13  C22 UNL     1      61.402   7.192  36.947  1.00  0.00    -0.020 C 
HETATM   14  C23 UNL     1      62.805   6.806  37.437  1.00  0.00     0.020 C 
HETATM   15  C24 UNL     1      61.263   6.653  35.526  1.00  0.00     0.020 C 
ENDROOT
BRANCH   1  16
HETATM   16  C2  UNL     1      62.785  11.434  34.860  1.00  0.00    -0.025 C 
HETATM   17  C1  UNL     1      62.418  11.505  33.593  1.00  0.00     0.025 C 
BRANCH  16  18
HETATM   18  C3  UNL     1      64.053  12.058  35.301  1.00  0.00    -0.026 A 
HETATM   19  C4  UNL     1      65.226  11.346  35.399  1.00  0.00     0.013 A 
HETATM   20  C5  UNL     1      66.408  11.957  35.837  1.00  0.00     0.019 A 
HETATM   21  C6  UNL     1      66.438  13.288  36.183  1.00  0.00     0.040 A 
HETATM   22  C8  UNL     1      65.259  13.995  36.082  1.00  0.00     0.019 A 
HETATM   23  C9  UNL     1      64.094  13.392  35.652  1.00  0.00     0.013 A 
BRANCH  21  24
HETATM   24  C7  UNL     1      67.674  13.938  36.642  1.00  0.00     0.209 C 
HETATM   25  O1  UNL     1      67.879  15.158  36.430  1.00  0.00    -0.644 OA
HETATM   26  O2  UNL     1      68.633  13.219  37.318  1.00  0.00    -0.644 OA
ENDBRANCH  21  24
ENDBRANCH  16  18
ENDBRANCH   1  16
TORSDOF 3
ENDMDL
