MODEL 6
REMARK VINA RESULT: -8.765669751      3.704      7.036
REMARK  3 active torsions:
REMARK  status: ('A' for Active; 'I' for Inactive)
REMARK    1  A    between atoms: C2_2  and  C3_3 
REMARK    2  A    between atoms: C2_2  and  C10_12 
REMARK    3  A    between atoms: C6_6  and  C7_7 
ROOT
HETATM    1  C10 UNL     1      64.777  11.151  35.060  1.00  0.00    -0.019 A 
HETATM    2  C11 UNL     1      63.491  10.635  35.096  1.00  0.00     0.021 A 
HETATM    3  C12 UNL     1      63.229   9.407  35.718  1.00  0.00    -0.042 A 
HETATM    4  C13 UNL     1      64.253   8.712  36.295  1.00  0.00    -0.043 A 
HETATM    5  C14 UNL     1      65.557   9.210  36.274  1.00  0.00     0.016 A 
HETATM    6  C15 UNL     1      65.778  10.429  35.648  1.00  0.00    -0.050 A 
HETATM    7  C16 UNL     1      67.173  10.943  35.672  1.00  0.00     0.049 C 
HETATM    8  C17 UNL     1      63.971   7.403  36.950  1.00  0.00    -0.020 C 
HETATM    9  C18 UNL     1      63.989   6.296  35.921  1.00  0.00     0.020 C 
HETATM   10  C19 UNL     1      65.036   7.063  37.970  1.00  0.00     0.020 C 
HETATM   11  C20 UNL     1      62.624   7.471  37.588  1.00  0.00     0.015 C 
HETATM   12  C21 UNL     1      61.579   7.708  36.517  1.00  0.00     0.015 C 
HETATM   13  C22 UNL     1      61.842   8.926  35.714  1.00  0.00    -0.020 C 
HETATM   14  C23 UNL     1      61.360   8.635  34.286  1.00  0.00     0.020 C 
HETATM   15  C24 UNL     1      60.968  10.054  36.257  1.00  0.00     0.020 C 
ENDROOT
BRANCH   1  16
HETATM   16  C2  UNL     1      65.030  12.452  34.421  1.00  0.00    -0.025 C 
HETATM   17  C1  UNL     1      65.456  12.518  33.172  1.00  0.00     0.025 C 
BRANCH  16  18
HETATM   18  C3  UNL     1      64.820  13.694  35.199  1.00  0.00    -0.026 A 
HETATM   19  C4  UNL     1      63.878  14.631  34.845  1.00  0.00     0.013 A 
HETATM   20  C5  UNL     1      63.712  15.807  35.589  1.00  0.00     0.019 A 
HETATM   21  C6  UNL     1      64.484  16.064  36.698  1.00  0.00     0.040 A 
HETATM   22  C8  UNL     1      65.426  15.120  37.047  1.00  0.00     0.019 A 
HETATM   23  C9  UNL     1      65.589  13.963  36.313  1.00  0.00     0.013 A 
BRANCH  21  24
HETATM   24  C7  UNL     1      64.317  17.295  37.486  1.00  0.00     0.209 C 
HETATM   25  O1  UNL     1      63.339  17.437  38.259  1.00  0.00    -0.644 OA
HETATM   26  O2  UNL     1      65.234  18.316  37.391  1.00  0.00    -0.644 OA
ENDBRANCH  21  24
ENDBRANCH  16  18
ENDBRANCH   1  16
TORSDOF 3
ENDMDL
