MODEL 2
REMARK VINA RESULT: -12.322237192      0.254      1.141
REMARK  3 active torsions:
REMARK  status: ('A' for Active; 'I' for Inactive)
REMARK    1  A    between atoms: C2_2  and  C3_3 
REMARK    2  A    between atoms: C2_2  and  C10_12 
REMARK    3  A    between atoms: C6_6  and  C7_7 
ROOT
HETATM    1  C10 UNL     1      62.928   8.857  35.740  1.00  0.00    -0.019 A 
HETATM    2  C11 UNL     1      62.495  10.009  35.103  1.00  0.00     0.021 A 
HETATM    3  C12 UNL     1      63.378  11.070  34.863  1.00  0.00    -0.042 A 
HETATM    4  C13 UNL     1      64.680  10.966  35.261  1.00  0.00    -0.043 A 
HETATM    5  C14 UNL     1      65.142   9.815  35.903  1.00  0.00     0.016 A 
HETATM    6  C15 UNL     1      64.238   8.786  36.124  1.00  0.00    -0.050 A 
HETATM    7  C16 UNL     1      64.772   7.565  36.783  1.00  0.00     0.049 C 
HETATM    8  C17 UNL     1      65.616  12.099  35.010  1.00  0.00    -0.020 C 
HETATM    9  C18 UNL     1      65.505  13.116  36.122  1.00  0.00     0.020 C 
HETATM   10  C19 UNL     1      67.053  11.627  34.995  1.00  0.00     0.020 C 
HETATM   11  C20 UNL     1      65.251  12.737  33.712  1.00  0.00     0.015 C 
HETATM   12  C21 UNL     1      63.842  13.288  33.807  1.00  0.00     0.015 C 
HETATM   13  C22 UNL     1      62.845  12.258  34.185  1.00  0.00    -0.020 C 
HETATM   14  C23 UNL     1      61.782  12.957  35.044  1.00  0.00     0.020 C 
HETATM   15  C24 UNL     1      62.147  11.781  32.914  1.00  0.00     0.020 C 
ENDROOT
BRANCH   1  16
HETATM   16  C2  UNL     1      61.991   7.745  35.965  1.00  0.00    -0.025 C 
HETATM   17  C1  UNL     1      62.006   6.682  35.180  1.00  0.00     0.025 C 
BRANCH  16  18
HETATM   18  C3  UNL     1      61.014   7.834  37.073  1.00  0.00    -0.026 A 
HETATM   19  C4  UNL     1      60.757   9.014  37.732  1.00  0.00     0.013 A 
HETATM   20  C5  UNL     1      59.840   9.067  38.790  1.00  0.00     0.019 A 
HETATM   21  C6  UNL     1      59.167   7.942  39.207  1.00  0.00     0.040 A 
HETATM   22  C8  UNL     1      59.430   6.763  38.542  1.00  0.00     0.019 A 
HETATM   23  C9  UNL     1      60.333   6.712  37.501  1.00  0.00     0.013 A 
BRANCH  21  24
HETATM   24  C7  UNL     1      58.202   7.987  40.316  1.00  0.00     0.209 C 
HETATM   25  O1  UNL     1      57.033   7.553  40.173  1.00  0.00    -0.644 OA
HETATM   26  O2  UNL     1      58.564   8.508  41.537  1.00  0.00    -0.644 OA
ENDBRANCH  21  24
ENDBRANCH  16  18
ENDBRANCH   1  16
TORSDOF 3
ENDMDL
