MODEL 1
REMARK VINA RESULT: -12.675386955      0.000      0.000
REMARK  3 active torsions:
REMARK  status: ('A' for Active; 'I' for Inactive)
REMARK    1  A    between atoms: C2_2  and  C3_3 
REMARK    2  A    between atoms: C2_2  and  C10_12 
REMARK    3  A    between atoms: C6_6  and  C7_7 
ROOT
HETATM    1  C10 UNL     1      62.869   8.857  35.737  1.00  0.00    -0.019 A 
HETATM    2  C11 UNL     1      62.345   9.957  35.077  1.00  0.00     0.021 A 
HETATM    3  C12 UNL     1      63.149  11.067  34.782  1.00  0.00    -0.042 A 
HETATM    4  C13 UNL     1      64.463  11.062  35.151  1.00  0.00    -0.043 A 
HETATM    5  C14 UNL     1      65.017   9.966  35.816  1.00  0.00     0.016 A 
HETATM    6  C15 UNL     1      64.190   8.886  36.091  1.00  0.00    -0.050 A 
HETATM    7  C16 UNL     1      64.820   7.725  36.772  1.00  0.00     0.049 C 
HETATM    8  C17 UNL     1      65.315  12.247  34.842  1.00  0.00    -0.020 C 
HETATM    9  C18 UNL     1      65.161  13.289  35.926  1.00  0.00     0.020 C 
HETATM   10  C19 UNL     1      66.780  11.871  34.806  1.00  0.00     0.020 C 
HETATM   11  C20 UNL     1      64.878  12.818  33.535  1.00  0.00     0.015 C 
HETATM   12  C21 UNL     1      63.438  13.276  33.649  1.00  0.00     0.015 C 
HETATM   13  C22 UNL     1      62.521  12.194  34.083  1.00  0.00    -0.020 C 
HETATM   14  C23 UNL     1      61.433  12.847  34.947  1.00  0.00     0.020 C 
HETATM   15  C24 UNL     1      61.828  11.631  32.844  1.00  0.00     0.020 C 
ENDROOT
BRANCH   1  16
HETATM   16  C2  UNL     1      62.015   7.693  36.019  1.00  0.00    -0.025 C 
HETATM   17  C1  UNL     1      62.099   6.601  35.279  1.00  0.00     0.025 C 
BRANCH  16  18
HETATM   18  C3  UNL     1      61.043   7.760  37.133  1.00  0.00    -0.026 A 
HETATM   19  C4  UNL     1      60.297   6.673  37.523  1.00  0.00     0.013 A 
HETATM   20  C5  UNL     1      59.371   6.769  38.570  1.00  0.00     0.019 A 
HETATM   21  C6  UNL     1      59.176   7.953  39.243  1.00  0.00     0.040 A 
HETATM   22  C8  UNL     1      59.928   9.038  38.847  1.00  0.00     0.019 A 
HETATM   23  C9  UNL     1      60.839   8.943  37.815  1.00  0.00     0.013 A 
BRANCH  21  24
HETATM   24  C7  UNL     1      58.207   8.064  40.344  1.00  0.00     0.209 C 
HETATM   25  O1  UNL     1      58.484   8.706  41.386  1.00  0.00    -0.644 OA
HETATM   26  O2  UNL     1      56.972   7.464  40.252  1.00  0.00    -0.644 OA
ENDBRANCH  21  24
ENDBRANCH  16  18
ENDBRANCH   1  16
TORSDOF 3
ENDMDL
