MODEL 3
REMARK VINA RESULT: -6.777836236      3.077      5.755
REMARK  4 active torsions:
REMARK  status: ('A' for Active; 'I' for Inactive)
REMARK    1  A    between atoms: O1_2  and  C2_3 
REMARK    2  A    between atoms: C8_9  and  C9_10 
REMARK    3  A    between atoms: C9_10  and  C10_11 
REMARK       I    between atoms: N1_16  and  C13_17 
REMARK    4  A    between atoms: C13_17  and  C14_19 
ROOT
HETATM    1  C2  UNL     1      -1.155 -18.933   3.460  1.00  0.00     0.069 A 
HETATM    2  C3  UNL     1      -0.465 -17.899   4.032  1.00  0.00     0.039 A 
HETATM    3  C4  UNL     1      -0.633 -17.560   5.370  1.00  0.00     0.034 A 
HETATM    4  C5  UNL     1      -1.511 -18.258   6.180  1.00  0.00     0.054 A 
HETATM    5  C6  UNL     1      -2.211 -19.295   5.627  1.00  0.00     0.006 A 
HETATM    6  C7  UNL     1      -2.024 -19.618   4.275  1.00  0.00     0.051 A 
HETATM    7  C8  UNL     1      -3.047 -19.854   6.617  1.00  0.00     0.006 A 
HETATM    8  C11 UNL     1      -2.800 -19.108   7.738  1.00  0.00     0.028 A 
HETATM    9  C12 UNL     1      -3.497 -19.355   9.049  1.00  0.00     0.070 C 
HETATM   10  N1  UNL     1      -1.877 -18.143   7.490  1.00  0.00    -0.281 N 
HETATM   11  C13 UNL     1      -1.399 -17.179   8.373  1.00  0.00     0.263 C 
HETATM   12  O4  UNL     1      -1.886 -17.152   9.568  1.00  0.00    -0.267 OA
ENDROOT
BRANCH  11  13
HETATM   13  C14 UNL     1      -0.415 -16.167   8.167  1.00  0.00     0.033 A 
HETATM   14  C15 UNL     1       0.879 -16.294   8.585  1.00  0.00     0.018 A 
HETATM   15  C16 UNL     1       1.752 -15.254   8.369  1.00  0.00     0.025 A 
HETATM   16  C17 UNL     1       1.355 -14.098   7.745  1.00  0.00     0.034 A 
HETATM   17 CL1  UNL     1       2.501 -12.791   7.493  1.00  0.00    -0.084 Cl
HETATM   18  C18 UNL     1       0.053 -13.935   7.306  1.00  0.00     0.025 A 
HETATM   19  C19 UNL     1      -0.807 -14.987   7.533  1.00  0.00     0.018 A 
ENDBRANCH  11  13
BRANCH   7  20
HETATM   20  C9  UNL     1      -3.928 -20.953   6.253  1.00  0.00     0.098 C 
BRANCH  20  21
HETATM   21  C10 UNL     1      -5.237 -20.732   5.722  1.00  0.00     0.199 C 
HETATM   22  O2  UNL     1      -6.215 -21.460   5.968  1.00  0.00    -0.644 OA
HETATM   23  O3  UNL     1      -5.458 -19.639   4.869  1.00  0.00    -0.644 OA
ENDBRANCH  20  21
ENDBRANCH   7  20
BRANCH   1  24
HETATM   24  O1  UNL     1      -0.942 -19.212   2.149  1.00  0.00    -0.356 OA
HETATM   25  C1  UNL     1      -0.403 -18.395   1.159  1.00  0.00     0.210 C 
ENDBRANCH   1  24
TORSDOF 4
ENDMDL
