MODEL 2
REMARK VINA RESULT: -6.896189746      3.392      5.898
REMARK  4 active torsions:
REMARK  status: ('A' for Active; 'I' for Inactive)
REMARK    1  A    between atoms: O1_2  and  C2_3 
REMARK    2  A    between atoms: C8_9  and  C9_10 
REMARK    3  A    between atoms: C9_10  and  C10_11 
REMARK       I    between atoms: N1_16  and  C13_17 
REMARK    4  A    between atoms: C13_17  and  C14_19 
ROOT
HETATM    1  C2  UNL     1      -1.512 -18.726   4.024  1.00  0.00     0.069 A 
HETATM    2  C3  UNL     1      -0.734 -17.702   4.493  1.00  0.00     0.039 A 
HETATM    3  C4  UNL     1      -0.753 -17.325   5.831  1.00  0.00     0.034 A 
HETATM    4  C5  UNL     1      -1.563 -17.973   6.746  1.00  0.00     0.054 A 
HETATM    5  C6  UNL     1      -2.347 -18.999   6.297  1.00  0.00     0.006 A 
HETATM    6  C7  UNL     1      -2.311 -19.361   4.942  1.00  0.00     0.051 A 
HETATM    7  C8  UNL     1      -3.093 -19.506   7.383  1.00  0.00     0.006 A 
HETATM    8  C11 UNL     1      -2.708 -18.741   8.451  1.00  0.00     0.028 A 
HETATM    9  C12 UNL     1      -3.272 -18.933   9.834  1.00  0.00     0.070 C 
HETATM   10  N1  UNL     1      -1.786 -17.814   8.083  1.00  0.00    -0.281 N 
HETATM   11  C13 UNL     1      -1.191 -16.845   8.886  1.00  0.00     0.263 C 
HETATM   12  O4  UNL     1      -1.550 -16.773  10.122  1.00  0.00    -0.267 OA
ENDROOT
BRANCH  11  13
HETATM   13  C14 UNL     1      -0.202 -15.871   8.551  1.00  0.00     0.033 A 
HETATM   14  C15 UNL     1       1.131 -16.057   8.783  1.00  0.00     0.018 A 
HETATM   15  C16 UNL     1       2.008 -15.051   8.454  1.00  0.00     0.025 A 
HETATM   16  C17 UNL     1       1.578 -13.872   7.901  1.00  0.00     0.034 A 
HETATM   17 CL1  UNL     1       2.731 -12.609   7.500  1.00  0.00    -0.084 Cl
HETATM   18  C18 UNL     1       0.235 -13.649   7.650  1.00  0.00     0.025 A 
HETATM   19  C19 UNL     1      -0.629 -14.668   7.987  1.00  0.00     0.018 A 
ENDBRANCH  11  13
BRANCH   7  20
HETATM   20  C9  UNL     1      -4.040 -20.584   7.143  1.00  0.00     0.098 C 
BRANCH  20  21
HETATM   21  C10 UNL     1      -4.094 -21.744   7.976  1.00  0.00     0.199 C 
HETATM   22  O2  UNL     1      -3.091 -22.284   8.475  1.00  0.00    -0.644 OA
HETATM   23  O3  UNL     1      -5.338 -22.330   8.260  1.00  0.00    -0.644 OA
ENDBRANCH  20  21
ENDBRANCH   7  20
BRANCH   1  24
HETATM   24  O1  UNL     1      -1.445 -19.043   2.706  1.00  0.00    -0.356 OA
HETATM   25  C1  UNL     1      -1.638 -20.278   2.094  1.00  0.00     0.210 C 
ENDBRANCH   1  24
TORSDOF 4
ENDMDL
