MODEL 1
REMARK VINA RESULT: -7.058610965      0.000      0.000
REMARK  4 active torsions:
REMARK  status: ('A' for Active; 'I' for Inactive)
REMARK    1  A    between atoms: O1_2  and  C2_3 
REMARK    2  A    between atoms: C8_9  and  C9_10 
REMARK    3  A    between atoms: C9_10  and  C10_11 
REMARK       I    between atoms: N1_16  and  C13_17 
REMARK    4  A    between atoms: C13_17  and  C14_19 
ROOT
HETATM    1  C2  UNL     1      -4.919 -21.068   5.218  1.00  0.00     0.069 A 
HETATM    2  C3  UNL     1      -5.018 -21.120   6.582  1.00  0.00     0.039 A 
HETATM    3  C4  UNL     1      -4.214 -20.336   7.403  1.00  0.00     0.034 A 
HETATM    4  C5  UNL     1      -3.277 -19.468   6.869  1.00  0.00     0.054 A 
HETATM    5  C6  UNL     1      -3.164 -19.402   5.508  1.00  0.00     0.006 A 
HETATM    6  C7  UNL     1      -3.986 -20.202   4.701  1.00  0.00     0.051 A 
HETATM    7  C8  UNL     1      -2.153 -18.473   5.184  1.00  0.00     0.006 A 
HETATM    8  C11 UNL     1      -1.702 -18.019   6.395  1.00  0.00     0.028 A 
HETATM    9  C12 UNL     1      -0.596 -17.005   6.523  1.00  0.00     0.070 C 
HETATM   10  N1  UNL     1      -2.370 -18.610   7.419  1.00  0.00    -0.281 N 
HETATM   11  C13 UNL     1      -2.167 -18.424   8.783  1.00  0.00     0.263 C 
HETATM   12  O4  UNL     1      -1.226 -17.625   9.156  1.00  0.00    -0.267 OA
ENDROOT
BRANCH  11  13
HETATM   13  C14 UNL     1      -2.859 -19.000   9.891  1.00  0.00     0.033 A 
HETATM   14  C15 UNL     1      -3.998 -18.459  10.416  1.00  0.00     0.018 A 
HETATM   15  C16 UNL     1      -4.581 -19.067  11.504  1.00  0.00     0.025 A 
HETATM   16  C17 UNL     1      -4.048 -20.198  12.068  1.00  0.00     0.034 A 
HETATM   17 CL1  UNL     1      -4.821 -20.940  13.460  1.00  0.00    -0.084 Cl
HETATM   18  C18 UNL     1      -2.897 -20.774  11.561  1.00  0.00     0.025 A 
HETATM   19  C19 UNL     1      -2.326 -20.151  10.473  1.00  0.00     0.018 A 
ENDBRANCH  11  13
BRANCH   7  20
HETATM   20  C9  UNL     1      -1.816 -18.259   3.785  1.00  0.00     0.098 C 
BRANCH  20  21
HETATM   21  C10 UNL     1      -0.706 -18.912   3.165  1.00  0.00     0.199 C 
HETATM   22  O2  UNL     1      -0.490 -20.134   3.244  1.00  0.00    -0.644 OA
HETATM   23  O3  UNL     1       0.211 -18.152   2.420  1.00  0.00    -0.644 OA
ENDBRANCH  20  21
ENDBRANCH   7  20
BRANCH   1  24
HETATM   24  O1  UNL     1      -5.735 -21.859   4.476  1.00  0.00    -0.356 OA
HETATM   25  C1  UNL     1      -7.117 -22.002   4.551  1.00  0.00     0.210 C 
ENDBRANCH   1  24
TORSDOF 4
ENDMDL
