MODEL 12
REMARK VINA RESULT: -4.018225107      1.968      2.624
REMARK  2 active torsions:
REMARK  status: ('A' for Active; 'I' for Inactive)
REMARK    1  A    between atoms: C3_7  and  N4_8 
REMARK    2  A    between atoms: N4_8  and  O1_10 
ROOT
HETATM    1  N1  UNL     1     -78.285  90.072  96.734  1.00  0.00    -0.063 NA
HETATM    2  C1  UNL     1     -78.099  88.896  95.958  1.00  0.00     0.196 A 
HETATM    3  N2  UNL     1     -79.090  88.385  95.204  1.00  0.00    -0.317 N 
ATOM      4  H2  UNL     1     -79.997  88.852  95.190  1.00  0.00     0.169 HD
HETATM    5  C2  UNL     1     -78.911  87.266  94.465  1.00  0.00     0.153 A 
HETATM    6  N3  UNL     1     -79.947  86.714  93.664  1.00  0.00    -0.080 NA
HETATM    7  C3  UNL     1     -77.699  86.603  94.459  1.00  0.00     0.163 A 
HETATM    8  C4  UNL     1     -76.704  87.154  95.244  1.00  0.00     0.279 A 
HETATM    9  O2  UNL     1     -75.589  86.545  95.238  1.00  0.00    -0.265 OA
HETATM   10  N5  UNL     1     -76.901  88.268  95.971  1.00  0.00    -0.295 N 
ATOM     11  H5  UNL     1     -76.141  88.643  96.538  1.00  0.00     0.171 HD
ENDROOT
BRANCH   7  12
HETATM   12  N4  UNL     1     -77.496  85.418  93.683  1.00  0.00    -0.261 N 
ATOM     13  H4  UNL     1     -77.668  85.415  92.678  1.00  0.00     0.194 HD
BRANCH  12  14
HETATM   14  O1  UNL     1     -77.097  84.378  94.276  1.00  0.00    -0.289 OA
ATOM     15  H1  UNL     1     -77.058  83.567  93.782  1.00  0.00     0.244 HD
ENDBRANCH  12  14
ENDBRANCH   7  12
TORSDOF 2
ENDMDL
