MODEL 14
REMARK VINA RESULT: -3.910575534      2.379      3.629
REMARK  2 active torsions:
REMARK  status: ('A' for Active; 'I' for Inactive)
REMARK    1  A    between atoms: C3_7  and  N4_8 
REMARK    2  A    between atoms: N4_8  and  O1_10 
ROOT
HETATM    1  N1  UNL     1     -79.139  89.933  96.261  1.00  0.00    -0.063 NA
HETATM    2  C1  UNL     1     -78.457  88.783  95.778  1.00  0.00     0.196 A 
HETATM    3  N2  UNL     1     -77.219  88.470  96.202  1.00  0.00    -0.317 N 
ATOM      4  H2  UNL     1     -76.758  89.072  96.884  1.00  0.00     0.169 HD
HETATM    5  C2  UNL     1     -76.572  87.374  95.743  1.00  0.00     0.153 A 
HETATM    6  N3  UNL     1     -75.264  87.028  96.180  1.00  0.00    -0.080 NA
HETATM    7  C3  UNL     1     -77.160  86.535  94.817  1.00  0.00     0.163 A 
HETATM    8  C4  UNL     1     -78.431  86.886  94.403  1.00  0.00     0.279 A 
HETATM    9  O2  UNL     1     -78.973  86.115  93.553  1.00  0.00    -0.265 OA
HETATM   10  N5  UNL     1     -79.059  87.980  94.872  1.00  0.00    -0.295 N 
ATOM     11  H5  UNL     1     -79.997  88.205  94.542  1.00  0.00     0.171 HD
ENDROOT
BRANCH   7  12
HETATM   12  N4  UNL     1     -76.487  85.373  94.322  1.00  0.00    -0.261 N 
ATOM     13  H4  UNL     1     -75.557  85.442  93.910  1.00  0.00     0.194 HD
BRANCH  12  14
HETATM   14  O1  UNL     1     -77.076  84.260  94.410  1.00  0.00    -0.289 OA
ATOM     15  H1  UNL     1     -77.495  83.911  93.632  1.00  0.00     0.244 HD
ENDBRANCH  12  14
ENDBRANCH   7  12
TORSDOF 2
ENDMDL
