MODEL 15
REMARK VINA RESULT: -3.864457986      6.180      7.762
REMARK  2 active torsions:
REMARK  status: ('A' for Active; 'I' for Inactive)
REMARK    1  A    between atoms: C3_7  and  N4_8 
REMARK    2  A    between atoms: N4_8  and  O1_10 
ROOT
HETATM    1  N1  UNL     1     -75.540  87.176  95.886  1.00  0.00    -0.063 NA
HETATM    2  C1  UNL     1     -74.280  86.774  96.408  1.00  0.00     0.196 A 
HETATM    3  N2  UNL     1     -74.145  86.362  97.682  1.00  0.00    -0.317 N 
ATOM      4  H2  UNL     1     -74.966  86.339  98.288  1.00  0.00     0.169 HD
HETATM    5  C2  UNL     1     -72.946  85.978  98.177  1.00  0.00     0.153 A 
HETATM    6  N3  UNL     1     -72.786  85.539  99.519  1.00  0.00    -0.080 NA
HETATM    7  C3  UNL     1     -71.811  85.997  97.389  1.00  0.00     0.163 A 
HETATM    8  C4  UNL     1     -71.986  86.426  96.087  1.00  0.00     0.279 A 
HETATM    9  O2  UNL     1     -70.943  86.443  95.362  1.00  0.00    -0.265 OA
HETATM   10  N5  UNL     1     -73.187  86.803  95.613  1.00  0.00    -0.295 N 
ATOM     11  H5  UNL     1     -73.274  87.113  94.645  1.00  0.00     0.171 HD
ENDROOT
BRANCH   7  12
HETATM   12  N4  UNL     1     -70.537  85.594  97.899  1.00  0.00    -0.261 N 
ATOM     13  H4  UNL     1     -70.042  86.166  98.583  1.00  0.00     0.194 HD
BRANCH  12  14
HETATM   14  O1  UNL     1     -70.041  84.512  97.479  1.00  0.00    -0.289 OA
ATOM     15  H1  UNL     1     -69.251  84.189  97.896  1.00  0.00     0.244 HD
ENDBRANCH  12  14
ENDBRANCH   7  12
TORSDOF 2
ENDMDL
