MODEL 8
REMARK VINA RESULT: -4.506067282      2.222      4.296
REMARK  2 active torsions:
REMARK  status: ('A' for Active; 'I' for Inactive)
REMARK    1  A    between atoms: C3_7  and  N4_8 
REMARK    2  A    between atoms: N4_8  and  O1_10 
ROOT
HETATM    1  N1  UNL     1     -78.603  82.923  90.868  1.00  0.00    -0.063 NA
HETATM    2  C1  UNL     1     -78.714  84.073  91.696  1.00  0.00     0.196 A 
HETATM    3  N2  UNL     1     -77.864  84.291  92.716  1.00  0.00    -0.317 N 
ATOM      4  H2  UNL     1     -77.122  83.615  92.899  1.00  0.00     0.169 HD
HETATM    5  C2  UNL     1     -77.970  85.387  93.503  1.00  0.00     0.153 A 
HETATM    6  N3  UNL     1     -77.080  85.633  94.583  1.00  0.00    -0.080 NA
HETATM    7  C3  UNL     1     -78.962  86.324  93.289  1.00  0.00     0.163 A 
HETATM    8  C4  UNL     1     -79.818  86.069  92.234  1.00  0.00     0.279 A 
HETATM    9  O2  UNL     1     -80.730  86.931  92.036  1.00  0.00    -0.265 OA
HETATM   10  N5  UNL     1     -79.695  84.974  91.462  1.00  0.00    -0.295 N 
ATOM     11  H5  UNL     1     -80.348  84.821  90.693  1.00  0.00     0.171 HD
ENDROOT
BRANCH   7  12
HETATM   12  N4  UNL     1     -79.087  87.486  94.113  1.00  0.00    -0.261 N 
ATOM     13  H4  UNL     1     -78.401  88.240  94.063  1.00  0.00     0.194 HD
BRANCH  12  14
HETATM   14  O1  UNL     1     -80.069  87.555  94.903  1.00  0.00    -0.289 OA
ATOM     15  H1  UNL     1     -80.273  88.396  95.294  1.00  0.00     0.244 HD
ENDBRANCH  12  14
ENDBRANCH   7  12
TORSDOF 2
ENDMDL
