MODEL 4
REMARK VINA RESULT: -7.376524372      1.541      2.051
REMARK  5 active torsions:
REMARK  status: ('A' for Active; 'I' for Inactive)
REMARK    1  A    between atoms: O1_1  and  C1_3 
REMARK    2  A    between atoms: C1_3  and  C2_4 
REMARK    3  A    between atoms: C3_6  and  N1_7 
REMARK    4  A    between atoms: C11_19  and  O3_20 
REMARK    5  A    between atoms: C12_22  and  O4_23 
ROOT
HETATM    1  C2  UNL     1      16.237   1.731   5.497  1.00  0.00     0.179 C 
HETATM    2  O2  UNL     1      17.007   0.619   5.684  1.00  0.00    -0.353 OA
HETATM    3  C3  UNL     1      16.212  -0.493   5.788  1.00  0.00     0.261 C 
HETATM    4  C11 UNL     1      14.956   0.038   6.427  1.00  0.00     0.198 C 
HETATM    5  C12 UNL     1      14.772   1.301   5.605  1.00  0.00     0.182 C 
ENDROOT
BRANCH   3   6
HETATM    6  N1  UNL     1      16.787  -1.538   6.594  1.00  0.00    -0.311 N 
HETATM    7  C4  UNL     1      16.634  -1.763   7.907  1.00  0.00     0.186 A 
HETATM    8  N2  UNL     1      17.340  -2.841   8.276  1.00  0.00    -0.350 N 
HETATM    9  C5  UNL     1      17.955  -3.314   7.174  1.00  0.00     0.062 A 
ATOM     10  H2  UNL     1      17.400  -3.232   9.216  1.00  0.00     0.166 HD
HETATM   11  C6  UNL     1      18.804  -4.386   6.934  1.00  0.00     0.057 A 
HETATM   12  C10 UNL     1      17.604  -2.495   6.133  1.00  0.00     0.066 A 
HETATM   13  C7  UNL     1      19.308  -4.658   5.684  1.00  0.00     0.058 A 
HETATM   14 CL1  UNL     1      20.378  -6.017   5.401  1.00  0.00    -0.082 Cl
HETATM   15  C8  UNL     1      18.955  -3.835   4.638  1.00  0.00     0.058 A 
HETATM   16 CL2  UNL     1      19.563  -4.127   3.022  1.00  0.00    -0.082 Cl
HETATM   17  C9  UNL     1      18.115  -2.773   4.874  1.00  0.00     0.057 A 
ENDBRANCH   3   6
BRANCH   4  18
HETATM   18  O3  UNL     1      13.883  -0.823   6.320  1.00  0.00    -0.388 OA
ATOM     19  H3  UNL     1      13.446  -0.983   7.148  1.00  0.00     0.210 HD
ENDBRANCH   4  18
BRANCH   1  20
HETATM   20  C1  UNL     1      16.469   2.649   6.707  1.00  0.00     0.198 C 
BRANCH  20  21
HETATM   21  O1  UNL     1      17.833   2.855   6.836  1.00  0.00    -0.398 OA
ATOM     22  H1  UNL     1      17.971   3.511   7.511  1.00  0.00     0.209 HD
ENDBRANCH  20  21
ENDBRANCH   1  20
BRANCH   5  23
HETATM   23  O4  UNL     1      14.270   0.936   4.352  1.00  0.00    -0.390 OA
ATOM     24  H4  UNL     1      14.691   1.437   3.663  1.00  0.00     0.210 HD
ENDBRANCH   5  23
TORSDOF 5
ENDMDL
