MODEL 1
REMARK VINA RESULT: -7.566311205      0.000      0.000
REMARK  5 active torsions:
REMARK  status: ('A' for Active; 'I' for Inactive)
REMARK    1  A    between atoms: O1_1  and  C1_3 
REMARK    2  A    between atoms: C1_3  and  C2_4 
REMARK    3  A    between atoms: C3_6  and  N1_7 
REMARK    4  A    between atoms: C11_19  and  O3_20 
REMARK    5  A    between atoms: C12_22  and  O4_23 
ROOT
HETATM    1  C2  UNL     1      16.116   2.161   5.598  1.00  0.00     0.179 C 
HETATM    2  O2  UNL     1      16.907   1.122   5.197  1.00  0.00    -0.353 OA
HETATM    3  C3  UNL     1      16.143   0.004   4.983  1.00  0.00     0.261 C 
HETATM    4  C11 UNL     1      15.025   0.152   5.981  1.00  0.00     0.198 C 
HETATM    5  C12 UNL     1      14.695   1.619   5.771  1.00  0.00     0.182 C 
ENDROOT
BRANCH   3   6
HETATM    6  N1  UNL     1      16.854  -1.229   5.200  1.00  0.00    -0.311 N 
HETATM    7  C4  UNL     1      17.110  -1.855   6.357  1.00  0.00     0.186 A 
HETATM    8  N2  UNL     1      17.803  -2.980   6.129  1.00  0.00    -0.350 N 
HETATM    9  C5  UNL     1      17.992  -3.072   4.798  1.00  0.00     0.062 A 
ATOM     10  H2  UNL     1      18.126  -3.644   6.833  1.00  0.00     0.166 HD
HETATM   11  C6  UNL     1      18.626  -3.998   3.981  1.00  0.00     0.057 A 
HETATM   12  C10 UNL     1      17.397  -1.976   4.229  1.00  0.00     0.066 A 
HETATM   13  C7  UNL     1      18.679  -3.856   2.614  1.00  0.00     0.058 A 
HETATM   14 CL1  UNL     1      19.484  -5.036   1.598  1.00  0.00    -0.082 Cl
HETATM   15  C8  UNL     1      18.082  -2.755   2.042  1.00  0.00     0.058 A 
HETATM   16 CL2  UNL     1      18.115  -2.515   0.309  1.00  0.00    -0.082 Cl
HETATM   17  C9  UNL     1      17.454  -1.837   2.851  1.00  0.00     0.057 A 
ENDBRANCH   3   6
BRANCH   4  18
HETATM   18  O3  UNL     1      13.950  -0.673   5.722  1.00  0.00    -0.388 OA
ATOM     19  H3  UNL     1      13.130  -0.343   6.072  1.00  0.00     0.210 HD
ENDBRANCH   4  18
BRANCH   1  20
HETATM   20  C1  UNL     1      16.566   2.548   7.015  1.00  0.00     0.198 C 
BRANCH  20  21
HETATM   21  O1  UNL     1      17.908   2.890   6.964  1.00  0.00    -0.398 OA
ATOM     22  H1  UNL     1      18.183   3.142   7.838  1.00  0.00     0.209 HD
ENDBRANCH  20  21
ENDBRANCH   1  20
BRANCH   5  23
HETATM   23  O4  UNL     1      13.973   1.737   4.579  1.00  0.00    -0.390 OA
ATOM     24  H4  UNL     1      13.116   2.113   4.742  1.00  0.00     0.210 HD
ENDBRANCH   5  23
TORSDOF 5
ENDMDL
