MODEL 9
REMARK VINA RESULT: -7.136957989      1.725      3.123
REMARK  5 active torsions:
REMARK  status: ('A' for Active; 'I' for Inactive)
REMARK    1  A    between atoms: O1_1  and  C1_3 
REMARK    2  A    between atoms: C1_3  and  C2_4 
REMARK    3  A    between atoms: C3_6  and  N1_7 
REMARK    4  A    between atoms: C11_19  and  O3_20 
REMARK    5  A    between atoms: C12_22  and  O4_23 
ROOT
HETATM    1  C2  UNL     1      14.357   0.463   5.935  1.00  0.00     0.179 C 
HETATM    2  O2  UNL     1      14.721  -0.448   4.985  1.00  0.00    -0.353 OA
HETATM    3  C3  UNL     1      16.037  -0.799   5.149  1.00  0.00     0.261 C 
HETATM    4  C11 UNL     1      16.663   0.455   5.702  1.00  0.00     0.198 C 
HETATM    5  C12 UNL     1      15.612   0.826   6.732  1.00  0.00     0.182 C 
ENDROOT
BRANCH   3   6
HETATM    6  N1  UNL     1      16.685  -1.190   3.925  1.00  0.00    -0.311 N 
HETATM    7  C4  UNL     1      16.599  -0.622   2.714  1.00  0.00     0.186 A 
HETATM    8  N2  UNL     1      17.360  -1.292   1.835  1.00  0.00    -0.350 N 
HETATM    9  C5  UNL     1      17.943  -2.307   2.502  1.00  0.00     0.062 A 
ATOM     10  H2  UNL     1      17.476  -1.073   0.846  1.00  0.00     0.166 HD
HETATM   11  C6  UNL     1      18.818  -3.320   2.134  1.00  0.00     0.057 A 
HETATM   12  C10 UNL     1      17.515  -2.235   3.802  1.00  0.00     0.066 A 
HETATM   13  C7  UNL     1      19.276  -4.257   3.030  1.00  0.00     0.058 A 
HETATM   14 CL1  UNL     1      20.381  -5.528   2.546  1.00  0.00    -0.082 Cl
HETATM   15  C8  UNL     1      18.846  -4.184   4.336  1.00  0.00     0.058 A 
HETATM   16 CL2  UNL     1      19.391  -5.348   5.526  1.00  0.00    -0.082 Cl
HETATM   17  C9  UNL     1      17.979  -3.182   4.702  1.00  0.00     0.057 A 
ENDBRANCH   3   6
BRANCH   4  18
HETATM   18  O3  UNL     1      17.903   0.242   6.266  1.00  0.00    -0.388 OA
ATOM     19  H3  UNL     1      17.929  -0.513   6.843  1.00  0.00     0.210 HD
ENDBRANCH   4  18
BRANCH   1  20
HETATM   20  C1  UNL     1      13.972   1.754   5.196  1.00  0.00     0.198 C 
BRANCH  20  21
HETATM   21  O1  UNL     1      13.572   1.415   3.913  1.00  0.00    -0.398 OA
ATOM     22  H1  UNL     1      13.893   0.541   3.724  1.00  0.00     0.209 HD
ENDBRANCH  20  21
ENDBRANCH   1  20
BRANCH   5  23
HETATM   23  O4  UNL     1      15.761  -0.025   7.832  1.00  0.00    -0.390 OA
ATOM     24  H4  UNL     1      15.084   0.141   8.479  1.00  0.00     0.210 HD
ENDBRANCH   5  23
TORSDOF 5
ENDMDL
