MODEL 5
REMARK VINA RESULT: -7.368286104      3.231      4.702
REMARK  5 active torsions:
REMARK  status: ('A' for Active; 'I' for Inactive)
REMARK    1  A    between atoms: O1_1  and  C1_3 
REMARK    2  A    between atoms: C1_3  and  C2_4 
REMARK    3  A    between atoms: C3_6  and  N1_7 
REMARK    4  A    between atoms: C11_19  and  O3_20 
REMARK    5  A    between atoms: C12_22  and  O4_23 
ROOT
HETATM    1  C2  UNL     1      18.251  -2.304  10.136  1.00  0.00     0.179 C 
HETATM    2  O2  UNL     1      18.071  -2.791   8.873  1.00  0.00    -0.353 OA
HETATM    3  C3  UNL     1      18.744  -2.012   7.967  1.00  0.00     0.261 C 
HETATM    4  C11 UNL     1      18.691  -0.639   8.585  1.00  0.00     0.198 C 
HETATM    5  C12 UNL     1      19.038  -0.997  10.018  1.00  0.00     0.182 C 
ENDROOT
BRANCH   3   6
HETATM    6  N1  UNL     1      18.143  -2.001   6.659  1.00  0.00    -0.311 N 
HETATM    7  C4  UNL     1      17.149  -1.228   6.201  1.00  0.00     0.186 A 
HETATM    8  N2  UNL     1      16.880  -1.530   4.922  1.00  0.00    -0.350 N 
HETATM    9  C5  UNL     1      17.723  -2.517   4.559  1.00  0.00     0.062 A 
ATOM     10  H2  UNL     1      16.170  -1.094   4.334  1.00  0.00     0.166 HD
HETATM   11  C6  UNL     1      17.916  -3.229   3.382  1.00  0.00     0.057 A 
HETATM   12  C10 UNL     1      18.504  -2.803   5.648  1.00  0.00     0.066 A 
HETATM   13  C7  UNL     1      18.869  -4.214   3.268  1.00  0.00     0.058 A 
HETATM   14 CL1  UNL     1      19.099  -5.101   1.774  1.00  0.00    -0.082 Cl
HETATM   15  C8  UNL     1      19.654  -4.500   4.362  1.00  0.00     0.058 A 
HETATM   16 CL2  UNL     1      20.884  -5.744   4.283  1.00  0.00    -0.082 Cl
HETATM   17  C9  UNL     1      19.463  -3.797   5.528  1.00  0.00     0.057 A 
ENDBRANCH   3   6
BRANCH   4  18
HETATM   18  O3  UNL     1      19.592   0.245   8.028  1.00  0.00    -0.388 OA
ATOM     19  H3  UNL     1      20.328  -0.185   7.607  1.00  0.00     0.210 HD
ENDBRANCH   4  18
BRANCH   1  20
HETATM   20  C1  UNL     1      16.868  -1.887  10.660  1.00  0.00     0.198 C 
BRANCH  20  21
HETATM   21  O1  UNL     1      16.624  -2.579  11.835  1.00  0.00    -0.398 OA
ATOM     22  H1  UNL     1      17.277  -3.265  11.916  1.00  0.00     0.209 HD
ENDBRANCH  20  21
ENDBRANCH   1  20
BRANCH   5  23
HETATM   23  O4  UNL     1      20.413  -1.240  10.086  1.00  0.00    -0.390 OA
ATOM     24  H4  UNL     1      20.629  -1.732  10.870  1.00  0.00     0.210 HD
ENDBRANCH   5  23
TORSDOF 5
ENDMDL
