MODEL 6
REMARK VINA RESULT: -7.315946714      3.715      5.119
REMARK  5 active torsions:
REMARK  status: ('A' for Active; 'I' for Inactive)
REMARK    1  A    between atoms: O1_1  and  C1_3 
REMARK    2  A    between atoms: C1_3  and  C2_4 
REMARK    3  A    between atoms: C3_6  and  N1_7 
REMARK    4  A    between atoms: C11_19  and  O3_20 
REMARK    5  A    between atoms: C12_22  and  O4_23 
ROOT
HETATM    1  C2  UNL     1      16.157  -2.357  10.693  1.00  0.00     0.179 C 
HETATM    2  O2  UNL     1      16.070  -2.679   9.369  1.00  0.00    -0.353 OA
HETATM    3  C3  UNL     1      17.316  -2.956   8.868  1.00  0.00     0.261 C 
HETATM    4  C11 UNL     1      18.220  -2.064   9.678  1.00  0.00     0.198 C 
HETATM    5  C12 UNL     1      17.642  -2.311  11.059  1.00  0.00     0.182 C 
ENDROOT
BRANCH   3   6
HETATM    6  N1  UNL     1      17.449  -2.668   7.463  1.00  0.00    -0.311 N 
HETATM    7  C4  UNL     1      16.911  -1.662   6.760  1.00  0.00     0.186 A 
HETATM    8  N2  UNL     1      17.278  -1.750   5.474  1.00  0.00    -0.350 N 
HETATM    9  C5  UNL     1      18.067  -2.836   5.356  1.00  0.00     0.062 A 
ATOM     10  H2  UNL     1      17.011  -1.113   4.724  1.00  0.00     0.166 HD
HETATM   11  C6  UNL     1      18.733  -3.427   4.290  1.00  0.00     0.057 A 
HETATM   12  C10 UNL     1      18.167  -3.401   6.601  1.00  0.00     0.066 A 
HETATM   13  C7  UNL     1      19.494  -4.563   4.439  1.00  0.00     0.058 A 
HETATM   14 CL1  UNL     1      20.328  -5.295   3.082  1.00  0.00    -0.082 Cl
HETATM   15  C8  UNL     1      19.594  -5.130   5.690  1.00  0.00     0.058 A 
HETATM   16 CL2  UNL     1      20.545  -6.577   5.945  1.00  0.00    -0.082 Cl
HETATM   17  C9  UNL     1      18.934  -4.546   6.745  1.00  0.00     0.057 A 
ENDBRANCH   3   6
BRANCH   4  18
HETATM   18  O3  UNL     1      19.552  -2.415   9.592  1.00  0.00    -0.388 OA
ATOM     19  H3  UNL     1      20.004  -2.379  10.427  1.00  0.00     0.210 HD
ENDBRANCH   4  18
BRANCH   1  20
HETATM   20  C1  UNL     1      15.670  -0.907  10.836  1.00  0.00     0.198 C 
BRANCH  20  21
HETATM   21  O1  UNL     1      14.285  -0.917  10.867  1.00  0.00    -0.398 OA
ATOM     22  H1  UNL     1      13.971  -0.223  10.298  1.00  0.00     0.209 HD
ENDBRANCH  20  21
ENDBRANCH   1  20
BRANCH   5  23
HETATM   23  O4  UNL     1      18.082  -3.564  11.498  1.00  0.00    -0.390 OA
ATOM     24  H4  UNL     1      18.831  -3.854  10.991  1.00  0.00     0.210 HD
ENDBRANCH   5  23
TORSDOF 5
ENDMDL
