MODEL 3
REMARK VINA RESULT: -9.433130032      5.494     10.988
REMARK  8 active torsions:
REMARK  status: ('A' for Active; 'I' for Inactive)
REMARK    1  A    between atoms: O1_2  and  C2_3 
REMARK    2  A    between atoms: C2_3  and  C3_5 
REMARK    3  A    between atoms: N1_8  and  C6_9 
REMARK    4  A    between atoms: C6_9  and  O3_10 
REMARK    5  A    between atoms: C6_9  and  C7_12 
REMARK    6  A    between atoms: C10_15  and  N2_16 
REMARK    7  A    between atoms: N2_16  and  C11_18 
REMARK    8  A    between atoms: C11_18  and  C12_19 
ROOT
HETATM    1  C7  UNL     1      -4.732 -12.118  30.530  1.00  0.00     0.015 A 
HETATM    2  C8  UNL     1      -4.537 -13.156  29.577  1.00  0.00     0.018 A 
HETATM    3  C9  UNL     1      -3.293 -13.442  29.086  1.00  0.00     0.030 A 
HETATM    4  C10 UNL     1      -2.168 -12.758  29.477  1.00  0.00     0.028 A 
HETATM    5  C18 UNL     1      -2.319 -11.754  30.391  1.00  0.00     0.030 A 
HETATM    6  C19 UNL     1      -3.596 -11.450  30.903  1.00  0.00     0.018 A 
ENDROOT
BRANCH   4   7
HETATM    7  N2  UNL     1      -0.868 -13.040  28.979  1.00  0.00    -0.384 N 
ATOM      8  H2  UNL     1      -0.304 -13.743  29.456  1.00  0.00     0.160 HD
BRANCH   7   9
HETATM    9  C11 UNL     1      -0.314 -12.373  27.826  1.00  0.00     0.178 C 
BRANCH   9  10
HETATM   10  C12 UNL     1      -0.527 -13.171  26.615  1.00  0.00     0.043 A 
HETATM   11  C13 UNL     1       0.478 -13.918  26.018  1.00  0.00     0.116 A 
HETATM   12  N3  UNL     1       0.189 -14.619  24.908  1.00  0.00    -0.348 N 
HETATM   13  C14 UNL     1      -1.054 -14.609  24.367  1.00  0.00     0.138 A 
ATOM     14  H3  UNL     1       0.922 -15.171  24.462  1.00  0.00     0.167 HD
HETATM   15  N4  UNL     1      -1.341 -15.314  23.253  1.00  0.00    -0.315 N 
HETATM   16  C17 UNL     1      -2.047 -13.868  24.963  1.00  0.00     0.119 A 
HETATM   17  C15 UNL     1      -2.577 -15.320  22.696  1.00  0.00     0.195 A 
ATOM     18  H4  UNL     1      -0.602 -15.862  22.814  1.00  0.00     0.170 HD
HETATM   19  N5  UNL     1      -2.863 -16.072  21.515  1.00  0.00    -0.063 NA
HETATM   20  N6  UNL     1      -3.537 -14.590  23.290  1.00  0.00    -0.317 N 
HETATM   21  C16 UNL     1      -3.316 -13.869  24.398  1.00  0.00     0.149 A 
ATOM     22  H6  UNL     1      -4.472 -14.585  22.881  1.00  0.00     0.169 HD
HETATM   23  N7  UNL     1      -4.303 -13.094  25.042  1.00  0.00    -0.080 NA
HETATM   24  N8  UNL     1      -1.764 -13.166  26.070  1.00  0.00    -0.351 N 
ATOM     25  H8  UNL     1      -2.501 -12.616  26.512  1.00  0.00     0.166 HD
ENDBRANCH   9  10
ENDBRANCH   7   9
ENDBRANCH   4   7
BRANCH   1  26
HETATM   26  C6  UNL     1      -6.056 -11.857  31.012  1.00  0.00     0.148 C 
BRANCH  26  27
HETATM   27  N1  UNL     1      -6.537 -11.474  32.258  1.00  0.00    -0.361 N 
HETATM   28  C5  UNL     1      -6.116 -10.316  32.981  1.00  0.00     0.126 C 
HETATM   29  C4  UNL     1      -6.918 -10.243  34.297  1.00  0.00     0.034 C 
HETATM   30  C3  UNL     1      -8.377 -10.162  33.910  1.00  0.00     0.088 C 
HETATM   31  C21 UNL     1      -8.770 -11.408  33.122  1.00  0.00     0.034 C 
HETATM   32  C20 UNL     1      -7.563 -12.296  32.932  1.00  0.00     0.126 C 
BRANCH  30  33
HETATM   33  C2  UNL     1      -9.178 -10.032  35.134  1.00  0.00     0.262 C 
HETATM   34  O2  UNL     1      -9.911 -10.992  35.544  1.00  0.00    -0.265 OA
BRANCH  33  35
HETATM   35  O1  UNL     1      -9.168  -8.866  35.891  1.00  0.00    -0.326 OA
HETATM   36  C1  UNL     1      -8.780  -8.937  37.235  1.00  0.00     0.213 C 
ENDBRANCH  33  35
ENDBRANCH  30  33
ENDBRANCH  26  27
BRANCH  26  37
HETATM   37  O3  UNL     1      -7.003 -12.003  30.121  1.00  0.00    -0.346 OA
ATOM     38  H3  UNL     1      -6.954 -11.365  29.420  1.00  0.00     0.219 HD
ENDBRANCH  26  37
ENDBRANCH   1  26
TORSDOF 8
ENDMDL
