MODEL 1
REMARK VINA RESULT: -9.799173033      0.000      0.000
REMARK  8 active torsions:
REMARK  status: ('A' for Active; 'I' for Inactive)
REMARK    1  A    between atoms: O1_2  and  C2_3 
REMARK    2  A    between atoms: C2_3  and  C3_5 
REMARK    3  A    between atoms: N1_8  and  C6_9 
REMARK    4  A    between atoms: C6_9  and  O3_10 
REMARK    5  A    between atoms: C6_9  and  C7_12 
REMARK    6  A    between atoms: C10_15  and  N2_16 
REMARK    7  A    between atoms: N2_16  and  C11_18 
REMARK    8  A    between atoms: C11_18  and  C12_19 
ROOT
HETATM    1  C7  UNL     1      -2.832 -15.285  23.387  1.00  0.00     0.015 A 
HETATM    2  C8  UNL     1      -3.808 -14.612  24.173  1.00  0.00     0.018 A 
HETATM    3  C9  UNL     1      -3.489 -13.498  24.897  1.00  0.00     0.030 A 
HETATM    4  C10 UNL     1      -2.223 -12.962  24.910  1.00  0.00     0.028 A 
HETATM    5  C18 UNL     1      -1.261 -13.584  24.166  1.00  0.00     0.030 A 
HETATM    6  C19 UNL     1      -1.579 -14.734  23.417  1.00  0.00     0.018 A 
ENDROOT
BRANCH   4   7
HETATM    7  N2  UNL     1      -1.871 -11.805  25.655  1.00  0.00    -0.384 N 
ATOM      8  H2  UNL     1      -2.437 -10.963  25.548  1.00  0.00     0.160 HD
BRANCH   7   9
HETATM    9  C11 UNL     1      -0.747 -11.772  26.558  1.00  0.00     0.178 C 
BRANCH   9  10
HETATM   10  C12 UNL     1      -1.104 -11.090  27.805  1.00  0.00     0.043 A 
HETATM   11  C13 UNL     1      -0.503  -9.909  28.216  1.00  0.00     0.116 A 
HETATM   12  N3  UNL     1      -0.896  -9.355  29.377  1.00  0.00    -0.348 N 
HETATM   13  C14 UNL     1      -1.859  -9.924  30.144  1.00  0.00     0.138 A 
ATOM     14  H3  UNL     1      -0.459  -8.487  29.688  1.00  0.00     0.167 HD
HETATM   15  N4  UNL     1      -2.252  -9.365  31.307  1.00  0.00    -0.315 N 
HETATM   16  C17 UNL     1      -2.452 -11.093  29.730  1.00  0.00     0.119 A 
HETATM   17  C15 UNL     1      -3.213  -9.915  32.088  1.00  0.00     0.195 A 
ATOM     18  H4  UNL     1      -1.809  -8.497  31.610  1.00  0.00     0.170 HD
HETATM   19  N5  UNL     1      -3.615  -9.310  33.319  1.00  0.00    -0.063 NA
HETATM   20  N6  UNL     1      -3.783 -11.059  31.671  1.00  0.00    -0.317 N 
HETATM   21  C16 UNL     1      -3.438 -11.663  30.526  1.00  0.00     0.149 A 
ATOM     22  H6  UNL     1      -4.508 -11.484  32.250  1.00  0.00     0.169 HD
HETATM   23  N7  UNL     1      -4.018 -12.863  30.064  1.00  0.00    -0.080 NA
HETATM   24  N8  UNL     1      -2.064 -11.651  28.574  1.00  0.00    -0.351 N 
ATOM     25  H8  UNL     1      -2.503 -12.519  28.268  1.00  0.00     0.166 HD
ENDBRANCH   9  10
ENDBRANCH   7   9
ENDBRANCH   4   7
BRANCH   1  26
HETATM   26  C6  UNL     1      -3.219 -16.450  22.647  1.00  0.00     0.148 C 
BRANCH  26  27
HETATM   27  N1  UNL     1      -3.067 -17.809  22.897  1.00  0.00    -0.361 N 
HETATM   28  C5  UNL     1      -3.429 -18.856  21.995  1.00  0.00     0.126 C 
HETATM   29  C4  UNL     1      -3.066 -20.208  22.645  1.00  0.00     0.034 C 
HETATM   30  C3  UNL     1      -1.577 -20.179  22.900  1.00  0.00     0.088 C 
HETATM   31  C21 UNL     1      -1.240 -19.032  23.848  1.00  0.00     0.034 C 
HETATM   32  C20 UNL     1      -2.493 -18.258  24.182  1.00  0.00     0.126 C 
BRANCH  30  33
HETATM   33  C2  UNL     1      -1.176 -21.473  23.467  1.00  0.00     0.262 C 
HETATM   34  O2  UNL     1      -1.350 -22.557  22.818  1.00  0.00    -0.265 OA
BRANCH  33  35
HETATM   35  O1  UNL     1      -0.593 -21.567  24.726  1.00  0.00    -0.326 OA
HETATM   36  C1  UNL     1      -0.085 -22.803  25.145  1.00  0.00     0.213 C 
ENDBRANCH  33  35
ENDBRANCH  30  33
ENDBRANCH  26  27
BRANCH  26  37
HETATM   37  O3  UNL     1      -3.833 -16.205  21.518  1.00  0.00    -0.346 OA
ATOM     38  H3  UNL     1      -4.761 -16.038  21.630  1.00  0.00     0.219 HD
ENDBRANCH  26  37
ENDBRANCH   1  26
TORSDOF 8
ENDMDL
