MODEL 2
REMARK VINA RESULT: -9.455677594      4.542      9.908
REMARK  8 active torsions:
REMARK  status: ('A' for Active; 'I' for Inactive)
REMARK    1  A    between atoms: O1_2  and  C2_3 
REMARK    2  A    between atoms: C2_3  and  C3_5 
REMARK    3  A    between atoms: N1_8  and  C6_9 
REMARK    4  A    between atoms: C6_9  and  O3_10 
REMARK    5  A    between atoms: C6_9  and  C7_12 
REMARK    6  A    between atoms: C10_15  and  N2_16 
REMARK    7  A    between atoms: N2_16  and  C11_18 
REMARK    8  A    between atoms: C11_18  and  C12_19 
ROOT
HETATM    1  C7  UNL     1      -1.609 -10.676  28.352  1.00  0.00     0.015 A 
HETATM    2  C8  UNL     1      -0.304 -11.207  28.155  1.00  0.00     0.018 A 
HETATM    3  C9  UNL     1       0.071 -11.733  26.950  1.00  0.00     0.030 A 
HETATM    4  C10 UNL     1      -0.774 -11.779  25.868  1.00  0.00     0.028 A 
HETATM    5  C18 UNL     1      -2.035 -11.278  26.022  1.00  0.00     0.030 A 
HETATM    6  C19 UNL     1      -2.433 -10.734  27.259  1.00  0.00     0.018 A 
ENDROOT
BRANCH   4   7
HETATM    7  N2  UNL     1      -0.402 -12.321  24.608  1.00  0.00    -0.384 N 
ATOM      8  H2  UNL     1      -0.721 -11.852  23.760  1.00  0.00     0.160 HD
BRANCH   7   9
HETATM    9  C11 UNL     1       0.408 -13.507  24.479  1.00  0.00     0.178 C 
BRANCH   9  10
HETATM   10  C12 UNL     1      -0.402 -14.712  24.684  1.00  0.00     0.043 A 
HETATM   11  C13 UNL     1      -0.407 -15.421  25.877  1.00  0.00     0.116 A 
HETATM   12  N3  UNL     1      -1.183 -16.516  25.973  1.00  0.00    -0.348 N 
HETATM   13  C14 UNL     1      -1.951 -16.933  24.937  1.00  0.00     0.138 A 
ATOM     14  H3  UNL     1      -1.193 -17.044  26.846  1.00  0.00     0.167 HD
HETATM   15  N4  UNL     1      -2.728 -18.032  25.037  1.00  0.00    -0.315 N 
HETATM   16  C17 UNL     1      -1.942 -16.226  23.758  1.00  0.00     0.119 A 
HETATM   17  C15 UNL     1      -3.505 -18.466  24.014  1.00  0.00     0.195 A 
ATOM     18  H4  UNL     1      -2.731 -18.554  25.913  1.00  0.00     0.170 HD
HETATM   19  N5  UNL     1      -4.321 -19.633  24.138  1.00  0.00    -0.063 NA
HETATM   20  N6  UNL     1      -3.485 -17.764  22.868  1.00  0.00    -0.317 N 
HETATM   21  C16 UNL     1      -2.735 -16.666  22.706  1.00  0.00     0.149 A 
ATOM     22  H6  UNL     1      -4.065 -18.081  22.091  1.00  0.00     0.169 HD
HETATM   23  N7  UNL     1      -2.695 -15.910  21.515  1.00  0.00    -0.080 NA
HETATM   24  N8  UNL     1      -1.170 -15.134  23.656  1.00  0.00    -0.351 N 
ATOM     25  H8  UNL     1      -1.163 -14.610  22.781  1.00  0.00     0.166 HD
ENDBRANCH   9  10
ENDBRANCH   7   9
ENDBRANCH   4   7
BRANCH   1  26
HETATM   26  C6  UNL     1      -1.954 -10.137  29.634  1.00  0.00     0.148 C 
BRANCH  26  27
HETATM   27  N1  UNL     1      -2.837 -10.562  30.620  1.00  0.00    -0.361 N 
HETATM   28  C5  UNL     1      -3.223  -9.796  31.762  1.00  0.00     0.126 C 
HETATM   29  C4  UNL     1      -4.239 -10.619  32.582  1.00  0.00     0.034 C 
HETATM   30  C3  UNL     1      -5.412 -10.892  31.668  1.00  0.00     0.088 C 
HETATM   31  C21 UNL     1      -4.943 -11.690  30.454  1.00  0.00     0.034 C 
HETATM   32  C20 UNL     1      -3.450 -11.902  30.526  1.00  0.00     0.126 C 
BRANCH  30  33
HETATM   33  C2  UNL     1      -6.432 -11.626  32.426  1.00  0.00     0.262 C 
HETATM   34  O2  UNL     1      -6.564 -11.459  33.683  1.00  0.00    -0.265 OA
BRANCH  33  35
HETATM   35  O1  UNL     1      -7.291 -12.527  31.806  1.00  0.00    -0.326 OA
HETATM   36  C1  UNL     1      -8.406 -12.994  32.515  1.00  0.00     0.213 C 
ENDBRANCH  33  35
ENDBRANCH  30  33
ENDBRANCH  26  27
BRANCH  26  37
HETATM   37  O3  UNL     1      -1.324  -9.034  29.954  1.00  0.00    -0.346 OA
ATOM     38  H3  UNL     1      -1.857  -8.439  30.467  1.00  0.00     0.219 HD
ENDBRANCH  26  37
ENDBRANCH   1  26
TORSDOF 8
ENDMDL
