MODEL 20
REMARK VINA RESULT: -8.999402521      2.838      6.593
REMARK  14 active torsions:
REMARK  status: ('A' for Active; 'I' for Inactive)
REMARK    1  A    between atoms: O1_2  and  C2_3 
REMARK    2  A    between atoms: C5_6  and  S1_7 
REMARK    3  A    between atoms: S1_7  and  N1_10 
REMARK    4  A    between atoms: N1_10  and  C6_11 
REMARK    5  A    between atoms: N1_10  and  C11_19 
REMARK    6  A    between atoms: C6_11  and  C7_12 
REMARK    7  A    between atoms: C11_19  and  C12_20 
REMARK    8  A    between atoms: C12_20  and  O5_21 
REMARK    9  A    between atoms: C12_20  and  C13_23 
REMARK   10  A    between atoms: C13_23  and  C14_24 
REMARK   11  A    between atoms: C13_23  and  N3_31 
REMARK   12  A    between atoms: C14_24  and  C15_25 
REMARK       I    between atoms: N3_31  and  C21_33 
REMARK   13  A    between atoms: C21_33  and  O7_35 
REMARK   14  A    between atoms: O7_35  and  C22_36 
ROOT
HETATM    1  C12 UNL     1      15.017  23.672  17.947  1.00  0.00     0.155 C 
ENDROOT
BRANCH   1   2
HETATM    2  C11 UNL     1      14.306  22.518  18.547  1.00  0.00     0.141 C 
BRANCH   2   3
HETATM    3  N1  UNL     1      14.166  21.404  17.695  1.00  0.00    -0.202 NA
BRANCH   3   4
HETATM    4  S1  UNL     1      14.465  19.946  18.506  1.00  0.00     0.243 S 
HETATM    5  O2  UNL     1      15.273  19.039  17.603  1.00  0.00    -0.206 OA
HETATM    6  O3  UNL     1      15.380  20.181  19.721  1.00  0.00    -0.206 OA
BRANCH   4   7
HETATM    7  C5  UNL     1      13.107  19.064  19.074  1.00  0.00     0.074 A 
HETATM    8  C4  UNL     1      11.972  18.901  18.314  1.00  0.00     0.027 A 
HETATM    9  C3  UNL     1      10.879  18.164  18.764  1.00  0.00     0.038 A 
HETATM   10  C2  UNL     1      10.897  17.568  20.000  1.00  0.00     0.068 A 
HETATM   11  C30 UNL     1      12.029  17.723  20.776  1.00  0.00     0.038 A 
HETATM   12  C29 UNL     1      13.099  18.446  20.332  1.00  0.00     0.027 A 
BRANCH  10  13
HETATM   13  O1  UNL     1       9.866  16.828  20.518  1.00  0.00    -0.356 OA
HETATM   14  C1  UNL     1       9.173  15.808  19.838  1.00  0.00     0.210 C 
ENDBRANCH  10  13
ENDBRANCH   4   7
ENDBRANCH   3   4
BRANCH   3  15
HETATM   15  C6  UNL     1      14.734  21.446  16.425  1.00  0.00     0.133 C 
BRANCH  15  16
HETATM   16  C7  UNL     1      13.889  21.510  15.223  1.00  0.00     0.099 C 
HETATM   17  C8  UNL     1      13.869  20.344  14.297  1.00  0.00     0.035 C 
HETATM   18  C9  UNL     1      12.598  20.587  13.431  1.00  0.00     0.105 C 
HETATM   19  C10 UNL     1      11.695  21.100  14.514  1.00  0.00     0.217 C 
HETATM   20  O4  UNL     1      10.449  21.159  14.369  1.00  0.00    -0.274 OA
HETATM   21  N2  UNL     1      12.480  21.483  15.665  1.00  0.00    -0.355 N 
ATOM     22  H2  UNL     1      12.129  21.693  16.599  1.00  0.00     0.162 HD
ENDBRANCH  15  16
ENDBRANCH   3  15
ENDBRANCH   2   3
ENDBRANCH   1   2
BRANCH   1  23
HETATM   23  O5  UNL     1      14.401  24.868  18.301  1.00  0.00    -0.392 OA
ATOM     24  H5  UNL     1      13.684  25.066  17.709  1.00  0.00     0.210 HD
ENDBRANCH   1  23
BRANCH   1  25
HETATM   25  C13 UNL     1      16.478  23.780  18.175  1.00  0.00     0.120 C 
BRANCH  25  26
HETATM   26  C14 UNL     1      16.918  24.407  19.452  1.00  0.00     0.066 C 
BRANCH  26  27
HETATM   27  C15 UNL     1      18.062  23.813  20.120  1.00  0.00    -0.056 A 
HETATM   28  C16 UNL     1      18.039  22.496  20.528  1.00  0.00     0.007 A 
HETATM   29  C17 UNL     1      19.095  21.893  21.174  1.00  0.00     0.001 A 
HETATM   30  C18 UNL     1      20.239  22.639  21.430  1.00  0.00     0.000 A 
HETATM   31  C19 UNL     1      20.294  23.954  21.036  1.00  0.00     0.001 A 
HETATM   32  C20 UNL     1      19.196  24.537  20.380  1.00  0.00     0.007 A 
ENDBRANCH  26  27
ENDBRANCH  25  26
BRANCH  25  33
HETATM   33  N3  UNL     1      17.018  24.525  17.017  1.00  0.00    -0.329 N 
HETATM   34  C21 UNL     1      18.193  24.091  16.353  1.00  0.00     0.361 C 
HETATM   35  O6  UNL     1      18.810  23.041  16.743  1.00  0.00    -0.238 OA
ATOM     36  H3  UNL     1      16.537  25.364  16.691  1.00  0.00     0.165 HD
BRANCH  34  37
HETATM   37  O7  UNL     1      18.756  24.737  15.262  1.00  0.00    -0.299 OA
BRANCH  37  38
HETATM   38  C22 UNL     1      19.008  26.126  15.272  1.00  0.00     0.136 C 
HETATM   39  C23 UNL     1      19.816  26.618  14.117  1.00  0.00     0.040 C 
HETATM   40  C24 UNL     1      20.219  28.010  14.622  1.00  0.00     0.019 C 
HETATM   41  C25 UNL     1      21.541  28.451  14.069  1.00  0.00     0.033 C 
HETATM   42  C27 UNL     1      20.489  27.763  16.081  1.00  0.00     0.128 C 
HETATM   43  C26 UNL     1      22.502  27.859  15.091  1.00  0.00     0.168 C 
HETATM   44  O8  UNL     1      21.836  27.884  16.302  1.00  0.00    -0.385 OA
HETATM   45  C28 UNL     1      19.922  26.432  16.448  1.00  0.00     0.065 C 
ENDBRANCH  37  38
ENDBRANCH  34  37
ENDBRANCH  25  33
ENDBRANCH   1  25
TORSDOF 14
ENDMDL
