MODEL 2
REMARK VINA RESULT: -9.445456881      2.338      8.409
REMARK  14 active torsions:
REMARK  status: ('A' for Active; 'I' for Inactive)
REMARK    1  A    between atoms: O1_2  and  C2_3 
REMARK    2  A    between atoms: C5_6  and  S1_7 
REMARK    3  A    between atoms: S1_7  and  N1_10 
REMARK    4  A    between atoms: N1_10  and  C6_11 
REMARK    5  A    between atoms: N1_10  and  C11_19 
REMARK    6  A    between atoms: C6_11  and  C7_12 
REMARK    7  A    between atoms: C11_19  and  C12_20 
REMARK    8  A    between atoms: C12_20  and  O5_21 
REMARK    9  A    between atoms: C12_20  and  C13_23 
REMARK   10  A    between atoms: C13_23  and  C14_24 
REMARK   11  A    between atoms: C13_23  and  N3_31 
REMARK   12  A    between atoms: C14_24  and  C15_25 
REMARK       I    between atoms: N3_31  and  C21_33 
REMARK   13  A    between atoms: C21_33  and  O7_35 
REMARK   14  A    between atoms: O7_35  and  C22_36 
ROOT
HETATM    1  C12 UNL     1      15.274  23.942  18.028  1.00  0.00     0.155 C 
ENDROOT
BRANCH   1   2
HETATM    2  C11 UNL     1      16.320  24.972  17.827  1.00  0.00     0.141 C 
BRANCH   2   3
HETATM    3  N1  UNL     1      17.640  24.517  18.024  1.00  0.00    -0.202 NA
BRANCH   3   4
HETATM    4  S1  UNL     1      18.459  24.299  16.556  1.00  0.00     0.243 S 
HETATM    5  O2  UNL     1      18.819  22.836  16.408  1.00  0.00    -0.206 OA
HETATM    6  O3  UNL     1      17.521  24.579  15.368  1.00  0.00    -0.206 OA
BRANCH   4   7
HETATM    7  C5  UNL     1      19.877  25.228  16.296  1.00  0.00     0.074 A 
HETATM    8  C4  UNL     1      20.413  26.033  17.274  1.00  0.00     0.027 A 
HETATM    9  C3  UNL     1      21.579  26.768  17.072  1.00  0.00     0.038 A 
HETATM   10  C2  UNL     1      22.242  26.714  15.871  1.00  0.00     0.068 A 
HETATM   11  C30 UNL     1      21.716  25.911  14.878  1.00  0.00     0.038 A 
HETATM   12  C29 UNL     1      20.573  25.191  15.079  1.00  0.00     0.027 A 
BRANCH  10  13
HETATM   13  O1  UNL     1      23.392  27.404  15.590  1.00  0.00    -0.356 OA
HETATM   14  C1  UNL     1      23.551  28.800  15.694  1.00  0.00     0.210 C 
ENDBRANCH  10  13
ENDBRANCH   4   7
ENDBRANCH   3   4
BRANCH   3  15
HETATM   15  C6  UNL     1      17.876  23.492  18.936  1.00  0.00     0.133 C 
BRANCH  15  16
HETATM   16  C7  UNL     1      18.854  23.659  20.021  1.00  0.00     0.099 C 
HETATM   17  C8  UNL     1      20.265  23.245  19.787  1.00  0.00     0.035 C 
HETATM   18  C9  UNL     1      21.047  23.945  20.935  1.00  0.00     0.105 C 
HETATM   19  C10 UNL     1      20.308  25.250  20.935  1.00  0.00     0.217 C 
HETATM   20  O4  UNL     1      20.767  26.275  21.497  1.00  0.00    -0.274 OA
HETATM   21  N2  UNL     1      19.064  25.108  20.215  1.00  0.00    -0.355 N 
ATOM     22  H2  UNL     1      18.451  25.861  19.903  1.00  0.00     0.162 HD
ENDBRANCH  15  16
ENDBRANCH   3  15
ENDBRANCH   2   3
ENDBRANCH   1   2
BRANCH   1  23
HETATM   23  O5  UNL     1      14.060  24.532  18.367  1.00  0.00    -0.392 OA
ATOM     24  H5  UNL     1      13.371  24.247  17.777  1.00  0.00     0.210 HD
ENDBRANCH   1  23
BRANCH   1  25
HETATM   25  C13 UNL     1      15.059  22.953  16.945  1.00  0.00     0.120 C 
BRANCH  25  26
HETATM   26  C14 UNL     1      14.201  23.376  15.803  1.00  0.00     0.066 C 
BRANCH  26  27
HETATM   27  C15 UNL     1      13.821  22.352  14.847  1.00  0.00    -0.056 A 
HETATM   28  C16 UNL     1      14.761  21.763  14.027  1.00  0.00     0.007 A 
HETATM   29  C17 UNL     1      14.446  20.796  13.099  1.00  0.00     0.001 A 
HETATM   30  C18 UNL     1      13.123  20.389  12.978  1.00  0.00     0.000 A 
HETATM   31  C19 UNL     1      12.161  20.955  13.780  1.00  0.00     0.001 A 
HETATM   32  C20 UNL     1      12.520  21.941  14.716  1.00  0.00     0.007 A 
ENDBRANCH  26  27
ENDBRANCH  25  26
BRANCH  25  33
HETATM   33  N3  UNL     1      14.499  21.749  17.597  1.00  0.00    -0.329 N 
HETATM   34  C21 UNL     1      15.293  20.591  17.799  1.00  0.00     0.361 C 
HETATM   35  O6  UNL     1      16.514  20.566  17.421  1.00  0.00    -0.238 OA
ATOM     36  H3  UNL     1      13.527  21.751  17.906  1.00  0.00     0.165 HD
BRANCH  34  37
HETATM   37  O7  UNL     1      14.836  19.428  18.402  1.00  0.00    -0.299 OA
BRANCH  37  38
HETATM   38  C22 UNL     1      13.840  19.453  19.402  1.00  0.00     0.136 C 
HETATM   39  C23 UNL     1      13.769  18.216  20.236  1.00  0.00     0.040 C 
HETATM   40  C24 UNL     1      12.403  18.407  20.912  1.00  0.00     0.019 C 
HETATM   41  C25 UNL     1      11.740  17.099  21.224  1.00  0.00     0.033 C 
HETATM   42  C27 UNL     1      11.570  18.994  19.807  1.00  0.00     0.128 C 
HETATM   43  C26 UNL     1      10.998  16.827  19.921  1.00  0.00     0.168 C 
HETATM   44  O8  UNL     1      10.644  18.063  19.416  1.00  0.00    -0.385 OA
HETATM   45  C28 UNL     1      12.482  19.449  18.717  1.00  0.00     0.065 C 
ENDBRANCH  37  38
ENDBRANCH  34  37
ENDBRANCH  25  33
ENDBRANCH   1  25
TORSDOF 14
ENDMDL
