MODEL 1
REMARK VINA RESULT: -9.670623636      0.000      0.000
REMARK  14 active torsions:
REMARK  status: ('A' for Active; 'I' for Inactive)
REMARK    1  A    between atoms: O1_2  and  C2_3 
REMARK    2  A    between atoms: C5_6  and  S1_7 
REMARK    3  A    between atoms: S1_7  and  N1_10 
REMARK    4  A    between atoms: N1_10  and  C6_11 
REMARK    5  A    between atoms: N1_10  and  C11_19 
REMARK    6  A    between atoms: C6_11  and  C7_12 
REMARK    7  A    between atoms: C11_19  and  C12_20 
REMARK    8  A    between atoms: C12_20  and  O5_21 
REMARK    9  A    between atoms: C12_20  and  C13_23 
REMARK   10  A    between atoms: C13_23  and  C14_24 
REMARK   11  A    between atoms: C13_23  and  N3_31 
REMARK   12  A    between atoms: C14_24  and  C15_25 
REMARK       I    between atoms: N3_31  and  C21_33 
REMARK   13  A    between atoms: C21_33  and  O7_35 
REMARK   14  A    between atoms: O7_35  and  C22_36 
ROOT
HETATM    1  C12 UNL     1      17.139  24.889  17.409  1.00  0.00     0.155 C 
ENDROOT
BRANCH   1   2
HETATM    2  C11 UNL     1      18.371  24.999  18.225  1.00  0.00     0.141 C 
BRANCH   2   3
HETATM    3  N1  UNL     1      19.075  23.791  18.394  1.00  0.00    -0.202 NA
BRANCH   3   4
HETATM    4  S1  UNL     1      18.253  22.716  19.416  1.00  0.00     0.243 S 
HETATM    5  O2  UNL     1      19.229  21.673  19.917  1.00  0.00    -0.206 OA
HETATM    6  O3  UNL     1      17.784  23.438  20.692  1.00  0.00    -0.206 OA
BRANCH   4   7
HETATM    7  C5  UNL     1      16.884  21.906  18.774  1.00  0.00     0.074 A 
HETATM    8  C4  UNL     1      17.003  20.794  17.973  1.00  0.00     0.027 A 
HETATM    9  C3  UNL     1      15.891  20.120  17.471  1.00  0.00     0.038 A 
HETATM   10  C2  UNL     1      14.621  20.550  17.764  1.00  0.00     0.068 A 
HETATM   11  C30 UNL     1      14.485  21.665  18.567  1.00  0.00     0.038 A 
HETATM   12  C29 UNL     1      15.576  22.324  19.057  1.00  0.00     0.027 A 
BRANCH  10  13
HETATM   13  O1  UNL     1      13.476  19.947  17.313  1.00  0.00    -0.356 OA
HETATM   14  C1  UNL     1      12.224  19.991  17.955  1.00  0.00     0.210 C 
ENDBRANCH  10  13
ENDBRANCH   4   7
ENDBRANCH   3   4
BRANCH   3  15
HETATM   15  C6  UNL     1      20.445  23.832  18.638  1.00  0.00     0.133 C 
BRANCH  15  16
HETATM   16  C7  UNL     1      21.010  24.772  19.617  1.00  0.00     0.099 C 
HETATM   17  C8  UNL     1      21.335  24.276  20.983  1.00  0.00     0.035 C 
HETATM   18  C9  UNL     1      22.270  25.380  21.559  1.00  0.00     0.105 C 
HETATM   19  C10 UNL     1      23.058  25.665  20.315  1.00  0.00     0.217 C 
HETATM   20  O4  UNL     1      24.149  26.287  20.346  1.00  0.00    -0.274 OA
HETATM   21  N2  UNL     1      22.370  25.127  19.165  1.00  0.00    -0.355 N 
ATOM     22  H2  UNL     1      22.749  25.013  18.225  1.00  0.00     0.162 HD
ENDBRANCH  15  16
ENDBRANCH   3  15
ENDBRANCH   2   3
ENDBRANCH   1   2
BRANCH   1  23
HETATM   23  O5  UNL     1      16.284  25.957  17.660  1.00  0.00    -0.392 OA
ATOM     24  H5  UNL     1      15.858  25.857  18.504  1.00  0.00     0.210 HD
ENDBRANCH   1  23
BRANCH   1  25
HETATM   25  C13 UNL     1      17.291  24.710  15.945  1.00  0.00     0.120 C 
BRANCH  25  26
HETATM   26  C14 UNL     1      17.077  23.340  15.405  1.00  0.00     0.066 C 
BRANCH  26  27
HETATM   27  C15 UNL     1      15.711  22.955  15.100  1.00  0.00    -0.056 A 
HETATM   28  C16 UNL     1      15.443  21.849  14.322  1.00  0.00     0.007 A 
HETATM   29  C17 UNL     1      14.165  21.453  13.997  1.00  0.00     0.001 A 
HETATM   30  C18 UNL     1      13.091  22.197  14.472  1.00  0.00     0.000 A 
HETATM   31  C19 UNL     1      13.324  23.305  15.250  1.00  0.00     0.001 A 
HETATM   32  C20 UNL     1      14.643  23.680  15.560  1.00  0.00     0.007 A 
ENDBRANCH  26  27
ENDBRANCH  25  26
BRANCH  25  33
HETATM   33  N3  UNL     1      18.650  25.193  15.615  1.00  0.00    -0.329 N 
HETATM   34  C21 UNL     1      18.844  26.248  14.688  1.00  0.00     0.361 C 
HETATM   35  O6  UNL     1      17.845  26.806  14.118  1.00  0.00    -0.238 OA
ATOM     36  H3  UNL     1      19.459  24.761  16.061  1.00  0.00     0.165 HD
BRANCH  34  37
HETATM   37  O7  UNL     1      20.086  26.753  14.330  1.00  0.00    -0.299 OA
BRANCH  37  38
HETATM   38  C22 UNL     1      20.750  27.719  15.116  1.00  0.00     0.136 C 
HETATM   39  C23 UNL     1      22.001  28.261  14.508  1.00  0.00     0.040 C 
HETATM   40  C24 UNL     1      22.639  28.943  15.727  1.00  0.00     0.019 C 
HETATM   41  C25 UNL     1      24.136  28.951  15.651  1.00  0.00     0.033 C 
HETATM   42  C27 UNL     1      22.327  27.981  16.841  1.00  0.00     0.128 C 
HETATM   43  C26 UNL     1      24.471  27.610  16.291  1.00  0.00     0.168 C 
HETATM   44  O8  UNL     1      23.493  27.383  17.240  1.00  0.00    -0.385 OA
HETATM   45  C28 UNL     1      21.279  27.030  16.365  1.00  0.00     0.065 C 
ENDBRANCH  37  38
ENDBRANCH  34  37
ENDBRANCH  25  33
ENDBRANCH   1  25
TORSDOF 14
ENDMDL
