MODEL 3
REMARK VINA RESULT: -9.434267716      2.330      8.480
REMARK  14 active torsions:
REMARK  status: ('A' for Active; 'I' for Inactive)
REMARK    1  A    between atoms: O1_2  and  C2_3 
REMARK    2  A    between atoms: C5_6  and  S1_7 
REMARK    3  A    between atoms: S1_7  and  N1_10 
REMARK    4  A    between atoms: N1_10  and  C6_11 
REMARK    5  A    between atoms: N1_10  and  C11_19 
REMARK    6  A    between atoms: C6_11  and  C7_12 
REMARK    7  A    between atoms: C11_19  and  C12_20 
REMARK    8  A    between atoms: C12_20  and  O5_21 
REMARK    9  A    between atoms: C12_20  and  C13_23 
REMARK   10  A    between atoms: C13_23  and  C14_24 
REMARK   11  A    between atoms: C13_23  and  N3_31 
REMARK   12  A    between atoms: C14_24  and  C15_25 
REMARK       I    between atoms: N3_31  and  C21_33 
REMARK   13  A    between atoms: C21_33  and  O7_35 
REMARK   14  A    between atoms: O7_35  and  C22_36 
ROOT
HETATM    1  C12 UNL     1      15.260  23.971  17.973  1.00  0.00     0.155 C 
ENDROOT
BRANCH   1   2
HETATM    2  C11 UNL     1      16.245  25.051  17.732  1.00  0.00     0.141 C 
BRANCH   2   3
HETATM    3  N1  UNL     1      17.591  24.667  17.892  1.00  0.00    -0.202 NA
BRANCH   3   4
HETATM    4  S1  UNL     1      18.427  24.660  16.417  1.00  0.00     0.243 S 
HETATM    5  O2  UNL     1      19.235  23.384  16.317  1.00  0.00    -0.206 OA
HETATM    6  O3  UNL     1      17.440  24.575  15.238  1.00  0.00    -0.206 OA
BRANCH   4   7
HETATM    7  C5  UNL     1      19.471  25.982  16.093  1.00  0.00     0.074 A 
HETATM    8  C4  UNL     1      19.412  26.688  14.914  1.00  0.00     0.027 A 
HETATM    9  C3  UNL     1      20.243  27.778  14.661  1.00  0.00     0.038 A 
HETATM   10  C2  UNL     1      21.162  28.189  15.593  1.00  0.00     0.068 A 
HETATM   11  C30 UNL     1      21.234  27.490  16.782  1.00  0.00     0.038 A 
HETATM   12  C29 UNL     1      20.419  26.422  17.028  1.00  0.00     0.027 A 
BRANCH  10  13
HETATM   13  O1  UNL     1      22.015  29.248  15.424  1.00  0.00    -0.356 OA
HETATM   14  C1  UNL     1      23.391  29.242  15.725  1.00  0.00     0.210 C 
ENDBRANCH  10  13
ENDBRANCH   4   7
ENDBRANCH   3   4
BRANCH   3  15
HETATM   15  C6  UNL     1      17.894  23.569  18.693  1.00  0.00     0.133 C 
BRANCH  15  16
HETATM   16  C7  UNL     1      18.768  23.710  19.867  1.00  0.00     0.099 C 
HETATM   17  C8  UNL     1      20.152  23.167  19.800  1.00  0.00     0.035 C 
HETATM   18  C9  UNL     1      20.874  23.858  20.993  1.00  0.00     0.105 C 
HETATM   19  C10 UNL     1      20.258  25.219  20.858  1.00  0.00     0.217 C 
HETATM   20  O4  UNL     1      20.747  26.229  21.421  1.00  0.00    -0.274 OA
HETATM   21  N2  UNL     1      19.085  25.144  20.019  1.00  0.00    -0.355 N 
ATOM     22  H2  UNL     1      18.576  25.928  19.611  1.00  0.00     0.162 HD
ENDBRANCH  15  16
ENDBRANCH   3  15
ENDBRANCH   2   3
ENDBRANCH   1   2
BRANCH   1  23
HETATM   23  O5  UNL     1      14.034  24.500  18.363  1.00  0.00    -0.392 OA
ATOM     24  H5  UNL     1      13.821  24.239  19.251  1.00  0.00     0.210 HD
ENDBRANCH   1  23
BRANCH   1  25
HETATM   25  C13 UNL     1      15.049  22.973  16.898  1.00  0.00     0.120 C 
BRANCH  25  26
HETATM   26  C14 UNL     1      14.197  23.386  15.749  1.00  0.00     0.066 C 
BRANCH  26  27
HETATM   27  C15 UNL     1      13.807  22.350  14.810  1.00  0.00    -0.056 A 
HETATM   28  C16 UNL     1      12.496  21.932  14.720  1.00  0.00     0.007 A 
HETATM   29  C17 UNL     1      12.081  20.947  13.853  1.00  0.00     0.001 A 
HETATM   30  C18 UNL     1      13.020  20.341  13.027  1.00  0.00     0.000 A 
HETATM   31  C19 UNL     1      14.335  20.735  13.090  1.00  0.00     0.001 A 
HETATM   32  C20 UNL     1      14.722  21.744  13.989  1.00  0.00     0.007 A 
ENDBRANCH  26  27
ENDBRANCH  25  26
BRANCH  25  33
HETATM   33  N3  UNL     1      14.486  21.775  17.557  1.00  0.00    -0.329 N 
HETATM   34  C21 UNL     1      15.279  20.620  17.776  1.00  0.00     0.361 C 
HETATM   35  O6  UNL     1      16.503  20.592  17.407  1.00  0.00    -0.238 OA
ATOM     36  H3  UNL     1      13.511  21.779  17.860  1.00  0.00     0.165 HD
BRANCH  34  37
HETATM   37  O7  UNL     1      14.820  19.462  18.387  1.00  0.00    -0.299 OA
BRANCH  37  38
HETATM   38  C22 UNL     1      13.810  19.495  19.373  1.00  0.00     0.136 C 
HETATM   39  C23 UNL     1      13.755  18.283  20.244  1.00  0.00     0.040 C 
HETATM   40  C24 UNL     1      12.376  18.463  20.897  1.00  0.00     0.019 C 
HETATM   41  C25 UNL     1      11.739  17.151  21.241  1.00  0.00     0.033 C 
HETATM   42  C27 UNL     1      11.545  18.996  19.763  1.00  0.00     0.128 C 
HETATM   43  C26 UNL     1      11.021  16.820  19.938  1.00  0.00     0.168 C 
HETATM   44  O8  UNL     1      10.646  18.032  19.390  1.00  0.00    -0.385 OA
HETATM   45  C28 UNL     1      12.462  19.438  18.671  1.00  0.00     0.065 C 
ENDBRANCH  37  38
ENDBRANCH  34  37
ENDBRANCH  25  33
ENDBRANCH   1  25
TORSDOF 14
ENDMDL
