MODEL 3
REMARK VINA RESULT: -9.568291044      2.443      4.200
REMARK  15 active torsions:
REMARK  status: ('A' for Active; 'I' for Inactive)
REMARK    1  A    between atoms: C1_2  and  C2_4 
REMARK    2  A    between atoms: N2_8  and  C6_9 
REMARK    3  A    between atoms: C7_11  and  C8_12 
REMARK    4  A    between atoms: C8_12  and  O3_13 
REMARK    5  A    between atoms: O3_13  and  P1_14 
REMARK    6  A    between atoms: P1_14  and  O6_17 
REMARK    7  A    between atoms: O6_17  and  P2_18 
REMARK    8  A    between atoms: P2_18  and  O9_21 
REMARK    9  A    between atoms: O9_21  and  C9_22 
REMARK   10  A    between atoms: C9_22  and  C10_23 
REMARK   11  A    between atoms: C11_25  and  N3_26 
REMARK   12  A    between atoms: C17_39  and  O11_40 
REMARK   13  A    between atoms: C18_42  and  O12_43 
REMARK   14  A    between atoms: C19_45  and  O13_46 
REMARK   15  A    between atoms: C20_48  and  O14_49 
ROOT
HETATM    1  P2  UNL     1      45.671  37.399  34.925  1.00  0.00     0.417 P 
HETATM    2  O7  UNL     1      44.701  37.818  33.861  1.00  0.00    -0.624 OA
HETATM    3  O8  UNL     1      46.641  36.138  34.196  1.00  0.00    -0.624 OA
ENDROOT
BRANCH   1   4
HETATM    4  O6  UNL     1      46.627  38.584  35.457  1.00  0.00    -0.180 OA
BRANCH   4   5
HETATM    5  P1  UNL     1      46.670  39.997  34.599  1.00  0.00     0.417 P 
HETATM    6  O4  UNL     1      47.016  39.847  33.179  1.00  0.00    -0.624 OA
HETATM    7  O5  UNL     1      48.037  40.950  35.262  1.00  0.00    -0.624 OA
BRANCH   5   8
HETATM    8  O3  UNL     1      45.357  40.922  34.920  1.00  0.00    -0.287 OA
BRANCH   8   9
HETATM    9  C8  UNL     1      45.531  42.288  34.607  1.00  0.00     0.216 C 
BRANCH   9  10
HETATM   10  C7  UNL     1      44.049  42.773  34.646  1.00  0.00     0.180 C 
HETATM   11  O2  UNL     1      43.668  43.135  33.378  1.00  0.00    -0.353 OA
HETATM   12  C6  UNL     1      42.444  42.596  33.054  1.00  0.00     0.259 C 
HETATM   13  C20 UNL     1      41.821  42.261  34.413  1.00  0.00     0.198 C 
HETATM   14  C19 UNL     1      43.101  41.773  35.155  1.00  0.00     0.182 C 
BRANCH  12  15
HETATM   15  N2  UNL     1      42.759  41.300  32.417  1.00  0.00    -0.336 N 
HETATM   16  C5  UNL     1      43.884  41.113  31.724  1.00  0.00     0.093 A 
HETATM   17  C4  UNL     1      44.087  39.915  31.040  1.00  0.00     0.018 A 
HETATM   18  C3  UNL     1      43.132  38.940  31.082  1.00  0.00     0.019 A 
HETATM   19  C2  UNL     1      41.988  39.167  31.801  1.00  0.00     0.044 A 
HETATM   20  C21 UNL     1      41.809  40.358  32.470  1.00  0.00     0.110 A 
BRANCH  19  21
HETATM   21  C1  UNL     1      40.924  38.182  31.837  1.00  0.00     0.266 C 
HETATM   22  N1  UNL     1      39.769  38.357  31.043  1.00  0.00    -0.057 NA
HETATM   23  O1  UNL     1      40.971  37.136  32.569  1.00  0.00    -0.271 OA
ENDBRANCH  19  21
ENDBRANCH  12  15
BRANCH  13  24
HETATM   24  O14 UNL     1      41.447  43.436  35.062  1.00  0.00    -0.388 OA
ATOM     25  H14 UNL     1      40.519  43.410  35.263  1.00  0.00     0.210 HD
ENDBRANCH  13  24
BRANCH  14  26
HETATM   26  O13 UNL     1      42.896  41.798  36.540  1.00  0.00    -0.390 OA
ATOM     27  H13 UNL     1      42.079  42.195  36.819  1.00  0.00     0.210 HD
ENDBRANCH  14  26
ENDBRANCH   9  10
ENDBRANCH   8   9
ENDBRANCH   5   8
ENDBRANCH   4   5
ENDBRANCH   1   4
BRANCH   1  28
HETATM   28  O9  UNL     1      44.742  36.511  36.082  1.00  0.00    -0.287 OA
BRANCH  28  29
HETATM   29  C9  UNL     1      43.671  37.418  36.376  1.00  0.00     0.216 C 
BRANCH  29  30
HETATM   30  C10 UNL     1      43.619  37.639  37.827  1.00  0.00     0.180 C 
HETATM   31  O10 UNL     1      43.357  39.016  38.076  1.00  0.00    -0.353 OA
HETATM   32  C11 UNL     1      43.280  38.981  39.484  1.00  0.00     0.262 C 
HETATM   33  C17 UNL     1      42.082  37.994  39.560  1.00  0.00     0.198 C 
HETATM   34  C18 UNL     1      42.604  36.898  38.587  1.00  0.00     0.182 C 
BRANCH  32  35
HETATM   35  N3  UNL     1      42.974  40.269  39.971  1.00  0.00    -0.297 N 
HETATM   36  C12 UNL     1      43.648  41.014  40.911  1.00  0.00     0.188 A 
HETATM   37  N4  UNL     1      43.049  42.191  41.094  1.00  0.00    -0.346 N 
HETATM   38  C13 UNL     1      41.975  42.216  40.251  1.00  0.00     0.119 A 
ATOM     39  H4  UNL     1      43.337  42.929  41.737  1.00  0.00     0.167 HD
HETATM   40  C14 UNL     1      41.020  43.168  40.039  1.00  0.00     0.148 A 
HETATM   41  C16 UNL     1      41.947  41.010  39.567  1.00  0.00     0.142 A 
HETATM   42  N5  UNL     1      41.070  44.421  40.715  1.00  0.00    -0.080 NA
HETATM   43  N6  UNL     1      40.028  42.936  39.165  1.00  0.00    -0.339 N 
HETATM   44  C15 UNL     1      39.970  41.779  38.501  1.00  0.00     0.183 A 
ATOM     45  H6  UNL     1      39.314  43.648  39.008  1.00  0.00     0.167 HD
HETATM   46  N7  UNL     1      40.934  40.830  38.710  1.00  0.00    -0.336 N 
ATOM     47  H7  UNL     1      40.878  39.953  38.193  1.00  0.00     0.168 HD
ENDBRANCH  32  35
BRANCH  33  48
HETATM   48  O11 UNL     1      41.803  37.555  40.808  1.00  0.00    -0.388 OA
ATOM     49  H11 UNL     1      41.095  36.923  40.850  1.00  0.00     0.210 HD
ENDBRANCH  33  48
BRANCH  34  50
HETATM   50  O12 UNL     1      43.246  35.939  39.429  1.00  0.00    -0.390 OA
ATOM     51  H12 UNL     1      42.588  35.412  39.867  1.00  0.00     0.210 HD
ENDBRANCH  34  50
ENDBRANCH  29  30
ENDBRANCH  28  29
ENDBRANCH   1  28
TORSDOF 15
ENDMDL
