MODEL 1
REMARK VINA RESULT: -9.714507292      0.000      0.000
REMARK  15 active torsions:
REMARK  status: ('A' for Active; 'I' for Inactive)
REMARK    1  A    between atoms: C1_2  and  C2_4 
REMARK    2  A    between atoms: N2_8  and  C6_9 
REMARK    3  A    between atoms: C7_11  and  C8_12 
REMARK    4  A    between atoms: C8_12  and  O3_13 
REMARK    5  A    between atoms: O3_13  and  P1_14 
REMARK    6  A    between atoms: P1_14  and  O6_17 
REMARK    7  A    between atoms: O6_17  and  P2_18 
REMARK    8  A    between atoms: P2_18  and  O9_21 
REMARK    9  A    between atoms: O9_21  and  C9_22 
REMARK   10  A    between atoms: C9_22  and  C10_23 
REMARK   11  A    between atoms: C11_25  and  N3_26 
REMARK   12  A    between atoms: C17_39  and  O11_40 
REMARK   13  A    between atoms: C18_42  and  O12_43 
REMARK   14  A    between atoms: C19_45  and  O13_46 
REMARK   15  A    between atoms: C20_48  and  O14_49 
ROOT
HETATM    1  P2  UNL     1      42.197  36.490  31.922  1.00  0.00     0.417 P 
HETATM    2  O7  UNL     1      40.902  37.199  32.186  1.00  0.00    -0.624 OA
HETATM    3  O8  UNL     1      41.864  34.797  32.212  1.00  0.00    -0.624 OA
ENDROOT
BRANCH   1   4
HETATM    4  O6  UNL     1      42.768  36.685  30.427  1.00  0.00    -0.180 OA
BRANCH   4   5
HETATM    5  P1  UNL     1      43.674  38.031  30.107  1.00  0.00     0.417 P 
HETATM    6  O4  UNL     1      43.990  38.240  28.688  1.00  0.00    -0.624 OA
HETATM    7  O5  UNL     1      45.281  37.747  30.852  1.00  0.00    -0.624 OA
BRANCH   5   8
HETATM    8  O3  UNL     1      43.096  39.336  30.910  1.00  0.00    -0.287 OA
BRANCH   8   9
HETATM    9  C8  UNL     1      44.084  40.053  31.620  1.00  0.00     0.216 C 
BRANCH   9  10
HETATM   10  C7  UNL     1      43.196  41.123  32.326  1.00  0.00     0.180 C 
HETATM   11  O2  UNL     1      43.046  40.774  33.646  1.00  0.00    -0.353 OA
HETATM   12  C6  UNL     1      43.267  41.850  34.473  1.00  0.00     0.259 C 
HETATM   13  C20 UNL     1      43.080  43.062  33.554  1.00  0.00     0.198 C 
HETATM   14  C19 UNL     1      43.730  42.490  32.259  1.00  0.00     0.182 C 
BRANCH  12  15
HETATM   15  N2  UNL     1      44.711  41.794  34.787  1.00  0.00    -0.336 N 
HETATM   16  C5  UNL     1      45.393  42.884  35.147  1.00  0.00     0.093 A 
HETATM   17  C4  UNL     1      46.775  42.811  35.320  1.00  0.00     0.018 A 
HETATM   18  C3  UNL     1      47.422  41.627  35.117  1.00  0.00     0.019 A 
HETATM   19  C2  UNL     1      46.691  40.530  34.746  1.00  0.00     0.044 A 
HETATM   20  C21 UNL     1      45.326  40.624  34.582  1.00  0.00     0.110 A 
BRANCH  19  21
HETATM   21  C1  UNL     1      47.339  39.261  34.472  1.00  0.00     0.266 C 
HETATM   22  N1  UNL     1      47.689  38.915  33.148  1.00  0.00    -0.057 NA
HETATM   23  O1  UNL     1      47.617  38.412  35.386  1.00  0.00    -0.271 OA
ENDBRANCH  19  21
ENDBRANCH  12  15
BRANCH  13  24
HETATM   24  O14 UNL     1      41.729  43.216  33.248  1.00  0.00    -0.388 OA
ATOM     25  H14 UNL     1      41.382  43.976  33.702  1.00  0.00     0.210 HD
ENDBRANCH  13  24
BRANCH  14  26
HETATM   26  O13 UNL     1      43.323  43.234  31.145  1.00  0.00    -0.390 OA
ATOM     27  H13 UNL     1      42.382  43.323  31.042  1.00  0.00     0.210 HD
ENDBRANCH  14  26
ENDBRANCH   9  10
ENDBRANCH   8   9
ENDBRANCH   5   8
ENDBRANCH   4   5
ENDBRANCH   1   4
BRANCH   1  28
HETATM   28  O9  UNL     1      43.227  36.885  33.254  1.00  0.00    -0.287 OA
BRANCH  28  29
HETATM   29  C9  UNL     1      42.320  37.521  34.164  1.00  0.00     0.216 C 
BRANCH  29  30
HETATM   30  C10 UNL     1      43.038  37.840  35.405  1.00  0.00     0.180 C 
HETATM   31  O10 UNL     1      42.101  38.290  36.377  1.00  0.00    -0.353 OA
HETATM   32  C11 UNL     1      42.975  38.461  37.471  1.00  0.00     0.262 C 
HETATM   33  C17 UNL     1      43.437  36.980  37.549  1.00  0.00     0.198 C 
HETATM   34  C18 UNL     1      43.787  36.754  36.050  1.00  0.00     0.182 C 
BRANCH  32  35
HETATM   35  N3  UNL     1      42.239  38.877  38.601  1.00  0.00    -0.297 N 
HETATM   36  C12 UNL     1      42.104  38.248  39.817  1.00  0.00     0.188 A 
HETATM   37  N4  UNL     1      41.330  38.966  40.633  1.00  0.00    -0.346 N 
HETATM   38  C13 UNL     1      40.965  40.084  39.938  1.00  0.00     0.119 A 
ATOM     39  H4  UNL     1      41.063  38.726  41.587  1.00  0.00     0.167 HD
HETATM   40  C14 UNL     1      40.176  41.141  40.288  1.00  0.00     0.148 A 
HETATM   41  C16 UNL     1      41.538  40.005  38.678  1.00  0.00     0.142 A 
HETATM   42  N5  UNL     1      39.617  41.240  41.594  1.00  0.00    -0.080 NA
HETATM   43  N6  UNL     1      39.936  42.118  39.399  1.00  0.00    -0.339 N 
HETATM   44  C15 UNL     1      40.467  42.062  38.174  1.00  0.00     0.183 A 
ATOM     45  H6  UNL     1      39.346  42.908  39.660  1.00  0.00     0.167 HD
HETATM   46  N7  UNL     1      41.264  41.004  37.831  1.00  0.00    -0.336 N 
ATOM     47  H7  UNL     1      41.664  40.976  36.893  1.00  0.00     0.168 HD
ENDBRANCH  32  35
BRANCH  33  48
HETATM   48  O11 UNL     1      44.458  36.761  38.407  1.00  0.00    -0.388 OA
ATOM     49  H11 UNL     1      44.686  35.845  38.516  1.00  0.00     0.210 HD
ENDBRANCH  33  48
BRANCH  34  50
HETATM   50  O12 UNL     1      45.188  37.023  35.958  1.00  0.00    -0.390 OA
ATOM     51  H12 UNL     1      45.416  37.718  36.564  1.00  0.00     0.210 HD
ENDBRANCH  34  50
ENDBRANCH  29  30
ENDBRANCH  28  29
ENDBRANCH   1  28
TORSDOF 15
ENDMDL
