MODEL 2
REMARK VINA RESULT: -9.591310150      1.242      1.654
REMARK  15 active torsions:
REMARK  status: ('A' for Active; 'I' for Inactive)
REMARK    1  A    between atoms: C1_2  and  C2_4 
REMARK    2  A    between atoms: N2_8  and  C6_9 
REMARK    3  A    between atoms: C7_11  and  C8_12 
REMARK    4  A    between atoms: C8_12  and  O3_13 
REMARK    5  A    between atoms: O3_13  and  P1_14 
REMARK    6  A    between atoms: P1_14  and  O6_17 
REMARK    7  A    between atoms: O6_17  and  P2_18 
REMARK    8  A    between atoms: P2_18  and  O9_21 
REMARK    9  A    between atoms: O9_21  and  C9_22 
REMARK   10  A    between atoms: C9_22  and  C10_23 
REMARK   11  A    between atoms: C11_25  and  N3_26 
REMARK   12  A    between atoms: C17_39  and  O11_40 
REMARK   13  A    between atoms: C18_42  and  O12_43 
REMARK   14  A    between atoms: C19_45  and  O13_46 
REMARK   15  A    between atoms: C20_48  and  O14_49 
ROOT
HETATM    1  P2  UNL     1      42.257  36.767  32.156  1.00  0.00     0.417 P 
HETATM    2  O7  UNL     1      40.891  37.364  32.314  1.00  0.00    -0.624 OA
HETATM    3  O8  UNL     1      42.115  35.125  32.742  1.00  0.00    -0.624 OA
ENDROOT
BRANCH   1   4
HETATM    4  O6  UNL     1      42.808  36.760  30.640  1.00  0.00    -0.180 OA
BRANCH   4   5
HETATM    5  P1  UNL     1      43.639  38.086  30.105  1.00  0.00     0.417 P 
HETATM    6  O4  UNL     1      43.871  38.125  28.655  1.00  0.00    -0.624 OA
HETATM    7  O5  UNL     1      45.293  37.955  30.786  1.00  0.00    -0.624 OA
BRANCH   5   8
HETATM    8  O3  UNL     1      43.048  39.460  30.771  1.00  0.00    -0.287 OA
BRANCH   8   9
HETATM    9  C8  UNL     1      44.034  40.268  31.380  1.00  0.00     0.216 C 
BRANCH   9  10
HETATM   10  C7  UNL     1      43.128  41.306  32.111  1.00  0.00     0.180 C 
HETATM   11  O2  UNL     1      42.911  40.877  33.397  1.00  0.00    -0.353 OA
HETATM   12  C6  UNL     1      43.108  41.896  34.300  1.00  0.00     0.259 C 
HETATM   13  C20 UNL     1      42.981  43.166  33.452  1.00  0.00     0.198 C 
HETATM   14  C19 UNL     1      43.684  42.666  32.155  1.00  0.00     0.182 C 
BRANCH  12  15
HETATM   15  N2  UNL     1      44.534  41.797  34.677  1.00  0.00    -0.336 N 
HETATM   16  C5  UNL     1      45.257  42.878  34.977  1.00  0.00     0.093 A 
HETATM   17  C4  UNL     1      46.626  42.753  35.211  1.00  0.00     0.018 A 
HETATM   18  C3  UNL     1      47.219  41.526  35.130  1.00  0.00     0.019 A 
HETATM   19  C2  UNL     1      46.446  40.440  34.818  1.00  0.00     0.044 A 
HETATM   20  C21 UNL     1      45.095  40.585  34.591  1.00  0.00     0.110 A 
BRANCH  19  21
HETATM   21  C1  UNL     1      47.038  39.123  34.673  1.00  0.00     0.266 C 
HETATM   22  N1  UNL     1      47.965  38.873  33.636  1.00  0.00    -0.057 NA
HETATM   23  O1  UNL     1      46.760  38.147  35.450  1.00  0.00    -0.271 OA
ENDBRANCH  19  21
ENDBRANCH  12  15
BRANCH  13  24
HETATM   24  O14 UNL     1      41.648  43.362  33.094  1.00  0.00    -0.388 OA
ATOM     25  H14 UNL     1      41.244  43.983  33.689  1.00  0.00     0.210 HD
ENDBRANCH  13  24
BRANCH  14  26
HETATM   26  O13 UNL     1      43.339  43.484  31.073  1.00  0.00    -0.390 OA
ATOM     27  H13 UNL     1      42.946  44.317  31.306  1.00  0.00     0.210 HD
ENDBRANCH  14  26
ENDBRANCH   9  10
ENDBRANCH   8   9
ENDBRANCH   5   8
ENDBRANCH   4   5
ENDBRANCH   1   4
BRANCH   1  28
HETATM   28  O9  UNL     1      43.233  37.501  33.381  1.00  0.00    -0.287 OA
BRANCH  28  29
HETATM   29  C9  UNL     1      42.568  37.096  34.585  1.00  0.00     0.216 C 
BRANCH  29  30
HETATM   30  C10 UNL     1      43.184  37.790  35.725  1.00  0.00     0.180 C 
HETATM   31  O10 UNL     1      42.400  38.933  36.047  1.00  0.00    -0.353 OA
HETATM   32  C11 UNL     1      43.114  39.386  37.176  1.00  0.00     0.262 C 
HETATM   33  C17 UNL     1      42.903  38.105  38.030  1.00  0.00     0.198 C 
HETATM   34  C18 UNL     1      43.321  37.037  36.979  1.00  0.00     0.182 C 
BRANCH  32  35
HETATM   35  N3  UNL     1      42.477  40.525  37.710  1.00  0.00    -0.297 N 
HETATM   36  C12 UNL     1      41.426  41.245  37.190  1.00  0.00     0.188 A 
HETATM   37  N4  UNL     1      41.102  42.254  38.000  1.00  0.00    -0.346 N 
HETATM   38  C13 UNL     1      41.949  42.182  39.069  1.00  0.00     0.119 A 
ATOM     39  H4  UNL     1      40.366  42.944  37.850  1.00  0.00     0.167 HD
HETATM   40  C14 UNL     1      42.064  42.967  40.179  1.00  0.00     0.148 A 
HETATM   41  C16 UNL     1      42.796  41.103  38.865  1.00  0.00     0.142 A 
HETATM   42  N5  UNL     1      41.170  44.053  40.406  1.00  0.00    -0.080 NA
HETATM   43  N6  UNL     1      43.017  42.705  41.086  1.00  0.00    -0.339 N 
HETATM   44  C15 UNL     1      43.854  41.679  40.910  1.00  0.00     0.183 A 
ATOM     45  H6  UNL     1      43.104  43.293  41.916  1.00  0.00     0.167 HD
HETATM   46  N7  UNL     1      43.731  40.889  39.799  1.00  0.00    -0.336 N 
ATOM     47  H7  UNL     1      44.375  40.108  39.679  1.00  0.00     0.168 HD
ENDBRANCH  32  35
BRANCH  33  48
HETATM   48  O11 UNL     1      43.618  38.079  39.177  1.00  0.00    -0.388 OA
ATOM     49  H11 UNL     1      43.128  37.784  39.935  1.00  0.00     0.210 HD
ENDBRANCH  33  48
BRANCH  34  50
HETATM   50  O12 UNL     1      44.705  36.793  37.237  1.00  0.00    -0.390 OA
ATOM     51  H12 UNL     1      45.088  37.557  37.652  1.00  0.00     0.210 HD
ENDBRANCH  34  50
ENDBRANCH  29  30
ENDBRANCH  28  29
ENDBRANCH   1  28
TORSDOF 15
ENDMDL
