MODEL 12
REMARK VINA RESULT: -10.387635526      2.534      3.314
REMARK  5 active torsions:
REMARK  status: ('A' for Active; 'I' for Inactive)
REMARK    1  A    between atoms: C9_9  and  O1_10 
REMARK    2  A    between atoms: C17_19  and  C18_20 
REMARK    3  A    between atoms: C18_20  and  C19_21 
REMARK    4  A    between atoms: C23_25  and  C24_26 
REMARK    5  A    between atoms: C26_30  and  O3_31 
ROOT
HETATM    1  C1  UNL     1      10.687   6.502  -8.234  1.00  0.00     0.018 C 
HETATM    2  C2  UNL     1      11.876   6.281  -9.104  1.00  0.00    -0.014 C 
HETATM    3  C3  UNL     1      12.861   7.394  -8.990  1.00  0.00     0.013 C 
HETATM    4  C4  UNL     1      12.180   8.654  -9.501  1.00  0.00     0.010 C 
HETATM    5  C5  UNL     1      11.885   8.473 -10.949  1.00  0.00     0.023 C 
HETATM    6  C6  UNL     1      11.354   9.655 -11.627  1.00  0.00    -0.047 A 
HETATM    7  C7  UNL     1      11.210  10.871 -10.989  1.00  0.00     0.011 A 
HETATM    8  C8  UNL     1      10.698  11.936 -11.715  1.00  0.00     0.037 A 
HETATM    9  C9  UNL     1      10.350  11.756 -13.036  1.00  0.00     0.066 A 
HETATM   10  C10 UNL     1      10.494  10.530 -13.684  1.00  0.00     0.044 A 
HETATM   11  C11 UNL     1      11.003   9.484 -12.952  1.00  0.00    -0.049 A 
HETATM   12  C12 UNL     1      11.213   8.117 -13.509  1.00  0.00     0.039 C 
HETATM   13  C13 UNL     1      10.554   7.127 -12.577  1.00  0.00     0.010 C 
HETATM   14  C14 UNL     1      10.862   7.342 -11.134  1.00  0.00    -0.001 C 
HETATM   15  C15 UNL     1      11.521   6.153 -10.580  1.00  0.00     0.001 C 
HETATM   16  C16 UNL     1      10.734   4.878 -10.568  1.00  0.00     0.013 C 
HETATM   17  C17 UNL     1      11.724   3.996  -9.822  1.00  0.00     0.020 C 
HETATM   18  C26 UNL     1      12.475   4.904  -8.869  1.00  0.00     0.131 C 
ENDROOT
BRANCH  17  19
HETATM   19  C18 UNL     1      11.075   2.832  -9.139  1.00  0.00     0.045 C 
BRANCH  19  20
HETATM   20  C19 UNL     1      12.070   1.716  -9.128  1.00  0.00    -0.057 A 
HETATM   21  C20 UNL     1      12.415   1.123 -10.325  1.00  0.00     0.007 A 
HETATM   22  C21 UNL     1      13.329   0.094 -10.343  1.00  0.00     0.002 A 
HETATM   23  C22 UNL     1      13.887  -0.330  -9.158  1.00  0.00     0.016 A 
HETATM   24  C23 UNL     1      13.544   0.259  -7.971  1.00  0.00     0.029 A 
HETATM   25  C25 UNL     1      12.641   1.277  -7.947  1.00  0.00     0.023 A 
BRANCH  24  26
HETATM   26  C24 UNL     1      14.135  -0.185  -6.691  1.00  0.00     0.265 C 
HETATM   27  N1  UNL     1      13.934   0.618  -5.515  1.00  0.00    -0.057 NA
HETATM   28  O2  UNL     1      14.805  -1.245  -6.626  1.00  0.00    -0.271 OA
ENDBRANCH  24  26
ENDBRANCH  19  20
ENDBRANCH  17  19
BRANCH  18  29
HETATM   29  O3  UNL     1      12.413   4.501  -7.561  1.00  0.00    -0.394 OA
ATOM     30  H3  UNL     1      13.241   4.174  -7.229  1.00  0.00     0.210 HD
ENDBRANCH  18  29
BRANCH   9  31
HETATM   31  O1  UNL     1       9.838  12.798 -13.783  1.00  0.00    -0.361 OA
ATOM     32  H1  UNL     1       9.003  13.192 -13.563  1.00  0.00     0.217 HD
ENDBRANCH   9  31
TORSDOF 5
ENDMDL
