MODEL 9
REMARK VINA RESULT: -10.596344536      2.004      2.613
REMARK  5 active torsions:
REMARK  status: ('A' for Active; 'I' for Inactive)
REMARK    1  A    between atoms: C9_9  and  O1_10 
REMARK    2  A    between atoms: C17_19  and  C18_20 
REMARK    3  A    between atoms: C18_20  and  C19_21 
REMARK    4  A    between atoms: C23_25  and  C24_26 
REMARK    5  A    between atoms: C26_30  and  O3_31 
ROOT
HETATM    1  C1  UNL     1      10.273   7.260  -8.609  1.00  0.00     0.018 C 
HETATM    2  C2  UNL     1      11.421   6.994  -9.522  1.00  0.00    -0.014 C 
HETATM    3  C3  UNL     1      12.448   8.071  -9.450  1.00  0.00     0.013 C 
HETATM    4  C4  UNL     1      11.793   9.353  -9.941  1.00  0.00     0.010 C 
HETATM    5  C5  UNL     1      11.438   9.178 -11.377  1.00  0.00     0.023 C 
HETATM    6  C6  UNL     1      10.924  10.375 -12.040  1.00  0.00    -0.047 A 
HETATM    7  C7  UNL     1      10.847  11.598 -11.402  1.00  0.00     0.011 A 
HETATM    8  C8  UNL     1      10.345  12.678 -12.114  1.00  0.00     0.037 A 
HETATM    9  C9  UNL     1       9.943  12.506 -13.421  1.00  0.00     0.066 A 
HETATM   10  C10 UNL     1      10.019  11.274 -14.067  1.00  0.00     0.044 A 
HETATM   11  C11 UNL     1      10.518  10.213 -13.351  1.00  0.00    -0.049 A 
HETATM   12  C12 UNL     1      10.658   8.837 -13.908  1.00  0.00     0.039 C 
HETATM   13  C13 UNL     1      10.000   7.874 -12.948  1.00  0.00     0.010 C 
HETATM   14  C14 UNL     1      10.369   8.083 -11.518  1.00  0.00    -0.001 C 
HETATM   15  C15 UNL     1      11.006   6.873 -10.983  1.00  0.00     0.001 C 
HETATM   16  C16 UNL     1      10.175   5.627 -10.936  1.00  0.00     0.013 C 
HETATM   17  C17 UNL     1      11.161   4.713 -10.223  1.00  0.00     0.020 C 
HETATM   18  C26 UNL     1      11.979   5.597  -9.303  1.00  0.00     0.131 C 
ENDROOT
BRANCH  17  19
HETATM   19  C18 UNL     1      10.497   3.576  -9.511  1.00  0.00     0.045 C 
BRANCH  19  20
HETATM   20  C19 UNL     1      11.253   2.333  -9.862  1.00  0.00    -0.057 A 
HETATM   21  C20 UNL     1      11.062   1.771 -11.108  1.00  0.00     0.007 A 
HETATM   22  C21 UNL     1      11.746   0.628 -11.456  1.00  0.00     0.002 A 
HETATM   23  C22 UNL     1      12.615   0.062 -10.551  1.00  0.00     0.016 A 
HETATM   24  C23 UNL     1      12.804   0.621  -9.316  1.00  0.00     0.029 A 
HETATM   25  C25 UNL     1      12.131   1.751  -8.966  1.00  0.00     0.023 A 
BRANCH  24  26
HETATM   26  C24 UNL     1      13.734   0.026  -8.335  1.00  0.00     0.265 C 
HETATM   27  N1  UNL     1      13.820   0.600  -7.019  1.00  0.00    -0.057 NA
HETATM   28  O2  UNL     1      14.441  -0.966  -8.638  1.00  0.00    -0.271 OA
ENDBRANCH  24  26
ENDBRANCH  19  20
ENDBRANCH  17  19
BRANCH  18  29
HETATM   29  O3  UNL     1      11.952   5.201  -7.992  1.00  0.00    -0.394 OA
ATOM     30  H3  UNL     1      11.138   4.779  -7.744  1.00  0.00     0.210 HD
ENDBRANCH  18  29
BRANCH   9  31
HETATM   31  O1  UNL     1       9.440  13.563 -14.153  1.00  0.00    -0.361 OA
ATOM     32  H1  UNL     1       8.578  13.516 -14.548  1.00  0.00     0.217 HD
ENDBRANCH   9  31
TORSDOF 5
ENDMDL
