MODEL 8
REMARK VINA RESULT: -10.603405819      4.290      7.196
REMARK  5 active torsions:
REMARK  status: ('A' for Active; 'I' for Inactive)
REMARK    1  A    between atoms: C9_9  and  O1_10 
REMARK    2  A    between atoms: C17_19  and  C18_20 
REMARK    3  A    between atoms: C18_20  and  C19_21 
REMARK    4  A    between atoms: C23_25  and  C24_26 
REMARK    5  A    between atoms: C26_30  and  O3_31 
ROOT
HETATM    1  C1  UNL     1      13.070   1.800 -10.608  1.00  0.00     0.018 C 
HETATM    2  C2  UNL     1      12.086   1.937  -9.497  1.00  0.00    -0.014 C 
HETATM    3  C3  UNL     1      10.765   2.426  -9.985  1.00  0.00     0.013 C 
HETATM    4  C4  UNL     1      10.981   3.823 -10.547  1.00  0.00     0.010 C 
HETATM    5  C5  UNL     1      11.398   4.718  -9.433  1.00  0.00     0.023 C 
HETATM    6  C6  UNL     1      11.510   6.133  -9.783  1.00  0.00    -0.047 A 
HETATM    7  C7  UNL     1      11.177   6.615 -11.034  1.00  0.00     0.011 A 
HETATM    8  C8  UNL     1      11.317   7.974 -11.272  1.00  0.00     0.037 A 
HETATM    9  C9  UNL     1      11.776   8.799 -10.268  1.00  0.00     0.066 A 
HETATM   10  C10 UNL     1      12.112   8.317  -9.004  1.00  0.00     0.044 A 
HETATM   11  C11 UNL     1      11.970   6.968  -8.782  1.00  0.00    -0.049 A 
HETATM   12  C12 UNL     1      12.290   6.309  -7.483  1.00  0.00     0.039 C 
HETATM   13  C13 UNL     1      13.206   5.142  -7.765  1.00  0.00     0.010 C 
HETATM   14  C14 UNL     1      12.765   4.272  -8.893  1.00  0.00    -0.001 C 
HETATM   15  C15 UNL     1      12.542   2.903  -8.410  1.00  0.00     0.001 C 
HETATM   16  C16 UNL     1      13.730   2.168  -7.866  1.00  0.00     0.013 C 
HETATM   17  C17 UNL     1      13.079   0.815  -7.623  1.00  0.00     0.020 C 
HETATM   18  C26 UNL     1      12.004   0.658  -8.679  1.00  0.00     0.131 C 
ENDROOT
BRANCH  17  19
HETATM   19  C18 UNL     1      14.062  -0.315  -7.610  1.00  0.00     0.045 C 
BRANCH  19  20
HETATM   20  C19 UNL     1      14.459  -0.538  -6.185  1.00  0.00    -0.057 A 
HETATM   21  C20 UNL     1      15.368  -1.536  -5.899  1.00  0.00     0.007 A 
HETATM   22  C21 UNL     1      15.751  -1.762  -4.596  1.00  0.00     0.002 A 
HETATM   23  C22 UNL     1      15.217  -0.984  -3.594  1.00  0.00     0.016 A 
HETATM   24  C23 UNL     1      14.315   0.006  -3.879  1.00  0.00     0.029 A 
HETATM   25  C25 UNL     1      13.933   0.234  -5.165  1.00  0.00     0.023 A 
BRANCH  24  26
HETATM   26  C24 UNL     1      13.735   0.850  -2.814  1.00  0.00     0.265 C 
HETATM   27  N1  UNL     1      13.639   2.269  -3.024  1.00  0.00    -0.057 NA
HETATM   28  O2  UNL     1      13.329   0.341  -1.740  1.00  0.00    -0.271 OA
ENDBRANCH  24  26
ENDBRANCH  19  20
ENDBRANCH  17  19
BRANCH  18  29
HETATM   29  O3  UNL     1      12.134  -0.478  -9.434  1.00  0.00    -0.394 OA
ATOM     30  H3  UNL     1      12.086  -1.276  -8.921  1.00  0.00     0.210 HD
ENDBRANCH  18  29
BRANCH   9  31
HETATM   31  O1  UNL     1      11.924  10.155 -10.476  1.00  0.00    -0.361 OA
ATOM     32  H1  UNL     1      11.183  10.745 -10.395  1.00  0.00     0.217 HD
ENDBRANCH   9  31
TORSDOF 5
ENDMDL
