MODEL 6
REMARK VINA RESULT: -10.654295202      4.887      7.440
REMARK  5 active torsions:
REMARK  status: ('A' for Active; 'I' for Inactive)
REMARK    1  A    between atoms: C9_9  and  O1_10 
REMARK    2  A    between atoms: C17_19  and  C18_20 
REMARK    3  A    between atoms: C18_20  and  C19_21 
REMARK    4  A    between atoms: C23_25  and  C24_26 
REMARK    5  A    between atoms: C26_30  and  O3_31 
ROOT
HETATM    1  C1  UNL     1      13.315   1.642 -10.375  1.00  0.00     0.018 C 
HETATM    2  C2  UNL     1      12.223   1.864  -9.387  1.00  0.00    -0.014 C 
HETATM    3  C3  UNL     1      10.941   2.232 -10.051  1.00  0.00     0.013 C 
HETATM    4  C4  UNL     1      11.164   3.562 -10.756  1.00  0.00     0.010 C 
HETATM    5  C5  UNL     1      11.439   4.599  -9.724  1.00  0.00     0.023 C 
HETATM    6  C6  UNL     1      11.537   5.967 -10.230  1.00  0.00    -0.047 A 
HETATM    7  C7  UNL     1      11.314   6.284 -11.556  1.00  0.00     0.011 A 
HETATM    8  C8  UNL     1      11.430   7.611 -11.941  1.00  0.00     0.037 A 
HETATM    9  C9  UNL     1      11.760   8.567 -11.006  1.00  0.00     0.066 A 
HETATM   10  C10 UNL     1      11.986   8.252  -9.667  1.00  0.00     0.044 A 
HETATM   11  C11 UNL     1      11.868   6.934  -9.298  1.00  0.00    -0.049 A 
HETATM   12  C12 UNL     1      12.080   6.446  -7.905  1.00  0.00     0.039 C 
HETATM   13  C13 UNL     1      13.059   5.297  -7.956  1.00  0.00     0.010 C 
HETATM   14  C14 UNL     1      12.760   4.281  -9.007  1.00  0.00    -0.001 C 
HETATM   15  C15 UNL     1      12.537   2.969  -8.386  1.00  0.00     0.001 C 
HETATM   16  C16 UNL     1      13.689   2.358  -7.647  1.00  0.00     0.013 C 
HETATM   17  C17 UNL     1      13.063   1.014  -7.305  1.00  0.00     0.020 C 
HETATM   18  C26 UNL     1      12.103   0.687  -8.431  1.00  0.00     0.131 C 
ENDROOT
BRANCH  17  19
HETATM   19  C18 UNL     1      14.077  -0.061  -7.064  1.00  0.00     0.045 C 
BRANCH  19  20
HETATM   20  C19 UNL     1      14.254  -0.176  -5.583  1.00  0.00    -0.057 A 
HETATM   21  C20 UNL     1      13.444   0.577  -4.758  1.00  0.00     0.007 A 
HETATM   22  C21 UNL     1      13.586   0.489  -3.391  1.00  0.00     0.002 A 
HETATM   23  C22 UNL     1      14.539  -0.354  -2.867  1.00  0.00     0.016 A 
HETATM   24  C23 UNL     1      15.342  -1.101  -3.686  1.00  0.00     0.029 A 
HETATM   25  C25 UNL     1      15.207  -1.018  -5.038  1.00  0.00     0.023 A 
BRANCH  24  26
HETATM   26  C24 UNL     1      16.369  -2.011  -3.139  1.00  0.00     0.265 C 
HETATM   27  N1  UNL     1      17.640  -2.110  -3.805  1.00  0.00    -0.057 NA
HETATM   28  O2  UNL     1      16.142  -2.690  -2.108  1.00  0.00    -0.271 OA
ENDBRANCH  24  26
ENDBRANCH  19  20
ENDBRANCH  17  19
BRANCH  18  29
HETATM   29  O3  UNL     1      12.346  -0.522  -9.027  1.00  0.00    -0.394 OA
ATOM     30  H3  UNL     1      13.255  -0.792  -8.974  1.00  0.00     0.210 HD
ENDBRANCH  18  29
BRANCH   9  31
HETATM   31  O1  UNL     1      11.882   9.895 -11.361  1.00  0.00    -0.361 OA
ATOM     32  H1  UNL     1      12.720  10.254 -11.629  1.00  0.00     0.217 HD
ENDBRANCH   9  31
TORSDOF 5
ENDMDL
