MODEL 3
REMARK VINA RESULT: -10.965708845      3.692      5.652
REMARK  5 active torsions:
REMARK  status: ('A' for Active; 'I' for Inactive)
REMARK    1  A    between atoms: C9_9  and  O1_10 
REMARK    2  A    between atoms: C17_19  and  C18_20 
REMARK    3  A    between atoms: C18_20  and  C19_21 
REMARK    4  A    between atoms: C23_25  and  C24_26 
REMARK    5  A    between atoms: C26_30  and  O3_31 
ROOT
HETATM    1  C1  UNL     1      12.897   3.886 -11.084  1.00  0.00     0.018 C 
HETATM    2  C2  UNL     1      11.836   4.037 -10.049  1.00  0.00    -0.014 C 
HETATM    3  C3  UNL     1      10.522   4.400 -10.650  1.00  0.00     0.013 C 
HETATM    4  C4  UNL     1      10.686   5.763 -11.303  1.00  0.00     0.010 C 
HETATM    5  C5  UNL     1      10.974   6.763 -10.237  1.00  0.00     0.023 C 
HETATM    6  C6  UNL     1      11.019   8.153 -10.686  1.00  0.00    -0.047 A 
HETATM    7  C7  UNL     1      10.739   8.520 -11.988  1.00  0.00     0.011 A 
HETATM    8  C8  UNL     1      10.809   9.865 -12.319  1.00  0.00     0.037 A 
HETATM    9  C9  UNL     1      11.149  10.789 -11.355  1.00  0.00     0.066 A 
HETATM   10  C10 UNL     1      11.432  10.423 -10.040  1.00  0.00     0.044 A 
HETATM   11  C11 UNL     1      11.360   9.087  -9.726  1.00  0.00    -0.049 A 
HETATM   12  C12 UNL     1      11.636   8.546  -8.364  1.00  0.00     0.039 C 
HETATM   13  C13 UNL     1      12.639   7.426  -8.500  1.00  0.00     0.010 C 
HETATM   14  C14 UNL     1      12.327   6.449  -9.583  1.00  0.00    -0.001 C 
HETATM   15  C15 UNL     1      12.160   5.106  -9.012  1.00  0.00     0.001 C 
HETATM   16  C16 UNL     1      13.353   4.494  -8.343  1.00  0.00     0.013 C 
HETATM   17  C17 UNL     1      12.773   3.121  -8.038  1.00  0.00     0.020 C 
HETATM   18  C26 UNL     1      11.781   2.818  -9.142  1.00  0.00     0.131 C 
ENDROOT
BRANCH  17  19
HETATM   19  C18 UNL     1      13.822   2.064  -7.880  1.00  0.00     0.045 C 
BRANCH  19  20
HETATM   20  C19 UNL     1      13.541   1.351  -6.595  1.00  0.00    -0.057 A 
HETATM   21  C20 UNL     1      13.076   0.053  -6.645  1.00  0.00     0.007 A 
HETATM   22  C21 UNL     1      12.810  -0.626  -5.477  1.00  0.00     0.002 A 
HETATM   23  C22 UNL     1      13.014   0.006  -4.272  1.00  0.00     0.016 A 
HETATM   24  C23 UNL     1      13.475   1.294  -4.223  1.00  0.00     0.029 A 
HETATM   25  C25 UNL     1      13.740   1.970  -5.374  1.00  0.00     0.023 A 
BRANCH  24  26
HETATM   26  C24 UNL     1      13.699   1.985  -2.936  1.00  0.00     0.265 C 
HETATM   27  N1  UNL     1      13.533   3.412  -2.873  1.00  0.00    -0.057 NA
HETATM   28  O2  UNL     1      14.028   1.341  -1.910  1.00  0.00    -0.271 OA
ENDBRANCH  24  26
ENDBRANCH  19  20
ENDBRANCH  17  19
BRANCH  18  29
HETATM   29  O3  UNL     1      12.031   1.642  -9.799  1.00  0.00    -0.394 OA
ATOM     30  H3  UNL     1      12.032   0.884  -9.226  1.00  0.00     0.210 HD
ENDBRANCH  18  29
BRANCH   9  31
HETATM   31  O1  UNL     1      11.225  12.134 -11.656  1.00  0.00    -0.361 OA
ATOM     32  H1  UNL     1      11.502  12.766 -11.003  1.00  0.00     0.217 HD
ENDBRANCH   9  31
TORSDOF 5
ENDMDL
