MODEL 7
REMARK VINA RESULT: -10.614659473      1.297      1.564
REMARK  5 active torsions:
REMARK  status: ('A' for Active; 'I' for Inactive)
REMARK    1  A    between atoms: C9_9  and  O1_10 
REMARK    2  A    between atoms: C17_19  and  C18_20 
REMARK    3  A    between atoms: C18_20  and  C19_21 
REMARK    4  A    between atoms: C23_25  and  C24_26 
REMARK    5  A    between atoms: C26_30  and  O3_31 
ROOT
HETATM    1  C1  UNL     1      10.128   8.784  -7.939  1.00  0.00     0.018 C 
HETATM    2  C2  UNL     1      11.442   8.908  -8.629  1.00  0.00    -0.014 C 
HETATM    3  C3  UNL     1      11.920  10.319  -8.659  1.00  0.00     0.013 C 
HETATM    4  C4  UNL     1      10.922  11.117  -9.484  1.00  0.00     0.010 C 
HETATM    5  C5  UNL     1      10.957  10.609 -10.883  1.00  0.00     0.023 C 
HETATM    6  C6  UNL     1      10.152  11.368 -11.839  1.00  0.00    -0.047 A 
HETATM    7  C7  UNL     1       9.471  12.517 -11.486  1.00  0.00     0.011 A 
HETATM    8  C8  UNL     1       8.734  13.168 -12.462  1.00  0.00     0.037 A 
HETATM    9  C9  UNL     1       8.699  12.662 -13.744  1.00  0.00     0.066 A 
HETATM   10  C10 UNL     1       9.385  11.503 -14.104  1.00  0.00     0.044 A 
HETATM   11  C11 UNL     1      10.112  10.867 -13.127  1.00  0.00    -0.049 A 
HETATM   12  C12 UNL     1      10.895   9.620 -13.363  1.00  0.00     0.039 C 
HETATM   13  C13 UNL     1      10.497   8.613 -12.310  1.00  0.00     0.010 C 
HETATM   14  C14 UNL     1      10.462   9.156 -10.921  1.00  0.00    -0.001 C 
HETATM   15  C15 UNL     1      11.408   8.421 -10.072  1.00  0.00     0.001 C 
HETATM   16  C16 UNL     1      11.149   6.959  -9.867  1.00  0.00     0.013 C 
HETATM   17  C17 UNL     1      12.254   6.662  -8.864  1.00  0.00     0.020 C 
HETATM   18  C26 UNL     1      12.454   7.929  -8.057  1.00  0.00     0.131 C 
ENDROOT
BRANCH  17  19
HETATM   19  C18 UNL     1      11.970   5.461  -8.017  1.00  0.00     0.045 C 
BRANCH  19  20
HETATM   20  C19 UNL     1      11.927   4.277  -8.930  1.00  0.00    -0.057 A 
HETATM   21  C20 UNL     1      11.148   4.344 -10.066  1.00  0.00     0.007 A 
HETATM   22  C21 UNL     1      11.092   3.268 -10.924  1.00  0.00     0.002 A 
HETATM   23  C22 UNL     1      11.819   2.137 -10.631  1.00  0.00     0.016 A 
HETATM   24  C23 UNL     1      12.591   2.071  -9.503  1.00  0.00     0.029 A 
HETATM   25  C25 UNL     1      12.651   3.131  -8.652  1.00  0.00     0.023 A 
BRANCH  24  26
HETATM   26  C24 UNL     1      13.377   0.863  -9.176  1.00  0.00     0.265 C 
HETATM   27  N1  UNL     1      13.790   0.647  -7.815  1.00  0.00    -0.057 NA
HETATM   28  O2  UNL     1      13.684   0.035 -10.068  1.00  0.00    -0.271 OA
ENDBRANCH  24  26
ENDBRANCH  19  20
ENDBRANCH  17  19
BRANCH  18  29
HETATM   29  O3  UNL     1      12.328   7.745  -6.705  1.00  0.00    -0.394 OA
ATOM     30  H3  UNL     1      12.689   8.460  -6.194  1.00  0.00     0.210 HD
ENDBRANCH  18  29
BRANCH   9  31
HETATM   31  O1  UNL     1       7.974  13.290 -14.736  1.00  0.00    -0.361 OA
ATOM     32  H1  UNL     1       8.145  14.195 -14.967  1.00  0.00     0.217 HD
ENDBRANCH   9  31
TORSDOF 5
ENDMDL
