MODEL 2
REMARK VINA RESULT: -11.126582692      1.669      1.755
REMARK  5 active torsions:
REMARK  status: ('A' for Active; 'I' for Inactive)
REMARK    1  A    between atoms: C9_9  and  O1_10 
REMARK    2  A    between atoms: C17_19  and  C18_20 
REMARK    3  A    between atoms: C18_20  and  C19_21 
REMARK    4  A    between atoms: C23_25  and  C24_26 
REMARK    5  A    between atoms: C26_30  and  O3_31 
ROOT
HETATM    1  C1  UNL     1      10.107   8.730  -7.929  1.00  0.00     0.018 C 
HETATM    2  C2  UNL     1      11.434   8.902  -8.585  1.00  0.00    -0.014 C 
HETATM    3  C3  UNL     1      11.864  10.329  -8.600  1.00  0.00     0.013 C 
HETATM    4  C4  UNL     1      10.860  11.094  -9.447  1.00  0.00     0.010 C 
HETATM    5  C5  UNL     1      10.949  10.593 -10.847  1.00  0.00     0.023 C 
HETATM    6  C6  UNL     1      10.143  11.327 -11.821  1.00  0.00    -0.047 A 
HETATM    7  C7  UNL     1       9.415  12.451 -11.483  1.00  0.00     0.011 A 
HETATM    8  C8  UNL     1       8.681  13.080 -12.477  1.00  0.00     0.037 A 
HETATM    9  C9  UNL     1       8.697  12.577 -13.760  1.00  0.00     0.066 A 
HETATM   10  C10 UNL     1       9.431  11.443 -14.105  1.00  0.00     0.044 A 
HETATM   11  C11 UNL     1      10.153  10.830 -13.111  1.00  0.00    -0.049 A 
HETATM   12  C12 UNL     1      10.984   9.610 -13.329  1.00  0.00     0.039 C 
HETATM   13  C13 UNL     1      10.594   8.587 -12.290  1.00  0.00     0.010 C 
HETATM   14  C14 UNL     1      10.505   9.124 -10.901  1.00  0.00    -0.001 C 
HETATM   15  C15 UNL     1      11.453   8.418 -10.030  1.00  0.00     0.001 C 
HETATM   16  C16 UNL     1      11.239   6.948  -9.835  1.00  0.00     0.013 C 
HETATM   17  C17 UNL     1      12.328   6.686  -8.805  1.00  0.00     0.020 C 
HETATM   18  C26 UNL     1      12.464   7.956  -7.989  1.00  0.00     0.131 C 
ENDROOT
BRANCH  17  19
HETATM   19  C18 UNL     1      12.063   5.473  -7.968  1.00  0.00     0.045 C 
BRANCH  19  20
HETATM   20  C19 UNL     1      12.659   4.303  -8.685  1.00  0.00    -0.057 A 
HETATM   21  C20 UNL     1      13.068   4.466  -9.992  1.00  0.00     0.007 A 
HETATM   22  C21 UNL     1      13.621   3.405 -10.675  1.00  0.00     0.002 A 
HETATM   23  C22 UNL     1      13.757   2.193 -10.037  1.00  0.00     0.016 A 
HETATM   24  C23 UNL     1      13.351   2.033  -8.740  1.00  0.00     0.029 A 
HETATM   25  C25 UNL     1      12.804   3.077  -8.060  1.00  0.00     0.023 A 
BRANCH  24  26
HETATM   26  C24 UNL     1      13.492   0.738  -8.042  1.00  0.00     0.265 C 
HETATM   27  N1  UNL     1      14.032  -0.386  -8.759  1.00  0.00    -0.057 NA
HETATM   28  O2  UNL     1      13.147   0.614  -6.841  1.00  0.00    -0.271 OA
ENDBRANCH  24  26
ENDBRANCH  19  20
ENDBRANCH  17  19
BRANCH  18  29
HETATM   29  O3  UNL     1      12.309   7.764  -6.642  1.00  0.00    -0.394 OA
ATOM     30  H3  UNL     1      13.087   7.975  -6.140  1.00  0.00     0.210 HD
ENDBRANCH  18  29
BRANCH   9  31
HETATM   31  O1  UNL     1       7.976  13.183 -14.769  1.00  0.00    -0.361 OA
ATOM     32  H1  UNL     1       8.356  13.882 -15.288  1.00  0.00     0.217 HD
ENDBRANCH   9  31
TORSDOF 5
ENDMDL
