MODEL 12
REMARK VINA RESULT: -10.029401582      1.384      1.600
REMARK  5 active torsions:
REMARK  status: ('A' for Active; 'I' for Inactive)
REMARK    1  A    between atoms: C9_9  and  O1_10 
REMARK    2  A    between atoms: C17_19  and  C18_20 
REMARK    3  A    between atoms: C18_20  and  C19_21 
REMARK    4  A    between atoms: C23_25  and  C24_26 
REMARK    5  A    between atoms: C26_30  and  O3_31 
ROOT
HETATM    1  C1  UNL     1       9.837   8.473  -8.649  1.00  0.00     0.018 C 
HETATM    2  C2  UNL     1      11.130   9.093  -9.055  1.00  0.00    -0.014 C 
HETATM    3  C3  UNL     1      10.989  10.555  -9.306  1.00  0.00     0.013 C 
HETATM    4  C4  UNL     1      10.040  10.722 -10.482  1.00  0.00     0.010 C 
HETATM    5  C5  UNL     1      10.680  10.128 -11.689  1.00  0.00     0.023 C 
HETATM    6  C6  UNL     1       9.953  10.333 -12.941  1.00  0.00    -0.047 A 
HETATM    7  C7  UNL     1       8.799  11.088 -13.012  1.00  0.00     0.011 A 
HETATM    8  C8  UNL     1       8.180  11.225 -14.245  1.00  0.00     0.037 A 
HETATM    9  C9  UNL     1       8.725  10.614 -15.354  1.00  0.00     0.066 A 
HETATM   10  C10 UNL     1       9.890   9.851 -15.287  1.00  0.00     0.044 A 
HETATM   11  C11 UNL     1      10.492   9.724 -14.059  1.00  0.00    -0.049 A 
HETATM   12  C12 UNL     1      11.741   8.940 -13.832  1.00  0.00     0.039 C 
HETATM   13  C13 UNL     1      11.494   7.989 -12.685  1.00  0.00     0.010 C 
HETATM   14  C14 UNL     1      10.843   8.613 -11.497  1.00  0.00    -0.001 C 
HETATM   15  C15 UNL     1      11.714   8.480 -10.322  1.00  0.00     0.001 C 
HETATM   16  C16 UNL     1      12.015   7.091  -9.848  1.00  0.00     0.013 C 
HETATM   17  C17 UNL     1      12.804   7.436  -8.594  1.00  0.00     0.020 C 
HETATM   18  C26 UNL     1      12.236   8.741  -8.073  1.00  0.00     0.131 C 
ENDROOT
BRANCH  17  19
HETATM   19  C18 UNL     1      12.792   6.340  -7.574  1.00  0.00     0.045 C 
BRANCH  19  20
HETATM   20  C19 UNL     1      13.138   5.071  -8.286  1.00  0.00    -0.057 A 
HETATM   21  C20 UNL     1      14.448   4.858  -8.663  1.00  0.00     0.007 A 
HETATM   22  C21 UNL     1      14.794   3.698  -9.319  1.00  0.00     0.002 A 
HETATM   23  C22 UNL     1      13.820   2.764  -9.589  1.00  0.00     0.016 A 
HETATM   24  C23 UNL     1      12.521   2.975  -9.215  1.00  0.00     0.029 A 
HETATM   25  C25 UNL     1      12.173   4.120  -8.566  1.00  0.00     0.023 A 
BRANCH  24  26
HETATM   26  C24 UNL     1      11.465   1.981  -9.498  1.00  0.00     0.265 C 
HETATM   27  N1  UNL     1      11.754   0.585  -9.312  1.00  0.00    -0.057 NA
HETATM   28  O2  UNL     1      10.331   2.344  -9.896  1.00  0.00    -0.271 OA
ENDBRANCH  24  26
ENDBRANCH  19  20
ENDBRANCH  17  19
BRANCH  18  29
HETATM   29  O3  UNL     1      11.808   8.676  -6.774  1.00  0.00    -0.394 OA
ATOM     30  H3  UNL     1      12.482   8.389  -6.170  1.00  0.00     0.210 HD
ENDBRANCH  18  29
BRANCH   9  31
HETATM   31  O1  UNL     1       8.131  10.734 -16.594  1.00  0.00    -0.361 OA
ATOM     32  H1  UNL     1       8.655  10.778 -17.385  1.00  0.00     0.217 HD
ENDBRANCH   9  31
TORSDOF 5
ENDMDL
