MODEL 11
REMARK VINA RESULT: -10.132116162      1.255      1.587
REMARK  5 active torsions:
REMARK  status: ('A' for Active; 'I' for Inactive)
REMARK    1  A    between atoms: C9_9  and  O1_10 
REMARK    2  A    between atoms: C17_19  and  C18_20 
REMARK    3  A    between atoms: C18_20  and  C19_21 
REMARK    4  A    between atoms: C23_25  and  C24_26 
REMARK    5  A    between atoms: C26_30  and  O3_31 
ROOT
HETATM    1  C1  UNL     1      10.324   8.221  -8.273  1.00  0.00     0.018 C 
HETATM    2  C2  UNL     1      11.662   8.557  -8.834  1.00  0.00    -0.014 C 
HETATM    3  C3  UNL     1      11.913  10.026  -8.828  1.00  0.00     0.013 C 
HETATM    4  C4  UNL     1      10.885  10.663  -9.751  1.00  0.00     0.010 C 
HETATM    5  C5  UNL     1      11.135  10.179 -11.137  1.00  0.00     0.023 C 
HETATM    6  C6  UNL     1      10.316  10.809 -12.171  1.00  0.00    -0.047 A 
HETATM    7  C7  UNL     1       9.432  11.833 -11.893  1.00  0.00     0.011 A 
HETATM    8  C8  UNL     1       8.698  12.368 -12.942  1.00  0.00     0.037 A 
HETATM    9  C9  UNL     1       8.869  11.873 -14.217  1.00  0.00     0.066 A 
HETATM   10  C10 UNL     1       9.760  10.840 -14.501  1.00  0.00     0.044 A 
HETATM   11  C11 UNL     1      10.480  10.319 -13.453  1.00  0.00    -0.049 A 
HETATM   12  C12 UNL     1      11.469   9.213 -13.604  1.00  0.00     0.039 C 
HETATM   13  C13 UNL     1      11.136   8.147 -12.587  1.00  0.00     0.010 C 
HETATM   14  C14 UNL     1      10.881   8.666 -11.212  1.00  0.00    -0.001 C 
HETATM   15  C15 UNL     1      11.845   8.082 -10.271  1.00  0.00     0.001 C 
HETATM   16  C16 UNL     1      11.801   6.596 -10.081  1.00  0.00     0.013 C 
HETATM   17  C17 UNL     1      12.838   6.469  -8.974  1.00  0.00     0.020 C 
HETATM   18  C26 UNL     1      12.756   7.745  -8.160  1.00  0.00     0.131 C 
ENDROOT
BRANCH  17  19
HETATM   19  C18 UNL     1      12.666   5.231  -8.150  1.00  0.00     0.045 C 
BRANCH  19  20
HETATM   20  C19 UNL     1      11.960   4.226  -9.004  1.00  0.00    -0.057 A 
HETATM   21  C20 UNL     1      10.678   4.506  -9.432  1.00  0.00     0.007 A 
HETATM   22  C21 UNL     1      10.006   3.598 -10.220  1.00  0.00     0.002 A 
HETATM   23  C22 UNL     1      10.627   2.421 -10.569  1.00  0.00     0.016 A 
HETATM   24  C23 UNL     1      11.898   2.145 -10.143  1.00  0.00     0.029 A 
HETATM   25  C25 UNL     1      12.568   3.038  -9.365  1.00  0.00     0.023 A 
BRANCH  24  26
HETATM   26  C24 UNL     1      12.578   0.885 -10.510  1.00  0.00     0.265 C 
HETATM   27  N1  UNL     1      13.435   0.867 -11.665  1.00  0.00    -0.057 NA
HETATM   28  O2  UNL     1      12.415  -0.156  -9.828  1.00  0.00    -0.271 OA
ENDBRANCH  24  26
ENDBRANCH  19  20
ENDBRANCH  17  19
BRANCH  18  29
HETATM   29  O3  UNL     1      12.530   7.532  -6.825  1.00  0.00    -0.394 OA
ATOM     30  H3  UNL     1      12.373   6.620  -6.611  1.00  0.00     0.210 HD
ENDBRANCH  18  29
BRANCH   9  31
HETATM   31  O1  UNL     1       8.153  12.387 -15.279  1.00  0.00    -0.361 OA
ATOM     32  H1  UNL     1       7.699  13.218 -15.205  1.00  0.00     0.217 HD
ENDBRANCH   9  31
TORSDOF 5
ENDMDL
