MODEL 13
REMARK VINA RESULT: -9.580638271      4.435      6.020
REMARK  5 active torsions:
REMARK  status: ('A' for Active; 'I' for Inactive)
REMARK    1  A    between atoms: C9_9  and  O1_10 
REMARK    2  A    between atoms: C17_19  and  C18_20 
REMARK    3  A    between atoms: C18_20  and  C19_21 
REMARK    4  A    between atoms: C23_25  and  C24_26 
REMARK    5  A    between atoms: C26_30  and  O3_31 
ROOT
HETATM    1  C1  UNL     1      14.947   5.763  -8.652  1.00  0.00     0.018 C 
HETATM    2  C2  UNL     1      13.603   5.294  -8.212  1.00  0.00    -0.014 C 
HETATM    3  C3  UNL     1      12.762   4.863  -9.364  1.00  0.00     0.013 C 
HETATM    4  C4  UNL     1      12.528   6.087 -10.235  1.00  0.00     0.010 C 
HETATM    5  C5  UNL     1      11.733   7.074  -9.453  1.00  0.00     0.023 C 
HETATM    6  C6  UNL     1      11.301   8.255 -10.200  1.00  0.00    -0.047 A 
HETATM    7  C7  UNL     1      11.546   8.406 -11.551  1.00  0.00     0.011 A 
HETATM    8  C8  UNL     1      11.097   9.561 -12.173  1.00  0.00     0.037 A 
HETATM    9  C9  UNL     1      10.427  10.515 -11.439  1.00  0.00     0.066 A 
HETATM   10  C10 UNL     1      10.177  10.366 -10.076  1.00  0.00     0.044 A 
HETATM   11  C11 UNL     1      10.627   9.217  -9.472  1.00  0.00    -0.049 A 
HETATM   12  C12 UNL     1      10.436   8.919  -8.023  1.00  0.00     0.039 C 
HETATM   13  C13 UNL     1      11.779   8.551  -7.440  1.00  0.00     0.010 C 
HETATM   14  C14 UNL     1      12.554   7.568  -8.252  1.00  0.00    -0.001 C 
HETATM   15  C15 UNL     1      12.814   6.359  -7.461  1.00  0.00     0.001 C 
HETATM   16  C16 UNL     1      13.658   6.516  -6.231  1.00  0.00     0.013 C 
HETATM   17  C17 UNL     1      13.762   5.052  -5.829  1.00  0.00     0.020 C 
HETATM   18  C26 UNL     1      13.723   4.249  -7.114  1.00  0.00     0.131 C 
ENDROOT
BRANCH  17  19
HETATM   19  C18 UNL     1      14.966   4.761  -4.987  1.00  0.00     0.045 C 
BRANCH  19  20
HETATM   20  C19 UNL     1      14.572   3.702  -4.006  1.00  0.00    -0.057 A 
HETATM   21  C20 UNL     1      13.447   3.901  -3.232  1.00  0.00     0.007 A 
HETATM   22  C21 UNL     1      13.062   2.942  -2.322  1.00  0.00     0.002 A 
HETATM   23  C22 UNL     1      13.810   1.793  -2.200  1.00  0.00     0.016 A 
HETATM   24  C23 UNL     1      14.926   1.597  -2.968  1.00  0.00     0.029 A 
HETATM   25  C25 UNL     1      15.311   2.541  -3.870  1.00  0.00     0.023 A 
BRANCH  24  26
HETATM   26  C24 UNL     1      15.738   0.368  -2.848  1.00  0.00     0.265 C 
HETATM   27  N1  UNL     1      15.079  -0.910  -2.885  1.00  0.00    -0.057 NA
HETATM   28  O2  UNL     1      16.985   0.432  -2.716  1.00  0.00    -0.271 OA
ENDBRANCH  24  26
ENDBRANCH  19  20
ENDBRANCH  17  19
BRANCH  18  29
HETATM   29  O3  UNL     1      14.798   3.415  -7.274  1.00  0.00    -0.394 OA
ATOM     30  H3  UNL     1      14.699   2.809  -7.999  1.00  0.00     0.210 HD
ENDBRANCH  18  29
BRANCH   9  31
HETATM   31  O1  UNL     1       9.968  11.674 -12.032  1.00  0.00    -0.361 OA
ATOM     32  H1  UNL     1      10.405  12.505 -11.883  1.00  0.00     0.217 HD
ENDBRANCH   9  31
TORSDOF 5
ENDMDL
