MODEL 10
REMARK VINA RESULT: -10.398042567      3.529      4.992
REMARK  5 active torsions:
REMARK  status: ('A' for Active; 'I' for Inactive)
REMARK    1  A    between atoms: C9_9  and  O1_10 
REMARK    2  A    between atoms: C17_19  and  C18_20 
REMARK    3  A    between atoms: C18_20  and  C19_21 
REMARK    4  A    between atoms: C23_25  and  C24_26 
REMARK    5  A    between atoms: C26_30  and  O3_31 
ROOT
HETATM    1  C1  UNL     1      12.519   4.916 -11.021  1.00  0.00     0.018 C 
HETATM    2  C2  UNL     1      11.682   5.417  -9.895  1.00  0.00    -0.014 C 
HETATM    3  C3  UNL     1      10.239   5.476 -10.261  1.00  0.00     0.013 C 
HETATM    4  C4  UNL     1      10.099   6.487 -11.388  1.00  0.00     0.010 C 
HETATM    5  C5  UNL     1      10.475   7.829 -10.864  1.00  0.00     0.023 C 
HETATM    6  C6  UNL     1      10.259   8.940 -11.789  1.00  0.00    -0.047 A 
HETATM    7  C7  UNL     1       9.676   8.767 -13.030  1.00  0.00     0.011 A 
HETATM    8  C8  UNL     1       9.513   9.882 -13.838  1.00  0.00     0.037 A 
HETATM    9  C9  UNL     1       9.928  11.117 -13.390  1.00  0.00     0.066 A 
HETATM   10  C10 UNL     1      10.517  11.295 -12.139  1.00  0.00     0.044 A 
HETATM   11  C11 UNL     1      10.673  10.183 -11.349  1.00  0.00    -0.049 A 
HETATM   12  C12 UNL     1      11.285  10.218  -9.989  1.00  0.00     0.039 C 
HETATM   13  C13 UNL     1      12.368   9.167  -9.937  1.00  0.00     0.010 C 
HETATM   14  C14 UNL     1      11.962   7.838 -10.479  1.00  0.00    -0.001 C 
HETATM   15  C15 UNL     1      12.079   6.814  -9.432  1.00  0.00     0.001 C 
HETATM   16  C16 UNL     1      13.449   6.548  -8.886  1.00  0.00     0.013 C 
HETATM   17  C17 UNL     1      13.115   5.380  -7.970  1.00  0.00     0.020 C 
HETATM   18  C26 UNL     1      11.962   4.641  -8.619  1.00  0.00     0.131 C 
ENDROOT
BRANCH  17  19
HETATM   19  C18 UNL     1      14.294   4.502  -7.687  1.00  0.00     0.045 C 
BRANCH  19  20
HETATM   20  C19 UNL     1      14.388   4.355  -6.201  1.00  0.00    -0.057 A 
HETATM   21  C20 UNL     1      13.758   5.287  -5.402  1.00  0.00     0.007 A 
HETATM   22  C21 UNL     1      13.828   5.174  -4.031  1.00  0.00     0.002 A 
HETATM   23  C22 UNL     1      14.531   4.128  -3.478  1.00  0.00     0.016 A 
HETATM   24  C23 UNL     1      15.156   3.205  -4.272  1.00  0.00     0.029 A 
HETATM   25  C25 UNL     1      15.089   3.310  -5.627  1.00  0.00     0.023 A 
BRANCH  24  26
HETATM   26  C24 UNL     1      15.912   2.076  -3.692  1.00  0.00     0.265 C 
HETATM   27  N1  UNL     1      17.016   1.523  -4.431  1.00  0.00    -0.057 NA
HETATM   28  O2  UNL     1      15.602   1.602  -2.572  1.00  0.00    -0.271 OA
ENDBRANCH  24  26
ENDBRANCH  19  20
ENDBRANCH  17  19
BRANCH  18  29
HETATM   29  O3  UNL     1      12.213   3.312  -8.836  1.00  0.00    -0.394 OA
ATOM     30  H3  UNL     1      11.864   2.747  -8.157  1.00  0.00     0.210 HD
ENDBRANCH  18  29
BRANCH   9  31
HETATM   31  O1  UNL     1       9.778  12.244 -14.173  1.00  0.00    -0.361 OA
ATOM     32  H1  UNL     1      10.512  12.604 -14.657  1.00  0.00     0.217 HD
ENDBRANCH   9  31
TORSDOF 5
ENDMDL
