MODEL 8
REMARK VINA RESULT: -10.763111190      3.331      4.857
REMARK  5 active torsions:
REMARK  status: ('A' for Active; 'I' for Inactive)
REMARK    1  A    between atoms: C9_9  and  O1_10 
REMARK    2  A    between atoms: C17_19  and  C18_20 
REMARK    3  A    between atoms: C18_20  and  C19_21 
REMARK    4  A    between atoms: C23_25  and  C24_26 
REMARK    5  A    between atoms: C26_30  and  O3_31 
ROOT
HETATM    1  C1  UNL     1      12.642   4.636 -11.068  1.00  0.00     0.018 C 
HETATM    2  C2  UNL     1      11.818   5.115  -9.923  1.00  0.00    -0.014 C 
HETATM    3  C3  UNL     1      10.370   5.179 -10.271  1.00  0.00     0.013 C 
HETATM    4  C4  UNL     1      10.217   6.212 -11.377  1.00  0.00     0.010 C 
HETATM    5  C5  UNL     1      10.598   7.544 -10.832  1.00  0.00     0.023 C 
HETATM    6  C6  UNL     1      10.371   8.672 -11.733  1.00  0.00    -0.047 A 
HETATM    7  C7  UNL     1       9.774   8.522 -12.970  1.00  0.00     0.011 A 
HETATM    8  C8  UNL     1       9.601   9.652 -13.755  1.00  0.00     0.037 A 
HETATM    9  C9  UNL     1      10.021  10.879 -13.288  1.00  0.00     0.066 A 
HETATM   10  C10 UNL     1      10.624  11.034 -12.041  1.00  0.00     0.044 A 
HETATM   11  C11 UNL     1      10.789   9.907 -11.273  1.00  0.00    -0.049 A 
HETATM   12  C12 UNL     1      11.417   9.917  -9.920  1.00  0.00     0.039 C 
HETATM   13  C13 UNL     1      12.501   8.865  -9.900  1.00  0.00     0.010 C 
HETATM   14  C14 UNL     1      12.090   7.547 -10.463  1.00  0.00    -0.001 C 
HETATM   15  C15 UNL     1      12.219   6.503  -9.438  1.00  0.00     0.001 C 
HETATM   16  C16 UNL     1      13.595   6.228  -8.912  1.00  0.00     0.013 C 
HETATM   17  C17 UNL     1      13.272   5.042  -8.015  1.00  0.00     0.020 C 
HETATM   18  C26 UNL     1      12.113   4.315  -8.665  1.00  0.00     0.131 C 
ENDROOT
BRANCH  17  19
HETATM   19  C18 UNL     1      14.455   4.160  -7.762  1.00  0.00     0.045 C 
BRANCH  19  20
HETATM   20  C19 UNL     1      14.643   4.088  -6.280  1.00  0.00    -0.057 A 
HETATM   21  C20 UNL     1      15.520   4.967  -5.679  1.00  0.00     0.007 A 
HETATM   22  C21 UNL     1      15.711   4.923  -4.316  1.00  0.00     0.002 A 
HETATM   23  C22 UNL     1      15.018   3.996  -3.571  1.00  0.00     0.016 A 
HETATM   24  C23 UNL     1      14.148   3.123  -4.168  1.00  0.00     0.029 A 
HETATM   25  C25 UNL     1      13.955   3.163  -5.514  1.00  0.00     0.023 A 
BRANCH  24  26
HETATM   26  C24 UNL     1      13.398   2.123  -3.380  1.00  0.00     0.265 C 
HETATM   27  N1  UNL     1      12.580   1.163  -4.071  1.00  0.00    -0.057 NA
HETATM   28  O2  UNL     1      13.469   2.107  -2.127  1.00  0.00    -0.271 OA
ENDBRANCH  24  26
ENDBRANCH  19  20
ENDBRANCH  17  19
BRANCH  18  29
HETATM   29  O3  UNL     1      12.362   2.990  -8.911  1.00  0.00    -0.394 OA
ATOM     30  H3  UNL     1      13.032   2.850  -9.570  1.00  0.00     0.210 HD
ENDBRANCH  18  29
BRANCH   9  31
HETATM   31  O1  UNL     1       9.861  12.020 -14.048  1.00  0.00    -0.361 OA
ATOM     32  H1  UNL     1       9.819  12.877 -13.639  1.00  0.00     0.217 HD
ENDBRANCH   9  31
TORSDOF 5
ENDMDL
