MODEL 9
REMARK VINA RESULT: -10.617208607      1.243      1.654
REMARK  5 active torsions:
REMARK  status: ('A' for Active; 'I' for Inactive)
REMARK    1  A    between atoms: C9_9  and  O1_10 
REMARK    2  A    between atoms: C17_19  and  C18_20 
REMARK    3  A    between atoms: C18_20  and  C19_21 
REMARK    4  A    between atoms: C23_25  and  C24_26 
REMARK    5  A    between atoms: C26_30  and  O3_31 
ROOT
HETATM    1  C1  UNL     1       9.861   9.023  -8.209  1.00  0.00     0.018 C 
HETATM    2  C2  UNL     1      11.210   9.257  -8.796  1.00  0.00    -0.014 C 
HETATM    3  C3  UNL     1      11.574  10.702  -8.791  1.00  0.00     0.013 C 
HETATM    4  C4  UNL     1      10.581  11.421  -9.690  1.00  0.00     0.010 C 
HETATM    5  C5  UNL     1      10.764  10.925 -11.083  1.00  0.00     0.023 C 
HETATM    6  C6  UNL     1       9.976  11.622 -12.098  1.00  0.00    -0.047 A 
HETATM    7  C7  UNL     1       9.180  12.711 -11.799  1.00  0.00     0.011 A 
HETATM    8  C8  UNL     1       8.469  13.306 -12.830  1.00  0.00     0.037 A 
HETATM    9  C9  UNL     1       8.574  12.805 -14.110  1.00  0.00     0.066 A 
HETATM   10  C10 UNL     1       9.376  11.707 -14.416  1.00  0.00     0.044 A 
HETATM   11  C11 UNL     1      10.075  11.127 -13.385  1.00  0.00    -0.049 A 
HETATM   12  C12 UNL     1      10.971   9.947 -13.559  1.00  0.00     0.039 C 
HETATM   13  C13 UNL     1      10.576   8.906 -12.539  1.00  0.00     0.010 C 
HETATM   14  C14 UNL     1      10.391   9.437 -11.157  1.00  0.00    -0.001 C 
HETATM   15  C15 UNL     1      11.326   8.775 -10.238  1.00  0.00     0.001 C 
HETATM   16  C16 UNL     1      11.170   7.296 -10.051  1.00  0.00     0.013 C 
HETATM   17  C17 UNL     1      12.216   7.084  -8.967  1.00  0.00     0.020 C 
HETATM   18  C26 UNL     1      12.251   8.358  -8.147  1.00  0.00     0.131 C 
ENDROOT
BRANCH  17  19
HETATM   19  C18 UNL     1      11.965   5.859  -8.143  1.00  0.00     0.045 C 
BRANCH  19  20
HETATM   20  C19 UNL     1      11.741   4.726  -9.093  1.00  0.00    -0.057 A 
HETATM   21  C20 UNL     1      10.449   4.426  -9.473  1.00  0.00     0.007 A 
HETATM   22  C21 UNL     1      10.215   3.388 -10.347  1.00  0.00     0.002 A 
HETATM   23  C22 UNL     1      11.280   2.663 -10.830  1.00  0.00     0.016 A 
HETATM   24  C23 UNL     1      12.561   2.962 -10.453  1.00  0.00     0.029 A 
HETATM   25  C25 UNL     1      12.799   3.987  -9.590  1.00  0.00     0.023 A 
BRANCH  24  26
HETATM   26  C24 UNL     1      13.715   2.194 -10.965  1.00  0.00     0.265 C 
HETATM   27  N1  UNL     1      13.482   0.920 -11.591  1.00  0.00    -0.057 NA
HETATM   28  O2  UNL     1      14.883   2.640 -10.857  1.00  0.00    -0.271 OA
ENDBRANCH  24  26
ENDBRANCH  19  20
ENDBRANCH  17  19
BRANCH  18  29
HETATM   29  O3  UNL     1      12.036   8.158  -6.809  1.00  0.00    -0.394 OA
ATOM     30  H3  UNL     1      12.659   7.559  -6.414  1.00  0.00     0.210 HD
ENDBRANCH  18  29
BRANCH   9  31
HETATM   31  O1  UNL     1       7.879  13.378 -15.155  1.00  0.00    -0.361 OA
ATOM     32  H1  UNL     1       7.058  13.007 -15.457  1.00  0.00     0.217 HD
ENDBRANCH   9  31
TORSDOF 5
ENDMDL
