MODEL 1
REMARK VINA RESULT: -12.352081909      0.000      0.000
REMARK  5 active torsions:
REMARK  status: ('A' for Active; 'I' for Inactive)
REMARK    1  A    between atoms: C9_9  and  O1_10 
REMARK    2  A    between atoms: C17_19  and  C18_20 
REMARK    3  A    between atoms: C18_20  and  C19_21 
REMARK    4  A    between atoms: C23_25  and  C24_26 
REMARK    5  A    between atoms: C26_30  and  O3_31 
ROOT
HETATM    1  C1  UNL     1       9.976   8.663  -8.246  1.00  0.00     0.018 C 
HETATM    2  C2  UNL     1      11.315   8.875  -8.862  1.00  0.00    -0.014 C 
HETATM    3  C3  UNL     1      11.733  10.304  -8.803  1.00  0.00     0.013 C 
HETATM    4  C4  UNL     1      10.742  11.098  -9.639  1.00  0.00     0.010 C 
HETATM    5  C5  UNL     1      10.867  10.661 -11.057  1.00  0.00     0.023 C 
HETATM    6  C6  UNL     1      10.078  11.431 -12.017  1.00  0.00    -0.047 A 
HETATM    7  C7  UNL     1       9.331  12.533 -11.646  1.00  0.00     0.011 A 
HETATM    8  C8  UNL     1       8.615  13.200 -12.627  1.00  0.00     0.037 A 
HETATM    9  C9  UNL     1       8.665  12.755 -13.931  1.00  0.00     0.066 A 
HETATM   10  C10 UNL     1       9.418  11.644 -14.309  1.00  0.00     0.044 A 
HETATM   11  C11 UNL     1      10.122  10.992 -13.326  1.00  0.00    -0.049 A 
HETATM   12  C12 UNL     1      10.969   9.791 -13.580  1.00  0.00     0.039 C 
HETATM   13  C13 UNL     1      10.565   8.719 -12.596  1.00  0.00     0.010 C 
HETATM   14  C14 UNL     1      10.438   9.192 -11.187  1.00  0.00    -0.001 C 
HETATM   15  C15 UNL     1      11.373   8.456 -10.326  1.00  0.00     0.001 C 
HETATM   16  C16 UNL     1      11.168   6.977 -10.202  1.00  0.00     0.013 C 
HETATM   17  C17 UNL     1      12.235   6.678  -9.159  1.00  0.00     0.020 C 
HETATM   18  C26 UNL     1      12.340   7.911  -8.285  1.00  0.00     0.131 C 
ENDROOT
BRANCH  17  19
HETATM   19  C18 UNL     1      11.962   5.426  -8.384  1.00  0.00     0.045 C 
BRANCH  19  20
HETATM   20  C19 UNL     1      12.343   4.273  -9.258  1.00  0.00    -0.057 A 
HETATM   21  C20 UNL     1      13.677   4.079  -9.553  1.00  0.00     0.007 A 
HETATM   22  C21 UNL     1      14.055   3.025 -10.354  1.00  0.00     0.002 A 
HETATM   23  C22 UNL     1      13.091   2.177 -10.850  1.00  0.00     0.016 A 
HETATM   24  C23 UNL     1      11.768   2.371 -10.556  1.00  0.00     0.029 A 
HETATM   25  C25 UNL     1      11.388   3.411  -9.765  1.00  0.00     0.023 A 
BRANCH  24  26
HETATM   26  C24 UNL     1      10.721   1.470 -11.081  1.00  0.00     0.265 C 
HETATM   27  N1  UNL     1      10.027   0.602 -10.167  1.00  0.00    -0.057 NA
HETATM   28  O2  UNL     1      10.437   1.457 -12.303  1.00  0.00    -0.271 OA
ENDBRANCH  24  26
ENDBRANCH  19  20
ENDBRANCH  17  19
BRANCH  18  29
HETATM   29  O3  UNL     1      12.156   7.657  -6.952  1.00  0.00    -0.394 OA
ATOM     30  H3  UNL     1      11.750   6.815  -6.782  1.00  0.00     0.210 HD
ENDBRANCH  18  29
BRANCH   9  31
HETATM   31  O1  UNL     1       7.963  13.400 -14.929  1.00  0.00    -0.361 OA
ATOM     32  H1  UNL     1       7.753  12.957 -15.743  1.00  0.00     0.217 HD
ENDBRANCH   9  31
TORSDOF 5
ENDMDL
