MODEL 2
REMARK VINA RESULT: -5.886484592      0.052      1.119
REMARK  2 active torsions:
REMARK  status: ('A' for Active; 'I' for Inactive)
REMARK    1  A    between atoms: C4_5  and  C5_6 
REMARK    2  A    between atoms: C6_10  and  C7_11 
ROOT
HETATM    1  C5  UNL     1      -1.856   7.414  33.970  1.00  0.00     0.137 A 
HETATM    2  N1  UNL     1      -1.028   6.740  34.785  1.00  0.00    -0.242 N 
ATOM      3  H1  UNL     1      -0.976   5.726  34.882  1.00  0.00     0.196 HD
HETATM    4  O1  UNL     1      -0.301   7.615  35.433  1.00  0.00    -0.222 OA
HETATM    5  C6  UNL     1      -0.610   8.823  35.083  1.00  0.00     0.154 A 
HETATM    6  N3  UNL     1      -1.584   8.706  34.166  1.00  0.00    -0.322 N 
ATOM      7  H3  UNL     1      -2.044   9.484  33.693  1.00  0.00     0.169 HD
ENDROOT
BRANCH   5   8
HETATM    8  C7  UNL     1      -0.058  10.116  35.545  1.00  0.00     0.089 C 
HETATM    9  C8  UNL     1       0.503  10.033  36.936  1.00  0.00     0.016 C 
HETATM   10  C9  UNL     1      -0.204  10.877  37.942  1.00  0.00     0.028 C 
HETATM   11  C10 UNL     1      -0.630  12.216  37.483  1.00  0.00     0.232 C 
HETATM   12  N2  UNL     1      -0.454  12.386  36.060  1.00  0.00    -0.074 N 
HETATM   13  C11 UNL     1      -1.118  11.222  35.447  1.00  0.00     0.245 C 
ATOM     14  H22 UNL     1      -0.786  13.283  35.708  1.00  0.00     0.277 HD
ATOM     15  H21 UNL     1       0.519  12.502  35.776  1.00  0.00     0.277 HD
ENDBRANCH   5   8
BRANCH   1  16
HETATM   16  C4  UNL     1      -2.855   6.913  33.048  1.00  0.00     0.010 A 
HETATM   17  C3  UNL     1      -2.892   7.321  31.736  1.00  0.00     0.017 A 
HETATM   18  C2  UNL     1      -3.856   6.838  30.844  1.00  0.00     0.025 A 
HETATM   19  C1  UNL     1      -4.785   5.937  31.293  1.00  0.00     0.034 A 
HETATM   20 CL1  UNL     1      -5.980   5.355  30.140  1.00  0.00    -0.084 Cl
HETATM   21  C13 UNL     1      -4.758   5.522  32.606  1.00  0.00     0.025 A 
HETATM   22  C12 UNL     1      -3.792   6.008  33.488  1.00  0.00     0.017 A 
ENDBRANCH   1  16
TORSDOF 2
ENDMDL
