MODEL 1
REMARK VINA RESULT: -5.901254472      0.000      0.000
REMARK  2 active torsions:
REMARK  status: ('A' for Active; 'I' for Inactive)
REMARK    1  A    between atoms: C4_5  and  C5_6 
REMARK    2  A    between atoms: C6_10  and  C7_11 
ROOT
HETATM    1  C5  UNL     1      -1.849   7.423  33.964  1.00  0.00     0.137 A 
HETATM    2  N1  UNL     1      -1.037   6.746  34.793  1.00  0.00    -0.242 N 
ATOM      3  H1  UNL     1      -0.993   5.732  34.894  1.00  0.00     0.196 HD
HETATM    4  O1  UNL     1      -0.313   7.618  35.449  1.00  0.00    -0.222 OA
HETATM    5  C6  UNL     1      -0.609   8.827  35.092  1.00  0.00     0.154 A 
HETATM    6  N3  UNL     1      -1.570   8.714  34.161  1.00  0.00    -0.322 N 
ATOM      7  H3  UNL     1      -2.018   9.493  33.679  1.00  0.00     0.169 HD
ENDROOT
BRANCH   5   8
HETATM    8  C7  UNL     1      -0.054  10.118  35.557  1.00  0.00     0.089 C 
HETATM    9  C8  UNL     1       0.501  10.031  36.950  1.00  0.00     0.016 C 
HETATM   10  C9  UNL     1      -0.208  10.875  37.954  1.00  0.00     0.028 C 
HETATM   11  C10 UNL     1      -0.627  12.216  37.496  1.00  0.00     0.232 C 
HETATM   12  N2  UNL     1      -0.445  12.387  36.074  1.00  0.00    -0.074 N 
HETATM   13  C11 UNL     1      -1.111  11.227  35.457  1.00  0.00     0.245 C 
ATOM     14  H22 UNL     1      -0.774  13.287  35.722  1.00  0.00     0.277 HD
ATOM     15  H21 UNL     1       0.529  12.501  35.794  1.00  0.00     0.277 HD
ENDBRANCH   5   8
BRANCH   1  16
HETATM   16  C4  UNL     1      -2.838   6.927  33.030  1.00  0.00     0.010 A 
HETATM   17  C3  UNL     1      -3.808   6.033  33.416  1.00  0.00     0.017 A 
HETATM   18  C2  UNL     1      -4.765   5.553  32.515  1.00  0.00     0.025 A 
HETATM   19  C1  UNL     1      -4.732   5.987  31.217  1.00  0.00     0.034 A 
HETATM   20 CL1  UNL     1      -5.953   5.360  30.116  1.00  0.00    -0.084 Cl
HETATM   21  C13 UNL     1      -3.765   6.883  30.818  1.00  0.00     0.025 A 
HETATM   22  C12 UNL     1      -2.815   7.356  31.724  1.00  0.00     0.017 A 
ENDBRANCH   1  16
TORSDOF 2
ENDMDL
