MODEL 3
REMARK VINA RESULT: -5.789717674      1.608      2.068
REMARK  2 active torsions:
REMARK  status: ('A' for Active; 'I' for Inactive)
REMARK    1  A    between atoms: C4_5  and  C5_6 
REMARK    2  A    between atoms: C6_10  and  C7_11 
ROOT
HETATM    1  C5  UNL     1      -2.463   8.383  32.590  1.00  0.00     0.137 A 
HETATM    2  N1  UNL     1      -2.457   9.724  32.542  1.00  0.00    -0.242 N 
ATOM      3  H1  UNL     1      -3.007  10.304  31.907  1.00  0.00     0.196 HD
HETATM    4  O1  UNL     1      -1.621  10.157  33.451  1.00  0.00    -0.222 OA
HETATM    5  C6  UNL     1      -1.081   9.168  34.090  1.00  0.00     0.154 A 
HETATM    6  N3  UNL     1      -1.604   8.052  33.557  1.00  0.00    -0.322 N 
ATOM      7  H3  UNL     1      -1.380   7.100  33.846  1.00  0.00     0.169 HD
ENDROOT
BRANCH   5   8
HETATM    8  C7  UNL     1      -0.091   9.175  35.191  1.00  0.00     0.089 C 
HETATM    9  C8  UNL     1      -0.135   7.914  36.006  1.00  0.00     0.016 C 
HETATM   10  C9  UNL     1      -0.540   8.108  37.427  1.00  0.00     0.028 C 
HETATM   11  C10 UNL     1       0.002   9.307  38.100  1.00  0.00     0.232 C 
HETATM   12  N2  UNL     1       0.676  10.191  37.178  1.00  0.00    -0.074 N 
HETATM   13  C11 UNL     1      -0.283  10.410  36.083  1.00  0.00     0.245 C 
ATOM     14  H22 UNL     1       1.016  11.052  37.607  1.00  0.00     0.277 HD
ATOM     15  H21 UNL     1       1.585   9.847  36.869  1.00  0.00     0.277 HD
ENDBRANCH   5   8
BRANCH   1  16
HETATM   16  C4  UNL     1      -3.213   7.432  31.795  1.00  0.00     0.010 A 
HETATM   17  C3  UNL     1      -4.211   6.663  32.344  1.00  0.00     0.017 A 
HETATM   18  C2  UNL     1      -4.937   5.745  31.578  1.00  0.00     0.025 A 
HETATM   19  C1  UNL     1      -4.643   5.612  30.247  1.00  0.00     0.034 A 
HETATM   20 CL1  UNL     1      -5.579   4.447  29.318  1.00  0.00    -0.084 Cl
HETATM   21  C13 UNL     1      -3.646   6.377  29.685  1.00  0.00     0.025 A 
HETATM   22  C12 UNL     1      -2.927   7.291  30.457  1.00  0.00     0.017 A 
ENDBRANCH   1  16
TORSDOF 2
ENDMDL
