MODEL 1
REMARK VINA RESULT: -7.973509901      0.000      0.000
REMARK  6 active torsions:
REMARK  status: ('A' for Active; 'I' for Inactive)
REMARK    1  A    between atoms: C1_2  and  C2_3 
REMARK       I    between atoms: C1_2  and  N1_14 
REMARK    2  A    between atoms: C5_7  and  O2_8 
REMARK    3  A    between atoms: C7_11  and  O3_12 
REMARK    4  A    between atoms: C11_18  and  C12_19 
REMARK    5  A    between atoms: C15_22  and  C16_23 
REMARK    6  A    between atoms: C16_23  and  N2_24 
ROOT
HETATM    1  O1  UNL     1      11.949  -1.170  51.645  1.00  0.00    -0.267 OA
HETATM    2  C1  UNL     1      13.107  -1.209  52.207  1.00  0.00     0.257 C 
HETATM    3  N1  UNL     1      13.070  -0.949  53.586  1.00  0.00    -0.339 N 
HETATM    4  C8  UNL     1      14.168  -0.891  54.484  1.00  0.00     0.127 C 
HETATM    5  C9  UNL     1      13.654  -0.195  55.736  1.00  0.00     0.022 C 
HETATM    6  C10 UNL     1      12.281   0.314  55.364  1.00  0.00     0.032 C 
HETATM    7  C11 UNL     1      11.868  -0.701  54.368  1.00  0.00     0.120 C 
ENDROOT
BRANCH   7   8
HETATM    8  C12 UNL     1      11.145  -1.864  54.845  1.00  0.00    -0.035 A 
HETATM    9  C13 UNL     1       9.917  -1.683  55.500  1.00  0.00     0.010 A 
HETATM   10  C14 UNL     1       9.163  -2.729  55.986  1.00  0.00     0.009 A 
HETATM   11  C15 UNL     1       9.584  -4.034  55.851  1.00  0.00    -0.030 A 
HETATM   12  C21 UNL     1      10.789  -4.231  55.208  1.00  0.00     0.009 A 
HETATM   13  C22 UNL     1      11.555  -3.167  54.715  1.00  0.00     0.010 A 
BRANCH  11  14
HETATM   14  C16 UNL     1       8.808  -5.206  56.356  1.00  0.00     0.311 C 
BRANCH  14  15
HETATM   15  N2  UNL     1       9.543  -6.054  57.233  1.00  0.00     0.098 N 
HETATM   16  C17 UNL     1       8.782  -6.234  58.458  1.00  0.00     0.279 C 
HETATM   17  C18 UNL     1       7.758  -7.272  58.088  1.00  0.00     0.111 C 
HETATM   18  C19 UNL     1       8.545  -8.216  57.232  1.00  0.00     0.271 C 
HETATM   19  F1  UNL     1       7.789  -8.846  56.274  1.00  0.00    -0.204 F 
HETATM   20  F2  UNL     1       9.173  -9.192  58.008  1.00  0.00    -0.204 F 
HETATM   21  C20 UNL     1       9.642  -7.368  56.629  1.00  0.00     0.351 C 
ENDBRANCH  14  15
ENDBRANCH  11  14
ENDBRANCH   7   8
BRANCH   2  22
HETATM   22  C2  UNL     1      14.218  -1.503  51.368  1.00  0.00     0.067 A 
HETATM   23  C3  UNL     1      15.012  -2.626  51.400  1.00  0.00     0.046 A 
HETATM   24  C4  UNL     1      16.073  -2.848  50.514  1.00  0.00     0.068 A 
HETATM   25 CL1  UNL     1      17.024  -4.307  50.637  1.00  0.00    -0.081 Cl
HETATM   26  C5  UNL     1      16.388  -1.939  49.546  1.00  0.00     0.090 A 
HETATM   27  C6  UNL     1      15.620  -0.807  49.481  1.00  0.00     0.075 A 
HETATM   28  C7  UNL     1      14.587  -0.592  50.343  1.00  0.00     0.084 A 
BRANCH  26  29
HETATM   29  O2  UNL     1      17.454  -2.154  48.651  1.00  0.00    -0.359 OA
ATOM     30  H2  UNL     1      17.360  -1.999  47.719  1.00  0.00     0.217 HD
ENDBRANCH  26  29
BRANCH  28  31
HETATM   31  O3  UNL     1      13.802   0.575  50.271  1.00  0.00    -0.360 OA
ATOM     32  H3  UNL     1      14.153   1.262  49.717  1.00  0.00     0.217 HD
ENDBRANCH  28  31
ENDBRANCH   2  22
TORSDOF 6
ENDMDL
