MODEL 3
REMARK VINA RESULT: -7.759476790      4.614      7.903
REMARK  6 active torsions:
REMARK  status: ('A' for Active; 'I' for Inactive)
REMARK    1  A    between atoms: C1_2  and  C2_3 
REMARK       I    between atoms: C1_2  and  N1_14 
REMARK    2  A    between atoms: C5_7  and  O2_8 
REMARK    3  A    between atoms: C7_11  and  O3_12 
REMARK    4  A    between atoms: C11_18  and  C12_19 
REMARK    5  A    between atoms: C15_22  and  C16_23 
REMARK    6  A    between atoms: C16_23  and  N2_24 
ROOT
HETATM    1  O1  UNL     1      14.033  -0.835  54.294  1.00  0.00    -0.267 OA
HETATM    2  C1  UNL     1      12.997  -1.019  53.552  1.00  0.00     0.257 C 
HETATM    3  N1  UNL     1      13.292  -1.074  52.181  1.00  0.00    -0.339 N 
HETATM    4  C8  UNL     1      12.380  -1.237  51.106  1.00  0.00     0.127 C 
HETATM    5  C9  UNL     1      13.132  -0.831  49.847  1.00  0.00     0.022 C 
HETATM    6  C10 UNL     1      14.427  -0.229  50.342  1.00  0.00     0.032 C 
HETATM    7  C11 UNL     1      14.623  -0.988  51.598  1.00  0.00     0.120 C 
ENDROOT
BRANCH   7   8
HETATM    8  C12 UNL     1      15.391  -2.216  51.535  1.00  0.00    -0.035 A 
HETATM    9  C13 UNL     1      14.910  -3.356  52.197  1.00  0.00     0.010 A 
HETATM   10  C14 UNL     1      15.574  -4.565  52.191  1.00  0.00     0.009 A 
HETATM   11  C15 UNL     1      16.768  -4.719  51.520  1.00  0.00    -0.030 A 
HETATM   12  C21 UNL     1      17.255  -3.608  50.862  1.00  0.00     0.009 A 
HETATM   13  C22 UNL     1      16.580  -2.380  50.870  1.00  0.00     0.010 A 
BRANCH  11  14
HETATM   14  C16 UNL     1      17.528  -6.004  51.479  1.00  0.00     0.311 C 
BRANCH  14  15
HETATM   15  N2  UNL     1      16.969  -7.034  52.287  1.00  0.00     0.098 N 
HETATM   16  C17 UNL     1      16.863  -8.247  51.494  1.00  0.00     0.279 C 
HETATM   17  C18 UNL     1      18.261  -8.802  51.508  1.00  0.00     0.111 C 
HETATM   18  C19 UNL     1      18.699  -8.545  52.917  1.00  0.00     0.271 C 
HETATM   19  F1  UNL     1      20.052  -8.345  53.041  1.00  0.00    -0.204 F 
HETATM   20  F2  UNL     1      18.331  -9.597  53.757  1.00  0.00    -0.204 F 
HETATM   21  C20 UNL     1      17.901  -7.338  53.357  1.00  0.00     0.351 C 
ENDBRANCH  14  15
ENDBRANCH  11  14
ENDBRANCH   7   8
BRANCH   2  22
HETATM   22  C2  UNL     1      11.744  -1.135  54.215  1.00  0.00     0.067 A 
HETATM   23  C3  UNL     1      11.123  -2.291  54.628  1.00  0.00     0.046 A 
HETATM   24  C4  UNL     1       9.896  -2.312  55.303  1.00  0.00     0.068 A 
HETATM   25 CL1  UNL     1       9.189  -3.835  55.783  1.00  0.00    -0.081 Cl
HETATM   26  C5  UNL     1       9.231  -1.158  55.597  1.00  0.00     0.090 A 
HETATM   27  C6  UNL     1       9.817   0.016  55.203  1.00  0.00     0.075 A 
HETATM   28  C7  UNL     1      11.011   0.035  54.547  1.00  0.00     0.084 A 
BRANCH  26  29
HETATM   29  O2  UNL     1       7.997  -1.170  56.274  1.00  0.00    -0.359 OA
ATOM     30  H2  UNL     1       7.262  -1.684  55.960  1.00  0.00     0.217 HD
ENDBRANCH  26  29
BRANCH  28  31
HETATM   31  O3  UNL     1      11.607   1.247  54.144  1.00  0.00    -0.360 OA
ATOM     32  H3  UNL     1      11.039   1.833  53.659  1.00  0.00     0.217 HD
ENDBRANCH  28  31
ENDBRANCH   2  22
TORSDOF 6
ENDMDL
