MODEL 2
REMARK VINA RESULT: -7.820383333      1.113      1.508
REMARK  6 active torsions:
REMARK  status: ('A' for Active; 'I' for Inactive)
REMARK    1  A    between atoms: C1_2  and  C2_3 
REMARK       I    between atoms: C1_2  and  N1_14 
REMARK    2  A    between atoms: C5_7  and  O2_8 
REMARK    3  A    between atoms: C7_11  and  O3_12 
REMARK    4  A    between atoms: C11_18  and  C12_19 
REMARK    5  A    between atoms: C15_22  and  C16_23 
REMARK    6  A    between atoms: C16_23  and  N2_24 
ROOT
HETATM    1  O1  UNL     1      11.877  -1.052  51.717  1.00  0.00    -0.267 OA
HETATM    2  C1  UNL     1      13.050  -1.114  52.245  1.00  0.00     0.257 C 
HETATM    3  N1  UNL     1      13.050  -0.909  53.634  1.00  0.00    -0.339 N 
HETATM    4  C8  UNL     1      14.171  -0.886  54.504  1.00  0.00     0.127 C 
HETATM    5  C9  UNL     1      13.692  -0.241  55.795  1.00  0.00     0.022 C 
HETATM    6  C10 UNL     1      12.310   0.283  55.481  1.00  0.00     0.032 C 
HETATM    7  C11 UNL     1      11.870  -0.692  54.458  1.00  0.00     0.120 C 
ENDROOT
BRANCH   7   8
HETATM    8  C12 UNL     1      11.158  -1.872  54.907  1.00  0.00    -0.035 A 
HETATM    9  C13 UNL     1       9.926  -1.718  55.560  1.00  0.00     0.010 A 
HETATM   10  C14 UNL     1       9.182  -2.783  56.021  1.00  0.00     0.009 A 
HETATM   11  C15 UNL     1       9.619  -4.080  55.861  1.00  0.00    -0.030 A 
HETATM   12  C21 UNL     1      10.828  -4.250  55.220  1.00  0.00     0.009 A 
HETATM   13  C22 UNL     1      11.584  -3.167  54.752  1.00  0.00     0.010 A 
BRANCH  11  14
HETATM   14  C16 UNL     1       8.854  -5.271  56.339  1.00  0.00     0.311 C 
BRANCH  14  15
HETATM   15  N2  UNL     1       9.580  -6.105  57.235  1.00  0.00     0.098 N 
HETATM   16  C17 UNL     1       8.807  -6.269  58.454  1.00  0.00     0.279 C 
HETATM   17  C18 UNL     1       7.788  -7.313  58.089  1.00  0.00     0.111 C 
HETATM   18  C19 UNL     1       8.585  -8.269  57.255  1.00  0.00     0.271 C 
HETATM   19  F1  UNL     1       7.839  -8.913  56.298  1.00  0.00    -0.204 F 
HETATM   20  F2  UNL     1       9.206  -9.232  58.051  1.00  0.00    -0.204 F 
HETATM   21  C20 UNL     1       9.687  -7.428  56.651  1.00  0.00     0.351 C 
ENDBRANCH  14  15
ENDBRANCH  11  14
ENDBRANCH   7   8
BRANCH   2  22
HETATM   22  C2  UNL     1      14.137  -1.374  51.366  1.00  0.00     0.067 A 
HETATM   23  C3  UNL     1      14.828  -0.463  50.602  1.00  0.00     0.046 A 
HETATM   24  C4  UNL     1      15.910  -0.804  49.781  1.00  0.00     0.068 A 
HETATM   25 CL1  UNL     1      16.721   0.429  48.848  1.00  0.00    -0.081 Cl
HETATM   26  C5  UNL     1      16.351  -2.092  49.691  1.00  0.00     0.090 A 
HETATM   27  C6  UNL     1      15.689  -3.030  50.437  1.00  0.00     0.075 A 
HETATM   28  C7  UNL     1      14.637  -2.698  51.236  1.00  0.00     0.084 A 
BRANCH  26  29
HETATM   29  O2  UNL     1      17.437  -2.443  48.867  1.00  0.00    -0.359 OA
ATOM     30  H2  UNL     1      17.407  -2.322  47.925  1.00  0.00     0.217 HD
ENDBRANCH  26  29
BRANCH  28  31
HETATM   31  O3  UNL     1      13.960  -3.669  52.000  1.00  0.00    -0.360 OA
ATOM     32  H3  UNL     1      13.213  -4.069  51.571  1.00  0.00     0.217 HD
ENDBRANCH  28  31
ENDBRANCH   2  22
TORSDOF 6
ENDMDL
