MODEL 3
REMARK VINA RESULT: -12.593235161      1.254      1.907
REMARK  10 active torsions:
REMARK  status: ('A' for Active; 'I' for Inactive)
REMARK    1  A    between atoms: C2_5  and  O1_6 
REMARK    2  A    between atoms: O1_6  and  C3_7 
REMARK    3  A    between atoms: C3_7  and  C4_8 
REMARK    4  A    between atoms: C3_7  and  C16_21 
REMARK    5  A    between atoms: C7_11  and  C8_12 
REMARK    6  A    between atoms: C18_26  and  C19_27 
REMARK    7  A    between atoms: C22_30  and  C23_31 
REMARK    8  A    between atoms: C23_31  and  C24_32 
REMARK    9  A    between atoms: C24_32  and  N3_33 
REMARK   10  A    between atoms: C24_32  and  C25_37 
ROOT
HETATM    1  N1  UNL     1       4.707  -2.436  23.403  1.00  0.00    -0.063 NA
HETATM    2  C1  UNL     1       4.996  -1.948  22.105  1.00  0.00     0.194 A 
HETATM    3  N2  UNL     1       4.342  -2.479  21.061  1.00  0.00    -0.311 N 
ATOM      4  H2  UNL     1       3.658  -3.216  21.236  1.00  0.00     0.170 HD
HETATM    5  C2  UNL     1       4.549  -2.082  19.793  1.00  0.00     0.147 A 
HETATM    6  C17 UNL     1       5.486  -1.069  19.548  1.00  0.00     0.086 A 
HETATM    7  C18 UNL     1       6.153  -0.525  20.615  1.00  0.00     0.049 A 
HETATM    8  N4  UNL     1       5.882  -0.986  21.852  1.00  0.00    -0.330 N 
ATOM      9  H4  UNL     1       6.385  -0.575  22.640  1.00  0.00     0.168 HD
ENDROOT
BRANCH   5  10
HETATM   10  O1  UNL     1       3.872  -2.632  18.712  1.00  0.00    -0.316 OA
BRANCH  10  11
HETATM   11  C3  UNL     1       4.424  -2.524  17.398  1.00  0.00     0.271 C 
BRANCH  11  12
HETATM   12  C4  UNL     1       4.461  -1.105  16.941  1.00  0.00    -0.020 A 
HETATM   13  C5  UNL     1       3.426  -0.230  17.224  1.00  0.00     0.011 A 
HETATM   14  C6  UNL     1       3.460   1.078  16.803  1.00  0.00     0.013 A 
HETATM   15  C7  UNL     1       4.525   1.583  16.080  1.00  0.00    -0.026 A 
HETATM   16  C14 UNL     1       5.563   0.724  15.792  1.00  0.00     0.013 A 
HETATM   17  C15 UNL     1       5.526  -0.606  16.221  1.00  0.00     0.011 A 
BRANCH  15  18
HETATM   18  C8  UNL     1       4.504   2.983  15.660  1.00  0.00    -0.023 A 
HETATM   19  C9  UNL     1       4.678   3.319  14.333  1.00  0.00     0.012 A 
HETATM   20  C10 UNL     1       4.654   4.663  13.955  1.00  0.00     0.004 A 
HETATM   21  C11 UNL     1       4.460   5.670  14.873  1.00  0.00     0.042 A 
HETATM   22  C12 UNL     1       4.286   5.339  16.199  1.00  0.00     0.117 A 
HETATM   23  F1  UNL     1       4.097   6.346  17.087  1.00  0.00    -0.206 F 
HETATM   24  C13 UNL     1       4.311   4.006  16.560  1.00  0.00     0.054 A 
ENDBRANCH  15  18
ENDBRANCH  11  12
BRANCH  11  25
HETATM   25  C16 UNL     1       3.549  -3.358  16.488  1.00  0.00     0.418 C 
HETATM   26  F2  UNL     1       4.074  -3.459  15.219  1.00  0.00    -0.168 F 
HETATM   27  F3  UNL     1       2.318  -2.728  16.436  1.00  0.00    -0.168 F 
HETATM   28  F4  UNL     1       3.376  -4.582  17.085  1.00  0.00    -0.168 F 
ENDBRANCH  11  25
ENDBRANCH  10  11
ENDBRANCH   5  10
BRANCH   7  29
HETATM   29  C19 UNL     1       7.132   0.527  20.378  1.00  0.00    -0.009 A 
HETATM   30  C20 UNL     1       7.518   0.782  19.065  1.00  0.00     0.014 A 
HETATM   31  C21 UNL     1       8.432   1.749  18.742  1.00  0.00     0.008 A 
HETATM   32  C22 UNL     1       9.008   2.517  19.756  1.00  0.00    -0.056 A 
HETATM   33  C26 UNL     1       8.647   2.286  21.047  1.00  0.00     0.008 A 
HETATM   34  C27 UNL     1       7.715   1.296  21.333  1.00  0.00     0.014 A 
BRANCH  32  35
HETATM   35  C23 UNL     1      10.005   3.565  19.400  1.00  0.00     0.082 C 
BRANCH  35  36
HETATM   36  C24 UNL     1      11.389   3.189  19.822  1.00  0.00     0.287 C 
BRANCH  36  37
HETATM   37  N3  UNL     1      11.700   3.964  21.013  1.00  0.00    -0.065 N 
ATOM     38  H33 UNL     1      12.392   4.694  20.845  1.00  0.00     0.275 HD
ATOM     39  H32 UNL     1      10.934   4.573  21.304  1.00  0.00     0.275 HD
ATOM     40  H31 UNL     1      11.982   3.303  21.736  1.00  0.00     0.275 HD
ENDBRANCH  36  37
BRANCH  36  41
HETATM   41  C25 UNL     1      12.413   3.444  18.800  1.00  0.00     0.204 C 
HETATM   42  O2  UNL     1      13.621   3.532  19.149  1.00  0.00    -0.646 OA
HETATM   43  O3  UNL     1      12.125   3.596  17.447  1.00  0.00    -0.646 OA
ENDBRANCH  36  41
ENDBRANCH  35  36
ENDBRANCH  32  35
ENDBRANCH   7  29
TORSDOF 10
ENDMDL
