MODEL 1
REMARK VINA RESULT: -13.073653436      0.000      0.000
REMARK  10 active torsions:
REMARK  status: ('A' for Active; 'I' for Inactive)
REMARK    1  A    between atoms: C2_5  and  O1_6 
REMARK    2  A    between atoms: O1_6  and  C3_7 
REMARK    3  A    between atoms: C3_7  and  C4_8 
REMARK    4  A    between atoms: C3_7  and  C16_21 
REMARK    5  A    between atoms: C7_11  and  C8_12 
REMARK    6  A    between atoms: C18_26  and  C19_27 
REMARK    7  A    between atoms: C22_30  and  C23_31 
REMARK    8  A    between atoms: C23_31  and  C24_32 
REMARK    9  A    between atoms: C24_32  and  N3_33 
REMARK   10  A    between atoms: C24_32  and  C25_37 
ROOT
HETATM    1  N1  UNL     1       4.666   0.155  22.139  1.00  0.00    -0.063 NA
HETATM    2  C1  UNL     1       5.465  -0.128  21.005  1.00  0.00     0.194 A 
HETATM    3  N2  UNL     1       5.152  -1.192  20.250  1.00  0.00    -0.311 N 
ATOM      4  H2  UNL     1       4.349  -1.760  20.517  1.00  0.00     0.170 HD
HETATM    5  C2  UNL     1       5.852  -1.539  19.156  1.00  0.00     0.147 A 
HETATM    6  C17 UNL     1       6.956  -0.759  18.785  1.00  0.00     0.086 A 
HETATM    7  C18 UNL     1       7.274   0.329  19.555  1.00  0.00     0.049 A 
HETATM    8  N4  UNL     1       6.517   0.602  20.636  1.00  0.00    -0.330 N 
ATOM      9  H4  UNL     1       6.763   1.414  21.203  1.00  0.00     0.168 HD
ENDROOT
BRANCH   5  10
HETATM   10  O1  UNL     1       5.528  -2.641  18.374  1.00  0.00    -0.316 OA
BRANCH  10  11
HETATM   11  C3  UNL     1       4.805  -2.460  17.154  1.00  0.00     0.271 C 
BRANCH  11  12
HETATM   12  C4  UNL     1       4.693  -1.017  16.801  1.00  0.00    -0.020 A 
HETATM   13  C5  UNL     1       5.642  -0.393  16.009  1.00  0.00     0.011 A 
HETATM   14  C6  UNL     1       5.539   0.939  15.683  1.00  0.00     0.013 A 
HETATM   15  C7  UNL     1       4.486   1.718  16.127  1.00  0.00    -0.026 A 
HETATM   16  C14 UNL     1       3.533   1.111  16.915  1.00  0.00     0.013 A 
HETATM   17  C15 UNL     1       3.640  -0.244  17.245  1.00  0.00     0.011 A 
BRANCH  15  18
HETATM   18  C8  UNL     1       4.432   3.128  15.748  1.00  0.00    -0.023 A 
HETATM   19  C9  UNL     1       4.481   3.499  14.420  1.00  0.00     0.012 A 
HETATM   20  C10 UNL     1       4.428   4.854  14.082  1.00  0.00     0.004 A 
HETATM   21  C11 UNL     1       4.326   5.835  15.041  1.00  0.00     0.042 A 
HETATM   22  C12 UNL     1       4.278   5.470  16.368  1.00  0.00     0.117 A 
HETATM   23  F1  UNL     1       4.178   6.452  17.296  1.00  0.00    -0.206 F 
HETATM   24  C13 UNL     1       4.330   4.128  16.689  1.00  0.00     0.054 A 
ENDBRANCH  15  18
ENDBRANCH  11  12
BRANCH  11  25
HETATM   25  C16 UNL     1       3.437  -3.070  17.364  1.00  0.00     0.418 C 
HETATM   26  F2  UNL     1       2.958  -2.838  18.634  1.00  0.00    -0.168 F 
HETATM   27  F3  UNL     1       3.574  -4.432  17.158  1.00  0.00    -0.168 F 
HETATM   28  F4  UNL     1       2.607  -2.573  16.390  1.00  0.00    -0.168 F 
ENDBRANCH  11  25
ENDBRANCH  10  11
ENDBRANCH   5  10
BRANCH   7  29
HETATM   29  C19 UNL     1       8.419   1.150  19.185  1.00  0.00    -0.009 A 
HETATM   30  C20 UNL     1       8.445   1.704  17.908  1.00  0.00     0.014 A 
HETATM   31  C21 UNL     1       9.478   2.488  17.468  1.00  0.00     0.008 A 
HETATM   32  C22 UNL     1      10.553   2.750  18.318  1.00  0.00    -0.056 A 
HETATM   33  C26 UNL     1      10.551   2.219  19.570  1.00  0.00     0.008 A 
HETATM   34  C27 UNL     1       9.483   1.429  19.980  1.00  0.00     0.014 A 
BRANCH  32  35
HETATM   35  C23 UNL     1      11.677   3.600  17.833  1.00  0.00     0.082 C 
BRANCH  35  36
HETATM   36  C24 UNL     1      12.435   4.223  18.961  1.00  0.00     0.287 C 
BRANCH  36  37
HETATM   37  N3  UNL     1      11.769   5.475  19.284  1.00  0.00    -0.065 N 
ATOM     38  H33 UNL     1      11.595   6.058  18.465  1.00  0.00     0.275 HD
ATOM     39  H32 UNL     1      10.796   5.350  19.565  1.00  0.00     0.275 HD
ATOM     40  H31 UNL     1      12.334   5.941  19.994  1.00  0.00     0.275 HD
ENDBRANCH  36  37
BRANCH  36  41
HETATM   41  C25 UNL     1      13.846   4.492  18.652  1.00  0.00     0.204 C 
HETATM   42  O2  UNL     1      14.174   4.753  17.462  1.00  0.00    -0.646 OA
HETATM   43  O3  UNL     1      14.857   4.477  19.606  1.00  0.00    -0.646 OA
ENDBRANCH  36  41
ENDBRANCH  35  36
ENDBRANCH  32  35
ENDBRANCH   7  29
TORSDOF 10
ENDMDL
