MODEL 2
REMARK VINA RESULT: -12.904199536      1.206      1.623
REMARK  10 active torsions:
REMARK  status: ('A' for Active; 'I' for Inactive)
REMARK    1  A    between atoms: C2_5  and  O1_6 
REMARK    2  A    between atoms: O1_6  and  C3_7 
REMARK    3  A    between atoms: C3_7  and  C4_8 
REMARK    4  A    between atoms: C3_7  and  C16_21 
REMARK    5  A    between atoms: C7_11  and  C8_12 
REMARK    6  A    between atoms: C18_26  and  C19_27 
REMARK    7  A    between atoms: C22_30  and  C23_31 
REMARK    8  A    between atoms: C23_31  and  C24_32 
REMARK    9  A    between atoms: C24_32  and  N3_33 
REMARK   10  A    between atoms: C24_32  and  C25_37 
ROOT
HETATM    1  N1  UNL     1       3.690  -0.073  22.713  1.00  0.00    -0.063 NA
HETATM    2  C1  UNL     1       4.491  -0.354  21.579  1.00  0.00     0.194 A 
HETATM    3  N2  UNL     1       4.068  -1.286  20.711  1.00  0.00    -0.311 N 
ATOM      4  H2  UNL     1       3.184  -1.760  20.896  1.00  0.00     0.170 HD
HETATM    5  C2  UNL     1       4.760  -1.620  19.609  1.00  0.00     0.147 A 
HETATM    6  C17 UNL     1       5.975  -0.970  19.350  1.00  0.00     0.086 A 
HETATM    7  C18 UNL     1       6.406  -0.017  20.236  1.00  0.00     0.049 A 
HETATM    8  N4  UNL     1       5.647   0.254  21.317  1.00  0.00    -0.330 N 
ATOM      9  H4  UNL     1       5.977   0.964  21.970  1.00  0.00     0.168 HD
ENDROOT
BRANCH   5  10
HETATM   10  O1  UNL     1       4.323  -2.586  18.710  1.00  0.00    -0.316 OA
BRANCH  10  11
HETATM   11  C3  UNL     1       4.602  -2.439  17.316  1.00  0.00     0.271 C 
BRANCH  11  12
HETATM   12  C4  UNL     1       4.551  -1.008  16.901  1.00  0.00    -0.020 A 
HETATM   13  C5  UNL     1       5.559  -0.441  16.139  1.00  0.00     0.011 A 
HETATM   14  C6  UNL     1       5.512   0.878  15.757  1.00  0.00     0.013 A 
HETATM   15  C7  UNL     1       4.461   1.702  16.113  1.00  0.00    -0.026 A 
HETATM   16  C14 UNL     1       3.449   1.153  16.871  1.00  0.00     0.013 A 
HETATM   17  C15 UNL     1       3.500  -0.189  17.258  1.00  0.00     0.011 A 
BRANCH  15  18
HETATM   18  C8  UNL     1       4.467   3.098  15.678  1.00  0.00    -0.023 A 
HETATM   19  C9  UNL     1       4.672   3.417  14.352  1.00  0.00     0.012 A 
HETATM   20  C10 UNL     1       4.675   4.758  13.959  1.00  0.00     0.004 A 
HETATM   21  C11 UNL     1       4.477   5.776  14.863  1.00  0.00     0.042 A 
HETATM   22  C12 UNL     1       4.273   5.463  16.189  1.00  0.00     0.117 A 
HETATM   23  F1  UNL     1       4.081   6.481  17.062  1.00  0.00    -0.206 F 
HETATM   24  C13 UNL     1       4.272   4.133  16.564  1.00  0.00     0.054 A 
ENDBRANCH  15  18
ENDBRANCH  11  12
BRANCH  11  25
HETATM   25  C16 UNL     1       3.563  -3.250  16.575  1.00  0.00     0.418 C 
HETATM   26  F2  UNL     1       2.309  -2.690  16.669  1.00  0.00    -0.168 F 
HETATM   27  F3  UNL     1       3.558  -4.508  17.151  1.00  0.00    -0.168 F 
HETATM   28  F4  UNL     1       3.986  -3.378  15.275  1.00  0.00    -0.168 F 
ENDBRANCH  11  25
ENDBRANCH  10  11
ENDBRANCH   5  10
BRANCH   7  29
HETATM   29  C19 UNL     1       7.666   0.668  19.984  1.00  0.00    -0.009 A 
HETATM   30  C20 UNL     1       8.154   1.528  20.965  1.00  0.00     0.014 A 
HETATM   31  C21 UNL     1       9.328   2.217  20.820  1.00  0.00     0.008 A 
HETATM   32  C22 UNL     1      10.076   2.062  19.651  1.00  0.00    -0.056 A 
HETATM   33  C26 UNL     1       9.620   1.228  18.679  1.00  0.00     0.008 A 
HETATM   34  C27 UNL     1       8.424   0.546  18.865  1.00  0.00     0.014 A 
BRANCH  32  35
HETATM   35  C23 UNL     1      11.352   2.817  19.496  1.00  0.00     0.082 C 
BRANCH  35  36
HETATM   36  C24 UNL     1      11.514   3.866  20.549  1.00  0.00     0.287 C 
BRANCH  36  37
HETATM   37  N3  UNL     1      11.532   5.153  19.872  1.00  0.00    -0.065 N 
ATOM     38  H33 UNL     1      12.414   5.653  19.987  1.00  0.00     0.275 HD
ATOM     39  H32 UNL     1      11.560   5.069  18.855  1.00  0.00     0.275 HD
ATOM     40  H31 UNL     1      10.726   5.680  20.208  1.00  0.00     0.275 HD
ENDBRANCH  36  37
BRANCH  36  41
HETATM   41  C25 UNL     1      12.738   3.723  21.347  1.00  0.00     0.204 C 
HETATM   42  O2  UNL     1      12.648   3.652  22.603  1.00  0.00    -0.646 OA
HETATM   43  O3  UNL     1      14.013   3.659  20.794  1.00  0.00    -0.646 OA
ENDBRANCH  36  41
ENDBRANCH  35  36
ENDBRANCH  32  35
ENDBRANCH   7  29
TORSDOF 10
ENDMDL
