MODEL 10
REMARK VINA RESULT: -10.579504891      1.119      3.169
REMARK  9 active torsions:
REMARK  status: ('A' for Active; 'I' for Inactive)
REMARK    1  A    between atoms: C7_7  and  C8_8 
REMARK    2  A    between atoms: C13_13  and  C14_14 
REMARK    3  A    between atoms: C14_14  and  N1_15 
REMARK    4  A    between atoms: N1_15  and  C15_17 
REMARK    5  A    between atoms: C17_21  and  C18_22 
REMARK    6  A    between atoms: C21_25  and  C22_26 
REMARK    7  A    between atoms: C22_26  and  C23_27 
REMARK    8  A    between atoms: C23_27  and  N3_28 
REMARK    9  A    between atoms: C23_27  and  C24_32 
ROOT
HETATM    1  C15 UNL     1       6.379   0.070  20.245  1.00  0.00     0.120 A 
HETATM    2  C16 UNL     1       7.366  -0.351  21.136  1.00  0.00     0.137 A 
HETATM    3  N2  UNL     1       8.612   0.143  20.948  1.00  0.00    -0.361 N 
ATOM      4  H2  UNL     1       9.328  -0.169  21.604  1.00  0.00     0.165 HD
HETATM    5  C17 UNL     1       8.998   0.976  20.019  1.00  0.00     0.058 A 
HETATM    6  C27 UNL     1       7.977   1.394  19.096  1.00  0.00     0.120 A 
HETATM    7  N4  UNL     1       6.779   0.902  19.298  1.00  0.00    -0.349 N 
ATOM      8  H4  UNL     1       6.061   1.199  18.637  1.00  0.00     0.167 HD
ENDROOT
BRANCH   1   9
HETATM    9  N1  UNL     1       5.082  -0.349  20.299  1.00  0.00    -0.350 N 
ATOM     10  H1  UNL     1       4.672  -0.122  21.205  1.00  0.00     0.166 HD
BRANCH   9  11
HETATM   11  C14 UNL     1       4.148  -0.993  19.489  1.00  0.00     0.102 C 
BRANCH  11  12
HETATM   12  C13 UNL     1       4.260  -0.442  18.109  1.00  0.00    -0.010 A 
HETATM   13  C8  UNL     1       4.946  -1.278  17.162  1.00  0.00    -0.014 A 
HETATM   14  C9  UNL     1       5.130  -0.773  15.912  1.00  0.00     0.013 A 
HETATM   15  C10 UNL     1       4.692   0.479  15.563  1.00  0.00     0.001 A 
HETATM   16  C11 UNL     1       4.049   1.260  16.479  1.00  0.00     0.001 A 
HETATM   17  C12 UNL     1       3.825   0.803  17.769  1.00  0.00     0.013 A 
BRANCH  13  18
HETATM   18  C7  UNL     1       5.364  -2.540  17.606  1.00  0.00    -0.019 A 
HETATM   19  C2  UNL     1       4.568  -3.667  17.510  1.00  0.00    -0.051 A 
HETATM   20  C1  UNL     1       3.169  -3.379  17.010  1.00  0.00     0.049 C 
HETATM   21  C3  UNL     1       4.930  -4.926  17.887  1.00  0.00     0.007 A 
HETATM   22  C4  UNL     1       6.223  -5.160  18.439  1.00  0.00     0.001 A 
HETATM   23  C5  UNL     1       7.022  -4.055  18.543  1.00  0.00     0.001 A 
HETATM   24  C6  UNL     1       6.633  -2.798  18.157  1.00  0.00     0.013 A 
ENDBRANCH  13  18
ENDBRANCH  11  12
ENDBRANCH   9  11
ENDBRANCH   1   9
BRANCH   5  25
HETATM   25  C18 UNL     1      10.322   1.548  19.825  1.00  0.00    -0.008 A 
HETATM   26  C19 UNL     1      10.573   2.055  18.553  1.00  0.00     0.014 A 
HETATM   27  C20 UNL     1      11.769   2.615  18.218  1.00  0.00     0.008 A 
HETATM   28  C21 UNL     1      12.797   2.702  19.145  1.00  0.00    -0.056 A 
HETATM   29  C25 UNL     1      12.572   2.208  20.388  1.00  0.00     0.008 A 
HETATM   30  C26 UNL     1      11.319   1.621  20.757  1.00  0.00     0.014 A 
BRANCH  28  31
HETATM   31  C22 UNL     1      13.987   3.375  18.670  1.00  0.00     0.082 C 
BRANCH  31  32
HETATM   32  C23 UNL     1      14.002   4.872  18.571  1.00  0.00     0.287 C 
BRANCH  32  33
HETATM   33  N3  UNL     1      13.662   5.143  17.156  1.00  0.00    -0.065 N 
ATOM     34  H33 UNL     1      13.036   4.456  16.736  1.00  0.00     0.275 HD
ATOM     35  H32 UNL     1      13.050   5.948  17.020  1.00  0.00     0.275 HD
ATOM     36  H31 UNL     1      14.568   5.224  16.693  1.00  0.00     0.275 HD
ENDBRANCH  32  33
BRANCH  32  37
HETATM   37  C24 UNL     1      15.430   5.344  18.682  1.00  0.00     0.204 C 
HETATM   38  O1  UNL     1      15.949   5.382  19.808  1.00  0.00    -0.646 OA
HETATM   39  O2  UNL     1      16.135   5.723  17.553  1.00  0.00    -0.646 OA
ENDBRANCH  32  37
ENDBRANCH  31  32
ENDBRANCH  28  31
ENDBRANCH   5  25
TORSDOF 9
ENDMDL
