MODEL 5
REMARK VINA RESULT: -11.175870068      1.333      3.414
REMARK  9 active torsions:
REMARK  status: ('A' for Active; 'I' for Inactive)
REMARK    1  A    between atoms: C7_7  and  C8_8 
REMARK    2  A    between atoms: C13_13  and  C14_14 
REMARK    3  A    between atoms: C14_14  and  N1_15 
REMARK    4  A    between atoms: N1_15  and  C15_17 
REMARK    5  A    between atoms: C17_21  and  C18_22 
REMARK    6  A    between atoms: C21_25  and  C22_26 
REMARK    7  A    between atoms: C22_26  and  C23_27 
REMARK    8  A    between atoms: C23_27  and  N3_28 
REMARK    9  A    between atoms: C23_27  and  C24_32 
ROOT
HETATM    1  C15 UNL     1       7.580  -0.696  17.794  1.00  0.00     0.120 A 
HETATM    2  C16 UNL     1       8.190  -1.099  18.981  1.00  0.00     0.137 A 
HETATM    3  N2  UNL     1       9.236  -0.356  19.414  1.00  0.00    -0.361 N 
ATOM      4  H2  UNL     1       9.677  -0.656  20.284  1.00  0.00     0.165 HD
HETATM    5  C17 UNL     1       9.743   0.703  18.842  1.00  0.00     0.058 A 
HETATM    6  C27 UNL     1       9.116   1.102  17.610  1.00  0.00     0.120 A 
HETATM    7  N4  UNL     1       8.106   0.368  17.211  1.00  0.00    -0.349 N 
ATOM      8  H4  UNL     1       7.669   0.655  16.335  1.00  0.00     0.167 HD
ENDROOT
BRANCH   1   9
HETATM    9  N1  UNL     1       6.525  -1.348  17.226  1.00  0.00    -0.350 N 
ATOM     10  H1  UNL     1       6.148  -2.044  17.870  1.00  0.00     0.166 HD
BRANCH   9  11
HETATM   11  C14 UNL     1       5.807  -1.350  16.031  1.00  0.00     0.102 C 
BRANCH  11  12
HETATM   12  C13 UNL     1       4.673  -0.393  16.161  1.00  0.00    -0.010 A 
HETATM   13  C8  UNL     1       3.530  -0.880  16.884  1.00  0.00    -0.014 A 
HETATM   14  C9  UNL     1       2.449  -0.057  16.958  1.00  0.00     0.013 A 
HETATM   15  C10 UNL     1       2.435   1.180  16.367  1.00  0.00     0.001 A 
HETATM   16  C11 UNL     1       3.528   1.621  15.677  1.00  0.00     0.001 A 
HETATM   17  C12 UNL     1       4.665   0.834  15.569  1.00  0.00     0.013 A 
BRANCH  13  18
HETATM   18  C7  UNL     1       3.628  -2.158  17.452  1.00  0.00    -0.019 A 
HETATM   19  C2  UNL     1       3.789  -2.361  18.810  1.00  0.00    -0.051 A 
HETATM   20  C1  UNL     1       3.984  -1.082  19.595  1.00  0.00     0.049 C 
HETATM   21  C3  UNL     1       3.852  -3.576  19.427  1.00  0.00     0.007 A 
HETATM   22  C4  UNL     1       3.756  -4.771  18.657  1.00  0.00     0.001 A 
HETATM   23  C5  UNL     1       3.598  -4.587  17.311  1.00  0.00     0.001 A 
HETATM   24  C6  UNL     1       3.539  -3.354  16.715  1.00  0.00     0.013 A 
ENDBRANCH  13  18
ENDBRANCH  11  12
ENDBRANCH   9  11
ENDBRANCH   1   9
BRANCH   5  25
HETATM   25  C18 UNL     1      10.839   1.536  19.312  1.00  0.00    -0.008 A 
HETATM   26  C19 UNL     1      11.849   1.772  18.385  1.00  0.00     0.014 A 
HETATM   27  C20 UNL     1      12.945   2.527  18.681  1.00  0.00     0.008 A 
HETATM   28  C21 UNL     1      13.097   3.096  19.936  1.00  0.00    -0.056 A 
HETATM   29  C25 UNL     1      12.124   2.871  20.855  1.00  0.00     0.008 A 
HETATM   30  C26 UNL     1      10.965   2.085  20.557  1.00  0.00     0.014 A 
BRANCH  28  31
HETATM   31  C22 UNL     1      14.275   3.922  20.090  1.00  0.00     0.082 C 
BRANCH  31  32
HETATM   32  C23 UNL     1      15.304   3.956  18.999  1.00  0.00     0.287 C 
BRANCH  32  33
HETATM   33  N3  UNL     1      16.594   3.835  19.713  1.00  0.00    -0.065 N 
ATOM     34  H33 UNL     1      16.717   4.507  20.471  1.00  0.00     0.275 HD
ATOM     35  H32 UNL     1      16.675   2.999  20.292  1.00  0.00     0.275 HD
ATOM     36  H31 UNL     1      17.295   3.903  18.975  1.00  0.00     0.275 HD
ENDBRANCH  32  33
BRANCH  32  37
HETATM   37  C24 UNL     1      15.350   5.352  18.430  1.00  0.00     0.204 C 
HETATM   38  O1  UNL     1      16.075   6.189  18.987  1.00  0.00    -0.646 OA
HETATM   39  O2  UNL     1      14.599   5.682  17.315  1.00  0.00    -0.646 OA
ENDBRANCH  32  37
ENDBRANCH  31  32
ENDBRANCH  28  31
ENDBRANCH   5  25
TORSDOF 9
ENDMDL
