MODEL 6
REMARK VINA RESULT: -10.816266662      1.595      3.394
REMARK  9 active torsions:
REMARK  status: ('A' for Active; 'I' for Inactive)
REMARK    1  A    between atoms: C7_7  and  C8_8 
REMARK    2  A    between atoms: C13_13  and  C14_14 
REMARK    3  A    between atoms: C14_14  and  N1_15 
REMARK    4  A    between atoms: N1_15  and  C15_17 
REMARK    5  A    between atoms: C17_21  and  C18_22 
REMARK    6  A    between atoms: C21_25  and  C22_26 
REMARK    7  A    between atoms: C22_26  and  C23_27 
REMARK    8  A    between atoms: C23_27  and  N3_28 
REMARK    9  A    between atoms: C23_27  and  C24_32 
ROOT
HETATM    1  C15 UNL     1       5.900   0.053  19.896  1.00  0.00     0.120 A 
HETATM    2  C16 UNL     1       6.552  -0.538  20.977  1.00  0.00     0.137 A 
HETATM    3  N2  UNL     1       7.837  -0.171  21.193  1.00  0.00    -0.361 N 
ATOM      4  H2  UNL     1       8.307  -0.607  21.987  1.00  0.00     0.165 HD
HETATM    5  C17 UNL     1       8.542   0.680  20.496  1.00  0.00     0.058 A 
HETATM    6  C27 UNL     1       7.866   1.274  19.374  1.00  0.00     0.120 A 
HETATM    7  N4  UNL     1       6.623   0.903  19.186  1.00  0.00    -0.349 N 
ATOM      8  H4  UNL     1       6.151   1.325  18.386  1.00  0.00     0.167 HD
ENDROOT
BRANCH   1   9
HETATM    9  N1  UNL     1       4.611  -0.223  19.546  1.00  0.00    -0.350 N 
ATOM     10  H1  UNL     1       3.991  -0.109  20.349  1.00  0.00     0.166 HD
BRANCH   9  11
HETATM   11  C14 UNL     1       3.885  -0.615  18.422  1.00  0.00     0.102 C 
BRANCH  11  12
HETATM   12  C13 UNL     1       4.662  -0.246  17.206  1.00  0.00    -0.010 A 
HETATM   13  C8  UNL     1       5.355  -1.328  16.561  1.00  0.00    -0.014 A 
HETATM   14  C9  UNL     1       6.133  -1.012  15.490  1.00  0.00     0.013 A 
HETATM   15  C10 UNL     1       6.264   0.277  15.043  1.00  0.00     0.001 A 
HETATM   16  C11 UNL     1       5.603   1.292  15.673  1.00  0.00     0.001 A 
HETATM   17  C12 UNL     1       4.789   1.037  16.768  1.00  0.00     0.013 A 
BRANCH  13  18
HETATM   18  C7  UNL     1       5.169  -2.613  17.089  1.00  0.00    -0.019 A 
HETATM   19  C2  UNL     1       6.087  -3.215  17.930  1.00  0.00    -0.051 A 
HETATM   20  C1  UNL     1       7.358  -2.414  18.111  1.00  0.00     0.049 C 
HETATM   21  C3  UNL     1       5.948  -4.443  18.506  1.00  0.00     0.007 A 
HETATM   22  C4  UNL     1       4.781  -5.220  18.250  1.00  0.00     0.001 A 
HETATM   23  C5  UNL     1       3.863  -4.639  17.418  1.00  0.00     0.001 A 
HETATM   24  C6  UNL     1       4.028  -3.403  16.852  1.00  0.00     0.013 A 
ENDBRANCH  13  18
ENDBRANCH  11  12
ENDBRANCH   9  11
ENDBRANCH   1   9
BRANCH   5  25
HETATM   25  C18 UNL     1       9.910   1.116  20.736  1.00  0.00    -0.008 A 
HETATM   26  C19 UNL     1      10.399   2.064  19.842  1.00  0.00     0.014 A 
HETATM   27  C20 UNL     1      11.664   2.562  19.933  1.00  0.00     0.008 A 
HETATM   28  C21 UNL     1      12.524   2.136  20.933  1.00  0.00    -0.056 A 
HETATM   29  C25 UNL     1      12.066   1.208  21.810  1.00  0.00     0.008 A 
HETATM   30  C26 UNL     1      10.739   0.679  21.731  1.00  0.00     0.014 A 
BRANCH  28  31
HETATM   31  C22 UNL     1      13.813   2.795  20.946  1.00  0.00     0.082 C 
BRANCH  31  32
HETATM   32  C23 UNL     1      14.736   2.640  19.774  1.00  0.00     0.287 C 
BRANCH  32  33
HETATM   33  N3  UNL     1      16.053   2.354  20.386  1.00  0.00    -0.065 N 
ATOM     34  H33 UNL     1      16.292   2.962  21.169  1.00  0.00     0.275 HD
ATOM     35  H32 UNL     1      16.090   1.479  20.909  1.00  0.00     0.275 HD
ATOM     36  H31 UNL     1      16.707   2.402  19.604  1.00  0.00     0.275 HD
ENDBRANCH  32  33
BRANCH  32  37
HETATM   37  C24 UNL     1      14.934   3.993  19.139  1.00  0.00     0.204 C 
HETATM   38  O1  UNL     1      14.422   4.201  18.029  1.00  0.00    -0.646 OA
HETATM   39  O2  UNL     1      15.669   4.972  19.785  1.00  0.00    -0.646 OA
ENDBRANCH  32  37
ENDBRANCH  31  32
ENDBRANCH  28  31
ENDBRANCH   5  25
TORSDOF 9
ENDMDL
