MODEL 13
REMARK VINA RESULT: -9.058479893      2.791      5.112
REMARK  10 active torsions:
REMARK  status: ('A' for Active; 'I' for Inactive)
REMARK    1  A    between atoms: N5_13  and  C6_14 
REMARK    2  A    between atoms: C7_16  and  C8_17 
REMARK    3  A    between atoms: C8_17  and  O2_18 
REMARK    4  A    between atoms: O2_18  and  P1_19 
REMARK    5  A    between atoms: P1_19  and  O5_22 
REMARK    6  A    between atoms: O5_22  and  P2_23 
REMARK    7  A    between atoms: P2_23  and  O8_26 
REMARK    8  A    between atoms: O8_26  and  P3_27 
REMARK    9  A    between atoms: C9_31  and  O12_32 
REMARK   10  A    between atoms: C10_34  and  O13_35 
ROOT
HETATM    1  C6  UNL     1      33.353   2.846  11.266  1.00  0.00     0.159 C 
HETATM    2  O1  UNL     1      32.963   1.543  11.617  1.00  0.00    -0.326 OA
HETATM    3  C7  UNL     1      34.130   0.943  11.857  1.00  0.00     0.186 C 
HETATM    4  C9  UNL     1      35.314   1.918  11.832  1.00  0.00     0.186 C 
HETATM    5  C10 UNL     1      34.460   3.164  12.206  1.00  0.00     0.224 C 
ENDROOT
BRANCH   3   6
HETATM    6  C8  UNL     1      34.420   0.008  12.959  1.00  0.00     0.216 C 
BRANCH   6   7
HETATM    7  O2  UNL     1      34.467  -1.313  12.447  1.00  0.00    -0.287 OA
BRANCH   7   8
HETATM    8  P1  UNL     1      36.040  -1.830  12.997  1.00  0.00     0.417 P 
HETATM    9  O3  UNL     1      37.061  -1.056  12.334  1.00  0.00    -0.624 OA
HETATM   10  O4  UNL     1      35.930  -1.384  14.714  1.00  0.00    -0.624 OA
BRANCH   8  11
HETATM   11  O5  UNL     1      36.192  -3.494  12.997  1.00  0.00    -0.180 OA
BRANCH  11  12
HETATM   12  P2  UNL     1      35.076  -4.134  11.828  1.00  0.00     0.428 P 
HETATM   13  O6  UNL     1      35.528  -5.537  11.553  1.00  0.00    -0.624 OA
HETATM   14  O7  UNL     1      34.984  -3.210  10.449  1.00  0.00    -0.624 OA
BRANCH  12  15
HETATM   15  O8  UNL     1      33.557  -4.205  12.616  1.00  0.00    -0.173 OA
BRANCH  15  16
HETATM   16  P3  UNL     1      32.363  -4.572  11.497  1.00  0.00     0.431 P 
HETATM   17  O9  UNL     1      31.922  -3.390  10.706  1.00  0.00    -0.616 OA
HETATM   18  O10 UNL     1      33.004  -5.735  10.436  1.00  0.00    -0.616 OA
HETATM   19  O11 UNL     1      31.052  -5.221  12.357  1.00  0.00    -0.616 OA
ENDBRANCH  15  16
ENDBRANCH  12  15
ENDBRANCH  11  12
ENDBRANCH   8  11
ENDBRANCH   7   8
ENDBRANCH   6   7
ENDBRANCH   3   6
BRANCH   4  20
HETATM   20  O12 UNL     1      35.772   2.010  10.557  1.00  0.00    -0.390 OA
ATOM     21  H12 UNL     1      36.423   2.700  10.518  1.00  0.00     0.210 HD
ENDBRANCH   4  20
BRANCH   1  22
HETATM   22  N5  UNL     1      32.374   3.770  10.965  1.00  0.00    -0.273 N 
HETATM   23  C3  UNL     1      31.191   3.913  11.585  1.00  0.00     0.146 A 
HETATM   24  N3  UNL     1      30.595   3.136  12.476  1.00  0.00    -0.336 N 
HETATM   25  C4  UNL     1      30.569   5.047  11.178  1.00  0.00     0.120 A 
HETATM   26  C2  UNL     1      29.392   3.486  12.962  1.00  0.00     0.183 A 
ATOM     27  H3  UNL     1      31.046   2.278  12.792  1.00  0.00     0.168 HD
HETATM   28  N2  UNL     1      28.764   4.613  12.581  1.00  0.00    -0.339 N 
HETATM   29  C1  UNL     1      29.346   5.407  11.683  1.00  0.00     0.148 A 
ATOM     30  H2  UNL     1      27.854   4.856  12.973  1.00  0.00     0.167 HD
HETATM   31  N1  UNL     1      28.751   6.655  11.396  1.00  0.00    -0.080 NA
HETATM   32  N4  UNL     1      31.387   5.611  10.268  1.00  0.00    -0.346 N 
HETATM   33  C5  UNL     1      32.476   4.829  10.140  1.00  0.00     0.192 A 
ATOM     34  H4  UNL     1      31.212   6.479   9.763  1.00  0.00     0.167 HD
ENDBRANCH   1  22
BRANCH   5  35
HETATM   35  O13 UNL     1      35.303   4.205  11.839  1.00  0.00    -0.385 OA
ATOM     36  H13 UNL     1      35.024   4.735  11.101  1.00  0.00     0.210 HD
ENDBRANCH   5  35
TORSDOF 10
ENDMDL
