MODEL 5
REMARK VINA RESULT: -9.402632467      2.611      4.696
REMARK  10 active torsions:
REMARK  status: ('A' for Active; 'I' for Inactive)
REMARK    1  A    between atoms: N5_13  and  C6_14 
REMARK    2  A    between atoms: C7_16  and  C8_17 
REMARK    3  A    between atoms: C8_17  and  O2_18 
REMARK    4  A    between atoms: O2_18  and  P1_19 
REMARK    5  A    between atoms: P1_19  and  O5_22 
REMARK    6  A    between atoms: O5_22  and  P2_23 
REMARK    7  A    between atoms: P2_23  and  O8_26 
REMARK    8  A    between atoms: O8_26  and  P3_27 
REMARK    9  A    between atoms: C9_31  and  O12_32 
REMARK   10  A    between atoms: C10_34  and  O13_35 
ROOT
HETATM    1  C6  UNL     1      31.957   3.362  11.778  1.00  0.00     0.159 C 
HETATM    2  O1  UNL     1      31.590   2.387  12.722  1.00  0.00    -0.326 OA
HETATM    3  C7  UNL     1      32.650   1.579  12.735  1.00  0.00     0.186 C 
HETATM    4  C9  UNL     1      33.822   2.124  11.907  1.00  0.00     0.186 C 
HETATM    5  C10 UNL     1      33.397   3.614  12.052  1.00  0.00     0.224 C 
ENDROOT
BRANCH   3   6
HETATM    6  C8  UNL     1      33.268   0.968  13.926  1.00  0.00     0.216 C 
BRANCH   6   7
HETATM    7  O2  UNL     1      34.483   0.343  13.549  1.00  0.00    -0.287 OA
BRANCH   7   8
HETATM    8  P1  UNL     1      33.956  -1.306  13.327  1.00  0.00     0.417 P 
HETATM    9  O3  UNL     1      35.085  -2.194  13.457  1.00  0.00    -0.624 OA
HETATM   10  O4  UNL     1      32.863  -1.472  14.719  1.00  0.00    -0.624 OA
BRANCH   8  11
HETATM   11  O5  UNL     1      32.971  -1.478  11.988  1.00  0.00    -0.180 OA
BRANCH  11  12
HETATM   12  P2  UNL     1      32.944  -3.162  11.557  1.00  0.00     0.428 P 
HETATM   13  O6  UNL     1      31.776  -3.330  10.631  1.00  0.00    -0.624 OA
HETATM   14  O7  UNL     1      32.860  -4.166  12.879  1.00  0.00    -0.624 OA
BRANCH  12  15
HETATM   15  O8  UNL     1      34.379  -3.445  10.667  1.00  0.00    -0.173 OA
BRANCH  15  16
HETATM   16  P3  UNL     1      34.708  -5.089  10.645  1.00  0.00     0.431 P 
HETATM   17  O9  UNL     1      33.485  -5.931  10.743  1.00  0.00    -0.616 OA
HETATM   18  O10 UNL     1      35.493  -5.428   9.175  1.00  0.00    -0.616 OA
HETATM   19  O11 UNL     1      35.744  -5.410  11.951  1.00  0.00    -0.616 OA
ENDBRANCH  15  16
ENDBRANCH  12  15
ENDBRANCH  11  12
ENDBRANCH   8  11
ENDBRANCH   7   8
ENDBRANCH   6   7
ENDBRANCH   3   6
BRANCH   4  20
HETATM   20  O12 UNL     1      33.680   1.702  10.625  1.00  0.00    -0.390 OA
ATOM     21  H12 UNL     1      33.099   2.301  10.171  1.00  0.00     0.210 HD
ENDBRANCH   4  20
BRANCH   1  22
HETATM   22  N5  UNL     1      31.080   4.395  11.521  1.00  0.00    -0.273 N 
HETATM   23  C3  UNL     1      29.846   4.543  12.029  1.00  0.00     0.146 A 
HETATM   24  N3  UNL     1      29.103   3.697  12.727  1.00  0.00    -0.336 N 
HETATM   25  C4  UNL     1      29.349   5.770  11.737  1.00  0.00     0.120 A 
HETATM   26  C2  UNL     1      27.877   4.069  13.134  1.00  0.00     0.183 A 
ATOM     27  H3  UNL     1      29.459   2.769  12.955  1.00  0.00     0.168 HD
HETATM   28  N2  UNL     1      27.371   5.287  12.863  1.00  0.00    -0.339 N 
HETATM   29  C1  UNL     1      28.102   6.151  12.161  1.00  0.00     0.148 A 
ATOM     30  H2  UNL     1      26.441   5.544  13.192  1.00  0.00     0.167 HD
HETATM   31  N1  UNL     1      27.625   7.471  12.005  1.00  0.00    -0.080 NA
HETATM   32  N4  UNL     1      30.300   6.390  11.011  1.00  0.00    -0.346 N 
HETATM   33  C5  UNL     1      31.344   5.550  10.881  1.00  0.00     0.192 A 
ATOM     34  H4  UNL     1      30.239   7.333  10.627  1.00  0.00     0.167 HD
ENDBRANCH   1  22
BRANCH   5  35
HETATM   35  O13 UNL     1      34.123   4.216  11.033  1.00  0.00    -0.385 OA
ATOM     36  H13 UNL     1      33.918   3.940  10.147  1.00  0.00     0.210 HD
ENDBRANCH   5  35
TORSDOF 10
ENDMDL
