MODEL 6
REMARK VINA RESULT: -9.397903145      2.892      5.204
REMARK  10 active torsions:
REMARK  status: ('A' for Active; 'I' for Inactive)
REMARK    1  A    between atoms: N5_13  and  C6_14 
REMARK    2  A    between atoms: C7_16  and  C8_17 
REMARK    3  A    between atoms: C8_17  and  O2_18 
REMARK    4  A    between atoms: O2_18  and  P1_19 
REMARK    5  A    between atoms: P1_19  and  O5_22 
REMARK    6  A    between atoms: O5_22  and  P2_23 
REMARK    7  A    between atoms: P2_23  and  O8_26 
REMARK    8  A    between atoms: O8_26  and  P3_27 
REMARK    9  A    between atoms: C9_31  and  O12_32 
REMARK   10  A    between atoms: C10_34  and  O13_35 
ROOT
HETATM    1  C6  UNL     1      34.363   2.960  11.277  1.00  0.00     0.159 C 
HETATM    2  O1  UNL     1      34.557   1.588  11.045  1.00  0.00    -0.326 OA
HETATM    3  C7  UNL     1      35.859   1.433  11.282  1.00  0.00     0.186 C 
HETATM    4  C9  UNL     1      36.514   2.698  11.853  1.00  0.00     0.186 C 
HETATM    5  C10 UNL     1      35.198   3.252  12.472  1.00  0.00     0.224 C 
ENDROOT
BRANCH   3   6
HETATM    6  C8  UNL     1      36.488   0.312  12.005  1.00  0.00     0.216 C 
BRANCH   6   7
HETATM    7  O2  UNL     1      36.067  -0.909  11.421  1.00  0.00    -0.287 OA
BRANCH   7   8
HETATM    8  P1  UNL     1      35.033  -1.542  12.676  1.00  0.00     0.417 P 
HETATM    9  O3  UNL     1      35.615  -2.744  13.221  1.00  0.00    -0.624 OA
HETATM   10  O4  UNL     1      35.124  -0.213  13.853  1.00  0.00    -0.624 OA
BRANCH   8  11
HETATM   11  O5  UNL     1      33.429  -1.589  12.208  1.00  0.00    -0.180 OA
BRANCH  11  12
HETATM   12  P2  UNL     1      33.099  -3.178  11.585  1.00  0.00     0.428 P 
HETATM   13  O6  UNL     1      31.883  -3.036  10.720  1.00  0.00    -0.624 OA
HETATM   14  O7  UNL     1      32.902  -4.313  12.783  1.00  0.00    -0.624 OA
BRANCH  12  15
HETATM   15  O8  UNL     1      34.428  -3.577  10.581  1.00  0.00    -0.173 OA
BRANCH  15  16
HETATM   16  P3  UNL     1      34.527  -5.243  10.419  1.00  0.00     0.431 P 
HETATM   17  O9  UNL     1      33.195  -5.899  10.307  1.00  0.00    -0.616 OA
HETATM   18  O10 UNL     1      35.418  -5.562   9.007  1.00  0.00    -0.616 OA
HETATM   19  O11 UNL     1      35.353  -5.831  11.780  1.00  0.00    -0.616 OA
ENDBRANCH  15  16
ENDBRANCH  12  15
ENDBRANCH  11  12
ENDBRANCH   8  11
ENDBRANCH   7   8
ENDBRANCH   6   7
ENDBRANCH   3   6
BRANCH   4  20
HETATM   20  O12 UNL     1      36.928   3.475  10.820  1.00  0.00    -0.390 OA
ATOM     21  H12 UNL     1      37.874   3.422  10.762  1.00  0.00     0.210 HD
ENDBRANCH   4  20
BRANCH   1  22
HETATM   22  N5  UNL     1      33.092   3.480  11.140  1.00  0.00    -0.273 N 
HETATM   23  C3  UNL     1      32.025   3.199  11.905  1.00  0.00     0.146 A 
HETATM   24  N3  UNL     1      31.859   2.264  12.828  1.00  0.00    -0.336 N 
HETATM   25  C4  UNL     1      31.000   4.042  11.629  1.00  0.00     0.120 A 
HETATM   26  C2  UNL     1      30.684   2.170  13.473  1.00  0.00     0.183 A 
ATOM     27  H3  UNL     1      32.619   1.620  13.049  1.00  0.00     0.168 HD
HETATM   28  N2  UNL     1      29.659   3.004  13.221  1.00  0.00    -0.339 N 
HETATM   29  C1  UNL     1      29.805   3.949  12.295  1.00  0.00     0.148 A 
ATOM     30  H2  UNL     1      28.781   2.912  13.733  1.00  0.00     0.167 HD
HETATM   31  N1  UNL     1      28.779   4.908  12.138  1.00  0.00    -0.080 NA
HETATM   32  N4  UNL     1      31.444   4.855  10.650  1.00  0.00    -0.346 N 
HETATM   33  C5  UNL     1      32.710   4.506  10.356  1.00  0.00     0.192 A 
ATOM     34  H4  UNL     1      30.912   5.605  10.209  1.00  0.00     0.167 HD
ENDBRANCH   1  22
BRANCH   5  35
HETATM   35  O13 UNL     1      35.525   4.584  12.687  1.00  0.00    -0.385 OA
ATOM     36  H13 UNL     1      35.175   4.984  13.474  1.00  0.00     0.210 HD
ENDBRANCH   5  35
TORSDOF 10
ENDMDL
