MODEL 2
REMARK VINA RESULT: -10.864341452      0.312      1.081
REMARK  5 active torsions:
REMARK  status: ('A' for Active; 'I' for Inactive)
REMARK    1  A    between atoms: C1_2  and  C2_6 
REMARK    2  A    between atoms: C5_9  and  N3_10 
REMARK    3  A    between atoms: N4_12  and  N5_14 
REMARK    4  A    between atoms: N5_14  and  C6_16 
REMARK    5  A    between atoms: C9_19  and  C10_20 
ROOT
HETATM    1  N3  UNL     1     -27.488 -13.138  66.436  1.00  0.00    -0.287 N 
ATOM      2  H3  UNL     1     -28.345 -12.658  66.159  1.00  0.00     0.188 HD
HETATM    3  N4  UNL     1     -27.570 -14.034  67.301  1.00  0.00    -0.242 N 
ATOM      4  H4  UNL     1     -26.704 -14.504  67.568  1.00  0.00     0.208 HD
ENDROOT
BRANCH   3   5
HETATM    5  N5  UNL     1     -28.733 -14.448  67.930  1.00  0.00    -0.287 N 
ATOM      6  H5  UNL     1     -29.486 -14.866  67.383  1.00  0.00     0.188 HD
BRANCH   5   7
HETATM    7  C6  UNL     1     -28.880 -14.293  69.324  1.00  0.00     0.049 A 
HETATM    8  C7  UNL     1     -30.109 -14.524  69.931  1.00  0.00     0.032 A 
HETATM    9  C8  UNL     1     -30.212 -14.362  71.299  1.00  0.00     0.017 A 
HETATM   10  C9  UNL     1     -29.111 -13.978  72.049  1.00  0.00     0.005 A 
HETATM   11  C11 UNL     1     -27.887 -13.750  71.432  1.00  0.00     0.017 A 
HETATM   12  C12 UNL     1     -27.788 -13.912  70.073  1.00  0.00     0.032 A 
BRANCH  10  13
HETATM   13  C10 UNL     1     -29.189 -13.800  73.485  1.00  0.00     0.120 C 
HETATM   14  N6  UNL     1     -29.995 -12.729  73.990  1.00  0.00    -0.082 NA
HETATM   15  N7  UNL     1     -28.581 -14.544  74.334  1.00  0.00    -0.387 N 
ATOM     16  H72 UNL     1     -28.007 -15.307  73.975  1.00  0.00     0.157 HD
ATOM     17  H71 UNL     1     -28.636 -14.420  75.345  1.00  0.00     0.157 HD
ENDBRANCH  10  13
ENDBRANCH   5   7
ENDBRANCH   3   5
BRANCH   1  18
HETATM   18  C5  UNL     1     -26.256 -12.742  65.808  1.00  0.00     0.049 A 
HETATM   19  C4  UNL     1     -26.075 -11.471  65.310  1.00  0.00     0.032 A 
HETATM   20  C3  UNL     1     -24.936 -11.026  64.702  1.00  0.00     0.017 A 
HETATM   21  C2  UNL     1     -23.877 -11.936  64.581  1.00  0.00     0.005 A 
HETATM   22  C14 UNL     1     -24.025 -13.218  65.069  1.00  0.00     0.017 A 
HETATM   23  C13 UNL     1     -25.208 -13.615  65.677  1.00  0.00     0.032 A 
BRANCH  21  24
HETATM   24  C1  UNL     1     -22.651 -11.501  63.941  1.00  0.00     0.120 C 
HETATM   25  N1  UNL     1     -21.913 -12.442  63.169  1.00  0.00    -0.082 NA
HETATM   26  N2  UNL     1     -22.220 -10.304  64.052  1.00  0.00    -0.387 N 
ATOM     27  H22 UNL     1     -21.357  -9.997  63.603  1.00  0.00     0.157 HD
ATOM     28  H21 UNL     1     -22.749  -9.629  64.606  1.00  0.00     0.157 HD
ENDBRANCH  21  24
ENDBRANCH   1  18
TORSDOF 5
ENDMDL
