MODEL 9
REMARK VINA RESULT: -10.452340907      5.649      9.808
REMARK  5 active torsions:
REMARK  status: ('A' for Active; 'I' for Inactive)
REMARK    1  A    between atoms: C1_2  and  C2_6 
REMARK    2  A    between atoms: C5_9  and  N3_10 
REMARK    3  A    between atoms: N4_12  and  N5_14 
REMARK    4  A    between atoms: N5_14  and  C6_16 
REMARK    5  A    between atoms: C9_19  and  C10_20 
ROOT
HETATM    1  N3  UNL     1     -29.322 -12.463  76.198  1.00  0.00    -0.287 N 
ATOM      2  H3  UNL     1     -30.227 -12.260  76.623  1.00  0.00     0.188 HD
HETATM    3  N4  UNL     1     -28.297 -12.308  76.893  1.00  0.00    -0.242 N 
ATOM      4  H4  UNL     1     -27.400 -12.515  76.452  1.00  0.00     0.208 HD
ENDROOT
BRANCH   3   5
HETATM    5  N5  UNL     1     -28.271 -11.879  78.210  1.00  0.00    -0.287 N 
ATOM      6  H5  UNL     1     -27.617 -12.301  78.870  1.00  0.00     0.188 HD
BRANCH   5   7
HETATM    7  C6  UNL     1     -29.143 -10.858  78.642  1.00  0.00     0.049 A 
HETATM    8  C7  UNL     1     -29.969 -10.209  77.732  1.00  0.00     0.032 A 
HETATM    9  C8  UNL     1     -30.810  -9.215  78.195  1.00  0.00     0.017 A 
HETATM   10  C9  UNL     1     -30.828  -8.874  79.539  1.00  0.00     0.005 A 
HETATM   11  C11 UNL     1     -29.998  -9.530  80.440  1.00  0.00     0.017 A 
HETATM   12  C12 UNL     1     -29.164 -10.518  79.978  1.00  0.00     0.032 A 
BRANCH  10  13
HETATM   13  C10 UNL     1     -31.699  -7.836  80.053  1.00  0.00     0.120 C 
HETATM   14  N6  UNL     1     -31.095  -6.652  80.587  1.00  0.00    -0.082 NA
HETATM   15  N7  UNL     1     -32.979  -7.912  80.059  1.00  0.00    -0.387 N 
ATOM     16  H72 UNL     1     -33.408  -8.755  79.679  1.00  0.00     0.157 HD
ATOM     17  H71 UNL     1     -33.592  -7.182  80.420  1.00  0.00     0.157 HD
ENDBRANCH  10  13
ENDBRANCH   5   7
ENDBRANCH   3   5
BRANCH   1  18
HETATM   18  C5  UNL     1     -29.302 -12.913  74.832  1.00  0.00     0.049 A 
HETATM   19  C4  UNL     1     -30.294 -12.565  73.942  1.00  0.00     0.032 A 
HETATM   20  C3  UNL     1     -30.340 -12.955  72.634  1.00  0.00     0.017 A 
HETATM   21  C2  UNL     1     -29.297 -13.768  72.169  1.00  0.00     0.005 A 
HETATM   22  C14 UNL     1     -28.287 -14.135  73.035  1.00  0.00     0.017 A 
HETATM   23  C13 UNL     1     -28.293 -13.710  74.356  1.00  0.00     0.032 A 
BRANCH  21  24
HETATM   24  C1  UNL     1     -29.310 -14.202  70.786  1.00  0.00     0.120 C 
HETATM   25  N1  UNL     1     -30.519 -14.726  70.248  1.00  0.00    -0.082 NA
HETATM   26  N2  UNL     1     -28.273 -14.124  70.044  1.00  0.00    -0.387 N 
ATOM     27  H22 UNL     1     -28.283 -14.430  69.071  1.00  0.00     0.157 HD
ATOM     28  H21 UNL     1     -27.407 -13.748  70.430  1.00  0.00     0.157 HD
ENDBRANCH  21  24
ENDBRANCH   1  18
TORSDOF 5
ENDMDL
