MODEL 1
REMARK VINA RESULT: -10.884851433      0.000      0.000
REMARK  5 active torsions:
REMARK  status: ('A' for Active; 'I' for Inactive)
REMARK    1  A    between atoms: C1_2  and  C2_6 
REMARK    2  A    between atoms: C5_9  and  N3_10 
REMARK    3  A    between atoms: N4_12  and  N5_14 
REMARK    4  A    between atoms: N5_14  and  C6_16 
REMARK    5  A    between atoms: C9_19  and  C10_20 
ROOT
HETATM    1  N3  UNL     1     -27.283 -13.123  66.438  1.00  0.00    -0.287 N 
ATOM      2  H3  UNL     1     -28.098 -12.566  66.180  1.00  0.00     0.188 HD
HETATM    3  N4  UNL     1     -27.441 -14.056  67.252  1.00  0.00    -0.242 N 
ATOM      4  H4  UNL     1     -26.616 -14.603  67.500  1.00  0.00     0.208 HD
ENDROOT
BRANCH   3   5
HETATM    5  N5  UNL     1     -28.640 -14.413  67.850  1.00  0.00    -0.287 N 
ATOM      6  H5  UNL     1     -29.404 -14.775  67.280  1.00  0.00     0.188 HD
BRANCH   5   7
HETATM    7  C6  UNL     1     -28.806 -14.277  69.244  1.00  0.00     0.049 A 
HETATM    8  C7  UNL     1     -30.044 -14.515  69.830  1.00  0.00     0.032 A 
HETATM    9  C8  UNL     1     -30.167 -14.372  71.199  1.00  0.00     0.017 A 
HETATM   10  C9  UNL     1     -29.076 -14.000  71.970  1.00  0.00     0.005 A 
HETATM   11  C11 UNL     1     -27.842 -13.766  71.374  1.00  0.00     0.017 A 
HETATM   12  C12 UNL     1     -27.724 -13.908  70.014  1.00  0.00     0.032 A 
BRANCH  10  13
HETATM   13  C10 UNL     1     -29.174 -13.843  73.407  1.00  0.00     0.120 C 
HETATM   14  N6  UNL     1     -29.994 -12.784  73.915  1.00  0.00    -0.082 NA
HETATM   15  N7  UNL     1     -28.572 -14.595  74.253  1.00  0.00    -0.387 N 
ATOM     16  H72 UNL     1     -27.989 -15.349  73.892  1.00  0.00     0.157 HD
ATOM     17  H71 UNL     1     -28.642 -14.484  75.265  1.00  0.00     0.157 HD
ENDBRANCH  10  13
ENDBRANCH   5   7
ENDBRANCH   3   5
BRANCH   1  18
HETATM   18  C5  UNL     1     -26.018 -12.789  65.841  1.00  0.00     0.049 A 
HETATM   19  C4  UNL     1     -24.997 -13.708  65.750  1.00  0.00     0.032 A 
HETATM   20  C3  UNL     1     -23.772 -13.462  65.198  1.00  0.00     0.017 A 
HETATM   21  C2  UNL     1     -23.545 -12.175  64.689  1.00  0.00     0.005 A 
HETATM   22  C14 UNL     1     -24.547 -11.230  64.765  1.00  0.00     0.017 A 
HETATM   23  C13 UNL     1     -25.773 -11.538  65.338  1.00  0.00     0.032 A 
BRANCH  21  24
HETATM   24  C1  UNL     1     -22.257 -11.875  64.096  1.00  0.00     0.120 C 
HETATM   25  N1  UNL     1     -21.542 -12.924  63.453  1.00  0.00    -0.082 NA
HETATM   26  N2  UNL     1     -21.753 -10.702  64.134  1.00  0.00    -0.387 N 
ATOM     27  H22 UNL     1     -20.846 -10.491  63.717  1.00  0.00     0.157 HD
ATOM     28  H21 UNL     1     -22.266  -9.951  64.595  1.00  0.00     0.157 HD
ENDBRANCH  21  24
ENDBRANCH   1  18
TORSDOF 5
ENDMDL
