MODEL 8
REMARK VINA RESULT: -10.546079165      4.920     11.481
REMARK  5 active torsions:
REMARK  status: ('A' for Active; 'I' for Inactive)
REMARK    1  A    between atoms: C1_2  and  C2_6 
REMARK    2  A    between atoms: C5_9  and  N3_10 
REMARK    3  A    between atoms: N4_12  and  N5_14 
REMARK    4  A    between atoms: N5_14  and  C6_16 
REMARK    5  A    between atoms: C9_19  and  C10_20 
ROOT
HETATM    1  N3  UNL     1     -28.690 -12.097  77.030  1.00  0.00    -0.287 N 
ATOM      2  H3  UNL     1     -27.869 -12.501  77.482  1.00  0.00     0.188 HD
HETATM    3  N4  UNL     1     -29.021 -12.537  75.910  1.00  0.00    -0.242 N 
ATOM      4  H4  UNL     1     -29.843 -12.122  75.471  1.00  0.00     0.208 HD
ENDROOT
BRANCH   3   5
HETATM    5  N5  UNL     1     -28.368 -13.539  75.209  1.00  0.00    -0.287 N 
ATOM      6  H5  UNL     1     -27.754 -14.187  75.702  1.00  0.00     0.188 HD
BRANCH   5   7
HETATM    7  C6  UNL     1     -28.551 -13.666  73.816  1.00  0.00     0.049 A 
HETATM    8  C7  UNL     1     -29.826 -13.600  73.267  1.00  0.00     0.032 A 
HETATM    9  C8  UNL     1     -29.963 -13.729  71.898  1.00  0.00     0.017 A 
HETATM   10  C9  UNL     1     -28.850 -13.919  71.092  1.00  0.00     0.005 A 
HETATM   11  C11 UNL     1     -27.580 -13.983  71.652  1.00  0.00     0.017 A 
HETATM   12  C12 UNL     1     -27.447 -13.855  73.012  1.00  0.00     0.032 A 
BRANCH  10  13
HETATM   13  C10 UNL     1     -28.964 -14.057  69.654  1.00  0.00     0.120 C 
HETATM   14  N6  UNL     1     -27.762 -14.008  68.874  1.00  0.00    -0.082 NA
HETATM   15  N7  UNL     1     -30.074 -14.221  69.034  1.00  0.00    -0.387 N 
ATOM     16  H72 UNL     1     -30.929 -14.256  69.588  1.00  0.00     0.157 HD
ATOM     17  H71 UNL     1     -30.153 -14.319  68.022  1.00  0.00     0.157 HD
ENDBRANCH  10  13
ENDBRANCH   5   7
ENDBRANCH   3   5
BRANCH   1  18
HETATM   18  C5  UNL     1     -29.399 -11.054  77.722  1.00  0.00     0.049 A 
HETATM   19  C4  UNL     1     -29.162 -10.777  79.050  1.00  0.00     0.032 A 
HETATM   20  C3  UNL     1     -29.796  -9.804  79.769  1.00  0.00     0.017 A 
HETATM   21  C2  UNL     1     -30.758  -9.036  79.099  1.00  0.00     0.005 A 
HETATM   22  C14 UNL     1     -31.020  -9.288  77.768  1.00  0.00     0.017 A 
HETATM   23  C13 UNL     1     -30.345 -10.291  77.087  1.00  0.00     0.032 A 
BRANCH  21  24
HETATM   24  C1  UNL     1     -31.453  -7.994  79.829  1.00  0.00     0.120 C 
HETATM   25  N1  UNL     1     -30.705  -6.882  80.308  1.00  0.00    -0.082 NA
HETATM   26  N2  UNL     1     -32.710  -8.048  80.050  1.00  0.00    -0.387 N 
ATOM     27  H22 UNL     1     -33.199  -7.315  80.564  1.00  0.00     0.157 HD
ATOM     28  H21 UNL     1     -33.246  -8.844  79.706  1.00  0.00     0.157 HD
ENDBRANCH  21  24
ENDBRANCH   1  18
TORSDOF 5
ENDMDL
