MODEL 4
REMARK VINA RESULT: -10.625561315      5.253      9.265
REMARK  5 active torsions:
REMARK  status: ('A' for Active; 'I' for Inactive)
REMARK    1  A    between atoms: C1_2  and  C2_6 
REMARK    2  A    between atoms: C5_9  and  N3_10 
REMARK    3  A    between atoms: N4_12  and  N5_14 
REMARK    4  A    between atoms: N5_14  and  C6_16 
REMARK    5  A    between atoms: C9_19  and  C10_20 
ROOT
HETATM    1  N3  UNL     1     -28.385 -13.103  75.410  1.00  0.00    -0.287 N 
ATOM      2  H3  UNL     1     -27.569 -13.552  75.828  1.00  0.00     0.188 HD
HETATM    3  N4  UNL     1     -29.064 -12.336  76.122  1.00  0.00    -0.242 N 
ATOM      4  H4  UNL     1     -29.877 -11.896  75.690  1.00  0.00     0.208 HD
ENDROOT
BRANCH   3   5
HETATM    5  N5  UNL     1     -28.810 -12.028  77.450  1.00  0.00    -0.287 N 
ATOM      6  H5  UNL     1     -28.150 -12.592  77.985  1.00  0.00     0.188 HD
BRANCH   5   7
HETATM    7  C6  UNL     1     -29.461 -10.937  78.063  1.00  0.00     0.049 A 
HETATM    8  C7  UNL     1     -30.347 -10.150  77.337  1.00  0.00     0.032 A 
HETATM    9  C8  UNL     1     -30.965  -9.091  77.973  1.00  0.00     0.017 A 
HETATM   10  C9  UNL     1     -30.706  -8.822  79.309  1.00  0.00     0.005 A 
HETATM   11  C11 UNL     1     -29.818  -9.616  80.025  1.00  0.00     0.017 A 
HETATM   12  C12 UNL     1     -29.206 -10.667  79.390  1.00  0.00     0.032 A 
BRANCH  10  13
HETATM   13  C10 UNL     1     -31.339  -7.718  80.003  1.00  0.00     0.120 C 
HETATM   14  N6  UNL     1     -32.750  -7.790  80.237  1.00  0.00    -0.082 NA
HETATM   15  N7  UNL     1     -30.713  -6.680  80.420  1.00  0.00    -0.387 N 
ATOM     16  H72 UNL     1     -29.709  -6.629  80.253  1.00  0.00     0.157 HD
ATOM     17  H71 UNL     1     -31.159  -5.904  80.909  1.00  0.00     0.157 HD
ENDBRANCH  10  13
ENDBRANCH   5   7
ENDBRANCH   3   5
BRANCH   1  18
HETATM   18  C5  UNL     1     -28.686 -13.393  74.034  1.00  0.00     0.049 A 
HETATM   19  C4  UNL     1     -27.718 -13.837  73.160  1.00  0.00     0.032 A 
HETATM   20  C3  UNL     1     -27.931 -14.131  71.844  1.00  0.00     0.017 A 
HETATM   21  C2  UNL     1     -29.233 -13.965  71.352  1.00  0.00     0.005 A 
HETATM   22  C14 UNL     1     -30.227 -13.522  72.201  1.00  0.00     0.017 A 
HETATM   23  C13 UNL     1     -29.951 -13.237  73.531  1.00  0.00     0.032 A 
BRANCH  21  24
HETATM   24  C1  UNL     1     -29.499 -14.267  69.959  1.00  0.00     0.120 C 
HETATM   25  N1  UNL     1     -28.485 -13.996  68.998  1.00  0.00    -0.082 NA
HETATM   26  N2  UNL     1     -30.610 -14.767  69.577  1.00  0.00    -0.387 N 
ATOM     27  H22 UNL     1     -30.797 -14.979  68.597  1.00  0.00     0.157 HD
ATOM     28  H21 UNL     1     -31.337 -14.961  70.266  1.00  0.00     0.157 HD
ENDBRANCH  21  24
ENDBRANCH   1  18
TORSDOF 5
ENDMDL
