MODEL 5
REMARK VINA RESULT: -10.620982207      4.963     11.545
REMARK  5 active torsions:
REMARK  status: ('A' for Active; 'I' for Inactive)
REMARK    1  A    between atoms: C1_2  and  C2_6 
REMARK    2  A    between atoms: C5_9  and  N3_10 
REMARK    3  A    between atoms: N4_12  and  N5_14 
REMARK    4  A    between atoms: N5_14  and  C6_16 
REMARK    5  A    between atoms: C9_19  and  C10_20 
ROOT
HETATM    1  N3  UNL     1     -28.624 -12.074  77.140  1.00  0.00    -0.287 N 
ATOM      2  H3  UNL     1     -27.810 -12.484  77.599  1.00  0.00     0.188 HD
HETATM    3  N4  UNL     1     -28.933 -12.493  76.006  1.00  0.00    -0.242 N 
ATOM      4  H4  UNL     1     -29.749 -12.071  75.560  1.00  0.00     0.208 HD
ENDROOT
BRANCH   3   5
HETATM    5  N5  UNL     1     -28.266 -13.481  75.299  1.00  0.00    -0.287 N 
ATOM      6  H5  UNL     1     -27.603 -14.090  75.779  1.00  0.00     0.188 HD
BRANCH   5   7
HETATM    7  C6  UNL     1     -28.503 -13.650  73.919  1.00  0.00     0.049 A 
HETATM    8  C7  UNL     1     -29.800 -13.621  73.421  1.00  0.00     0.032 A 
HETATM    9  C8  UNL     1     -29.991 -13.789  72.062  1.00  0.00     0.017 A 
HETATM   10  C9  UNL     1     -28.909 -13.983  71.217  1.00  0.00     0.005 A 
HETATM   11  C11 UNL     1     -27.616 -14.010  71.726  1.00  0.00     0.017 A 
HETATM   12  C12 UNL     1     -27.430 -13.842  73.076  1.00  0.00     0.032 A 
BRANCH  10  13
HETATM   13  C10 UNL     1     -29.078 -14.163  69.789  1.00  0.00     0.120 C 
HETATM   14  N6  UNL     1     -27.920 -14.045  68.952  1.00  0.00    -0.082 NA
HETATM   15  N7  UNL     1     -30.200 -14.421  69.226  1.00  0.00    -0.387 N 
ATOM     16  H72 UNL     1     -31.024 -14.504  69.821  1.00  0.00     0.157 HD
ATOM     17  H71 UNL     1     -30.319 -14.548  68.221  1.00  0.00     0.157 HD
ENDBRANCH  10  13
ENDBRANCH   5   7
ENDBRANCH   3   5
BRANCH   1  18
HETATM   18  C5  UNL     1     -29.347 -11.044  77.837  1.00  0.00     0.049 A 
HETATM   19  C4  UNL     1     -30.296 -10.272  77.203  1.00  0.00     0.032 A 
HETATM   20  C3  UNL     1     -31.019  -9.280  77.800  1.00  0.00     0.017 A 
HETATM   21  C2  UNL     1     -30.773  -9.034  79.158  1.00  0.00     0.005 A 
HETATM   22  C14 UNL     1     -29.828  -9.789  79.823  1.00  0.00     0.017 A 
HETATM   23  C13 UNL     1     -29.122 -10.786  79.164  1.00  0.00     0.032 A 
BRANCH  21  24
HETATM   24  C1  UNL     1     -31.521  -7.988  79.827  1.00  0.00     0.120 C 
HETATM   25  N1  UNL     1     -30.809  -6.883  80.373  1.00  0.00    -0.082 NA
HETATM   26  N2  UNL     1     -32.793  -8.032  79.935  1.00  0.00    -0.387 N 
ATOM     27  H22 UNL     1     -33.320  -7.296  80.406  1.00  0.00     0.157 HD
ATOM     28  H21 UNL     1     -33.303  -8.824  79.543  1.00  0.00     0.157 HD
ENDBRANCH  21  24
ENDBRANCH   1  18
TORSDOF 5
ENDMDL
