MODEL 6
REMARK VINA RESULT: -10.613090412      4.985     11.522
REMARK  5 active torsions:
REMARK  status: ('A' for Active; 'I' for Inactive)
REMARK    1  A    between atoms: C1_2  and  C2_6 
REMARK    2  A    between atoms: C5_9  and  N3_10 
REMARK    3  A    between atoms: N4_12  and  N5_14 
REMARK    4  A    between atoms: N5_14  and  C6_16 
REMARK    5  A    between atoms: C9_19  and  C10_20 
ROOT
HETATM    1  N3  UNL     1     -28.665 -12.078  77.069  1.00  0.00    -0.287 N 
ATOM      2  H3  UNL     1     -27.858 -12.483  77.544  1.00  0.00     0.188 HD
HETATM    3  N4  UNL     1     -28.963 -12.516  75.939  1.00  0.00    -0.242 N 
ATOM      4  H4  UNL     1     -29.772 -12.099  75.477  1.00  0.00     0.208 HD
ENDROOT
BRANCH   3   5
HETATM    5  N5  UNL     1     -28.292 -13.519  75.257  1.00  0.00    -0.287 N 
ATOM      6  H5  UNL     1     -27.660 -14.141  75.761  1.00  0.00     0.188 HD
BRANCH   5   7
HETATM    7  C6  UNL     1     -28.481 -13.683  73.869  1.00  0.00     0.049 A 
HETATM    8  C7  UNL     1     -27.387 -13.838  73.026  1.00  0.00     0.032 A 
HETATM    9  C8  UNL     1     -27.613 -13.996  71.672  1.00  0.00     0.017 A 
HETATM   10  C9  UNL     1     -28.905 -14.000  71.168  1.00  0.00     0.005 A 
HETATM   11  C11 UNL     1     -29.991 -13.844  72.020  1.00  0.00     0.017 A 
HETATM   12  C12 UNL     1     -29.763 -13.688  73.365  1.00  0.00     0.032 A 
BRANCH  10  13
HETATM   13  C10 UNL     1     -29.173 -14.164  69.753  1.00  0.00     0.120 C 
HETATM   14  N6  UNL     1     -28.068 -14.089  68.844  1.00  0.00    -0.082 NA
HETATM   15  N7  UNL     1     -30.339 -14.373  69.263  1.00  0.00    -0.387 N 
ATOM     16  H72 UNL     1     -31.125 -14.426  69.910  1.00  0.00     0.157 HD
ATOM     17  H71 UNL     1     -30.527 -14.489  68.268  1.00  0.00     0.157 HD
ENDBRANCH  10  13
ENDBRANCH   5   7
ENDBRANCH   3   5
BRANCH   1  18
HETATM   18  C5  UNL     1     -29.392 -11.034  77.740  1.00  0.00     0.049 A 
HETATM   19  C4  UNL     1     -29.172 -10.738  79.067  1.00  0.00     0.032 A 
HETATM   20  C3  UNL     1     -29.824  -9.763  79.767  1.00  0.00     0.017 A 
HETATM   21  C2  UNL     1     -30.787  -9.013  79.077  1.00  0.00     0.005 A 
HETATM   22  C14 UNL     1     -31.032  -9.284  77.747  1.00  0.00     0.017 A 
HETATM   23  C13 UNL     1     -30.339 -10.289  77.086  1.00  0.00     0.032 A 
BRANCH  21  24
HETATM   24  C1  UNL     1     -31.500  -7.969  79.787  1.00  0.00     0.120 C 
HETATM   25  N1  UNL     1     -32.920  -8.036  79.851  1.00  0.00    -0.082 NA
HETATM   26  N2  UNL     1     -30.890  -7.000  80.353  1.00  0.00    -0.387 N 
ATOM     27  H22 UNL     1     -31.392  -6.265  80.852  1.00  0.00     0.157 HD
ATOM     28  H21 UNL     1     -29.872  -6.953  80.307  1.00  0.00     0.157 HD
ENDBRANCH  21  24
ENDBRANCH   1  18
TORSDOF 5
ENDMDL
