MODEL 3
REMARK VINA RESULT: -10.660314462      0.414      8.876
REMARK  5 active torsions:
REMARK  status: ('A' for Active; 'I' for Inactive)
REMARK    1  A    between atoms: C1_2  and  C2_6 
REMARK    2  A    between atoms: C5_9  and  N3_10 
REMARK    3  A    between atoms: N4_12  and  N5_14 
REMARK    4  A    between atoms: N5_14  and  C6_16 
REMARK    5  A    between atoms: C9_19  and  C10_20 
ROOT
HETATM    1  N3  UNL     1     -28.361 -14.186  67.888  1.00  0.00    -0.287 N 
ATOM      2  H3  UNL     1     -28.964 -14.779  67.316  1.00  0.00     0.188 HD
HETATM    3  N4  UNL     1     -27.448 -13.553  67.319  1.00  0.00    -0.242 N 
ATOM      4  H4  UNL     1     -26.853 -12.966  67.905  1.00  0.00     0.208 HD
ENDROOT
BRANCH   3   5
HETATM    5  N5  UNL     1     -27.170 -13.579  65.961  1.00  0.00    -0.287 N 
ATOM      6  H5  UNL     1     -27.844 -13.986  65.312  1.00  0.00     0.188 HD
BRANCH   5   7
HETATM    7  C6  UNL     1     -25.960 -13.043  65.473  1.00  0.00     0.049 A 
HETATM    8  C7  UNL     1     -24.792 -13.795  65.515  1.00  0.00     0.032 A 
HETATM    9  C8  UNL     1     -23.627 -13.235  65.027  1.00  0.00     0.017 A 
HETATM   10  C9  UNL     1     -23.626 -11.949  64.507  1.00  0.00     0.005 A 
HETATM   11  C11 UNL     1     -24.800 -11.206  64.470  1.00  0.00     0.017 A 
HETATM   12  C12 UNL     1     -25.956 -11.766  64.955  1.00  0.00     0.032 A 
BRANCH  10  13
HETATM   13  C10 UNL     1     -22.420 -11.336  63.988  1.00  0.00     0.120 C 
HETATM   14  N6  UNL     1     -21.496 -12.165  63.273  1.00  0.00    -0.082 NA
HETATM   15  N7  UNL     1     -22.129 -10.096  64.129  1.00  0.00    -0.387 N 
ATOM     16  H72 UNL     1     -22.786  -9.506  64.638  1.00  0.00     0.157 HD
ATOM     17  H71 UNL     1     -21.280  -9.664  63.763  1.00  0.00     0.157 HD
ENDBRANCH  10  13
ENDBRANCH   5   7
ENDBRANCH   3   5
BRANCH   1  18
HETATM   18  C5  UNL     1     -28.612 -14.128  69.303  1.00  0.00     0.049 A 
HETATM   19  C4  UNL     1     -27.612 -13.837  70.203  1.00  0.00     0.032 A 
HETATM   20  C3  UNL     1     -27.777 -13.766  71.557  1.00  0.00     0.017 A 
HETATM   21  C2  UNL     1     -29.063 -14.008  72.060  1.00  0.00     0.005 A 
HETATM   22  C14 UNL     1     -30.088 -14.303  71.185  1.00  0.00     0.017 A 
HETATM   23  C13 UNL     1     -29.861 -14.363  69.817  1.00  0.00     0.032 A 
BRANCH  21  24
HETATM   24  C1  UNL     1     -29.278 -13.941  73.492  1.00  0.00     0.120 C 
HETATM   25  N1  UNL     1     -29.966 -12.816  74.026  1.00  0.00    -0.082 NA
HETATM   26  N2  UNL     1     -28.870 -14.861  74.279  1.00  0.00    -0.387 N 
ATOM     27  H22 UNL     1     -29.020 -14.814  75.286  1.00  0.00     0.157 HD
ATOM     28  H21 UNL     1     -28.377 -15.668  73.895  1.00  0.00     0.157 HD
ENDBRANCH  21  24
ENDBRANCH   1  18
TORSDOF 5
ENDMDL
