MODEL 14
REMARK VINA RESULT: -7.069009086      3.537      6.319
REMARK  7 active torsions:
REMARK  status: ('A' for Active; 'I' for Inactive)
REMARK    1  A    between atoms: O1_2  and  C2_3 
REMARK    2  A    between atoms: C2_3  and  C3_5 
REMARK    3  A    between atoms: C4_7  and  C5_8 
REMARK    4  A    between atoms: C10_14  and  N1_15 
REMARK       I    between atoms: N1_15  and  C11_17 
REMARK    5  A    between atoms: C11_17  and  C12_19 
REMARK    6  A    between atoms: C12_19  and  C13_20 
REMARK    7  A    between atoms: C13_20  and  C14_21 
ROOT
HETATM    1  C3  UNL     1      13.725  17.904  -8.006  1.00  0.00     0.107 A 
HETATM    2  S1  UNL     1      13.709  18.679  -9.540  1.00  0.00    -0.081 SA
HETATM    3  C4  UNL     1      12.835  20.066  -9.131  1.00  0.00     0.025 A 
HETATM    4  C9  UNL     1      12.570  19.900  -7.805  1.00  0.00     0.051 A 
HETATM    5  C10 UNL     1      13.029  18.776  -7.202  1.00  0.00     0.059 A 
ENDROOT
BRANCH   5   6
HETATM    6  N1  UNL     1      12.816  18.478  -5.797  1.00  0.00    -0.326 N 
HETATM    7  C11 UNL     1      11.635  17.964  -5.236  1.00  0.00     0.222 C 
HETATM    8  O3  UNL     1      10.648  17.717  -5.948  1.00  0.00    -0.273 OA
ATOM      9  H1  UNL     1      13.592  18.659  -5.160  1.00  0.00     0.169 HD
BRANCH   7  10
HETATM   10  C12 UNL     1      11.507  17.687  -3.769  1.00  0.00     0.113 C 
BRANCH  10  11
HETATM   11  C13 UNL     1      10.229  18.205  -3.210  1.00  0.00     0.122 C 
BRANCH  11  12
HETATM   12  C14 UNL     1      10.462  19.562  -2.667  1.00  0.00     0.172 C 
HETATM   13  O4  UNL     1      10.704  19.727  -1.448  1.00  0.00    -0.648 OA
HETATM   14  O5  UNL     1      10.418  20.671  -3.493  1.00  0.00    -0.648 OA
ENDBRANCH  11  12
ENDBRANCH  10  11
ENDBRANCH   7  10
ENDBRANCH   5   6
BRANCH   1  15
HETATM   15  C2  UNL     1      14.357  16.602  -7.689  1.00  0.00     0.302 C 
HETATM   16  O2  UNL     1      14.131  15.989  -6.645  1.00  0.00    -0.259 OA
BRANCH  15  17
HETATM   17  O1  UNL     1      15.250  16.026  -8.595  1.00  0.00    -0.322 OA
HETATM   18  C1  UNL     1      16.630  16.338  -8.526  1.00  0.00     0.213 C 
ENDBRANCH  15  17
ENDBRANCH   1  15
BRANCH   3  19
HETATM   19  C5  UNL     1      12.427  21.218  -9.982  1.00  0.00     0.022 A 
HETATM   20  C6  UNL     1      12.860  21.488 -11.254  1.00  0.00     0.021 A 
HETATM   21  C7  UNL     1      12.362  22.586 -11.838  1.00  0.00     0.008 A 
HETATM   22  C8  UNL     1      11.471  23.340 -11.128  1.00  0.00     0.050 A 
HETATM   23  S2  UNL     1      11.353  22.491  -9.651  1.00  0.00    -0.101 SA
ENDBRANCH   3  19
TORSDOF 7
ENDMDL
