MODEL 2
REMARK VINA RESULT: -7.403988140      2.781      4.777
REMARK  7 active torsions:
REMARK  status: ('A' for Active; 'I' for Inactive)
REMARK    1  A    between atoms: O1_2  and  C2_3 
REMARK    2  A    between atoms: C2_3  and  C3_5 
REMARK    3  A    between atoms: C4_7  and  C5_8 
REMARK    4  A    between atoms: C10_14  and  N1_15 
REMARK       I    between atoms: N1_15  and  C11_17 
REMARK    5  A    between atoms: C11_17  and  C12_19 
REMARK    6  A    between atoms: C12_19  and  C13_20 
REMARK    7  A    between atoms: C13_20  and  C14_21 
ROOT
HETATM    1  C3  UNL     1      12.493  21.615 -10.559  1.00  0.00     0.107 A 
HETATM    2  S1  UNL     1      13.734  20.441 -10.751  1.00  0.00    -0.081 SA
HETATM    3  C4  UNL     1      13.483  19.551  -9.336  1.00  0.00     0.025 A 
HETATM    4  C9  UNL     1      12.436  20.186  -8.738  1.00  0.00     0.051 A 
HETATM    5  C10 UNL     1      11.907  21.266  -9.365  1.00  0.00     0.059 A 
ENDROOT
BRANCH   5   6
HETATM    6  N1  UNL     1      10.792  22.031  -8.836  1.00  0.00    -0.326 N 
HETATM    7  C11 UNL     1      10.855  22.949  -7.774  1.00  0.00     0.222 C 
HETATM    8  O3  UNL     1      11.929  23.176  -7.193  1.00  0.00    -0.273 OA
ATOM      9  H1  UNL     1       9.882  21.889  -9.273  1.00  0.00     0.169 HD
BRANCH   7  10
HETATM   10  C12 UNL     1       9.647  23.694  -7.295  1.00  0.00     0.113 C 
BRANCH  10  11
HETATM   11  C13 UNL     1       8.778  24.136  -8.419  1.00  0.00     0.122 C 
BRANCH  11  12
HETATM   12  C14 UNL     1       7.587  23.260  -8.471  1.00  0.00     0.172 C 
HETATM   13  O4  UNL     1       7.667  22.103  -8.950  1.00  0.00    -0.648 OA
HETATM   14  O5  UNL     1       6.365  23.699  -7.995  1.00  0.00    -0.648 OA
ENDBRANCH  11  12
ENDBRANCH  10  11
ENDBRANCH   7  10
ENDBRANCH   5   6
BRANCH   1  15
HETATM   15  C2  UNL     1      12.180  22.719 -11.495  1.00  0.00     0.302 C 
HETATM   16  O2  UNL     1      11.966  23.871 -11.118  1.00  0.00    -0.259 OA
BRANCH  15  17
HETATM   17  O1  UNL     1      12.119  22.468 -12.868  1.00  0.00    -0.322 OA
HETATM   18  C1  UNL     1      11.529  23.417 -13.737  1.00  0.00     0.213 C 
ENDBRANCH  15  17
ENDBRANCH   1  15
BRANCH   3  19
HETATM   19  C5  UNL     1      14.207  18.355  -8.825  1.00  0.00     0.022 A 
HETATM   20  C6  UNL     1      15.508  18.013  -9.086  1.00  0.00     0.021 A 
HETATM   21  C7  UNL     1      15.960  16.887  -8.519  1.00  0.00     0.008 A 
HETATM   22  C8  UNL     1      15.097  16.176  -7.732  1.00  0.00     0.050 A 
HETATM   23  S2  UNL     1      13.666  17.106  -7.808  1.00  0.00    -0.101 SA
ENDBRANCH   3  19
TORSDOF 7
ENDMDL
