MODEL 1
REMARK VINA RESULT: -7.471194164      0.000      0.000
REMARK  7 active torsions:
REMARK  status: ('A' for Active; 'I' for Inactive)
REMARK    1  A    between atoms: O1_2  and  C2_3 
REMARK    2  A    between atoms: C2_3  and  C3_5 
REMARK    3  A    between atoms: C4_7  and  C5_8 
REMARK    4  A    between atoms: C10_14  and  N1_15 
REMARK       I    between atoms: N1_15  and  C11_17 
REMARK    5  A    between atoms: C11_17  and  C12_19 
REMARK    6  A    between atoms: C12_19  and  C13_20 
REMARK    7  A    between atoms: C13_20  and  C14_21 
ROOT
HETATM    1  C3  UNL     1      11.042  19.907  -5.292  1.00  0.00     0.107 A 
HETATM    2  S1  UNL     1      12.228  18.664  -5.261  1.00  0.00    -0.081 SA
HETATM    3  C4  UNL     1      12.840  18.836  -6.827  1.00  0.00     0.025 A 
HETATM    4  C9  UNL     1      12.107  19.861  -7.348  1.00  0.00     0.051 A 
HETATM    5  C10 UNL     1      11.164  20.431  -6.559  1.00  0.00     0.059 A 
ENDROOT
BRANCH   5   6
HETATM    6  N1  UNL     1      10.317  21.528  -6.991  1.00  0.00    -0.326 N 
HETATM    7  C11 UNL     1      10.614  22.895  -6.863  1.00  0.00     0.222 C 
HETATM    8  O3  UNL     1      11.679  23.269  -6.345  1.00  0.00    -0.273 OA
ATOM      9  H1  UNL     1       9.427  21.285  -7.426  1.00  0.00     0.169 HD
BRANCH   7  10
HETATM   10  C12 UNL     1       9.674  23.961  -7.340  1.00  0.00     0.113 C 
BRANCH  10  11
HETATM   11  C13 UNL     1       9.173  23.693  -8.715  1.00  0.00     0.122 C 
BRANCH  11  12
HETATM   12  C14 UNL     1       7.866  23.006  -8.619  1.00  0.00     0.172 C 
HETATM   13  O4  UNL     1       6.850  23.624  -8.222  1.00  0.00    -0.648 OA
HETATM   14  O5  UNL     1       7.741  21.672  -8.965  1.00  0.00    -0.648 OA
ENDBRANCH  11  12
ENDBRANCH  10  11
ENDBRANCH   7  10
ENDBRANCH   5   6
BRANCH   1  15
HETATM   15  C2  UNL     1      10.132  20.278  -4.184  1.00  0.00     0.302 C 
HETATM   16  O2  UNL     1       8.949  20.569  -4.363  1.00  0.00    -0.259 OA
BRANCH  15  17
HETATM   17  O1  UNL     1      10.612  20.306  -2.873  1.00  0.00    -0.322 OA
HETATM   18  C1  UNL     1      10.412  19.192  -2.021  1.00  0.00     0.213 C 
ENDBRANCH  15  17
ENDBRANCH   1  15
BRANCH   3  19
HETATM   19  C5  UNL     1      13.918  18.075  -7.515  1.00  0.00     0.022 A 
HETATM   20  C6  UNL     1      14.790  18.561  -8.454  1.00  0.00     0.021 A 
HETATM   21  C7  UNL     1      15.687  17.697  -8.948  1.00  0.00     0.008 A 
HETATM   22  C8  UNL     1      15.661  16.412  -8.480  1.00  0.00     0.050 A 
HETATM   23  S2  UNL     1      14.375  16.447  -7.357  1.00  0.00    -0.101 SA
ENDBRANCH   3  19
TORSDOF 7
ENDMDL
