MODEL 3
REMARK VINA RESULT: -7.369275788      0.617      1.258
REMARK  7 active torsions:
REMARK  status: ('A' for Active; 'I' for Inactive)
REMARK    1  A    between atoms: O1_2  and  C2_3 
REMARK    2  A    between atoms: C2_3  and  C3_5 
REMARK    3  A    between atoms: C4_7  and  C5_8 
REMARK    4  A    between atoms: C10_14  and  N1_15 
REMARK       I    between atoms: N1_15  and  C11_17 
REMARK    5  A    between atoms: C11_17  and  C12_19 
REMARK    6  A    between atoms: C12_19  and  C13_20 
REMARK    7  A    between atoms: C13_20  and  C14_21 
ROOT
HETATM    1  C3  UNL     1      10.958  19.930  -5.482  1.00  0.00     0.107 A 
HETATM    2  S1  UNL     1      12.139  18.682  -5.431  1.00  0.00    -0.081 SA
HETATM    3  C4  UNL     1      12.813  18.887  -6.966  1.00  0.00     0.025 A 
HETATM    4  C9  UNL     1      12.105  19.925  -7.493  1.00  0.00     0.051 A 
HETATM    5  C10 UNL     1      11.133  20.482  -6.730  1.00  0.00     0.059 A 
ENDROOT
BRANCH   5   6
HETATM    6  N1  UNL     1      10.306  21.591  -7.171  1.00  0.00    -0.326 N 
HETATM    7  C11 UNL     1      10.583  22.953  -6.967  1.00  0.00     0.222 C 
HETATM    8  O3  UNL     1      11.609  23.311  -6.364  1.00  0.00    -0.273 OA
ATOM      9  H1  UNL     1       9.450  21.361  -7.674  1.00  0.00     0.169 HD
BRANCH   7  10
HETATM   10  C12 UNL     1       9.668  24.032  -7.460  1.00  0.00     0.113 C 
BRANCH  10  11
HETATM   11  C13 UNL     1       9.123  23.732  -8.812  1.00  0.00     0.122 C 
BRANCH  11  12
HETATM   12  C14 UNL     1       7.780  23.131  -8.660  1.00  0.00     0.172 C 
HETATM   13  O4  UNL     1       7.587  21.924  -8.942  1.00  0.00    -0.648 OA
HETATM   14  O5  UNL     1       6.714  23.887  -8.207  1.00  0.00    -0.648 OA
ENDBRANCH  11  12
ENDBRANCH  10  11
ENDBRANCH   7  10
ENDBRANCH   5   6
BRANCH   1  15
HETATM   15  C2  UNL     1      10.006  20.279  -4.403  1.00  0.00     0.302 C 
HETATM   16  O2  UNL     1      10.370  20.699  -3.304  1.00  0.00    -0.259 OA
BRANCH  15  17
HETATM   17  O1  UNL     1       8.633  20.135  -4.617  1.00  0.00    -0.322 OA
HETATM   18  C1  UNL     1       8.089  18.857  -4.891  1.00  0.00     0.213 C 
ENDBRANCH  15  17
ENDBRANCH   1  15
BRANCH   3  19
HETATM   19  C5  UNL     1      13.916  18.137  -7.628  1.00  0.00     0.022 A 
HETATM   20  C6  UNL     1      14.783  18.622  -8.572  1.00  0.00     0.021 A 
HETATM   21  C7  UNL     1      15.705  17.769  -9.038  1.00  0.00     0.008 A 
HETATM   22  C8  UNL     1      15.708  16.496  -8.539  1.00  0.00     0.050 A 
HETATM   23  S2  UNL     1      14.413  16.525  -7.426  1.00  0.00    -0.101 SA
ENDBRANCH   3  19
TORSDOF 7
ENDMDL
