MODEL 7
REMARK VINA RESULT: -5.754490454      4.124      5.355
REMARK  7 active torsions:
REMARK  status: ('A' for Active; 'I' for Inactive)
REMARK    1  A    between atoms: N1_1  and  S1_4 
REMARK    2  A    between atoms: S1_4  and  C1_7 
REMARK    3  A    between atoms: C2_9  and  C3_10 
REMARK    4  A    between atoms: C3_10  and  O4_11 
REMARK    5  A    between atoms: C4_13  and  O5_14 
REMARK    6  A    between atoms: C5_16  and  O6_17 
REMARK    7  A    between atoms: C6_19  and  O7_20 
ROOT
HETATM    1  C1  UNL     1      17.284   4.226  12.352  1.00  0.00     0.295 C 
HETATM    2  O3  UNL     1      18.508   3.874  12.731  1.00  0.00    -0.356 OA
HETATM    3  C2  UNL     1      19.336   3.165  11.965  1.00  0.00     0.178 C 
HETATM    4  C4  UNL     1      18.763   2.376  10.841  1.00  0.00     0.180 C 
HETATM    5  C5  UNL     1      17.247   2.255  10.922  1.00  0.00     0.181 C 
HETATM    6  C6  UNL     1      16.728   3.656  11.099  1.00  0.00     0.195 C 
ENDROOT
BRANCH   1   7
HETATM    7  S1  UNL     1      17.105   6.013  12.206  1.00  0.00     0.254 S 
HETATM    8  O1  UNL     1      15.997   6.380  13.182  1.00  0.00    -0.203 OA
HETATM    9  O2  UNL     1      16.662   6.378  10.838  1.00  0.00    -0.203 OA
BRANCH   7  10
HETATM   10  N1  UNL     1      18.524   6.786  12.724  1.00  0.00    -0.326 N 
ATOM     11  H12 UNL     1      18.828   6.876  13.694  1.00  0.00     0.168 HD
ATOM     12  H11 UNL     1      19.006   7.136  11.896  1.00  0.00     0.168 HD
ENDBRANCH   7  10
ENDBRANCH   1   7
BRANCH   6  13
HETATM   13  O7  UNL     1      15.331   3.620  11.189  1.00  0.00    -0.389 OA
ATOM     14  H7  UNL     1      15.067   3.877  12.065  1.00  0.00     0.210 HD
ENDBRANCH   6  13
BRANCH   3  15
HETATM   15  C3  UNL     1      20.469   4.081  11.485  1.00  0.00     0.198 C 
BRANCH  15  16
HETATM   16  O4  UNL     1      20.933   4.886  12.534  1.00  0.00    -0.398 OA
ATOM     17  H4  UNL     1      21.738   5.326  12.289  1.00  0.00     0.209 HD
ENDBRANCH  15  16
ENDBRANCH   3  15
BRANCH   5  18
HETATM   18  O6  UNL     1      16.788   1.807   9.673  1.00  0.00    -0.390 OA
ATOM     19  H6  UNL     1      15.962   1.358   9.813  1.00  0.00     0.210 HD
ENDBRANCH   5  18
BRANCH   4  20
HETATM   20  O5  UNL     1      19.091   2.950   9.612  1.00  0.00    -0.390 OA
ATOM     21  H5  UNL     1      18.326   3.009   9.051  1.00  0.00     0.210 HD
ENDBRANCH   4  20
TORSDOF 7
ENDMDL
