MODEL 3
REMARK VINA RESULT: -5.892748575      3.552      4.918
REMARK  7 active torsions:
REMARK  status: ('A' for Active; 'I' for Inactive)
REMARK    1  A    between atoms: N1_1  and  S1_4 
REMARK    2  A    between atoms: S1_4  and  C1_7 
REMARK    3  A    between atoms: C2_9  and  C3_10 
REMARK    4  A    between atoms: C3_10  and  O4_11 
REMARK    5  A    between atoms: C4_13  and  O5_14 
REMARK    6  A    between atoms: C5_16  and  O6_17 
REMARK    7  A    between atoms: C6_19  and  O7_20 
ROOT
HETATM    1  C1  UNL     1      16.434   2.911  12.104  1.00  0.00     0.295 C 
HETATM    2  O3  UNL     1      16.238   4.075  11.493  1.00  0.00    -0.356 OA
HETATM    3  C2  UNL     1      16.788   5.218  11.901  1.00  0.00     0.178 C 
HETATM    4  C4  UNL     1      17.286   5.306  13.301  1.00  0.00     0.180 C 
HETATM    5  C5  UNL     1      16.809   4.149  14.167  1.00  0.00     0.181 C 
HETATM    6  C6  UNL     1      17.145   2.895  13.407  1.00  0.00     0.195 C 
ENDROOT
BRANCH   1   7
HETATM    7  S1  UNL     1      17.298   1.730  11.053  1.00  0.00     0.254 S 
HETATM    8  O1  UNL     1      16.649   1.871   9.684  1.00  0.00    -0.203 OA
HETATM    9  O2  UNL     1      17.071   0.346  11.537  1.00  0.00    -0.203 OA
BRANCH   7  10
HETATM   10  N1  UNL     1      18.929   2.170  10.898  1.00  0.00    -0.326 N 
ATOM     11  H12 UNL     1      19.272   3.114  10.717  1.00  0.00     0.168 HD
ATOM     12  H11 UNL     1      19.491   1.327  11.018  1.00  0.00     0.168 HD
ENDBRANCH   7  10
ENDBRANCH   1   7
BRANCH   6  13
HETATM   13  O7  UNL     1      16.723   1.783  14.148  1.00  0.00    -0.389 OA
ATOM     14  H7  UNL     1      17.318   1.649  14.876  1.00  0.00     0.210 HD
ENDBRANCH   6  13
BRANCH   3  15
HETATM   15  C3  UNL     1      17.870   5.631  10.894  1.00  0.00     0.198 C 
BRANCH  15  16
HETATM   16  O4  UNL     1      17.709   4.942   9.685  1.00  0.00    -0.398 OA
ATOM     17  H4  UNL     1      18.235   5.339   9.000  1.00  0.00     0.209 HD
ENDBRANCH  15  16
ENDBRANCH   3  15
BRANCH   5  18
HETATM   18  O6  UNL     1      17.591   4.139  15.334  1.00  0.00    -0.390 OA
ATOM     19  H6  UNL     1      17.109   3.663  16.000  1.00  0.00     0.210 HD
ENDBRANCH   5  18
BRANCH   4  20
HETATM   20  O5  UNL     1      18.681   5.329  13.331  1.00  0.00    -0.390 OA
ATOM     21  H5  UNL     1      19.017   6.096  12.884  1.00  0.00     0.210 HD
ENDBRANCH   4  20
TORSDOF 7
ENDMDL
