MODEL 6
REMARK VINA RESULT: -5.776791468      4.591      6.356
REMARK  7 active torsions:
REMARK  status: ('A' for Active; 'I' for Inactive)
REMARK    1  A    between atoms: N1_1  and  S1_4 
REMARK    2  A    between atoms: S1_4  and  C1_7 
REMARK    3  A    between atoms: C2_9  and  C3_10 
REMARK    4  A    between atoms: C3_10  and  O4_11 
REMARK    5  A    between atoms: C4_13  and  O5_14 
REMARK    6  A    between atoms: C5_16  and  O6_17 
REMARK    7  A    between atoms: C6_19  and  O7_20 
ROOT
HETATM    1  C1  UNL     1      18.951   4.105  11.662  1.00  0.00     0.295 C 
HETATM    2  O3  UNL     1      18.623   2.818  11.707  1.00  0.00    -0.356 OA
HETATM    3  C2  UNL     1      17.368   2.386  11.821  1.00  0.00     0.178 C 
HETATM    4  C4  UNL     1      16.337   3.326  12.337  1.00  0.00     0.180 C 
HETATM    5  C5  UNL     1      16.943   4.579  12.956  1.00  0.00     0.181 C 
HETATM    6  C6  UNL     1      17.905   5.123  11.935  1.00  0.00     0.195 C 
ENDROOT
BRANCH   1   7
HETATM    7  S1  UNL     1      19.688   4.563  10.083  1.00  0.00     0.254 S 
HETATM    8  O1  UNL     1      18.580   5.274   9.321  1.00  0.00    -0.203 OA
HETATM    9  O2  UNL     1      20.075   3.350   9.321  1.00  0.00    -0.203 OA
BRANCH   7  10
HETATM   10  N1  UNL     1      20.943   5.680  10.326  1.00  0.00    -0.326 N 
ATOM     11  H12 UNL     1      21.346   5.927  11.230  1.00  0.00     0.168 HD
ATOM     12  H11 UNL     1      21.212   6.048   9.414  1.00  0.00     0.168 HD
ENDBRANCH   7  10
ENDBRANCH   1   7
BRANCH   6  13
HETATM   13  O7  UNL     1      18.509   6.280  12.444  1.00  0.00    -0.389 OA
ATOM     14  H7  UNL     1      19.398   6.077  12.709  1.00  0.00     0.210 HD
ENDBRANCH   6  13
BRANCH   3  15
HETATM   15  C3  UNL     1      16.939   1.762  10.486  1.00  0.00     0.198 C 
BRANCH  15  16
HETATM   16  O4  UNL     1      18.059   1.389   9.731  1.00  0.00    -0.398 OA
ATOM     17  H4  UNL     1      17.855   0.650   9.171  1.00  0.00     0.209 HD
ENDBRANCH  15  16
ENDBRANCH   3  15
BRANCH   5  18
HETATM   18  O6  UNL     1      15.916   5.527  13.091  1.00  0.00    -0.390 OA
ATOM     19  H6  UNL     1      16.050   5.982  13.914  1.00  0.00     0.210 HD
ENDBRANCH   5  18
BRANCH   4  20
HETATM   20  O5  UNL     1      15.467   3.719  11.319  1.00  0.00    -0.390 OA
ATOM     21  H5  UNL     1      14.642   3.252  11.380  1.00  0.00     0.210 HD
ENDBRANCH   4  20
TORSDOF 7
ENDMDL
