MODEL 1
REMARK VINA RESULT: -6.101817756      0.000      0.000
REMARK  7 active torsions:
REMARK  status: ('A' for Active; 'I' for Inactive)
REMARK    1  A    between atoms: N1_1  and  S1_4 
REMARK    2  A    between atoms: S1_4  and  C1_7 
REMARK    3  A    between atoms: C2_9  and  C3_10 
REMARK    4  A    between atoms: C3_10  and  O4_11 
REMARK    5  A    between atoms: C4_13  and  O5_14 
REMARK    6  A    between atoms: C5_16  and  O6_17 
REMARK    7  A    between atoms: C6_19  and  O7_20 
ROOT
HETATM    1  C1  UNL     1      16.629   3.335  16.160  1.00  0.00     0.295 C 
HETATM    2  O3  UNL     1      16.739   4.642  15.947  1.00  0.00    -0.356 OA
HETATM    3  C2  UNL     1      16.490   5.216  14.771  1.00  0.00     0.178 C 
HETATM    4  C4  UNL     1      16.501   4.366  13.549  1.00  0.00     0.180 C 
HETATM    5  C5  UNL     1      17.108   2.992  13.797  1.00  0.00     0.181 C 
HETATM    6  C6  UNL     1      16.398   2.435  15.001  1.00  0.00     0.195 C 
ENDROOT
BRANCH   1   7
HETATM    7  S1  UNL     1      15.337   2.947  17.354  1.00  0.00     0.254 S 
HETATM    8  O1  UNL     1      15.986   1.991  18.343  1.00  0.00    -0.203 OA
HETATM    9  O2  UNL     1      14.214   2.240  16.689  1.00  0.00    -0.203 OA
BRANCH   7  10
HETATM   10  N1  UNL     1      14.891   4.345  18.206  1.00  0.00    -0.326 N 
ATOM     11  H12 UNL     1      14.845   4.428  19.222  1.00  0.00     0.168 HD
ATOM     12  H11 UNL     1      14.682   5.072  17.522  1.00  0.00     0.168 HD
ENDBRANCH   7  10
ENDBRANCH   1   7
BRANCH   6  13
HETATM   13  O7  UNL     1      16.915   1.166  15.293  1.00  0.00    -0.389 OA
ATOM     14  H7  UNL     1      17.454   0.874  14.567  1.00  0.00     0.210 HD
ENDBRANCH   6  13
BRANCH   3  15
HETATM   15  C3  UNL     1      15.187   6.020  14.882  1.00  0.00     0.198 C 
BRANCH  15  16
HETATM   16  O4  UNL     1      15.069   6.920  13.816  1.00  0.00    -0.398 OA
ATOM     17  H4  UNL     1      14.499   7.643  14.049  1.00  0.00     0.209 HD
ENDBRANCH  15  16
ENDBRANCH   3  15
BRANCH   5  18
HETATM   18  O6  UNL     1      16.764   2.172  12.709  1.00  0.00    -0.390 OA
ATOM     19  H6  UNL     1      16.969   1.276  12.948  1.00  0.00     0.210 HD
ENDBRANCH   5  18
BRANCH   4  20
HETATM   20  O5  UNL     1      15.209   4.191  13.053  1.00  0.00    -0.390 OA
ATOM     21  H5  UNL     1      15.222   3.701  12.240  1.00  0.00     0.210 HD
ENDBRANCH   4  20
TORSDOF 7
ENDMDL
