MODEL 10
REMARK VINA RESULT: -5.759188647      2.014      2.894
REMARK  13 active torsions:
REMARK  status: ('A' for Active; 'I' for Inactive)
REMARK    1  A    between atoms: N1_1  and  S1_4 
REMARK    2  A    between atoms: S1_4  and  C1_7 
REMARK    3  A    between atoms: C2_9  and  C3_10 
REMARK    4  A    between atoms: C3_10  and  O4_11 
REMARK    5  A    between atoms: C4_13  and  O5_14 
REMARK    6  A    between atoms: O5_14  and  C5_15 
REMARK    7  A    between atoms: C6_17  and  C7_18 
REMARK    8  A    between atoms: C7_18  and  O7_19 
REMARK    9  A    between atoms: C8_21  and  O8_22 
REMARK   10  A    between atoms: C9_24  and  O9_25 
REMARK   11  A    between atoms: C10_27  and  O10_28 
REMARK   12  A    between atoms: C11_30  and  O11_31 
REMARK   13  A    between atoms: C12_33  and  O12_34 
ROOT
HETATM    1  C1  UNL     1      16.934   4.720  12.776  1.00  0.00     0.295 C 
HETATM    2  O3  UNL     1      18.091   3.935  12.581  1.00  0.00    -0.356 OA
HETATM    3  C2  UNL     1      18.389   4.070  11.233  1.00  0.00     0.178 C 
HETATM    4  C4  UNL     1      19.218   5.327  11.090  1.00  0.00     0.187 C 
HETATM    5  C11 UNL     1      18.428   6.451  11.733  1.00  0.00     0.182 C 
HETATM    6  C12 UNL     1      17.034   6.049  12.116  1.00  0.00     0.195 C 
ENDROOT
BRANCH   4   7
HETATM    7  O5  UNL     1      20.413   5.262  11.724  1.00  0.00    -0.348 OA
BRANCH   7   8
HETATM    8  C5  UNL     1      21.552   5.537  11.044  1.00  0.00     0.292 C 
HETATM    9  O6  UNL     1      21.338   5.457   9.692  1.00  0.00    -0.348 OA
HETATM   10  C6  UNL     1      21.346   6.646   9.021  1.00  0.00     0.179 C 
HETATM   11  C8  UNL     1      22.718   7.243   9.068  1.00  0.00     0.180 C 
HETATM   12  C9  UNL     1      23.389   6.990  10.395  1.00  0.00     0.183 C 
HETATM   13  C10 UNL     1      22.342   6.715  11.486  1.00  0.00     0.204 C 
BRANCH  10  14
HETATM   14  C7  UNL     1      21.016   6.319   7.556  1.00  0.00     0.198 C 
BRANCH  14  15
HETATM   15  O7  UNL     1      20.962   4.926   7.487  1.00  0.00    -0.398 OA
ATOM     16  H7  UNL     1      20.850   4.721   6.567  1.00  0.00     0.209 HD
ENDBRANCH  14  15
ENDBRANCH  10  14
BRANCH  11  17
HETATM   17  O8  UNL     1      23.451   6.662   8.009  1.00  0.00    -0.390 OA
ATOM     18  H8  UNL     1      24.000   7.348   7.647  1.00  0.00     0.210 HD
ENDBRANCH  11  17
BRANCH  12  19
HETATM   19  O9  UNL     1      24.206   5.879  10.245  1.00  0.00    -0.390 OA
ATOM     20  H9  UNL     1      24.957   5.998  10.814  1.00  0.00     0.210 HD
ENDBRANCH  12  19
BRANCH  13  21
HETATM   21  O10 UNL     1      21.634   7.889  11.626  1.00  0.00    -0.388 OA
ATOM     22  H10 UNL     1      22.134   8.636  11.932  1.00  0.00     0.210 HD
ENDBRANCH  13  21
ENDBRANCH   7   8
ENDBRANCH   4   7
BRANCH   3  23
HETATM   23  C3  UNL     1      19.066   2.850  10.669  1.00  0.00     0.198 C 
BRANCH  23  24
HETATM   24  O4  UNL     1      19.701   3.187   9.493  1.00  0.00    -0.398 OA
ATOM     25  H4  UNL     1      20.214   2.446   9.191  1.00  0.00     0.209 HD
ENDBRANCH  23  24
ENDBRANCH   3  23
BRANCH   5  26
HETATM   26  O11 UNL     1      19.056   6.922  12.898  1.00  0.00    -0.390 OA
ATOM     27  H11 UNL     1      18.710   6.499  13.675  1.00  0.00     0.210 HD
ENDBRANCH   5  26
BRANCH   6  28
HETATM   28  O12 UNL     1      16.136   6.191  11.039  1.00  0.00    -0.389 OA
ATOM     29  H12 UNL     1      15.237   6.305  11.322  1.00  0.00     0.210 HD
ENDBRANCH   6  28
BRANCH   1  30
HETATM   30  S1  UNL     1      16.584   4.832  14.509  1.00  0.00     0.254 S 
HETATM   31  O1  UNL     1      15.266   5.526  14.676  1.00  0.00    -0.203 OA
HETATM   32  O2  UNL     1      17.706   5.534  15.191  1.00  0.00    -0.203 OA
BRANCH  30  33
HETATM   33  N1  UNL     1      16.428   3.260  15.205  1.00  0.00    -0.326 N 
ATOM     34  H12 UNL     1      15.716   2.571  14.961  1.00  0.00     0.168 HD
ATOM     35  H11 UNL     1      17.173   3.158  15.894  1.00  0.00     0.168 HD
ENDBRANCH  30  33
ENDBRANCH   1  30
TORSDOF 13
ENDMDL
