MODEL 9
REMARK VINA RESULT: -5.767311623      3.738      7.189
REMARK  13 active torsions:
REMARK  status: ('A' for Active; 'I' for Inactive)
REMARK    1  A    between atoms: N1_1  and  S1_4 
REMARK    2  A    between atoms: S1_4  and  C1_7 
REMARK    3  A    between atoms: C2_9  and  C3_10 
REMARK    4  A    between atoms: C3_10  and  O4_11 
REMARK    5  A    between atoms: C4_13  and  O5_14 
REMARK    6  A    between atoms: O5_14  and  C5_15 
REMARK    7  A    between atoms: C6_17  and  C7_18 
REMARK    8  A    between atoms: C7_18  and  O7_19 
REMARK    9  A    between atoms: C8_21  and  O8_22 
REMARK   10  A    between atoms: C9_24  and  O9_25 
REMARK   11  A    between atoms: C10_27  and  O10_28 
REMARK   12  A    between atoms: C11_30  and  O11_31 
REMARK   13  A    between atoms: C12_33  and  O12_34 
ROOT
HETATM    1  C1  UNL     1      20.672   7.173   7.961  1.00  0.00     0.295 C 
HETATM    2  O3  UNL     1      21.007   5.996   8.667  1.00  0.00    -0.356 OA
HETATM    3  C2  UNL     1      20.783   6.306  10.001  1.00  0.00     0.178 C 
HETATM    4  C4  UNL     1      19.316   6.049  10.269  1.00  0.00     0.187 C 
HETATM    5  C11 UNL     1      18.534   6.844   9.240  1.00  0.00     0.182 C 
HETATM    6  C12 UNL     1      19.394   7.770   8.432  1.00  0.00     0.195 C 
ENDROOT
BRANCH   4   7
HETATM    7  O5  UNL     1      18.960   4.750  10.129  1.00  0.00    -0.348 OA
BRANCH   7   8
HETATM    8  C5  UNL     1      18.350   4.105  11.154  1.00  0.00     0.292 C 
HETATM    9  O6  UNL     1      18.514   4.798  12.325  1.00  0.00    -0.348 OA
HETATM   10  C6  UNL     1      17.392   5.404  12.814  1.00  0.00     0.179 C 
HETATM   11  C8  UNL     1      16.395   4.365  13.223  1.00  0.00     0.180 C 
HETATM   12  C9  UNL     1      16.404   3.186  12.282  1.00  0.00     0.183 C 
HETATM   13  C10 UNL     1      16.978   3.589  10.915  1.00  0.00     0.204 C 
BRANCH  10  14
HETATM   14  C7  UNL     1      17.828   6.169  14.073  1.00  0.00     0.198 C 
BRANCH  14  15
HETATM   15  O7  UNL     1      19.186   5.890  14.230  1.00  0.00    -0.398 OA
ATOM     16  H7  UNL     1      19.394   6.130  15.125  1.00  0.00     0.209 HD
ENDBRANCH  14  15
ENDBRANCH  10  14
BRANCH  11  17
HETATM   17  O8  UNL     1      16.731   3.971  14.537  1.00  0.00    -0.390 OA
ATOM     18  H8  UNL     1      16.507   4.697  15.106  1.00  0.00     0.210 HD
ENDBRANCH  11  17
BRANCH  12  19
HETATM   19  O9  UNL     1      17.205   2.206  12.850  1.00  0.00    -0.390 OA
ATOM     20  H9  UNL     1      16.762   1.373  12.734  1.00  0.00     0.210 HD
ENDBRANCH  12  19
BRANCH  13  21
HETATM   21  O10 UNL     1      16.083   4.497  10.390  1.00  0.00    -0.388 OA
ATOM     22  H10 UNL     1      15.780   4.312   9.509  1.00  0.00     0.210 HD
ENDBRANCH  13  21
ENDBRANCH   7   8
ENDBRANCH   4   7
BRANCH   3  23
HETATM   23  C3  UNL     1      21.693   5.548  10.928  1.00  0.00     0.198 C 
BRANCH  23  24
HETATM   24  O4  UNL     1      21.211   5.644  12.215  1.00  0.00    -0.398 OA
ATOM     25  H4  UNL     1      20.462   6.230  12.226  1.00  0.00     0.209 HD
ENDBRANCH  23  24
ENDBRANCH   3  23
BRANCH   5  26
HETATM   26  O11 UNL     1      17.870   6.001   8.334  1.00  0.00    -0.390 OA
ATOM     27  H11 UNL     1      16.972   6.277   8.195  1.00  0.00     0.210 HD
ENDBRANCH   5  26
BRANCH   6  28
HETATM   28  O12 UNL     1      19.577   9.009   9.079  1.00  0.00    -0.389 OA
ATOM     29  H12 UNL     1      19.087   9.076   9.889  1.00  0.00     0.210 HD
ENDBRANCH   6  28
BRANCH   1  30
HETATM   30  S1  UNL     1      20.683   6.839   6.222  1.00  0.00     0.254 S 
HETATM   31  O1  UNL     1      21.479   7.913   5.544  1.00  0.00    -0.203 OA
HETATM   32  O2  UNL     1      19.280   6.752   5.731  1.00  0.00    -0.203 OA
BRANCH  30  33
HETATM   33  N1  UNL     1      21.465   5.335   5.892  1.00  0.00    -0.326 N 
ATOM     34  H12 UNL     1      22.356   5.224   5.409  1.00  0.00     0.168 HD
ATOM     35  H11 UNL     1      20.871   4.596   6.268  1.00  0.00     0.168 HD
ENDBRANCH  30  33
ENDBRANCH   1  30
TORSDOF 13
ENDMDL
