MODEL 3
REMARK VINA RESULT: -6.526403374      1.243      2.257
REMARK  13 active torsions:
REMARK  status: ('A' for Active; 'I' for Inactive)
REMARK    1  A    between atoms: N1_1  and  S1_4 
REMARK    2  A    between atoms: S1_4  and  C1_7 
REMARK    3  A    between atoms: C2_9  and  C3_10 
REMARK    4  A    between atoms: C3_10  and  O4_11 
REMARK    5  A    between atoms: C4_13  and  O5_14 
REMARK    6  A    between atoms: O5_14  and  C5_15 
REMARK    7  A    between atoms: C6_17  and  C7_18 
REMARK    8  A    between atoms: C7_18  and  O7_19 
REMARK    9  A    between atoms: C8_21  and  O8_22 
REMARK   10  A    between atoms: C9_24  and  O9_25 
REMARK   11  A    between atoms: C10_27  and  O10_28 
REMARK   12  A    between atoms: C11_30  and  O11_31 
REMARK   13  A    between atoms: C12_33  and  O12_34 
ROOT
HETATM    1  C1  UNL     1      15.855   3.809  14.729  1.00  0.00     0.295 C 
HETATM    2  O3  UNL     1      16.528   3.338  13.580  1.00  0.00    -0.356 OA
HETATM    3  C2  UNL     1      16.233   4.265  12.590  1.00  0.00     0.178 C 
HETATM    4  C4  UNL     1      17.244   5.383  12.722  1.00  0.00     0.187 C 
HETATM    5  C11 UNL     1      17.177   5.869  14.159  1.00  0.00     0.182 C 
HETATM    6  C12 UNL     1      16.040   5.271  14.932  1.00  0.00     0.195 C 
ENDROOT
BRANCH   4   7
HETATM    7  O5  UNL     1      18.518   4.991  12.489  1.00  0.00    -0.348 OA
BRANCH   7   8
HETATM    8  C5  UNL     1      19.132   5.348  11.335  1.00  0.00     0.292 C 
HETATM    9  O6  UNL     1      20.190   6.181  11.589  1.00  0.00    -0.348 OA
HETATM   10  C6  UNL     1      21.429   5.641  11.393  1.00  0.00     0.179 C 
HETATM   11  C8  UNL     1      21.627   5.347   9.939  1.00  0.00     0.180 C 
HETATM   12  C9  UNL     1      20.355   4.859   9.292  1.00  0.00     0.183 C 
HETATM   13  C10 UNL     1      19.403   4.272  10.346  1.00  0.00     0.204 C 
BRANCH  10  14
HETATM   14  C7  UNL     1      22.442   6.720  11.806  1.00  0.00     0.198 C 
BRANCH  14  15
HETATM   15  O7  UNL     1      23.691   6.098  11.759  1.00  0.00    -0.398 OA
ATOM     16  H7  UNL     1      23.541   5.205  12.047  1.00  0.00     0.209 HD
ENDBRANCH  14  15
ENDBRANCH  10  14
BRANCH  11  17
HETATM   17  O8  UNL     1      22.076   6.545   9.339  1.00  0.00    -0.390 OA
ATOM     18  H8  UNL     1      22.274   6.339   8.433  1.00  0.00     0.210 HD
ENDBRANCH  11  17
BRANCH  12  19
HETATM   19  O9  UNL     1      19.754   5.949   8.680  1.00  0.00    -0.390 OA
ATOM     20  H9  UNL     1      18.928   6.106   9.123  1.00  0.00     0.210 HD
ENDBRANCH  12  19
BRANCH  13  21
HETATM   21  O10 UNL     1      20.040   3.155  10.841  1.00  0.00    -0.388 OA
ATOM     22  H10 UNL     1      20.860   3.315  11.293  1.00  0.00     0.210 HD
ENDBRANCH  13  21
ENDBRANCH   7   8
ENDBRANCH   4   7
BRANCH   3  23
HETATM   23  C3  UNL     1      16.210   3.652  11.217  1.00  0.00     0.198 C 
BRANCH  23  24
HETATM   24  O4  UNL     1      15.908   4.626  10.290  1.00  0.00    -0.398 OA
ATOM     25  H4  UNL     1      16.544   5.330  10.358  1.00  0.00     0.209 HD
ENDBRANCH  23  24
ENDBRANCH   3  23
BRANCH   5  26
HETATM   26  O11 UNL     1      18.356   5.567  14.859  1.00  0.00    -0.390 OA
ATOM     27  H11 UNL     1      18.916   6.330  14.944  1.00  0.00     0.210 HD
ENDBRANCH   5  26
BRANCH   6  28
HETATM   28  O12 UNL     1      14.847   6.000  14.753  1.00  0.00    -0.389 OA
ATOM     29  H12 UNL     1      14.129   5.460  14.447  1.00  0.00     0.210 HD
ENDBRANCH   6  28
BRANCH   1  30
HETATM   30  S1  UNL     1      16.345   2.847  16.133  1.00  0.00     0.254 S 
HETATM   31  O1  UNL     1      17.732   3.261  16.522  1.00  0.00    -0.203 OA
HETATM   32  O2  UNL     1      16.239   1.401  15.797  1.00  0.00    -0.203 OA
BRANCH  30  33
HETATM   33  N1  UNL     1      15.317   3.166  17.483  1.00  0.00    -0.326 N 
ATOM     34  H12 UNL     1      15.582   3.681  18.322  1.00  0.00     0.168 HD
ATOM     35  H11 UNL     1      14.411   2.745  17.279  1.00  0.00     0.168 HD
ENDBRANCH  30  33
ENDBRANCH   1  30
TORSDOF 13
ENDMDL
