MODEL 5
REMARK VINA RESULT: -7.372654314      1.835      4.202
REMARK  4 active torsions:
REMARK  status: ('A' for Active; 'I' for Inactive)
REMARK    1  A    between atoms: C6_8  and  C7_9 
REMARK    2  A    between atoms: C7_9  and  O3_10 
REMARK    3  A    between atoms: O3_10  and  S1_11 
REMARK    4  A    between atoms: S1_11  and  N1_12 
ROOT
HETATM    1  C1  UNL     1      16.029   1.607   9.782  1.00  0.00     0.078 C 
HETATM    2  C2  UNL     1      17.033   1.795  10.884  1.00  0.00     0.158 C 
HETATM    3  C3  UNL     1      18.308   1.025  10.665  1.00  0.00     0.078 C 
HETATM    4  O1  UNL     1      16.537   1.395  12.135  1.00  0.00    -0.346 OA
HETATM    5  C4  UNL     1      17.439   2.082  12.967  1.00  0.00     0.180 C 
HETATM    6  C5  UNL     1      16.918   2.228  14.374  1.00  0.00     0.206 C 
HETATM    7  O2  UNL     1      17.271   3.516  14.809  1.00  0.00    -0.348 OA
HETATM    8  C6  UNL     1      16.342   4.442  14.309  1.00  0.00     0.219 C 
HETATM    9  O6  UNL     1      16.873   5.707  14.158  1.00  0.00    -0.315 OA
HETATM   10  C8  UNL     1      16.327   6.263  13.012  1.00  0.00     0.161 C 
HETATM   11  C9  UNL     1      17.394   6.855  12.098  1.00  0.00     0.078 C 
HETATM   12  C10 UNL     1      15.371   7.382  13.355  1.00  0.00     0.078 C 
HETATM   13  O7  UNL     1      15.710   5.251  12.301  1.00  0.00    -0.342 OA
HETATM   14  C11 UNL     1      16.043   4.048  12.890  1.00  0.00     0.221 C 
HETATM   15  C12 UNL     1      17.339   3.467  12.334  1.00  0.00     0.191 C 
HETATM   16  O8  UNL     1      17.260   3.176  10.991  1.00  0.00    -0.345 OA
ENDROOT
BRANCH   8  17
HETATM   17  C7  UNL     1      15.149   4.386  15.220  1.00  0.00     0.263 C 
BRANCH  17  18
HETATM   18  O3  UNL     1      15.650   4.526  16.525  1.00  0.00    -0.254 OA
BRANCH  18  19
HETATM   19  S1  UNL     1      15.062   3.367  17.565  1.00  0.00     0.355 S 
HETATM   20  O4  UNL     1      13.706   2.948  17.077  1.00  0.00    -0.176 OA
HETATM   21  O5  UNL     1      15.952   2.178  17.697  1.00  0.00    -0.176 OA
BRANCH  19  22
HETATM   22  N1  UNL     1      14.868   4.076  19.128  1.00  0.00    -0.306 N 
ATOM     23  H12 UNL     1      15.552   4.681  19.584  1.00  0.00     0.171 HD
ATOM     24  H11 UNL     1      13.965   3.788  19.507  1.00  0.00     0.171 HD
ENDBRANCH  19  22
ENDBRANCH  18  19
ENDBRANCH  17  18
ENDBRANCH   8  17
TORSDOF 4
ENDMDL
