MODEL 6
REMARK VINA RESULT: -7.236011536      2.769      4.370
REMARK  4 active torsions:
REMARK  status: ('A' for Active; 'I' for Inactive)
REMARK    1  A    between atoms: C6_8  and  C7_9 
REMARK    2  A    between atoms: C7_9  and  O3_10 
REMARK    3  A    between atoms: O3_10  and  S1_11 
REMARK    4  A    between atoms: S1_11  and  N1_12 
ROOT
HETATM    1  C1  UNL     1      14.302   8.720  12.317  1.00  0.00     0.078 C 
HETATM    2  C2  UNL     1      15.666   8.248  11.899  1.00  0.00     0.158 C 
HETATM    3  C3  UNL     1      16.547   9.355  11.384  1.00  0.00     0.078 C 
HETATM    4  O1  UNL     1      15.611   7.280  10.884  1.00  0.00    -0.346 OA
HETATM    5  C4  UNL     1      16.894   6.724  11.031  1.00  0.00     0.180 C 
HETATM    6  C5  UNL     1      17.001   5.362  10.393  1.00  0.00     0.206 C 
HETATM    7  O2  UNL     1      17.779   4.568  11.252  1.00  0.00    -0.348 OA
HETATM    8  C6  UNL     1      16.967   4.081  12.289  1.00  0.00     0.219 C 
HETATM    9  O6  UNL     1      17.674   3.819  13.445  1.00  0.00    -0.315 OA
HETATM   10  C8  UNL     1      16.873   4.168  14.522  1.00  0.00     0.161 C 
HETATM   11  C9  UNL     1      17.612   5.044  15.526  1.00  0.00     0.078 C 
HETATM   12  C10 UNL     1      16.405   2.940  15.269  1.00  0.00     0.078 C 
HETATM   13  O7  UNL     1      15.817   4.917  14.039  1.00  0.00    -0.342 OA
HETATM   14  C11 UNL     1      16.065   5.206  12.713  1.00  0.00     0.221 C 
HETATM   15  C12 UNL     1      16.878   6.484  12.538  1.00  0.00     0.191 C 
HETATM   16  O8  UNL     1      16.226   7.600  13.011  1.00  0.00    -0.345 OA
ENDROOT
BRANCH   8  17
HETATM   17  C7  UNL     1      16.237   2.890  11.737  1.00  0.00     0.263 C 
BRANCH  17  18
HETATM   18  O3  UNL     1      16.984   1.764  12.121  1.00  0.00    -0.254 OA
BRANCH  18  19
HETATM   19  S1  UNL     1      17.903   1.151  10.877  1.00  0.00     0.355 S 
HETATM   20  O4  UNL     1      18.240  -0.274  11.205  1.00  0.00    -0.176 OA
HETATM   21  O5  UNL     1      17.234   1.228   9.547  1.00  0.00    -0.176 OA
BRANCH  19  22
HETATM   22  N1  UNL     1      19.382   2.039  10.793  1.00  0.00    -0.306 N 
ATOM     23  H12 UNL     1      19.450   3.056  10.736  1.00  0.00     0.171 HD
ATOM     24  H11 UNL     1      20.160   1.379  10.811  1.00  0.00     0.171 HD
ENDBRANCH  19  22
ENDBRANCH  18  19
ENDBRANCH  17  18
ENDBRANCH   8  17
TORSDOF 4
ENDMDL
