MODEL 8
REMARK VINA RESULT: -7.020673418      3.031      5.419
REMARK  4 active torsions:
REMARK  status: ('A' for Active; 'I' for Inactive)
REMARK    1  A    between atoms: C6_8  and  C7_9 
REMARK    2  A    between atoms: C7_9  and  O3_10 
REMARK    3  A    between atoms: O3_10  and  S1_11 
REMARK    4  A    between atoms: S1_11  and  N1_12 
ROOT
HETATM    1  C1  UNL     1      16.170   1.435   9.393  1.00  0.00     0.078 C 
HETATM    2  C2  UNL     1      16.884   1.569  10.708  1.00  0.00     0.158 C 
HETATM    3  C3  UNL     1      17.134   0.248  11.385  1.00  0.00     0.078 C 
HETATM    4  O1  UNL     1      16.174   2.357  11.627  1.00  0.00    -0.346 OA
HETATM    5  C4  UNL     1      17.221   2.676  12.509  1.00  0.00     0.180 C 
HETATM    6  C5  UNL     1      16.899   3.875  13.364  1.00  0.00     0.206 C 
HETATM    7  O2  UNL     1      18.078   4.633  13.467  1.00  0.00    -0.348 OA
HETATM    8  C6  UNL     1      18.218   5.422  12.314  1.00  0.00     0.219 C 
HETATM    9  O6  UNL     1      19.535   5.725  12.029  1.00  0.00    -0.315 OA
HETATM   10  C8  UNL     1      19.686   5.708  10.651  1.00  0.00     0.161 C 
HETATM   11  C9  UNL     1      20.887   4.877  10.216  1.00  0.00     0.078 C 
HETATM   12  C10 UNL     1      19.898   7.104  10.112  1.00  0.00     0.078 C 
HETATM   13  O7  UNL     1      18.567   5.106  10.108  1.00  0.00    -0.342 OA
HETATM   14  C11 UNL     1      17.824   4.570  11.141  1.00  0.00     0.221 C 
HETATM   15  C12 UNL     1      18.255   3.150  11.491  1.00  0.00     0.191 C 
HETATM   16  O8  UNL     1      18.075   2.266  10.451  1.00  0.00    -0.345 OA
ENDROOT
BRANCH   8  17
HETATM   17  C7  UNL     1      17.344   6.628  12.512  1.00  0.00     0.263 C 
BRANCH  17  18
HETATM   18  O3  UNL     1      16.296   6.504  11.585  1.00  0.00    -0.254 OA
BRANCH  18  19
HETATM   19  S1  UNL     1      16.152   7.836  10.598  1.00  0.00     0.355 S 
HETATM   20  O4  UNL     1      14.726   8.301  10.648  1.00  0.00    -0.176 OA
HETATM   21  O5  UNL     1      17.071   8.952  10.966  1.00  0.00    -0.176 OA
BRANCH  19  22
HETATM   22  N1  UNL     1      16.499   7.360   8.974  1.00  0.00    -0.306 N 
ATOM     23  H12 UNL     1      17.338   6.861   8.679  1.00  0.00     0.171 HD
ATOM     24  H11 UNL     1      15.730   7.661   8.375  1.00  0.00     0.171 HD
ENDBRANCH  19  22
ENDBRANCH  18  19
ENDBRANCH  17  18
ENDBRANCH   8  17
TORSDOF 4
ENDMDL
