MODEL 11
REMARK VINA RESULT: -6.896041053      2.316      2.989
REMARK  4 active torsions:
REMARK  status: ('A' for Active; 'I' for Inactive)
REMARK    1  A    between atoms: C6_8  and  C7_9 
REMARK    2  A    between atoms: C7_9  and  O3_10 
REMARK    3  A    between atoms: O3_10  and  S1_11 
REMARK    4  A    between atoms: S1_11  and  N1_12 
ROOT
HETATM    1  C1  UNL     1      19.873   8.959  14.372  1.00  0.00     0.078 C 
HETATM    2  C2  UNL     1      18.778   8.809  13.354  1.00  0.00     0.158 C 
HETATM    3  C3  UNL     1      18.345  10.118  12.750  1.00  0.00     0.078 C 
HETATM    4  O1  UNL     1      17.623   8.219  13.891  1.00  0.00    -0.346 OA
HETATM    5  C4  UNL     1      17.007   7.800  12.699  1.00  0.00     0.180 C 
HETATM    6  C5  UNL     1      15.964   6.737  12.940  1.00  0.00     0.206 C 
HETATM    7  O2  UNL     1      16.080   5.806  11.894  1.00  0.00    -0.348 OA
HETATM    8  C6  UNL     1      17.131   4.920  12.181  1.00  0.00     0.219 C 
HETATM    9  O6  UNL     1      17.706   4.386  11.046  1.00  0.00    -0.315 OA
HETATM   10  C8  UNL     1      19.069   4.274  11.272  1.00  0.00     0.161 C 
HETATM   11  C9  UNL     1      19.890   4.862  10.131  1.00  0.00     0.078 C 
HETATM   12  C10 UNL     1      19.479   2.826  11.409  1.00  0.00     0.078 C 
HETATM   13  O7  UNL     1      19.373   5.009  12.402  1.00  0.00    -0.342 OA
HETATM   14  C11 UNL     1      18.255   5.736  12.756  1.00  0.00     0.221 C 
HETATM   15  C12 UNL     1      18.193   7.088  12.055  1.00  0.00     0.191 C 
HETATM   16  O8  UNL     1      19.248   7.909  12.385  1.00  0.00    -0.345 OA
ENDROOT
BRANCH   8  17
HETATM   17  C7  UNL     1      16.578   3.893  13.126  1.00  0.00     0.263 C 
BRANCH  17  18
HETATM   18  O3  UNL     1      17.264   4.072  14.339  1.00  0.00    -0.254 OA
BRANCH  18  19
HETATM   19  S1  UNL     1      16.785   2.991  15.511  1.00  0.00     0.355 S 
HETATM   20  O4  UNL     1      16.449   1.693  14.838  1.00  0.00    -0.176 OA
HETATM   21  O5  UNL     1      17.810   2.771  16.572  1.00  0.00    -0.176 OA
BRANCH  19  22
HETATM   22  N1  UNL     1      15.349   3.589  16.260  1.00  0.00    -0.306 N 
ATOM     23  H12 UNL     1      14.881   3.154  17.055  1.00  0.00     0.171 HD
ATOM     24  H11 UNL     1      15.057   4.438  15.775  1.00  0.00     0.171 HD
ENDBRANCH  19  22
ENDBRANCH  18  19
ENDBRANCH  17  18
ENDBRANCH   8  17
TORSDOF 4
ENDMDL
