MODEL 1
REMARK VINA RESULT: -9.137299815      0.000      0.000
REMARK  7 active torsions:
REMARK  status: ('A' for Active; 'I' for Inactive)
REMARK    1  A    between atoms: C2_2  and  C4_4 
REMARK    2  A    between atoms: C4_4  and  O1_5 
REMARK    3  A    between atoms: O1_5  and  C5_6 
REMARK    4  A    between atoms: C8_9  and  C9_10 
REMARK    5  A    between atoms: C18_24  and  O4_25 
REMARK    6  A    between atoms: N2_31  and  C23_32 
REMARK    7  A    between atoms: C23_32  and  O5_33 
ROOT
HETATM    1  C9  UNL     1      37.057   1.557 -18.910  1.00  0.00     0.175 C 
HETATM    2  C10 UNL     1      37.239   1.306 -17.481  1.00  0.00     0.087 C 
HETATM    3  C11 UNL     1      37.889   0.395 -16.775  1.00  0.00     0.030 C 
HETATM    4  C12 UNL     1      37.879   0.427 -15.323  1.00  0.00     0.068 C 
HETATM    5  C13 UNL     1      38.266   1.667 -14.621  1.00  0.00    -0.029 C 
HETATM    6  C14 UNL     1      37.811   1.475 -13.158  1.00  0.00     0.016 C 
HETATM    7  C15 UNL     1      39.770   1.804 -14.542  1.00  0.00     0.016 C 
HETATM    8  C16 UNL     1      37.577   2.911 -15.108  1.00  0.00     0.154 C 
HETATM    9  S1  UNL     1      36.472   2.526 -16.466  1.00  0.00     0.176 S 
HETATM   10  O2  UNL     1      36.302   3.760 -17.279  1.00  0.00    -0.223 OA
HETATM   11  O3  UNL     1      35.164   2.109 -15.916  1.00  0.00    -0.223 OA
HETATM   12  N1  UNL     1      38.633  -0.721 -17.331  1.00  0.00    -0.354 N 
ATOM     13  H1  UNL     1      39.542  -0.970 -16.941  1.00  0.00     0.166 HD
HETATM   14  C17 UNL     1      38.090  -1.479 -18.438  1.00  0.00     0.093 A 
HETATM   15  C18 UNL     1      38.332  -2.824 -18.308  1.00  0.00     0.094 A 
HETATM   16  C19 UNL     1      37.791  -3.715 -19.231  1.00  0.00     0.039 A 
HETATM   17  C20 UNL     1      37.027  -3.223 -20.248  1.00  0.00     0.005 A 
HETATM   18  C21 UNL     1      36.765  -1.865 -20.405  1.00  0.00     0.032 A 
HETATM   19  C22 UNL     1      37.315  -0.997 -19.484  1.00  0.00     0.067 A 
HETATM   20  N2  UNL     1      37.029   0.386 -19.781  1.00  0.00    -0.309 N 
ENDROOT
BRANCH   1  21
HETATM   21  C8  UNL     1      35.968   2.485 -19.211  1.00  0.00     0.009 A 
HETATM   22  C7  UNL     1      34.640   2.268 -18.994  1.00  0.00     0.015 A 
HETATM   23  C6  UNL     1      33.666   3.191 -19.375  1.00  0.00     0.037 A 
HETATM   24  C5  UNL     1      33.990   4.373 -19.992  1.00  0.00     0.072 A 
HETATM   25  C30 UNL     1      35.347   4.619 -20.226  1.00  0.00     0.079 A 
HETATM   26  C29 UNL     1      36.284   3.700 -19.845  1.00  0.00     0.127 A 
HETATM   27  F1  UNL     1      37.597   4.018 -20.113  1.00  0.00    -0.205 F 
BRANCH  24  28
HETATM   28  O1  UNL     1      33.094   5.331 -20.405  1.00  0.00    -0.347 OA
BRANCH  28  29
HETATM   29  C4  UNL     1      32.889   5.756 -21.735  1.00  0.00     0.208 C 
BRANCH  29  30
HETATM   30  C2  UNL     1      32.695   7.255 -21.755  1.00  0.00    -0.069 C 
HETATM   31  C1  UNL     1      31.842   7.827 -22.604  1.00  0.00     0.016 C 
HETATM   32  C3  UNL     1      33.501   8.067 -20.791  1.00  0.00     0.044 C 
ENDBRANCH  29  30
ENDBRANCH  28  29
ENDBRANCH  24  28
ENDBRANCH   1  21
BRANCH  20  33
HETATM   33  C23 UNL     1      36.665   0.562 -21.125  1.00  0.00     0.173 C 
HETATM   34  C24 UNL     1      37.139   0.289 -22.426  1.00  0.00     0.115 A 
HETATM   35  N3  UNL     1      37.565   0.044 -23.594  1.00  0.00    -0.335 N 
HETATM   36  C27 UNL     1      38.654   0.944 -22.192  1.00  0.00     0.082 A 
HETATM   37  C25 UNL     1      38.631   0.237 -24.188  1.00  0.00     0.120 A 
ATOM     38  H3  UNL     1      36.868  -0.419 -24.178  1.00  0.00     0.168 HD
HETATM   39  C26 UNL     1      39.092  -0.081 -25.606  1.00  0.00     0.098 C 
HETATM   40  O6  UNL     1      39.302   0.812 -23.259  1.00  0.00    -0.300 OA
HETATM   41  C28 UNL     1      39.075   1.554 -20.982  1.00  0.00     0.079 C 
BRANCH  33  42
HETATM   42  O5  UNL     1      35.462   1.175 -21.255  1.00  0.00    -0.344 OA
ATOM     43  H5  UNL     1      35.441   1.775 -21.992  1.00  0.00     0.219 HD
ENDBRANCH  33  42
ENDBRANCH  20  33
BRANCH  15  44
HETATM   44  O4  UNL     1      39.099  -3.276 -17.269  1.00  0.00    -0.358 OA
ATOM     45  H4  UNL     1      39.678  -4.017 -17.401  1.00  0.00     0.217 HD
ENDBRANCH  15  44
TORSDOF 7
ENDMDL
