MODEL 5
REMARK VINA RESULT: -8.434351344      2.434      3.096
REMARK  7 active torsions:
REMARK  status: ('A' for Active; 'I' for Inactive)
REMARK    1  A    between atoms: C2_2  and  C4_4 
REMARK    2  A    between atoms: C4_4  and  O1_5 
REMARK    3  A    between atoms: O1_5  and  C5_6 
REMARK    4  A    between atoms: C8_9  and  C9_10 
REMARK    5  A    between atoms: C18_24  and  O4_25 
REMARK    6  A    between atoms: N2_31  and  C23_32 
REMARK    7  A    between atoms: C23_32  and  O5_33 
ROOT
HETATM    1  C9  UNL     1      36.961   1.235 -19.644  1.00  0.00     0.175 C 
HETATM    2  C10 UNL     1      38.199   1.476 -18.904  1.00  0.00     0.087 C 
HETATM    3  C11 UNL     1      39.194   0.710 -18.489  1.00  0.00     0.030 C 
HETATM    4  C12 UNL     1      40.319   1.273 -17.762  1.00  0.00     0.068 C 
HETATM    5  C13 UNL     1      41.055   2.417 -18.335  1.00  0.00    -0.029 C 
HETATM    6  C14 UNL     1      41.919   2.974 -17.183  1.00  0.00     0.016 C 
HETATM    7  C15 UNL     1      42.050   1.960 -19.377  1.00  0.00     0.016 C 
HETATM    8  C16 UNL     1      40.191   3.559 -18.793  1.00  0.00     0.154 C 
HETATM    9  S1  UNL     1      38.458   3.179 -18.534  1.00  0.00     0.176 S 
HETATM   10  O2  UNL     1      37.666   3.986 -19.499  1.00  0.00    -0.223 OA
HETATM   11  O3  UNL     1      38.087   3.553 -17.152  1.00  0.00    -0.223 OA
HETATM   12  N1  UNL     1      39.273  -0.729 -18.668  1.00  0.00    -0.354 N 
ATOM     13  H1  UNL     1      40.156  -1.159 -18.944  1.00  0.00     0.166 HD
HETATM   14  C17 UNL     1      38.104  -1.555 -18.456  1.00  0.00     0.093 A 
HETATM   15  C18 UNL     1      38.414  -2.734 -17.825  1.00  0.00     0.094 A 
HETATM   16  C19 UNL     1      37.395  -3.605 -17.450  1.00  0.00     0.039 A 
HETATM   17  C20 UNL     1      36.104  -3.259 -17.721  1.00  0.00     0.005 A 
HETATM   18  C21 UNL     1      35.759  -2.071 -18.359  1.00  0.00     0.032 A 
HETATM   19  C22 UNL     1      36.784  -1.224 -18.729  1.00  0.00     0.067 A 
HETATM   20  N2  UNL     1      36.314  -0.057 -19.435  1.00  0.00    -0.309 N 
ENDROOT
BRANCH   1  21
HETATM   21  C8  UNL     1      36.006   2.340 -19.568  1.00  0.00     0.009 A 
HETATM   22  C7  UNL     1      35.362   2.775 -18.448  1.00  0.00     0.015 A 
HETATM   23  C6  UNL     1      34.416   3.799 -18.487  1.00  0.00     0.037 A 
HETATM   24  C5  UNL     1      34.078   4.428 -19.658  1.00  0.00     0.072 A 
HETATM   25  C30 UNL     1      34.724   4.000 -20.822  1.00  0.00     0.079 A 
HETATM   26  C29 UNL     1      35.648   2.995 -20.761  1.00  0.00     0.127 A 
HETATM   27  F1  UNL     1      36.236   2.631 -21.951  1.00  0.00    -0.205 F 
BRANCH  24  28
HETATM   28  O1  UNL     1      33.154   5.439 -19.785  1.00  0.00    -0.347 OA
BRANCH  28  29
HETATM   29  C4  UNL     1      33.333   6.642 -20.499  1.00  0.00     0.208 C 
BRANCH  29  30
HETATM   30  C2  UNL     1      31.981   7.227 -20.839  1.00  0.00    -0.069 C 
HETATM   31  C1  UNL     1      31.030   7.344 -19.913  1.00  0.00     0.016 C 
HETATM   32  C3  UNL     1      31.753   7.660 -22.253  1.00  0.00     0.044 C 
ENDBRANCH  29  30
ENDBRANCH  28  29
ENDBRANCH  24  28
ENDBRANCH   1  21
BRANCH  20  33
HETATM   33  C23 UNL     1      35.032  -0.255 -19.969  1.00  0.00     0.173 C 
HETATM   34  C24 UNL     1      34.313  -1.179 -20.758  1.00  0.00     0.115 A 
HETATM   35  N3  UNL     1      33.667  -2.007 -21.467  1.00  0.00    -0.335 N 
HETATM   36  C27 UNL     1      35.424  -1.236 -22.000  1.00  0.00     0.082 A 
HETATM   37  C25 UNL     1      33.860  -2.550 -22.560  1.00  0.00     0.120 A 
ATOM     38  H3  UNL     1      32.786  -2.290 -21.038  1.00  0.00     0.168 HD
HETATM   39  C26 UNL     1      33.041  -3.548 -23.373  1.00  0.00     0.098 C 
HETATM   40  O6  UNL     1      34.993  -2.035 -22.867  1.00  0.00    -0.300 OA
HETATM   41  C28 UNL     1      36.621  -0.475 -22.028  1.00  0.00     0.079 C 
BRANCH  33  42
HETATM   42  O5  UNL     1      34.170   0.731 -19.618  1.00  0.00    -0.344 OA
ATOM     43  H5  UNL     1      33.453   0.820 -20.235  1.00  0.00     0.219 HD
ENDBRANCH  33  42
ENDBRANCH  20  33
BRANCH  15  44
HETATM   44  O4  UNL     1      39.723  -3.040 -17.568  1.00  0.00    -0.358 OA
ATOM     45  H4  UNL     1      39.934  -3.654 -16.875  1.00  0.00     0.217 HD
ENDBRANCH  15  44
TORSDOF 7
ENDMDL
