MODEL 3
REMARK VINA RESULT: -8.610691104      2.340      6.500
REMARK  7 active torsions:
REMARK  status: ('A' for Active; 'I' for Inactive)
REMARK    1  A    between atoms: C2_2  and  C4_4 
REMARK    2  A    between atoms: C4_4  and  O1_5 
REMARK    3  A    between atoms: O1_5  and  C5_6 
REMARK    4  A    between atoms: C8_9  and  C9_10 
REMARK    5  A    between atoms: C18_24  and  O4_25 
REMARK    6  A    between atoms: N2_31  and  C23_32 
REMARK    7  A    between atoms: C23_32  and  O5_33 
ROOT
HETATM    1  C9  UNL     1      37.303   1.570 -19.728  1.00  0.00     0.175 C 
HETATM    2  C10 UNL     1      38.223   0.515 -20.150  1.00  0.00     0.087 C 
HETATM    3  C11 UNL     1      38.416  -0.150 -21.277  1.00  0.00     0.030 C 
HETATM    4  C12 UNL     1      39.451  -1.165 -21.378  1.00  0.00     0.068 C 
HETATM    5  C13 UNL     1      40.837  -0.828 -21.001  1.00  0.00    -0.029 C 
HETATM    6  C14 UNL     1      41.576  -2.179 -20.886  1.00  0.00     0.016 C 
HETATM    7  C15 UNL     1      41.546  -0.096 -22.118  1.00  0.00     0.016 C 
HETATM    8  C16 UNL     1      40.985  -0.161 -19.661  1.00  0.00     0.154 C 
HETATM    9  S1  UNL     1      39.380   0.072 -18.896  1.00  0.00     0.176 S 
HETATM   10  O2  UNL     1      39.489   1.210 -17.946  1.00  0.00    -0.223 OA
HETATM   11  O3  UNL     1      39.018  -1.159 -18.159  1.00  0.00    -0.223 OA
HETATM   12  N1  UNL     1      37.635   0.014 -22.490  1.00  0.00    -0.354 N 
ATOM     13  H1  UNL     1      38.103   0.040 -23.395  1.00  0.00     0.166 HD
HETATM   14  C17 UNL     1      36.195   0.141 -22.417  1.00  0.00     0.093 A 
HETATM   15  C18 UNL     1      35.567  -0.540 -23.431  1.00  0.00     0.094 A 
HETATM   16  C19 UNL     1      34.177  -0.611 -23.457  1.00  0.00     0.039 A 
HETATM   17  C20 UNL     1      33.471   0.002 -22.465  1.00  0.00     0.005 A 
HETATM   18  C21 UNL     1      34.080   0.698 -21.425  1.00  0.00     0.032 A 
HETATM   19  C22 UNL     1      35.458   0.763 -21.420  1.00  0.00     0.067 A 
HETATM   20  N2  UNL     1      35.974   1.560 -20.334  1.00  0.00    -0.309 N 
ENDROOT
BRANCH   1  21
HETATM   21  C8  UNL     1      37.238   1.750 -18.278  1.00  0.00     0.009 A 
HETATM   22  C7  UNL     1      36.741   0.856 -17.376  1.00  0.00     0.015 A 
HETATM   23  C6  UNL     1      36.663   1.145 -16.013  1.00  0.00     0.037 A 
HETATM   24  C5  UNL     1      37.081   2.347 -15.502  1.00  0.00     0.072 A 
HETATM   25  C30 UNL     1      37.595   3.282 -16.408  1.00  0.00     0.079 A 
HETATM   26  C29 UNL     1      37.662   2.978 -17.739  1.00  0.00     0.127 A 
HETATM   27  F1  UNL     1      38.179   3.951 -18.563  1.00  0.00    -0.205 F 
BRANCH  24  28
HETATM   28  O1  UNL     1      37.032   2.714 -14.178  1.00  0.00    -0.347 OA
BRANCH  28  29
HETATM   29  C4  UNL     1      38.078   2.579 -13.241  1.00  0.00     0.208 C 
BRANCH  29  30
HETATM   30  C2  UNL     1      38.108   1.157 -12.728  1.00  0.00    -0.069 C 
HETATM   31  C1  UNL     1      37.191   0.718 -11.865  1.00  0.00     0.016 C 
HETATM   32  C3  UNL     1      39.207   0.270 -13.219  1.00  0.00     0.044 C 
ENDBRANCH  29  30
ENDBRANCH  28  29
ENDBRANCH  24  28
ENDBRANCH   1  21
BRANCH  20  33
HETATM   33  C23 UNL     1      35.000   2.429 -19.819  1.00  0.00     0.173 C 
HETATM   34  C24 UNL     1      34.109   3.439 -20.243  1.00  0.00     0.115 A 
HETATM   35  N3  UNL     1      33.310   4.345 -20.623  1.00  0.00    -0.335 N 
HETATM   36  C27 UNL     1      35.253   4.339 -21.055  1.00  0.00     0.082 A 
HETATM   37  C25 UNL     1      33.423   5.379 -21.290  1.00  0.00     0.120 A 
ATOM     38  H3  UNL     1      32.353   4.185 -20.305  1.00  0.00     0.168 HD
HETATM   39  C26 UNL     1      32.418   6.442 -21.721  1.00  0.00     0.098 C 
HETATM   40  O6  UNL     1      34.678   5.339 -21.550  1.00  0.00    -0.300 OA
HETATM   41  C28 UNL     1      36.629   3.998 -21.121  1.00  0.00     0.079 C 
BRANCH  33  42
HETATM   42  O5  UNL     1      34.811   2.259 -18.486  1.00  0.00    -0.344 OA
ATOM     43  H5  UNL     1      33.938   2.515 -18.211  1.00  0.00     0.219 HD
ENDBRANCH  33  42
ENDBRANCH  20  33
BRANCH  15  44
HETATM   44  O4  UNL     1      36.315  -1.145 -24.404  1.00  0.00    -0.358 OA
ATOM     45  H4  UNL     1      37.058  -0.687 -24.778  1.00  0.00     0.217 HD
ENDBRANCH  15  44
TORSDOF 7
ENDMDL
