MODEL 1
REMARK VINA RESULT: -9.044497799      0.000      0.000
REMARK  7 active torsions:
REMARK  status: ('A' for Active; 'I' for Inactive)
REMARK    1  A    between atoms: C2_2  and  C4_4 
REMARK    2  A    between atoms: C4_4  and  O1_5 
REMARK    3  A    between atoms: O1_5  and  C5_6 
REMARK    4  A    between atoms: C8_9  and  C9_10 
REMARK    5  A    between atoms: C18_24  and  O4_25 
REMARK    6  A    between atoms: N2_31  and  C23_32 
REMARK    7  A    between atoms: C23_32  and  O5_33 
ROOT
HETATM    1  C9  UNL     1     -24.388  -6.255  29.556  1.00  0.00     0.175 C 
HETATM    2  C10 UNL     1     -24.335  -6.842  28.218  1.00  0.00     0.087 C 
HETATM    3  C11 UNL     1     -24.267  -6.351  26.992  1.00  0.00     0.030 C 
HETATM    4  C12 UNL     1     -24.221  -7.229  25.835  1.00  0.00     0.068 C 
HETATM    5  C13 UNL     1     -23.204  -8.297  25.774  1.00  0.00    -0.029 C 
HETATM    6  C14 UNL     1     -23.653  -9.233  24.630  1.00  0.00     0.016 C 
HETATM    7  C15 UNL     1     -21.867  -7.754  25.325  1.00  0.00     0.016 C 
HETATM    8  C16 UNL     1     -23.118  -9.159  27.003  1.00  0.00     0.154 C 
HETATM    9  S1  UNL     1     -24.288  -8.604  28.243  1.00  0.00     0.176 S 
HETATM   10  O2  UNL     1     -23.781  -9.033  29.573  1.00  0.00    -0.223 OA
HETATM   11  O3  UNL     1     -25.599  -9.240  27.982  1.00  0.00    -0.223 OA
HETATM   12  N1  UNL     1     -24.264  -4.938  26.655  1.00  0.00    -0.354 N 
ATOM     13  H1  UNL     1     -23.628  -4.588  25.940  1.00  0.00     0.166 HD
HETATM   14  C17 UNL     1     -25.160  -4.026  27.333  1.00  0.00     0.093 A 
HETATM   15  C18 UNL     1     -25.686  -3.090  26.477  1.00  0.00     0.094 A 
HETATM   16  C19 UNL     1     -26.648  -2.196  26.939  1.00  0.00     0.039 A 
HETATM   17  C20 UNL     1     -27.046  -2.276  28.241  1.00  0.00     0.005 A 
HETATM   18  C21 UNL     1     -26.532  -3.214  29.131  1.00  0.00     0.032 A 
HETATM   19  C22 UNL     1     -25.575  -4.087  28.657  1.00  0.00     0.067 A 
HETATM   20  N2  UNL     1     -25.070  -4.971  29.680  1.00  0.00    -0.309 N 
ENDROOT
BRANCH   1  21
HETATM   21  C8  UNL     1     -24.804  -7.195  30.596  1.00  0.00     0.009 A 
HETATM   22  C7  UNL     1     -26.022  -7.798  30.697  1.00  0.00     0.015 A 
HETATM   23  C6  UNL     1     -26.348  -8.635  31.765  1.00  0.00     0.037 A 
HETATM   24  C5  UNL     1     -25.460  -8.896  32.778  1.00  0.00     0.072 A 
HETATM   25  C30 UNL     1     -24.203  -8.288  32.696  1.00  0.00     0.079 A 
HETATM   26  C29 UNL     1     -23.905  -7.473  31.641  1.00  0.00     0.127 A 
HETATM   27  F1  UNL     1     -22.647  -6.913  31.637  1.00  0.00    -0.205 F 
BRANCH  24  28
HETATM   28  O1  UNL     1     -25.704  -9.700  33.866  1.00  0.00    -0.347 OA
BRANCH  28  29
HETATM   29  C4  UNL     1     -25.792  -9.273  35.209  1.00  0.00     0.208 C 
BRANCH  29  30
HETATM   30  C2  UNL     1     -26.132 -10.456  36.086  1.00  0.00    -0.069 C 
HETATM   31  C1  UNL     1     -26.215 -10.329  37.410  1.00  0.00     0.016 C 
HETATM   32  C3  UNL     1     -26.364 -11.771  35.412  1.00  0.00     0.044 C 
ENDBRANCH  29  30
ENDBRANCH  28  29
ENDBRANCH  24  28
ENDBRANCH   1  21
BRANCH  20  33
HETATM   33  C23 UNL     1     -25.314  -4.466  30.966  1.00  0.00     0.173 C 
HETATM   34  C24 UNL     1     -25.103  -3.302  31.737  1.00  0.00     0.115 A 
HETATM   35  N3  UNL     1     -24.914  -2.257  32.429  1.00  0.00    -0.335 N 
HETATM   36  C27 UNL     1     -23.472  -3.183  31.416  1.00  0.00     0.082 A 
HETATM   37  C25 UNL     1     -23.934  -1.550  32.682  1.00  0.00     0.120 A 
ATOM     38  H3  UNL     1     -25.766  -1.925  32.881  1.00  0.00     0.168 HD
HETATM   39  C26 UNL     1     -23.762  -0.292  33.528  1.00  0.00     0.098 C 
HETATM   40  O6  UNL     1     -23.032  -2.171  32.015  1.00  0.00    -0.300 OA
HETATM   41  C28 UNL     1     -22.753  -4.108  30.615  1.00  0.00     0.079 C 
BRANCH  33  42
HETATM   42  O5  UNL     1     -25.986  -5.349  31.747  1.00  0.00    -0.344 OA
ATOM     43  H5  UNL     1     -25.542  -5.510  32.572  1.00  0.00     0.219 HD
ENDBRANCH  33  42
ENDBRANCH  20  33
BRANCH  15  44
HETATM   44  O4  UNL     1     -25.262  -3.048  25.177  1.00  0.00    -0.358 OA
ATOM     45  H4  UNL     1     -25.705  -3.573  24.522  1.00  0.00     0.217 HD
ENDBRANCH  15  44
TORSDOF 7
ENDMDL
