MODEL 5
REMARK VINA RESULT: -8.532729665      2.630      6.824
REMARK  7 active torsions:
REMARK  status: ('A' for Active; 'I' for Inactive)
REMARK    1  A    between atoms: C2_2  and  C4_4 
REMARK    2  A    between atoms: C4_4  and  O1_5 
REMARK    3  A    between atoms: O1_5  and  C5_6 
REMARK    4  A    between atoms: C8_9  and  C9_10 
REMARK    5  A    between atoms: C18_24  and  O4_25 
REMARK    6  A    between atoms: N2_31  and  C23_32 
REMARK    7  A    between atoms: C23_32  and  O5_33 
ROOT
HETATM    1  C9  UNL     1     -24.493  -6.504  28.897  1.00  0.00     0.175 C 
HETATM    2  C10 UNL     1     -24.856  -5.267  28.206  1.00  0.00     0.087 C 
HETATM    3  C11 UNL     1     -25.632  -4.237  28.497  1.00  0.00     0.030 C 
HETATM    4  C12 UNL     1     -25.781  -3.127  27.572  1.00  0.00     0.068 C 
HETATM    5  C13 UNL     1     -24.577  -2.445  27.057  1.00  0.00    -0.029 C 
HETATM    6  C14 UNL     1     -25.062  -1.589  25.866  1.00  0.00     0.016 C 
HETATM    7  C15 UNL     1     -24.045  -1.445  28.058  1.00  0.00     0.016 C 
HETATM    8  C16 UNL     1     -23.519  -3.359  26.504  1.00  0.00     0.154 C 
HETATM    9  S1  UNL     1     -24.024  -5.072  26.665  1.00  0.00     0.176 S 
HETATM   10  O2  UNL     1     -22.795  -5.908  26.695  1.00  0.00    -0.223 OA
HETATM   11  O3  UNL     1     -24.846  -5.440  25.492  1.00  0.00    -0.223 OA
HETATM   12  N1  UNL     1     -26.426  -4.102  29.706  1.00  0.00    -0.354 N 
ATOM     13  H1  UNL     1     -26.463  -3.207  30.192  1.00  0.00     0.166 HD
HETATM   14  C17 UNL     1     -27.164  -5.235  30.222  1.00  0.00     0.093 A 
HETATM   15  C18 UNL     1     -28.397  -4.870  30.703  1.00  0.00     0.094 A 
HETATM   16  C19 UNL     1     -29.283  -5.848  31.145  1.00  0.00     0.039 A 
HETATM   17  C20 UNL     1     -28.899  -7.155  31.086  1.00  0.00     0.005 A 
HETATM   18  C21 UNL     1     -27.656  -7.555  30.604  1.00  0.00     0.032 A 
HETATM   19  C22 UNL     1     -26.789  -6.571  30.177  1.00  0.00     0.067 A 
HETATM   20  N2  UNL     1     -25.512  -7.095  29.758  1.00  0.00    -0.309 N 
ENDROOT
BRANCH   1  21
HETATM   21  C8  UNL     1     -23.868  -7.502  28.029  1.00  0.00     0.009 A 
HETATM   22  C7  UNL     1     -22.561  -7.888  28.055  1.00  0.00     0.015 A 
HETATM   23  C6  UNL     1     -22.041  -8.805  27.141  1.00  0.00     0.037 A 
HETATM   24  C5  UNL     1     -22.816  -9.369  26.160  1.00  0.00     0.072 A 
HETATM   25  C30 UNL     1     -24.162  -8.987  26.112  1.00  0.00     0.079 A 
HETATM   26  C29 UNL     1     -24.650  -8.089  27.017  1.00  0.00     0.127 A 
HETATM   27  F1  UNL     1     -25.983  -7.765  26.901  1.00  0.00    -0.205 F 
BRANCH  24  28
HETATM   28  O1  UNL     1     -22.382 -10.271  25.218  1.00  0.00    -0.347 OA
BRANCH  28  29
HETATM   29  C4  UNL     1     -22.603 -10.189  23.827  1.00  0.00     0.208 C 
BRANCH  29  30
HETATM   30  C2  UNL     1     -21.767  -9.066  23.255  1.00  0.00    -0.069 C 
HETATM   31  C1  UNL     1     -22.335  -8.040  22.622  1.00  0.00     0.016 C 
HETATM   32  C3  UNL     1     -20.283  -9.158  23.421  1.00  0.00     0.044 C 
ENDBRANCH  29  30
ENDBRANCH  28  29
ENDBRANCH  24  28
ENDBRANCH   1  21
BRANCH  20  33
HETATM   33  C23 UNL     1     -25.280  -8.375  30.285  1.00  0.00     0.173 C 
HETATM   34  C24 UNL     1     -25.232  -9.051  31.523  1.00  0.00     0.115 A 
HETATM   35  N3  UNL     1     -25.188  -9.657  32.635  1.00  0.00    -0.335 N 
HETATM   36  C27 UNL     1     -24.193  -7.974  32.259  1.00  0.00     0.082 A 
HETATM   37  C25 UNL     1     -24.614  -9.457  33.710  1.00  0.00     0.120 A 
ATOM     38  H3  UNL     1     -25.757 -10.503  32.644  1.00  0.00     0.168 HD
HETATM   39  C26 UNL     1     -24.597 -10.227  35.027  1.00  0.00     0.098 C 
HETATM   40  O6  UNL     1     -23.991  -8.372  33.432  1.00  0.00    -0.300 OA
HETATM   41  C28 UNL     1     -23.647  -6.834  31.614  1.00  0.00     0.079 C 
BRANCH  33  42
HETATM   42  O5  UNL     1     -25.039  -9.294  29.316  1.00  0.00    -0.344 OA
ATOM     43  H5  UNL     1     -25.312 -10.167  29.572  1.00  0.00     0.219 HD
ENDBRANCH  33  42
ENDBRANCH  20  33
BRANCH  15  44
HETATM   44  O4  UNL     1     -28.744  -3.547  30.739  1.00  0.00    -0.358 OA
ATOM     45  H4  UNL     1     -28.726  -3.079  31.566  1.00  0.00     0.217 HD
ENDBRANCH  15  44
TORSDOF 7
ENDMDL
