MODEL 4
REMARK VINA RESULT: -8.663634191      2.512      6.789
REMARK  7 active torsions:
REMARK  status: ('A' for Active; 'I' for Inactive)
REMARK    1  A    between atoms: C2_2  and  C4_4 
REMARK    2  A    between atoms: C4_4  and  O1_5 
REMARK    3  A    between atoms: O1_5  and  C5_6 
REMARK    4  A    between atoms: C8_9  and  C9_10 
REMARK    5  A    between atoms: C18_24  and  O4_25 
REMARK    6  A    between atoms: N2_31  and  C23_32 
REMARK    7  A    between atoms: C23_32  and  O5_33 
ROOT
HETATM    1  C9  UNL     1     -24.807  -6.218  28.739  1.00  0.00     0.175 C 
HETATM    2  C10 UNL     1     -25.244  -4.968  28.117  1.00  0.00     0.087 C 
HETATM    3  C11 UNL     1     -26.009  -3.960  28.501  1.00  0.00     0.030 C 
HETATM    4  C12 UNL     1     -26.249  -2.827  27.625  1.00  0.00     0.068 C 
HETATM    5  C13 UNL     1     -25.102  -2.110  27.034  1.00  0.00    -0.029 C 
HETATM    6  C14 UNL     1     -25.695  -1.229  25.913  1.00  0.00     0.016 C 
HETATM    7  C15 UNL     1     -24.505  -1.130  28.018  1.00  0.00     0.016 C 
HETATM    8  C16 UNL     1     -24.079  -2.990  26.370  1.00  0.00     0.154 C 
HETATM    9  S1  UNL     1     -24.543  -4.715  26.520  1.00  0.00     0.176 S 
HETATM   10  O2  UNL     1     -23.304  -5.530  26.426  1.00  0.00    -0.223 OA
HETATM   11  O3  UNL     1     -25.454  -5.064  25.407  1.00  0.00    -0.223 OA
HETATM   12  N1  UNL     1     -26.703  -3.874  29.774  1.00  0.00    -0.354 N 
ATOM     13  H1  UNL     1     -26.714  -2.993  30.288  1.00  0.00     0.166 HD
HETATM   14  C17 UNL     1     -27.379  -5.033  30.315  1.00  0.00     0.093 A 
HETATM   15  C18 UNL     1     -28.575  -4.703  30.904  1.00  0.00     0.094 A 
HETATM   16  C19 UNL     1     -29.407  -5.709  31.387  1.00  0.00     0.039 A 
HETATM   17  C20 UNL     1     -29.010  -7.007  31.259  1.00  0.00     0.005 A 
HETATM   18  C21 UNL     1     -27.804  -7.372  30.666  1.00  0.00     0.032 A 
HETATM   19  C22 UNL     1     -26.990  -6.360  30.199  1.00  0.00     0.067 A 
HETATM   20  N2  UNL     1     -25.744  -6.851  29.663  1.00  0.00    -0.309 N 
ENDROOT
BRANCH   1  21
HETATM   21  C8  UNL     1     -24.241  -7.179  27.794  1.00  0.00     0.009 A 
HETATM   22  C7  UNL     1     -24.911  -7.817  26.792  1.00  0.00     0.015 A 
HETATM   23  C6  UNL     1     -24.298  -8.769  25.979  1.00  0.00     0.037 A 
HETATM   24  C5  UNL     1     -22.982  -9.121  26.142  1.00  0.00     0.072 A 
HETATM   25  C30 UNL     1     -22.272  -8.481  27.164  1.00  0.00     0.079 A 
HETATM   26  C29 UNL     1     -22.893  -7.551  27.948  1.00  0.00     0.127 A 
HETATM   27  F1  UNL     1     -22.125  -6.969  28.932  1.00  0.00    -0.205 F 
BRANCH  24  28
HETATM   28  O1  UNL     1     -22.305 -10.053  25.391  1.00  0.00    -0.347 OA
BRANCH  28  29
HETATM   29  C4  UNL     1     -21.408  -9.775  24.337  1.00  0.00     0.208 C 
BRANCH  29  30
HETATM   30  C2  UNL     1     -22.181  -9.236  23.154  1.00  0.00    -0.069 C 
HETATM   31  C1  UNL     1     -23.015 -10.014  22.465  1.00  0.00     0.016 C 
HETATM   32  C3  UNL     1     -21.966  -7.802  22.787  1.00  0.00     0.044 C 
ENDBRANCH  29  30
ENDBRANCH  28  29
ENDBRANCH  24  28
ENDBRANCH   1  21
BRANCH  20  33
HETATM   33  C23 UNL     1     -25.450  -8.141  30.130  1.00  0.00     0.173 C 
HETATM   34  C24 UNL     1     -25.329  -8.859  31.339  1.00  0.00     0.115 A 
HETATM   35  N3  UNL     1     -25.220  -9.504  32.425  1.00  0.00    -0.335 N 
HETATM   36  C27 UNL     1     -24.294  -7.777  32.072  1.00  0.00     0.082 A 
HETATM   37  C25 UNL     1     -24.607  -9.326  33.482  1.00  0.00     0.120 A 
ATOM     38  H3  UNL     1     -25.762 -10.368  32.425  1.00  0.00     0.168 HD
HETATM   39  C26 UNL     1     -24.510 -10.142  34.767  1.00  0.00     0.098 C 
HETATM   40  O6  UNL     1     -24.030  -8.211  33.220  1.00  0.00    -0.300 OA
HETATM   41  C28 UNL     1     -23.811  -6.598  31.449  1.00  0.00     0.079 C 
BRANCH  33  42
HETATM   42  O5  UNL     1     -25.222  -9.015  29.118  1.00  0.00    -0.344 OA
ATOM     43  H5  UNL     1     -24.305  -9.253  29.048  1.00  0.00     0.219 HD
ENDBRANCH  33  42
ENDBRANCH  20  33
BRANCH  15  44
HETATM   44  O4  UNL     1     -28.937  -3.388  31.008  1.00  0.00    -0.358 OA
ATOM     45  H4  UNL     1     -28.351  -2.713  30.689  1.00  0.00     0.217 HD
ENDBRANCH  15  44
TORSDOF 7
ENDMDL
