MODEL 3
REMARK VINA RESULT: -6.528495081      2.153      8.049
REMARK  10 active torsions:
REMARK  status: ('A' for Active; 'I' for Inactive)
REMARK    1  A    between atoms: N1_2  and  C2_4 
REMARK    2  A    between atoms: C2_4  and  C4_6 
REMARK       I    between atoms: C4_6  and  N2_8 
REMARK    3  A    between atoms: N2_8  and  C5_10 
REMARK    4  A    between atoms: C5_10  and  C6_11 
REMARK    5  A    between atoms: C5_10  and  C23_38 
REMARK    6  A    between atoms: C6_11  and  O2_12 
REMARK    7  A    between atoms: C6_11  and  N3_14 
REMARK    8  A    between atoms: C11_19  and  C12_20 
REMARK       I    between atoms: C12_20  and  N4_22 
REMARK    9  A    between atoms: N4_22  and  C13_24 
REMARK   10  A    between atoms: C18_29  and  C19_30 
ROOT
HETATM    1  N3  UNL     1       8.062  10.329 -20.199  1.00  0.00    -0.350 N 
HETATM    2  C7  UNL     1       6.658  10.417 -20.041  1.00  0.00     0.126 C 
HETATM    3  C8  UNL     1       6.210  10.310 -21.524  1.00  0.00     0.027 C 
HETATM    4  C9  UNL     1       7.085  11.391 -22.106  1.00  0.00     0.015 C 
HETATM    5  C10 UNL     1       7.379  11.196 -23.567  1.00  0.00     0.012 C 
HETATM    6  C11 UNL     1       8.298  11.387 -21.256  1.00  0.00     0.182 C 
ENDROOT
BRANCH   1   7
HETATM    7  C6  UNL     1       9.133   9.607 -19.718  1.00  0.00     0.138 C 
BRANCH   7   8
HETATM    8  C5  UNL     1      10.574   9.511 -19.949  1.00  0.00     0.163 C 
BRANCH   8   9
HETATM    9  N2  UNL     1      11.113   8.586 -18.898  1.00  0.00    -0.347 N 
HETATM   10  C4  UNL     1      11.885   9.117 -17.856  1.00  0.00     0.240 C 
HETATM   11  O1  UNL     1      12.165  10.352 -17.739  1.00  0.00    -0.271 OA
ATOM     12  H2  UNL     1      10.920   7.586 -18.942  1.00  0.00     0.163 HD
BRANCH  10  13
HETATM   13  C2  UNL     1      12.402   8.140 -16.829  1.00  0.00     0.165 C 
HETATM   14  C3  UNL     1      13.135   8.959 -15.799  1.00  0.00     0.042 C 
BRANCH  13  15
HETATM   15  N1  UNL     1      13.191   7.113 -17.428  1.00  0.00    -0.414 N 
HETATM   16  C1  UNL     1      14.363   6.730 -16.695  1.00  0.00     0.140 C 
ATOM     17  H1  UNL     1      12.938   6.682 -18.317  1.00  0.00     0.153 HD
ENDBRANCH  13  15
ENDBRANCH  10  13
ENDBRANCH   8   9
BRANCH   8  18
HETATM   18  C23 UNL     1      11.131   9.205 -21.259  1.00  0.00     0.016 C 
HETATM   19  C24 UNL     1      11.466  10.330 -22.185  1.00  0.00     0.007 C 
HETATM   20  C25 UNL     1      11.453   9.901 -23.640  1.00  0.00     0.000 C 
HETATM   21  C26 UNL     1      12.156   8.557 -23.775  1.00  0.00     0.000 C 
HETATM   22  C27 UNL     1      11.318   7.544 -23.072  1.00  0.00     0.000 C 
HETATM   23  C28 UNL     1      10.352   8.164 -22.051  1.00  0.00     0.007 C 
ENDBRANCH   8  18
ENDBRANCH   7   8
BRANCH   7  24
HETATM   24  O2  UNL     1       8.814   8.701 -18.747  1.00  0.00    -0.348 OA
ATOM     25  H2  UNL     1       7.974   8.321 -18.978  1.00  0.00     0.219 HD
ENDBRANCH   7  24
ENDBRANCH   1   7
BRANCH   6  26
HETATM   26  C12 UNL     1       8.587  12.679 -20.567  1.00  0.00     0.245 C 
HETATM   27  O3  UNL     1       9.595  12.774 -19.842  1.00  0.00    -0.271 OA
HETATM   28  N4  UNL     1       7.717  13.797 -20.735  1.00  0.00    -0.324 N 
ATOM     29  H4  UNL     1       6.903  13.661 -21.334  1.00  0.00     0.169 HD
BRANCH  28  30
HETATM   30  C13 UNL     1       7.875  15.073 -20.153  1.00  0.00     0.048 A 
HETATM   31  C14 UNL     1       7.742  15.301 -18.802  1.00  0.00     0.030 A 
HETATM   32  C15 UNL     1       7.966  16.553 -18.203  1.00  0.00     0.002 A 
HETATM   33  C16 UNL     1       8.336  17.596 -19.004  1.00  0.00     0.001 A 
HETATM   34  C17 UNL     1       8.476  17.403 -20.348  1.00  0.00     0.017 A 
HETATM   35  C18 UNL     1       8.245  16.138 -20.937  1.00  0.00     0.035 A 
BRANCH  35  36
HETATM   36  C19 UNL     1       8.391  16.073 -22.384  1.00  0.00     0.117 A 
HETATM   37  N5  UNL     1       7.445  16.189 -23.288  1.00  0.00    -0.352 N 
HETATM   38  C20 UNL     1       7.593  16.139 -24.614  1.00  0.00     0.091 A 
ATOM     39  H5  UNL     1       6.497  16.333 -22.941  1.00  0.00     0.166 HD
HETATM   40  C21 UNL     1       8.860  15.948 -25.112  1.00  0.00     0.034 A 
HETATM   41  C22 UNL     1       9.884  15.820 -24.229  1.00  0.00     0.091 A 
HETATM   42  N6  UNL     1       9.652  15.881 -22.904  1.00  0.00    -0.352 N 
ATOM     43  H6  UNL     1      10.439  15.782 -22.262  1.00  0.00     0.166 HD
ENDBRANCH  35  36
ENDBRANCH  28  30
ENDBRANCH   6  26
TORSDOF 10
ENDMDL
