MODEL 8
REMARK VINA RESULT: -6.433160492      2.206      8.290
REMARK  10 active torsions:
REMARK  status: ('A' for Active; 'I' for Inactive)
REMARK    1  A    between atoms: N1_2  and  C2_4 
REMARK    2  A    between atoms: C2_4  and  C4_6 
REMARK       I    between atoms: C4_6  and  N2_8 
REMARK    3  A    between atoms: N2_8  and  C5_10 
REMARK    4  A    between atoms: C5_10  and  C6_11 
REMARK    5  A    between atoms: C5_10  and  C23_38 
REMARK    6  A    between atoms: C6_11  and  O2_12 
REMARK    7  A    between atoms: C6_11  and  N3_14 
REMARK    8  A    between atoms: C11_19  and  C12_20 
REMARK       I    between atoms: C12_20  and  N4_22 
REMARK    9  A    between atoms: N4_22  and  C13_24 
REMARK   10  A    between atoms: C18_29  and  C19_30 
ROOT
HETATM    1  N3  UNL     1       8.339  10.551 -20.100  1.00  0.00    -0.350 N 
HETATM    2  C7  UNL     1       6.974  10.565 -19.727  1.00  0.00     0.126 C 
HETATM    3  C8  UNL     1       6.309  10.409 -21.122  1.00  0.00     0.027 C 
HETATM    4  C9  UNL     1       7.022  11.526 -21.841  1.00  0.00     0.015 C 
HETATM    5  C10 UNL     1       7.097  11.322 -23.328  1.00  0.00     0.012 C 
HETATM    6  C11 UNL     1       8.350  11.602 -21.189  1.00  0.00     0.182 C 
ENDROOT
BRANCH   1   7
HETATM    7  C6  UNL     1       9.511   9.897 -19.784  1.00  0.00     0.138 C 
BRANCH   7   8
HETATM    8  C5  UNL     1      10.182   8.641 -20.120  1.00  0.00     0.163 C 
BRANCH   8   9
HETATM    9  N2  UNL     1       9.650   7.608 -19.171  1.00  0.00    -0.347 N 
HETATM   10  C4  UNL     1      10.334   7.369 -17.973  1.00  0.00     0.240 C 
HETATM   11  O1  UNL     1      11.396   7.979 -17.628  1.00  0.00    -0.271 OA
ATOM     12  H2  UNL     1       8.803   7.088 -19.396  1.00  0.00     0.163 HD
BRANCH  10  13
HETATM   13  C2  UNL     1       9.755   6.317 -17.058  1.00  0.00     0.165 C 
HETATM   14  C3  UNL     1      10.480   5.036 -17.376  1.00  0.00     0.042 C 
BRANCH  13  15
HETATM   15  N1  UNL     1       8.337   6.234 -17.183  1.00  0.00    -0.414 N 
HETATM   16  C1  UNL     1       7.707   5.224 -16.382  1.00  0.00     0.140 C 
ATOM     17  H1  UNL     1       7.808   6.849 -17.799  1.00  0.00     0.153 HD
ENDBRANCH  13  15
ENDBRANCH  10  13
ENDBRANCH   8   9
BRANCH   8  18
HETATM   18  C23 UNL     1      10.237   8.130 -21.482  1.00  0.00     0.016 C 
HETATM   19  C24 UNL     1      10.688   9.038 -22.580  1.00  0.00     0.007 C 
HETATM   20  C25 UNL     1      10.149   8.618 -23.934  1.00  0.00     0.000 C 
HETATM   21  C26 UNL     1      10.280   7.108 -24.081  1.00  0.00     0.000 C 
HETATM   22  C27 UNL     1       9.356   6.482 -23.092  1.00  0.00     0.000 C 
HETATM   23  C28 UNL     1       8.967   7.430 -21.947  1.00  0.00     0.007 C 
ENDBRANCH   8  18
ENDBRANCH   7   8
BRANCH   7  24
HETATM   24  O2  UNL     1      10.312  10.564 -18.903  1.00  0.00    -0.348 OA
ATOM     25  H2  UNL     1      10.447  11.439 -19.248  1.00  0.00     0.219 HD
ENDBRANCH   7  24
ENDBRANCH   1   7
BRANCH   6  26
HETATM   26  C12 UNL     1       8.668  12.919 -20.565  1.00  0.00     0.245 C 
HETATM   27  O3  UNL     1       9.790  13.099 -20.054  1.00  0.00    -0.271 OA
HETATM   28  N4  UNL     1       7.698  13.965 -20.551  1.00  0.00    -0.324 N 
ATOM     29  H4  UNL     1       6.794  13.760 -20.976  1.00  0.00     0.169 HD
BRANCH  28  30
HETATM   30  C13 UNL     1       7.869  15.256 -20.004  1.00  0.00     0.048 A 
HETATM   31  C14 UNL     1       7.763  15.518 -18.657  1.00  0.00     0.030 A 
HETATM   32  C15 UNL     1       8.001  16.784 -18.095  1.00  0.00     0.002 A 
HETATM   33  C16 UNL     1       8.355  17.806 -18.929  1.00  0.00     0.001 A 
HETATM   34  C17 UNL     1       8.468  17.579 -20.270  1.00  0.00     0.017 A 
HETATM   35  C18 UNL     1       8.224  16.300 -20.823  1.00  0.00     0.035 A 
BRANCH  35  36
HETATM   36  C19 UNL     1       8.341  16.198 -22.270  1.00  0.00     0.117 A 
HETATM   37  N5  UNL     1       7.383  16.329 -23.160  1.00  0.00    -0.352 N 
HETATM   38  C20 UNL     1       7.505  16.244 -24.486  1.00  0.00     0.091 A 
ATOM     39  H5  UNL     1       6.448  16.514 -22.800  1.00  0.00     0.166 HD
HETATM   40  C21 UNL     1       8.755  15.996 -25.002  1.00  0.00     0.034 A 
HETATM   41  C22 UNL     1       9.789  15.850 -24.135  1.00  0.00     0.091 A 
HETATM   42  N6  UNL     1       9.584  15.949 -22.807  1.00  0.00    -0.352 N 
ATOM     43  H6  UNL     1      10.379  15.835 -22.177  1.00  0.00     0.166 HD
ENDBRANCH  35  36
ENDBRANCH  28  30
ENDBRANCH   6  26
TORSDOF 10
ENDMDL
