MODEL 7
REMARK VINA RESULT: -6.440029120      2.133      8.371
REMARK  10 active torsions:
REMARK  status: ('A' for Active; 'I' for Inactive)
REMARK    1  A    between atoms: N1_2  and  C2_4 
REMARK    2  A    between atoms: C2_4  and  C4_6 
REMARK       I    between atoms: C4_6  and  N2_8 
REMARK    3  A    between atoms: N2_8  and  C5_10 
REMARK    4  A    between atoms: C5_10  and  C6_11 
REMARK    5  A    between atoms: C5_10  and  C23_38 
REMARK    6  A    between atoms: C6_11  and  O2_12 
REMARK    7  A    between atoms: C6_11  and  N3_14 
REMARK    8  A    between atoms: C11_19  and  C12_20 
REMARK       I    between atoms: C12_20  and  N4_22 
REMARK    9  A    between atoms: N4_22  and  C13_24 
REMARK   10  A    between atoms: C18_29  and  C19_30 
ROOT
HETATM    1  N3  UNL     1       8.258  10.583 -20.007  1.00  0.00    -0.350 N 
HETATM    2  C7  UNL     1       6.881  10.642 -19.683  1.00  0.00     0.126 C 
HETATM    3  C8  UNL     1       6.262  10.440 -21.093  1.00  0.00     0.027 C 
HETATM    4  C9  UNL     1       7.024  11.510 -21.834  1.00  0.00     0.015 C 
HETATM    5  C10 UNL     1       7.146  11.240 -23.307  1.00  0.00     0.012 C 
HETATM    6  C11 UNL     1       8.330  11.586 -21.138  1.00  0.00     0.182 C 
ENDROOT
BRANCH   1   7
HETATM    7  C6  UNL     1       9.403   9.918 -19.622  1.00  0.00     0.138 C 
BRANCH   7   8
HETATM    8  C5  UNL     1       9.948   8.563 -19.685  1.00  0.00     0.163 C 
BRANCH   8   9
HETATM    9  N2  UNL     1      10.475   8.253 -18.315  1.00  0.00    -0.347 N 
HETATM   10  C4  UNL     1      11.853   8.340 -18.081  1.00  0.00     0.240 C 
HETATM   11  O1  UNL     1      12.704   8.670 -18.967  1.00  0.00    -0.271 OA
ATOM     12  H2  UNL     1       9.839   7.982 -17.566  1.00  0.00     0.163 HD
BRANCH  10  13
HETATM   13  C2  UNL     1      12.327   8.015 -16.685  1.00  0.00     0.165 C 
HETATM   14  C3  UNL     1      13.003   9.257 -16.169  1.00  0.00     0.042 C 
BRANCH  13  15
HETATM   15  N1  UNL     1      13.151   6.851 -16.667  1.00  0.00    -0.414 N 
HETATM   16  C1  UNL     1      14.511   7.065 -16.265  1.00  0.00     0.140 C 
ATOM     17  H1  UNL     1      12.797   5.929 -16.921  1.00  0.00     0.153 HD
ENDBRANCH  13  15
ENDBRANCH  10  13
ENDBRANCH   8   9
BRANCH   8  18
HETATM   18  C23 UNL     1       9.189   7.445 -20.225  1.00  0.00     0.016 C 
HETATM   19  C24 UNL     1       8.642   7.541 -21.614  1.00  0.00     0.007 C 
HETATM   20  C25 UNL     1       7.436   6.648 -21.822  1.00  0.00     0.000 C 
HETATM   21  C26 UNL     1       7.702   5.287 -21.193  1.00  0.00     0.000 C 
HETATM   22  C27 UNL     1       7.779   5.486 -19.717  1.00  0.00     0.000 C 
HETATM   23  C28 UNL     1       8.074   6.940 -19.319  1.00  0.00     0.007 C 
ENDBRANCH   8  18
ENDBRANCH   7   8
BRANCH   7  24
HETATM   24  O2  UNL     1      10.325  10.701 -18.990  1.00  0.00    -0.348 OA
ATOM     25  H2  UNL     1       9.943  10.983 -18.167  1.00  0.00     0.219 HD
ENDBRANCH   7  24
ENDBRANCH   1   7
BRANCH   6  26
HETATM   26  C12 UNL     1       8.656  12.922 -20.559  1.00  0.00     0.245 C 
HETATM   27  O3  UNL     1       9.800  13.133 -20.115  1.00  0.00    -0.271 OA
HETATM   28  N4  UNL     1       7.668  13.949 -20.513  1.00  0.00    -0.324 N 
ATOM     29  H4  UNL     1       6.746  13.719 -20.884  1.00  0.00     0.169 HD
BRANCH  28  30
HETATM   30  C13 UNL     1       7.842  15.254 -20.003  1.00  0.00     0.048 A 
HETATM   31  C14 UNL     1       7.787  15.546 -18.659  1.00  0.00     0.030 A 
HETATM   32  C15 UNL     1       8.030  16.828 -18.136  1.00  0.00     0.002 A 
HETATM   33  C16 UNL     1       8.337  17.835 -19.006  1.00  0.00     0.001 A 
HETATM   34  C17 UNL     1       8.399  17.578 -20.345  1.00  0.00     0.017 A 
HETATM   35  C18 UNL     1       8.151  16.284 -20.858  1.00  0.00     0.035 A 
BRANCH  35  36
HETATM   36  C19 UNL     1       8.211  16.150 -22.306  1.00  0.00     0.117 A 
HETATM   37  N5  UNL     1       7.216  16.247 -23.160  1.00  0.00    -0.352 N 
HETATM   38  C20 UNL     1       7.285  16.133 -24.487  1.00  0.00     0.091 A 
ATOM     39  H5  UNL     1       6.293  16.427 -22.766  1.00  0.00     0.166 HD
HETATM   40  C21 UNL     1       8.517  15.891 -25.048  1.00  0.00     0.034 A 
HETATM   41  C22 UNL     1       9.587  15.780 -24.220  1.00  0.00     0.091 A 
HETATM   42  N6  UNL     1       9.435  15.906 -22.888  1.00  0.00    -0.352 N 
ATOM     43  H6  UNL     1      10.256  15.818 -22.288  1.00  0.00     0.166 HD
ENDBRANCH  35  36
ENDBRANCH  28  30
ENDBRANCH   6  26
TORSDOF 10
ENDMDL
