MODEL 3
REMARK VINA RESULT: -9.214331756      0.865      1.270
REMARK  5 active torsions:
REMARK  status: ('A' for Active; 'I' for Inactive)
REMARK    1  A    between atoms: C1_2  and  C2_3 
REMARK       I    between atoms: C1_2  and  N1_6 
REMARK    2  A    between atoms: C2_3  and  O2_4 
REMARK    3  A    between atoms: C5_9  and  C6_10 
REMARK    4  A    between atoms: C7_15  and  C8_16 
REMARK    5  A    between atoms: C14_23  and  C15_24 
ROOT
HETATM    1  C6  UNL     1      33.900  35.310  22.338  1.00  0.00     0.045 A 
HETATM    2  N2  UNL     1      33.853  34.168  21.620  1.00  0.00    -0.303 N 
ATOM      3  H2  UNL     1      33.369  33.319  21.911  1.00  0.00     0.186 HD
HETATM    4  N3  UNL     1      34.509  34.301  20.507  1.00  0.00    -0.299 N 
ATOM      5  H3  UNL     1      34.618  33.576  19.797  1.00  0.00     0.187 HD
HETATM    6  C7  UNL     1      35.020  35.534  20.435  1.00  0.00     0.072 A 
HETATM    7  C14 UNL     1      34.650  36.196  21.582  1.00  0.00     0.044 A 
ENDROOT
BRANCH   1   8
HETATM    8  C5  UNL     1      33.283  35.577  23.664  1.00  0.00     0.041 C 
HETATM    9  C4  UNL     1      34.237  35.078  24.722  1.00  0.00     0.030 C 
HETATM   10  C3  UNL     1      33.610  35.039  26.089  1.00  0.00     0.126 C 
HETATM   11  N1  UNL     1      32.279  34.496  26.104  1.00  0.00    -0.350 N 
HETATM   12  C1  UNL     1      31.872  33.563  27.083  1.00  0.00     0.243 C 
HETATM   13  C20 UNL     1      31.355  34.937  25.078  1.00  0.00     0.126 C 
HETATM   14  O1  UNL     1      32.702  33.207  27.954  1.00  0.00    -0.271 OA
HETATM   15  C19 UNL     1      32.027  34.700  23.742  1.00  0.00     0.030 C 
BRANCH  12  16
HETATM   16  C2  UNL     1      30.496  33.014  27.083  1.00  0.00     0.267 C 
BRANCH  16  17
HETATM   17  O2  UNL     1      29.671  33.637  27.989  1.00  0.00    -0.392 OA
ATOM     18  H2  UNL     1      29.832  34.571  28.055  1.00  0.00     0.210 HD
ENDBRANCH  16  17
ENDBRANCH  12  16
ENDBRANCH   1   8
BRANCH   7  19
HETATM   19  C15 UNL     1      34.978  37.565  21.944  1.00  0.00     0.049 A 
HETATM   20  C16 UNL     1      35.920  37.787  22.946  1.00  0.00     0.047 A 
HETATM   21  C17 UNL     1      36.269  39.061  23.331  1.00  0.00     0.091 A 
HETATM   22  N4  UNL     1      35.697  40.116  22.737  1.00  0.00    -0.362 N 
HETATM   23  C18 UNL     1      34.788  39.911  21.770  1.00  0.00     0.180 A 
ATOM     24  H4  UNL     1      35.950  41.064  23.016  1.00  0.00     0.165 HD
HETATM   25  N5  UNL     1      34.443  38.662  21.390  1.00  0.00    -0.352 N 
ATOM     26  H5  UNL     1      33.749  38.548  20.652  1.00  0.00     0.166 HD
ENDBRANCH   7  19
BRANCH   6  27
HETATM   27  C8  UNL     1      35.812  36.016  19.311  1.00  0.00    -0.007 A 
HETATM   28  C9  UNL     1      35.242  36.211  18.047  1.00  0.00     0.015 A 
HETATM   29  C10 UNL     1      35.993  36.666  16.989  1.00  0.00     0.024 A 
HETATM   30  C11 UNL     1      37.330  36.947  17.135  1.00  0.00     0.034 A 
HETATM   31 CL1  UNL     1      38.320  37.529  15.814  1.00  0.00    -0.084 Cl
HETATM   32  C12 UNL     1      37.930  36.768  18.365  1.00  0.00     0.024 A 
HETATM   33  C13 UNL     1      37.154  36.308  19.417  1.00  0.00     0.015 A 
ENDBRANCH   6  27
TORSDOF 5
ENDMDL
