MODEL 5
REMARK VINA RESULT: -8.980617271      1.538      2.067
REMARK  5 active torsions:
REMARK  status: ('A' for Active; 'I' for Inactive)
REMARK    1  A    between atoms: C1_2  and  C2_3 
REMARK       I    between atoms: C1_2  and  N1_6 
REMARK    2  A    between atoms: C2_3  and  O2_4 
REMARK    3  A    between atoms: C5_9  and  C6_10 
REMARK    4  A    between atoms: C7_15  and  C8_16 
REMARK    5  A    between atoms: C14_23  and  C15_24 
ROOT
HETATM    1  C6  UNL     1      34.049  35.876  22.850  1.00  0.00     0.045 A 
HETATM    2  N2  UNL     1      33.903  34.602  22.430  1.00  0.00    -0.303 N 
ATOM      3  H2  UNL     1      33.512  33.846  22.993  1.00  0.00     0.186 HD
HETATM    4  N3  UNL     1      34.329  34.471  21.210  1.00  0.00    -0.299 N 
ATOM      5  H3  UNL     1      34.323  33.603  20.674  1.00  0.00     0.187 HD
HETATM    6  C7  UNL     1      34.775  35.650  20.765  1.00  0.00     0.072 A 
HETATM    7  C14 UNL     1      34.610  36.559  21.783  1.00  0.00     0.044 A 
ENDROOT
BRANCH   1   8
HETATM    8  C5  UNL     1      33.689  36.444  24.175  1.00  0.00     0.041 C 
HETATM    9  C4  UNL     1      34.819  36.137  25.128  1.00  0.00     0.030 C 
HETATM   10  C3  UNL     1      34.455  36.415  26.561  1.00  0.00     0.126 C 
HETATM   11  N1  UNL     1      33.146  35.948  26.930  1.00  0.00    -0.350 N 
HETATM   12  C1  UNL     1      32.921  35.262  28.145  1.00  0.00     0.243 C 
HETATM   13  C20 UNL     1      32.051  36.205  26.016  1.00  0.00     0.126 C 
HETATM   14  O1  UNL     1      33.895  35.060  28.909  1.00  0.00    -0.271 OA
HETATM   15  C19 UNL     1      32.464  35.661  24.664  1.00  0.00     0.030 C 
BRANCH  12  16
HETATM   16  C2  UNL     1      31.566  34.789  28.508  1.00  0.00     0.267 C 
BRANCH  16  17
HETATM   17  O2  UNL     1      30.908  35.648  29.357  1.00  0.00    -0.392 OA
ATOM     18  H2  UNL     1      31.435  35.907  30.103  1.00  0.00     0.210 HD
ENDBRANCH  16  17
ENDBRANCH  12  16
ENDBRANCH   1   8
BRANCH   7  19
HETATM   19  C15 UNL     1      34.957  37.970  21.758  1.00  0.00     0.049 A 
HETATM   20  C16 UNL     1      34.465  38.764  20.724  1.00  0.00     0.047 A 
HETATM   21  C17 UNL     1      34.761  40.105  20.648  1.00  0.00     0.091 A 
HETATM   22  N4  UNL     1      35.537  40.669  21.582  1.00  0.00    -0.362 N 
HETATM   23  C18 UNL     1      36.016  39.912  22.583  1.00  0.00     0.180 A 
ATOM     24  H4  UNL     1      35.762  41.663  21.535  1.00  0.00     0.165 HD
HETATM   25  N5  UNL     1      35.727  38.595  22.660  1.00  0.00    -0.352 N 
ATOM     26  H5  UNL     1      36.109  38.054  23.436  1.00  0.00     0.166 HD
ENDBRANCH   7  19
BRANCH   6  27
HETATM   27  C8  UNL     1      35.321  35.854  19.430  1.00  0.00    -0.007 A 
HETATM   28  C9  UNL     1      34.488  35.968  18.310  1.00  0.00     0.015 A 
HETATM   29  C10 UNL     1      35.006  36.163  17.052  1.00  0.00     0.024 A 
HETATM   30  C11 UNL     1      36.363  36.252  16.848  1.00  0.00     0.034 A 
HETATM   31 CL1  UNL     1      37.063  36.500  15.263  1.00  0.00    -0.084 Cl
HETATM   32  C12 UNL     1      37.219  36.145  17.926  1.00  0.00     0.024 A 
HETATM   33  C13 UNL     1      36.673  35.950  19.185  1.00  0.00     0.015 A 
ENDBRANCH   6  27
TORSDOF 5
ENDMDL
