MODEL 7
REMARK VINA RESULT: -8.875117187      4.832      8.028
REMARK  5 active torsions:
REMARK  status: ('A' for Active; 'I' for Inactive)
REMARK    1  A    between atoms: C1_2  and  C2_3 
REMARK       I    between atoms: C1_2  and  N1_6 
REMARK    2  A    between atoms: C2_3  and  O2_4 
REMARK    3  A    between atoms: C5_9  and  C6_10 
REMARK    4  A    between atoms: C7_15  and  C8_16 
REMARK    5  A    between atoms: C14_23  and  C15_24 
ROOT
HETATM    1  C6  UNL     1      34.265  35.361  20.885  1.00  0.00     0.045 A 
HETATM    2  N2  UNL     1      33.987  34.045  20.992  1.00  0.00    -0.303 N 
ATOM      3  H2  UNL     1      33.976  33.389  20.212  1.00  0.00     0.186 HD
HETATM    4  N3  UNL     1      33.735  33.730  22.227  1.00  0.00    -0.299 N 
ATOM      5  H3  UNL     1      33.497  32.795  22.560  1.00  0.00     0.187 HD
HETATM    6  C7  UNL     1      33.835  34.820  22.995  1.00  0.00     0.072 A 
HETATM    7  C14 UNL     1      34.170  35.869  22.171  1.00  0.00     0.044 A 
ENDROOT
BRANCH   1   8
HETATM    8  C5  UNL     1      34.603  36.123  19.655  1.00  0.00     0.041 C 
HETATM    9  C4  UNL     1      34.322  35.230  18.471  1.00  0.00     0.030 C 
HETATM   10  C3  UNL     1      34.882  35.782  17.188  1.00  0.00     0.126 C 
HETATM   11  N1  UNL     1      36.218  36.299  17.312  1.00  0.00    -0.350 N 
HETATM   12  C1  UNL     1      37.214  36.011  16.351  1.00  0.00     0.243 C 
HETATM   13  C20 UNL     1      36.519  37.134  18.457  1.00  0.00     0.126 C 
HETATM   14  O1  UNL     1      36.912  35.286  15.373  1.00  0.00    -0.271 OA
HETATM   15  C19 UNL     1      36.120  36.354  19.693  1.00  0.00     0.030 C 
BRANCH  12  16
HETATM   16  C2  UNL     1      38.585  36.553  16.494  1.00  0.00     0.267 C 
BRANCH  16  17
HETATM   17  O2  UNL     1      38.753  37.760  15.857  1.00  0.00    -0.392 OA
ATOM     18  H2  UNL     1      38.443  37.752  14.959  1.00  0.00     0.210 HD
ENDBRANCH  16  17
ENDBRANCH  12  16
ENDBRANCH   1   8
BRANCH   7  19
HETATM   19  C15 UNL     1      34.384  37.251  22.563  1.00  0.00     0.049 A 
HETATM   20  C16 UNL     1      33.295  38.119  22.590  1.00  0.00     0.047 A 
HETATM   21  C17 UNL     1      33.438  39.439  22.951  1.00  0.00     0.091 A 
HETATM   22  N4  UNL     1      34.646  39.909  23.287  1.00  0.00    -0.362 N 
HETATM   23  C18 UNL     1      35.703  39.080  23.264  1.00  0.00     0.180 A 
ATOM     24  H4  UNL     1      34.763  40.886  23.557  1.00  0.00     0.165 HD
HETATM   25  N5  UNL     1      35.565  37.784  22.909  1.00  0.00    -0.352 N 
ATOM     26  H5  UNL     1      36.391  37.187  22.905  1.00  0.00     0.166 HD
ENDBRANCH   7  19
BRANCH   6  27
HETATM   27  C8  UNL     1      33.616  34.816  24.435  1.00  0.00    -0.007 A 
HETATM   28  C9  UNL     1      34.688  34.843  25.336  1.00  0.00     0.015 A 
HETATM   29  C10 UNL     1      34.478  34.840  26.695  1.00  0.00     0.024 A 
HETATM   30  C11 UNL     1      33.207  34.811  27.217  1.00  0.00     0.034 A 
HETATM   31 CL1  UNL     1      32.897  34.807  28.940  1.00  0.00    -0.084 Cl
HETATM   32  C12 UNL     1      32.123  34.783  26.363  1.00  0.00     0.024 A 
HETATM   33  C13 UNL     1      32.359  34.787  24.998  1.00  0.00     0.015 A 
ENDBRANCH   6  27
TORSDOF 5
ENDMDL
