MODEL 8
REMARK VINA RESULT: -8.792104621      4.705      7.844
REMARK  5 active torsions:
REMARK  status: ('A' for Active; 'I' for Inactive)
REMARK    1  A    between atoms: C1_2  and  C2_3 
REMARK       I    between atoms: C1_2  and  N1_6 
REMARK    2  A    between atoms: C2_3  and  O2_4 
REMARK    3  A    between atoms: C5_9  and  C6_10 
REMARK    4  A    between atoms: C7_15  and  C8_16 
REMARK    5  A    between atoms: C14_23  and  C15_24 
ROOT
HETATM    1  C6  UNL     1      34.268  35.362  20.853  1.00  0.00     0.045 A 
HETATM    2  N2  UNL     1      34.004  34.056  21.065  1.00  0.00    -0.303 N 
ATOM      3  H2  UNL     1      33.959  33.346  20.333  1.00  0.00     0.186 HD
HETATM    4  N3  UNL     1      33.815  33.827  22.330  1.00  0.00    -0.299 N 
ATOM      5  H3  UNL     1      33.600  32.916  22.738  1.00  0.00     0.187 HD
HETATM    6  C7  UNL     1      33.946  34.967  23.014  1.00  0.00     0.072 A 
HETATM    7  C14 UNL     1      34.233  35.958  22.104  1.00  0.00     0.044 A 
ENDROOT
BRANCH   1   8
HETATM    8  C5  UNL     1      34.541  36.037  19.558  1.00  0.00     0.041 C 
HETATM    9  C4  UNL     1      34.740  34.964  18.515  1.00  0.00     0.030 C 
HETATM   10  C3  UNL     1      35.293  35.510  17.226  1.00  0.00     0.126 C 
HETATM   11  N1  UNL     1      36.365  36.451  17.406  1.00  0.00    -0.350 N 
HETATM   12  C1  UNL     1      37.538  36.394  16.620  1.00  0.00     0.243 C 
HETATM   13  C20 UNL     1      36.209  37.471  18.424  1.00  0.00     0.126 C 
HETATM   14  O1  UNL     1      37.633  35.496  15.749  1.00  0.00    -0.271 OA
HETATM   15  C19 UNL     1      35.884  36.760  19.721  1.00  0.00     0.030 C 
BRANCH  12  16
HETATM   16  C2  UNL     1      38.632  37.372  16.819  1.00  0.00     0.267 C 
BRANCH  16  17
HETATM   17  O2  UNL     1      39.350  37.146  17.969  1.00  0.00    -0.392 OA
ATOM     18  H2  UNL     1      39.425  37.918  18.518  1.00  0.00     0.210 HD
ENDBRANCH  16  17
ENDBRANCH  12  16
ENDBRANCH   1   8
BRANCH   7  19
HETATM   19  C15 UNL     1      34.458  37.365  22.388  1.00  0.00     0.049 A 
HETATM   20  C16 UNL     1      35.655  37.746  22.990  1.00  0.00     0.047 A 
HETATM   21  C17 UNL     1      35.922  39.063  23.284  1.00  0.00     0.091 A 
HETATM   22  N4  UNL     1      35.018  40.007  22.988  1.00  0.00    -0.362 N 
HETATM   23  C18 UNL     1      33.861  39.649  22.407  1.00  0.00     0.180 A 
ATOM     24  H4  UNL     1      35.207  40.986  23.201  1.00  0.00     0.165 HD
HETATM   25  N5  UNL     1      33.597  38.356  22.118  1.00  0.00    -0.352 N 
ATOM     26  H5  UNL     1      32.707  38.125  21.677  1.00  0.00     0.166 HD
ENDBRANCH   7  19
BRANCH   6  27
HETATM   27  C8  UNL     1      33.799  35.063  24.460  1.00  0.00    -0.007 A 
HETATM   28  C9  UNL     1      34.883  34.850  25.320  1.00  0.00     0.015 A 
HETATM   29  C10 UNL     1      34.741  34.942  26.684  1.00  0.00     0.024 A 
HETATM   30  C11 UNL     1      33.528  35.247  27.253  1.00  0.00     0.034 A 
HETATM   31 CL1  UNL     1      33.305  35.374  28.984  1.00  0.00    -0.084 Cl
HETATM   32  C12 UNL     1      32.433  35.464  26.440  1.00  0.00     0.024 A 
HETATM   33  C13 UNL     1      32.601  35.366  25.068  1.00  0.00     0.015 A 
ENDBRANCH   6  27
TORSDOF 5
ENDMDL
