MODEL 6
REMARK VINA RESULT: -8.957099735      4.811      8.038
REMARK  5 active torsions:
REMARK  status: ('A' for Active; 'I' for Inactive)
REMARK    1  A    between atoms: C1_2  and  C2_3 
REMARK       I    between atoms: C1_2  and  N1_6 
REMARK    2  A    between atoms: C2_3  and  O2_4 
REMARK    3  A    between atoms: C5_9  and  C6_10 
REMARK    4  A    between atoms: C7_15  and  C8_16 
REMARK    5  A    between atoms: C14_23  and  C15_24 
ROOT
HETATM    1  C6  UNL     1      34.275  35.402  20.926  1.00  0.00     0.045 A 
HETATM    2  N2  UNL     1      33.995  34.088  21.043  1.00  0.00    -0.303 N 
ATOM      3  H2  UNL     1      33.985  33.424  20.268  1.00  0.00     0.186 HD
HETATM    4  N3  UNL     1      33.739  33.782  22.280  1.00  0.00    -0.299 N 
ATOM      5  H3  UNL     1      33.499  32.851  22.619  1.00  0.00     0.187 HD
HETATM    6  C7  UNL     1      33.839  34.878  23.039  1.00  0.00     0.072 A 
HETATM    7  C14 UNL     1      34.178  35.920  22.207  1.00  0.00     0.044 A 
ENDROOT
BRANCH   1   8
HETATM    8  C5  UNL     1      34.618  36.153  19.691  1.00  0.00     0.041 C 
HETATM    9  C4  UNL     1      34.319  35.259  18.512  1.00  0.00     0.030 C 
HETATM   10  C3  UNL     1      34.880  35.797  17.224  1.00  0.00     0.126 C 
HETATM   11  N1  UNL     1      36.223  36.297  17.338  1.00  0.00    -0.350 N 
HETATM   12  C1  UNL     1      37.210  35.991  16.374  1.00  0.00     0.243 C 
HETATM   13  C20 UNL     1      36.541  37.133  18.479  1.00  0.00     0.126 C 
HETATM   14  O1  UNL     1      36.894  35.265  15.402  1.00  0.00    -0.271 OA
HETATM   15  C19 UNL     1      36.137  36.364  19.720  1.00  0.00     0.030 C 
BRANCH  12  16
HETATM   16  C2  UNL     1      38.589  36.515  16.508  1.00  0.00     0.267 C 
BRANCH  16  17
HETATM   17  O2  UNL     1      38.757  37.740  15.906  1.00  0.00    -0.392 OA
ATOM     18  H2  UNL     1      39.608  38.124  16.080  1.00  0.00     0.210 HD
ENDBRANCH  16  17
ENDBRANCH  12  16
ENDBRANCH   1   8
BRANCH   7  19
HETATM   19  C15 UNL     1      34.393  37.305  22.589  1.00  0.00     0.049 A 
HETATM   20  C16 UNL     1      35.633  37.676  23.105  1.00  0.00     0.047 A 
HETATM   21  C17 UNL     1      35.894  38.972  23.484  1.00  0.00     0.091 A 
HETATM   22  N4  UNL     1      34.942  39.906  23.358  1.00  0.00    -0.362 N 
HETATM   23  C18 UNL     1      33.743  39.559  22.861  1.00  0.00     0.180 A 
ATOM     24  H4  UNL     1      35.127  40.870  23.636  1.00  0.00     0.165 HD
HETATM   25  N5  UNL     1      33.485  38.286  22.489  1.00  0.00    -0.352 N 
ATOM     26  H5  UNL     1      32.562  38.063  22.116  1.00  0.00     0.166 HD
ENDBRANCH   7  19
BRANCH   6  27
HETATM   27  C8  UNL     1      33.617  34.886  24.478  1.00  0.00    -0.007 A 
HETATM   28  C9  UNL     1      32.324  34.897  25.017  1.00  0.00     0.015 A 
HETATM   29  C10 UNL     1      32.117  34.903  26.376  1.00  0.00     0.024 A 
HETATM   30  C11 UNL     1      33.174  34.898  27.255  1.00  0.00     0.034 A 
HETATM   31 CL1  UNL     1      32.953  34.905  28.991  1.00  0.00    -0.084 Cl
HETATM   32  C12 UNL     1      34.464  34.887  26.765  1.00  0.00     0.024 A 
HETATM   33  C13 UNL     1      34.647  34.880  25.392  1.00  0.00     0.015 A 
ENDBRANCH   6  27
TORSDOF 5
ENDMDL
