MODEL 9
REMARK VINA RESULT: -8.791300058      1.463      1.976
REMARK  5 active torsions:
REMARK  status: ('A' for Active; 'I' for Inactive)
REMARK    1  A    between atoms: C1_2  and  C2_3 
REMARK       I    between atoms: C1_2  and  N1_6 
REMARK    2  A    between atoms: C2_3  and  O2_4 
REMARK    3  A    between atoms: C5_9  and  C6_10 
REMARK    4  A    between atoms: C7_15  and  C8_16 
REMARK    5  A    between atoms: C14_23  and  C15_24 
ROOT
HETATM    1  C6  UNL     1      33.582  35.013  23.029  1.00  0.00     0.045 A 
HETATM    2  N2  UNL     1      33.523  33.841  22.363  1.00  0.00    -0.303 N 
ATOM      3  H2  UNL     1      33.141  32.975  22.744  1.00  0.00     0.186 HD
HETATM    4  N3  UNL     1      34.020  33.967  21.169  1.00  0.00    -0.299 N 
ATOM      5  H3  UNL     1      34.087  33.221  20.477  1.00  0.00     0.187 HD
HETATM    6  C7  UNL     1      34.429  35.227  20.989  1.00  0.00     0.072 A 
HETATM    7  C14 UNL     1      34.164  35.912  22.151  1.00  0.00     0.044 A 
ENDROOT
BRANCH   1   8
HETATM    8  C5  UNL     1      33.123  35.297  24.414  1.00  0.00     0.041 C 
HETATM    9  C4  UNL     1      34.326  35.212  25.322  1.00  0.00     0.030 C 
HETATM   10  C3  UNL     1      33.949  35.207  26.778  1.00  0.00     0.126 C 
HETATM   11  N1  UNL     1      32.837  34.348  27.088  1.00  0.00    -0.350 N 
HETATM   12  C1  UNL     1      32.857  33.489  28.209  1.00  0.00     0.243 C 
HETATM   13  C20 UNL     1      31.684  34.390  26.212  1.00  0.00     0.126 C 
HETATM   14  O1  UNL     1      33.875  33.484  28.943  1.00  0.00    -0.271 OA
HETATM   15  C19 UNL     1      32.185  34.147  24.803  1.00  0.00     0.030 C 
BRANCH  12  16
HETATM   16  C2  UNL     1      31.703  32.612  28.513  1.00  0.00     0.267 C 
BRANCH  16  17
HETATM   17  O2  UNL     1      30.873  33.134  29.477  1.00  0.00    -0.392 OA
ATOM     18  H2  UNL     1      30.254  33.766  29.130  1.00  0.00     0.210 HD
ENDBRANCH  16  17
ENDBRANCH  12  16
ENDBRANCH   1   8
BRANCH   7  19
HETATM   19  C15 UNL     1      34.440  37.313  22.420  1.00  0.00     0.049 A 
HETATM   20  C16 UNL     1      35.748  37.698  22.706  1.00  0.00     0.047 A 
HETATM   21  C17 UNL     1      36.068  39.010  22.969  1.00  0.00     0.091 A 
HETATM   22  N4  UNL     1      35.109  39.945  22.952  1.00  0.00    -0.362 N 
HETATM   23  C18 UNL     1      33.844  39.583  22.677  1.00  0.00     0.180 A 
ATOM     24  H4  UNL     1      35.336  40.920  23.146  1.00  0.00     0.165 HD
HETATM   25  N5  UNL     1      33.528  38.296  22.419  1.00  0.00    -0.352 N 
ATOM     26  H5  UNL     1      32.557  38.062  22.214  1.00  0.00     0.166 HD
ENDBRANCH   7  19
BRANCH   6  27
HETATM   27  C8  UNL     1      35.035  35.709  19.755  1.00  0.00    -0.007 A 
HETATM   28  C9  UNL     1      34.409  36.682  18.966  1.00  0.00     0.015 A 
HETATM   29  C10 UNL     1      34.984  37.137  17.803  1.00  0.00     0.024 A 
HETATM   30  C11 UNL     1      36.196  36.651  17.373  1.00  0.00     0.034 A 
HETATM   31 CL1  UNL     1      36.962  37.203  15.899  1.00  0.00    -0.084 Cl
HETATM   32  C12 UNL     1      36.846  35.691  18.122  1.00  0.00     0.024 A 
HETATM   33  C13 UNL     1      36.247  35.249  19.290  1.00  0.00     0.015 A 
ENDBRANCH   6  27
TORSDOF 5
ENDMDL
