MODEL 1
REMARK VINA RESULT: -9.304277890      0.000      0.000
REMARK  5 active torsions:
REMARK  status: ('A' for Active; 'I' for Inactive)
REMARK    1  A    between atoms: C1_2  and  C2_3 
REMARK       I    between atoms: C1_2  and  N1_6 
REMARK    2  A    between atoms: C2_3  and  O2_4 
REMARK    3  A    between atoms: C5_9  and  C6_10 
REMARK    4  A    between atoms: C7_15  and  C8_16 
REMARK    5  A    between atoms: C14_23  and  C15_24 
ROOT
HETATM    1  C6  UNL     1      34.395  35.380  21.653  1.00  0.00     0.045 A 
HETATM    2  N2  UNL     1      34.515  34.186  21.037  1.00  0.00    -0.303 N 
ATOM      3  H2  UNL     1      34.162  33.303  21.407  1.00  0.00     0.186 HD
HETATM    4  N3  UNL     1      35.142  34.316  19.906  1.00  0.00    -0.299 N 
ATOM      5  H3  UNL     1      35.355  33.555  19.260  1.00  0.00     0.187 HD
HETATM    6  C7  UNL     1      35.465  35.599  19.720  1.00  0.00     0.072 A 
HETATM    7  C14 UNL     1      35.005  36.297  20.812  1.00  0.00     0.044 A 
ENDROOT
BRANCH   1   8
HETATM    8  C5  UNL     1      33.749  35.670  22.959  1.00  0.00     0.041 C 
HETATM    9  C4  UNL     1      34.634  35.104  24.044  1.00  0.00     0.030 C 
HETATM   10  C3  UNL     1      33.958  35.087  25.388  1.00  0.00     0.126 C 
HETATM   11  N1  UNL     1      32.597  34.624  25.349  1.00  0.00    -0.350 N 
HETATM   12  C1  UNL     1      32.101  33.706  26.302  1.00  0.00     0.243 C 
HETATM   13  C20 UNL     1      31.738  35.130  24.297  1.00  0.00     0.126 C 
HETATM   14  O1  UNL     1      32.878  33.292  27.196  1.00  0.00    -0.271 OA
HETATM   15  C19 UNL     1      32.441  34.867  22.982  1.00  0.00     0.030 C 
BRANCH  12  16
HETATM   16  C2  UNL     1      30.696  33.240  26.247  1.00  0.00     0.267 C 
BRANCH  16  17
HETATM   17  O2  UNL     1      29.976  33.577  27.368  1.00  0.00    -0.392 OA
ATOM     18  H2  UNL     1      29.684  34.481  27.363  1.00  0.00     0.210 HD
ENDBRANCH  16  17
ENDBRANCH  12  16
ENDBRANCH   1   8
BRANCH   7  19
HETATM   19  C15 UNL     1      35.129  37.725  21.050  1.00  0.00     0.049 A 
HETATM   20  C16 UNL     1      35.769  38.161  22.209  1.00  0.00     0.047 A 
HETATM   21  C17 UNL     1      35.915  39.500  22.487  1.00  0.00     0.091 A 
HETATM   22  N4  UNL     1      35.435  40.413  21.632  1.00  0.00    -0.362 N 
HETATM   23  C18 UNL     1      34.817  40.003  20.512  1.00  0.00     0.180 A 
ATOM     24  H4  UNL     1      35.539  41.408  21.830  1.00  0.00     0.165 HD
HETATM   25  N5  UNL     1      34.672  38.689  20.237  1.00  0.00    -0.352 N 
ATOM     26  H5  UNL     1      34.197  38.418  19.376  1.00  0.00     0.166 HD
ENDBRANCH   7  19
BRANCH   6  27
HETATM   27  C8  UNL     1      36.176  36.091  18.548  1.00  0.00    -0.007 A 
HETATM   28  C9  UNL     1      37.514  36.496  18.622  1.00  0.00     0.015 A 
HETATM   29  C10 UNL     1      38.183  36.959  17.514  1.00  0.00     0.024 A 
HETATM   30  C11 UNL     1      37.560  37.040  16.291  1.00  0.00     0.034 A 
HETATM   31 CL1  UNL     1      38.375  37.622  14.856  1.00  0.00    -0.084 Cl
HETATM   32  C12 UNL     1      36.241  36.650  16.175  1.00  0.00     0.024 A 
HETATM   33  C13 UNL     1      35.588  36.187  17.306  1.00  0.00     0.015 A 
ENDBRANCH   6  27
TORSDOF 5
ENDMDL
