MODEL 2
REMARK VINA RESULT: -9.232941469      0.530      1.262
REMARK  5 active torsions:
REMARK  status: ('A' for Active; 'I' for Inactive)
REMARK    1  A    between atoms: C1_2  and  C2_3 
REMARK       I    between atoms: C1_2  and  N1_6 
REMARK    2  A    between atoms: C2_3  and  O2_4 
REMARK    3  A    between atoms: C5_9  and  C6_10 
REMARK    4  A    between atoms: C7_15  and  C8_16 
REMARK    5  A    between atoms: C14_23  and  C15_24 
ROOT
HETATM    1  C6  UNL     1      34.277  35.391  21.783  1.00  0.00     0.045 A 
HETATM    2  N2  UNL     1      34.328  34.208  21.136  1.00  0.00    -0.303 N 
ATOM      3  H2  UNL     1      33.933  33.336  21.488  1.00  0.00     0.186 HD
HETATM    4  N3  UNL     1      34.951  34.333  20.003  1.00  0.00    -0.299 N 
ATOM      5  H3  UNL     1      35.118  33.579  19.336  1.00  0.00     0.187 HD
HETATM    6  C7  UNL     1      35.340  35.602  19.845  1.00  0.00     0.072 A 
HETATM    7  C14 UNL     1      34.926  36.296  20.958  1.00  0.00     0.044 A 
ENDROOT
BRANCH   1   8
HETATM    8  C5  UNL     1      33.659  35.681  23.103  1.00  0.00     0.041 C 
HETATM    9  C4  UNL     1      34.566  35.115  24.168  1.00  0.00     0.030 C 
HETATM   10  C3  UNL     1      33.919  35.100  25.526  1.00  0.00     0.126 C 
HETATM   11  N1  UNL     1      32.557  34.637  25.516  1.00  0.00    -0.350 N 
HETATM   12  C1  UNL     1      32.082  33.719  26.480  1.00  0.00     0.243 C 
HETATM   13  C20 UNL     1      31.676  35.143  24.483  1.00  0.00     0.126 C 
HETATM   14  O1  UNL     1      32.877  33.306  27.358  1.00  0.00    -0.271 OA
HETATM   15  C19 UNL     1      32.352  34.880  23.154  1.00  0.00     0.030 C 
BRANCH  12  16
HETATM   16  C2  UNL     1      30.676  33.254  26.455  1.00  0.00     0.267 C 
BRANCH  16  17
HETATM   17  O2  UNL     1      29.970  33.622  27.575  1.00  0.00    -0.392 OA
ATOM     18  H2  UNL     1      29.070  33.317  27.564  1.00  0.00     0.210 HD
ENDBRANCH  16  17
ENDBRANCH  12  16
ENDBRANCH   1   8
BRANCH   7  19
HETATM   19  C15 UNL     1      35.128  37.709  21.230  1.00  0.00     0.049 A 
HETATM   20  C16 UNL     1      34.663  38.644  20.307  1.00  0.00     0.047 A 
HETATM   21  C17 UNL     1      34.827  39.994  20.510  1.00  0.00     0.091 A 
HETATM   22  N4  UNL     1      35.444  40.430  21.615  1.00  0.00    -0.362 N 
HETATM   23  C18 UNL     1      35.896  39.537  22.511  1.00  0.00     0.180 A 
ATOM     24  H4  UNL     1      35.570  41.430  21.775  1.00  0.00     0.165 HD
HETATM   25  N5  UNL     1      35.737  38.210  22.314  1.00  0.00    -0.352 N 
ATOM     26  H5  UNL     1      36.094  37.564  23.017  1.00  0.00     0.166 HD
ENDBRANCH   7  19
BRANCH   6  27
HETATM   27  C8  UNL     1      36.065  36.085  18.677  1.00  0.00    -0.007 A 
HETATM   28  C9  UNL     1      35.441  36.202  17.429  1.00  0.00     0.015 A 
HETATM   29  C10 UNL     1      36.128  36.659  16.329  1.00  0.00     0.024 A 
HETATM   30  C11 UNL     1      37.452  37.019  16.416  1.00  0.00     0.034 A 
HETATM   31 CL1  UNL     1      38.360  37.606  15.041  1.00  0.00    -0.084 Cl
HETATM   32  C12 UNL     1      38.102  36.918  17.630  1.00  0.00     0.024 A 
HETATM   33  C13 UNL     1      37.390  36.455  18.724  1.00  0.00     0.015 A 
ENDBRANCH   6  27
TORSDOF 5
ENDMDL
