MODEL 4
REMARK VINA RESULT: -6.000621021      3.524      7.617
REMARK  2 active torsions:
REMARK  status: ('A' for Active; 'I' for Inactive)
REMARK    1  A    between atoms: C2_2  and  C5_5 
REMARK    2  A    between atoms: N2_8  and  C6_9 
ROOT
HETATM    1  C5  UNL     1      30.533   2.115  55.908  1.00  0.00     0.021 A 
HETATM    2  N1  UNL     1      31.380   2.910  56.454  1.00  0.00    -0.296 N 
ATOM      3  H1  UNL     1      31.166   3.855  56.772  1.00  0.00     0.187 HD
HETATM    4  N2  UNL     1      32.616   2.315  56.551  1.00  0.00    -0.200 N 
HETATM    5  C13 UNL     1      32.546   1.004  56.011  1.00  0.00     0.250 A 
HETATM    6  O1  UNL     1      33.509   0.200  55.950  1.00  0.00    -0.271 OA
HETATM    7  C14 UNL     1      31.142   0.807  55.555  1.00  0.00     0.160 A 
ENDROOT
BRANCH   4   8
HETATM    8  C6  UNL     1      33.771   2.957  57.114  1.00  0.00     0.174 A 
HETATM    9  N3  UNL     1      34.875   2.464  57.602  1.00  0.00    -0.334 N 
HETATM   10  C7  UNL     1      35.811   3.240  58.072  1.00  0.00     0.051 A 
ATOM     11  H3  UNL     1      35.008   1.452  57.616  1.00  0.00     0.168 HD
HETATM   12  C8  UNL     1      37.038   2.820  58.621  1.00  0.00     0.032 A 
HETATM   13  C12 UNL     1      35.588   4.590  58.031  1.00  0.00     0.036 A 
HETATM   14  C9  UNL     1      37.919   3.747  59.072  1.00  0.00     0.026 A 
HETATM   15  C10 UNL     1      37.725   5.103  59.044  1.00  0.00     0.035 A 
HETATM   16 CL1  UNL     1      38.871   6.258  59.628  1.00  0.00    -0.084 Cl
HETATM   17  C11 UNL     1      36.525   5.522  58.508  1.00  0.00     0.045 A 
HETATM   18  S1  UNL     1      34.035   4.654  57.315  1.00  0.00    -0.050 SA
ENDBRANCH   4   8
BRANCH   1  19
HETATM   19  C2  UNL     1      29.100   2.416  55.641  1.00  0.00    -0.011 C 
HETATM   20  C1  UNL     1      28.232   1.212  55.882  1.00  0.00     0.021 C 
HETATM   21  C3  UNL     1      28.651   3.490  56.621  1.00  0.00     0.021 C 
HETATM   22  C4  UNL     1      28.890   2.930  54.255  1.00  0.00     0.021 C 
ENDBRANCH   1  19
TORSDOF 2
ENDMDL
