MODEL 5
REMARK VINA RESULT: -5.973825011      1.842      2.705
REMARK  2 active torsions:
REMARK  status: ('A' for Active; 'I' for Inactive)
REMARK    1  A    between atoms: C2_2  and  C5_5 
REMARK    2  A    between atoms: N2_8  and  C6_9 
ROOT
HETATM    1  C5  UNL     1      37.353   3.559  58.635  1.00  0.00     0.021 A 
HETATM    2  N1  UNL     1      36.156   3.805  58.244  1.00  0.00    -0.296 N 
ATOM      3  H1  UNL     1      35.719   4.727  58.261  1.00  0.00     0.187 HD
HETATM    4  N2  UNL     1      35.542   2.658  57.799  1.00  0.00    -0.200 N 
HETATM    5  C13 UNL     1      36.444   1.569  57.919  1.00  0.00     0.250 A 
HETATM    6  O1  UNL     1      36.186   0.383  57.598  1.00  0.00    -0.271 OA
HETATM    7  C14 UNL     1      37.705   2.123  58.485  1.00  0.00     0.160 A 
ENDROOT
BRANCH   4   8
HETATM    8  C6  UNL     1      34.196   2.613  57.301  1.00  0.00     0.174 A 
HETATM    9  N3  UNL     1      33.503   1.636  56.786  1.00  0.00    -0.334 N 
HETATM   10  C7  UNL     1      32.273   1.815  56.390  1.00  0.00     0.051 A 
ATOM     11  H3  UNL     1      33.930   0.715  56.691  1.00  0.00     0.168 HD
HETATM   12  C8  UNL     1      31.434   0.838  55.821  1.00  0.00     0.032 A 
HETATM   13  C12 UNL     1      31.741   3.068  56.538  1.00  0.00     0.036 A 
HETATM   14  C9  UNL     1      30.172   1.173  55.456  1.00  0.00     0.026 A 
HETATM   15  C10 UNL     1      29.613   2.415  55.591  1.00  0.00     0.035 A 
HETATM   16 CL1  UNL     1      27.997   2.809  55.115  1.00  0.00    -0.084 Cl
HETATM   17  C11 UNL     1      30.428   3.379  56.148  1.00  0.00     0.045 A 
HETATM   18  S1  UNL     1      33.054   3.911  57.241  1.00  0.00    -0.050 SA
ENDBRANCH   4   8
BRANCH   1  19
HETATM   19  C2  UNL     1      38.316   4.555  59.179  1.00  0.00    -0.011 C 
HETATM   20  C1  UNL     1      39.700   4.336  58.632  1.00  0.00     0.021 C 
HETATM   21  C3  UNL     1      37.873   5.938  58.724  1.00  0.00     0.021 C 
HETATM   22  C4  UNL     1      38.346   4.541  60.672  1.00  0.00     0.021 C 
ENDBRANCH   1  19
TORSDOF 2
ENDMDL
