MODEL 10
REMARK VINA RESULT: -5.421426004      3.381      7.410
REMARK  2 active torsions:
REMARK  status: ('A' for Active; 'I' for Inactive)
REMARK    1  A    between atoms: C2_2  and  C5_5 
REMARK    2  A    between atoms: N2_8  and  C6_9 
ROOT
HETATM    1  C5  UNL     1      30.968   2.701  56.246  1.00  0.00     0.021 A 
HETATM    2  N1  UNL     1      31.954   1.935  55.951  1.00  0.00    -0.296 N 
ATOM      3  H1  UNL     1      31.881   1.088  55.387  1.00  0.00     0.187 HD
HETATM    4  N2  UNL     1      33.123   2.411  56.497  1.00  0.00    -0.200 N 
HETATM    5  C13 UNL     1      32.851   3.605  57.214  1.00  0.00     0.250 A 
HETATM    6  O1  UNL     1      33.708   4.285  57.831  1.00  0.00    -0.271 OA
HETATM    7  C14 UNL     1      31.390   3.858  57.078  1.00  0.00     0.160 A 
ENDROOT
BRANCH   4   8
HETATM    8  C6  UNL     1      34.398   1.766  56.345  1.00  0.00     0.174 A 
HETATM    9  N3  UNL     1      35.427   1.700  57.143  1.00  0.00    -0.334 N 
HETATM   10  C7  UNL     1      36.506   1.052  56.801  1.00  0.00     0.051 A 
ATOM     11  H3  UNL     1      35.388   2.164  58.051  1.00  0.00     0.168 HD
HETATM   12  C8  UNL     1      37.673   0.915  57.578  1.00  0.00     0.032 A 
HETATM   13  C12 UNL     1      36.512   0.445  55.574  1.00  0.00     0.036 A 
HETATM   14  C9  UNL     1      38.721   0.208  57.088  1.00  0.00     0.026 A 
HETATM   15  C10 UNL     1      38.757  -0.410  55.867  1.00  0.00     0.035 A 
HETATM   16 CL1  UNL     1      40.111  -1.307  55.274  1.00  0.00    -0.084 Cl
HETATM   17  C11 UNL     1      37.618  -0.281  55.099  1.00  0.00     0.045 A 
HETATM   18  S1  UNL     1      34.956   0.850  54.989  1.00  0.00    -0.050 SA
ENDBRANCH   4   8
BRANCH   1  19
HETATM   19  C2  UNL     1      29.554   2.503  55.828  1.00  0.00    -0.011 C 
HETATM   20  C1  UNL     1      28.617   3.348  56.646  1.00  0.00     0.021 C 
HETATM   21  C3  UNL     1      29.418   2.961  54.383  1.00  0.00     0.021 C 
HETATM   22  C4  UNL     1      29.149   1.068  55.904  1.00  0.00     0.021 C 
ENDBRANCH   1  19
TORSDOF 2
ENDMDL
