MODEL 3
REMARK VINA RESULT: -6.169810930      1.530      2.084
REMARK  2 active torsions:
REMARK  status: ('A' for Active; 'I' for Inactive)
REMARK    1  A    between atoms: C2_2  and  C5_5 
REMARK    2  A    between atoms: N2_8  and  C6_9 
ROOT
HETATM    1  C5  UNL     1      37.015   3.331  58.462  1.00  0.00     0.021 A 
HETATM    2  N1  UNL     1      35.813   3.639  58.133  1.00  0.00    -0.296 N 
ATOM      3  H1  UNL     1      35.427   4.582  58.168  1.00  0.00     0.187 HD
HETATM    4  N2  UNL     1      35.117   2.525  57.727  1.00  0.00    -0.200 N 
HETATM    5  C13 UNL     1      35.965   1.390  57.807  1.00  0.00     0.250 A 
HETATM    6  O1  UNL     1      35.629   0.217  57.507  1.00  0.00    -0.271 OA
HETATM    7  C14 UNL     1      37.282   1.878  58.302  1.00  0.00     0.160 A 
ENDROOT
BRANCH   4   8
HETATM    8  C6  UNL     1      33.745   2.549  57.302  1.00  0.00     0.174 A 
HETATM    9  N3  UNL     1      32.747   3.303  57.666  1.00  0.00    -0.334 N 
HETATM   10  C7  UNL     1      31.561   3.153  57.144  1.00  0.00     0.051 A 
ATOM     11  H3  UNL     1      32.895   4.025  58.373  1.00  0.00     0.168 HD
HETATM   12  C8  UNL     1      30.414   3.907  57.460  1.00  0.00     0.032 A 
HETATM   13  C12 UNL     1      31.409   2.174  56.200  1.00  0.00     0.036 A 
HETATM   14  C9  UNL     1      29.243   3.635  56.832  1.00  0.00     0.026 A 
HETATM   15  C10 UNL     1      29.061   2.664  55.884  1.00  0.00     0.035 A 
HETATM   16 CL1  UNL     1      27.553   2.344  55.101  1.00  0.00    -0.084 Cl
HETATM   17  C11 UNL     1      30.180   1.921  55.569  1.00  0.00     0.045 A 
HETATM   18  S1  UNL     1      32.993   1.529  56.125  1.00  0.00    -0.050 SA
ENDBRANCH   4   8
BRANCH   1  19
HETATM   19  C2  UNL     1      38.056   4.276  58.948  1.00  0.00    -0.011 C 
HETATM   20  C1  UNL     1      37.731   5.694  58.566  1.00  0.00     0.021 C 
HETATM   21  C3  UNL     1      38.074   4.220  60.469  1.00  0.00     0.021 C 
HETATM   22  C4  UNL     1      39.415   3.910  58.449  1.00  0.00     0.021 C 
ENDBRANCH   1  19
TORSDOF 2
ENDMDL
