MODEL 7
REMARK VINA RESULT: -5.469445435      2.049      2.466
REMARK  2 active torsions:
REMARK  status: ('A' for Active; 'I' for Inactive)
REMARK    1  A    between atoms: C2_2  and  C5_5 
REMARK    2  A    between atoms: N2_8  and  C6_9 
ROOT
HETATM    1  C5  UNL     1      37.551   1.225  57.837  1.00  0.00     0.021 A 
HETATM    2  N1  UNL     1      36.356   1.688  57.911  1.00  0.00    -0.296 N 
ATOM      3  H1  UNL     1      36.020   2.309  58.647  1.00  0.00     0.187 HD
HETATM    4  N2  UNL     1      35.591   1.235  56.862  1.00  0.00    -0.200 N 
HETATM    5  C13 UNL     1      36.382   0.396  56.035  1.00  0.00     0.250 A 
HETATM    6  O1  UNL     1      35.977  -0.178  54.995  1.00  0.00    -0.271 OA
HETATM    7  C14 UNL     1      37.738   0.351  56.650  1.00  0.00     0.160 A 
ENDROOT
BRANCH   4   8
HETATM    8  C6  UNL     1      34.209   1.578  56.673  1.00  0.00     0.174 A 
HETATM    9  N3  UNL     1      33.497   2.565  57.141  1.00  0.00    -0.334 N 
HETATM   10  C7  UNL     1      32.235   2.690  56.839  1.00  0.00     0.051 A 
ATOM     11  H3  UNL     1      33.936   3.252  57.754  1.00  0.00     0.168 HD
HETATM   12  C8  UNL     1      31.372   3.710  57.284  1.00  0.00     0.032 A 
HETATM   13  C12 UNL     1      31.689   1.744  56.012  1.00  0.00     0.036 A 
HETATM   14  C9  UNL     1      30.076   3.710  56.885  1.00  0.00     0.026 A 
HETATM   15  C10 UNL     1      29.503   2.780  56.059  1.00  0.00     0.035 A 
HETATM   16 CL1  UNL     1      27.845   2.810  55.568  1.00  0.00    -0.084 Cl
HETATM   17  C11 UNL     1      30.341   1.776  55.618  1.00  0.00     0.045 A 
HETATM   18  S1  UNL     1      33.038   0.731  55.722  1.00  0.00    -0.050 SA
ENDBRANCH   4   8
BRANCH   1  19
HETATM   19  C2  UNL     1      38.654   1.501  58.796  1.00  0.00    -0.011 C 
HETATM   20  C1  UNL     1      38.142   2.157  60.049  1.00  0.00     0.021 C 
HETATM   21  C3  UNL     1      39.265   0.171  59.211  1.00  0.00     0.021 C 
HETATM   22  C4  UNL     1      39.727   2.338  58.182  1.00  0.00     0.021 C 
ENDBRANCH   1  19
TORSDOF 2
ENDMDL
