MODEL 9
REMARK VINA RESULT: -5.425214140      3.645      7.479
REMARK  2 active torsions:
REMARK  status: ('A' for Active; 'I' for Inactive)
REMARK    1  A    between atoms: C2_2  and  C5_5 
REMARK    2  A    between atoms: N2_8  and  C6_9 
ROOT
HETATM    1  C5  UNL     1      30.680   2.700  56.207  1.00  0.00     0.021 A 
HETATM    2  N1  UNL     1      31.665   1.932  55.914  1.00  0.00    -0.296 N 
ATOM      3  H1  UNL     1      31.592   1.085  55.352  1.00  0.00     0.187 HD
HETATM    4  N2  UNL     1      32.834   2.407  56.461  1.00  0.00    -0.200 N 
HETATM    5  C13 UNL     1      32.563   3.603  57.176  1.00  0.00     0.250 A 
HETATM    6  O1  UNL     1      33.420   4.283  57.793  1.00  0.00    -0.271 OA
HETATM    7  C14 UNL     1      31.102   3.858  57.038  1.00  0.00     0.160 A 
ENDROOT
BRANCH   4   8
HETATM    8  C6  UNL     1      34.109   1.762  56.312  1.00  0.00     0.174 A 
HETATM    9  N3  UNL     1      34.757   1.377  55.248  1.00  0.00    -0.334 N 
HETATM   10  C7  UNL     1      35.921   0.798  55.339  1.00  0.00     0.051 A 
ATOM     11  H3  UNL     1      34.345   1.532  54.327  1.00  0.00     0.168 HD
HETATM   12  C8  UNL     1      36.708   0.342  54.263  1.00  0.00     0.032 A 
HETATM   13  C12 UNL     1      36.434   0.612  56.595  1.00  0.00     0.036 A 
HETATM   14  C9  UNL     1      37.905  -0.244  54.513  1.00  0.00     0.026 A 
HETATM   15  C10 UNL     1      38.444  -0.443  55.756  1.00  0.00     0.035 A 
HETATM   16 CL1  UNL     1      39.975  -1.195  56.040  1.00  0.00    -0.084 Cl
HETATM   17  C11 UNL     1      37.680  -0.000  56.816  1.00  0.00     0.045 A 
HETATM   18  S1  UNL     1      35.199   1.286  57.567  1.00  0.00    -0.050 SA
ENDBRANCH   4   8
BRANCH   1  19
HETATM   19  C2  UNL     1      29.266   2.503  55.788  1.00  0.00    -0.011 C 
HETATM   20  C1  UNL     1      28.337   3.411  56.546  1.00  0.00     0.021 C 
HETATM   21  C3  UNL     1      29.151   2.877  54.317  1.00  0.00     0.021 C 
HETATM   22  C4  UNL     1      28.834   1.082  55.944  1.00  0.00     0.021 C 
ENDBRANCH   1  19
TORSDOF 2
ENDMDL
