MODEL 5
REMARK VINA RESULT: -10.009879732      2.503      3.110
REMARK  5 active torsions:
REMARK  status: ('A' for Active; 'I' for Inactive)
REMARK       I    between atoms: N1_2  and  C2_4 
REMARK    1  A    between atoms: C2_4  and  C3_6 
REMARK    2  A    between atoms: C8_11  and  N2_12 
REMARK    3  A    between atoms: C12_16  and  O2_17 
REMARK    4  A    between atoms: O2_17  and  C13_18 
REMARK    5  A    between atoms: C13_18  and  C14_19 
ROOT
HETATM    1  N2  UNL     1      35.235  36.649  19.628  1.00  0.00    -0.281 N 
HETATM    2  C9  UNL     1      35.277  35.642  20.508  1.00  0.00     0.019 A 
HETATM    3  C10 UNL     1      35.597  34.237  20.146  1.00  0.00     0.069 C 
HETATM    4  C11 UNL     1      35.003  35.942  21.827  1.00  0.00     0.063 A 
HETATM    5  C12 UNL     1      34.695  37.210  22.268  1.00  0.00     0.093 A 
HETATM    6  C20 UNL     1      34.673  38.191  21.293  1.00  0.00     0.112 A 
HETATM    7 BR1  UNL     1      34.258  39.999  21.771  1.00  0.00    -0.042 Br
HETATM    8  C21 UNL     1      34.944  37.910  19.971  1.00  0.00     0.272 A 
HETATM    9  O3  UNL     1      34.915  38.847  19.088  1.00  0.00    -0.266 OA
ENDROOT
BRANCH   1  10
HETATM   10  C8  UNL     1      35.514  36.346  18.280  1.00  0.00     0.049 A 
HETATM   11  C6  UNL     1      36.810  36.451  17.847  1.00  0.00    -0.035 A 
HETATM   12  C5  UNL     1      37.064  36.152  16.526  1.00  0.00     0.010 A 
HETATM   13  C7  UNL     1      37.956  36.863  18.704  1.00  0.00     0.050 C 
HETATM   14  C4  UNL     1      36.075  35.756  15.630  1.00  0.00     0.017 A 
HETATM   15  C3  UNL     1      34.775  35.651  16.066  1.00  0.00     0.034 A 
HETATM   16  C22 UNL     1      34.535  35.956  17.399  1.00  0.00     0.047 A 
BRANCH  15  17
HETATM   17  C2  UNL     1      33.660  35.247  15.222  1.00  0.00     0.251 C 
HETATM   18  N1  UNL     1      33.771  34.160  14.321  1.00  0.00    -0.361 N 
HETATM   19  C1  UNL     1      32.642  33.755  13.469  1.00  0.00     0.149 C 
ATOM     20  H1  UNL     1      34.651  33.648  14.262  1.00  0.00     0.162 HD
HETATM   21  O1  UNL     1      32.547  35.837  15.248  1.00  0.00    -0.268 OA
ENDBRANCH  15  17
ENDBRANCH   1  10
BRANCH   5  22
HETATM   22  O2  UNL     1      34.428  37.493  23.581  1.00  0.00    -0.345 OA
BRANCH  22  23
HETATM   23  C13 UNL     1      33.237  37.397  24.262  1.00  0.00     0.217 C 
BRANCH  23  24
HETATM   24  C14 UNL     1      32.935  36.140  24.943  1.00  0.00     0.005 A 
HETATM   25  C15 UNL     1      33.792  35.333  25.624  1.00  0.00     0.015 A 
HETATM   26  C16 UNL     1      33.406  34.146  26.221  1.00  0.00     0.043 A 
HETATM   27  C17 UNL     1      32.090  33.743  26.132  1.00  0.00     0.119 A 
HETATM   28  F1  UNL     1      31.707  32.571  26.720  1.00  0.00    -0.206 F 
HETATM   29  C18 UNL     1      31.197  34.534  25.451  1.00  0.00     0.085 A 
HETATM   30  C19 UNL     1      31.609  35.703  24.872  1.00  0.00     0.127 A 
HETATM   31  F2  UNL     1      30.677  36.453  24.207  1.00  0.00    -0.205 F 
ENDBRANCH  23  24
ENDBRANCH  22  23
ENDBRANCH   5  22
TORSDOF 5
ENDMDL
