MODEL 1
REMARK VINA RESULT: -10.413058871      0.000      0.000
REMARK  5 active torsions:
REMARK  status: ('A' for Active; 'I' for Inactive)
REMARK       I    between atoms: N1_2  and  C2_4 
REMARK    1  A    between atoms: C2_4  and  C3_6 
REMARK    2  A    between atoms: C8_11  and  N2_12 
REMARK    3  A    between atoms: C12_16  and  O2_17 
REMARK    4  A    between atoms: O2_17  and  C13_18 
REMARK    5  A    between atoms: C13_18  and  C14_19 
ROOT
HETATM    1  N2  UNL     1      35.155  36.492  19.661  1.00  0.00    -0.281 N 
HETATM    2  C9  UNL     1      35.160  35.447  20.496  1.00  0.00     0.019 A 
HETATM    3  C10 UNL     1      35.462  34.053  20.079  1.00  0.00     0.069 C 
HETATM    4  C11 UNL     1      34.865  35.694  21.821  1.00  0.00     0.063 A 
HETATM    5  C12 UNL     1      34.571  36.947  22.311  1.00  0.00     0.093 A 
HETATM    6  C20 UNL     1      34.587  37.970  21.381  1.00  0.00     0.112 A 
HETATM    7 BR1  UNL     1      34.195  39.763  21.930  1.00  0.00    -0.042 Br
HETATM    8  C21 UNL     1      34.879  37.742  20.053  1.00  0.00     0.272 A 
HETATM    9  O3  UNL     1      34.886  38.717  19.213  1.00  0.00    -0.266 OA
ENDROOT
BRANCH   1  10
HETATM   10  C8  UNL     1      35.455  36.244  18.307  1.00  0.00     0.049 A 
HETATM   11  C6  UNL     1      36.754  36.389  17.893  1.00  0.00    -0.035 A 
HETATM   12  C5  UNL     1      37.030  36.143  16.566  1.00  0.00     0.010 A 
HETATM   13  C7  UNL     1      37.882  36.791  18.779  1.00  0.00     0.050 C 
HETATM   14  C4  UNL     1      36.060  35.760  15.644  1.00  0.00     0.017 A 
HETATM   15  C3  UNL     1      34.757  35.615  16.060  1.00  0.00     0.034 A 
HETATM   16  C22 UNL     1      34.495  35.867  17.400  1.00  0.00     0.047 A 
BRANCH  15  17
HETATM   17  C2  UNL     1      33.660  35.220  15.188  1.00  0.00     0.251 C 
HETATM   18  N1  UNL     1      33.784  34.132  14.291  1.00  0.00    -0.361 N 
HETATM   19  C1  UNL     1      32.673  33.736  13.410  1.00  0.00     0.149 C 
ATOM     20  H1  UNL     1      34.660  33.612  14.254  1.00  0.00     0.162 HD
HETATM   21  O1  UNL     1      32.552  35.820  15.185  1.00  0.00    -0.268 OA
ENDBRANCH  15  17
ENDBRANCH   1  10
BRANCH   5  22
HETATM   22  O2  UNL     1      34.283  37.177  23.630  1.00  0.00    -0.345 OA
BRANCH  22  23
HETATM   23  C13 UNL     1      34.911  36.687  24.752  1.00  0.00     0.217 C 
BRANCH  23  24
HETATM   24  C14 UNL     1      35.070  37.583  25.895  1.00  0.00     0.005 A 
HETATM   25  C15 UNL     1      34.560  37.438  27.147  1.00  0.00     0.015 A 
HETATM   26  C16 UNL     1      34.755  38.361  28.159  1.00  0.00     0.043 A 
HETATM   27  C17 UNL     1      35.503  39.492  27.907  1.00  0.00     0.119 A 
HETATM   28  F1  UNL     1      35.697  40.404  28.904  1.00  0.00    -0.206 F 
HETATM   29  C18 UNL     1      36.034  39.671  26.652  1.00  0.00     0.085 A 
HETATM   30  C19 UNL     1      35.824  38.740  25.672  1.00  0.00     0.127 A 
HETATM   31  F2  UNL     1      36.377  38.968  24.441  1.00  0.00    -0.205 F 
ENDBRANCH  23  24
ENDBRANCH  22  23
ENDBRANCH   5  22
TORSDOF 5
ENDMDL
