MODEL 10
REMARK VINA RESULT: -9.632845805      3.640      9.737
REMARK  5 active torsions:
REMARK  status: ('A' for Active; 'I' for Inactive)
REMARK       I    between atoms: N1_2  and  C2_4 
REMARK    1  A    between atoms: C2_4  and  C3_6 
REMARK    2  A    between atoms: C8_11  and  N2_12 
REMARK    3  A    between atoms: C12_16  and  O2_17 
REMARK    4  A    between atoms: O2_17  and  C13_18 
REMARK    5  A    between atoms: C13_18  and  C14_19 
ROOT
HETATM    1  N2  UNL     1      34.562  38.083  23.973  1.00  0.00    -0.281 N 
HETATM    2  C9  UNL     1      35.094  36.906  23.624  1.00  0.00     0.019 A 
HETATM    3  C10 UNL     1      35.194  35.738  24.538  1.00  0.00     0.069 C 
HETATM    4  C11 UNL     1      35.575  36.785  22.337  1.00  0.00     0.063 A 
HETATM    5  C12 UNL     1      35.532  37.805  21.412  1.00  0.00     0.093 A 
HETATM    6  C20 UNL     1      34.966  38.987  21.854  1.00  0.00     0.112 A 
HETATM    7 BR1  UNL     1      34.843  40.486  20.669  1.00  0.00    -0.042 Br
HETATM    8  C21 UNL     1      34.481  39.126  23.137  1.00  0.00     0.272 A 
HETATM    9  O3  UNL     1      33.959  40.241  23.517  1.00  0.00    -0.266 OA
ENDROOT
BRANCH   1  10
HETATM   10  C8  UNL     1      34.070  38.211  25.287  1.00  0.00     0.049 A 
HETATM   11  C6  UNL     1      32.737  37.978  25.506  1.00  0.00    -0.035 A 
HETATM   12  C5  UNL     1      32.272  38.108  26.796  1.00  0.00     0.010 A 
HETATM   13  C7  UNL     1      31.762  37.595  24.447  1.00  0.00     0.050 C 
HETATM   14  C4  UNL     1      33.088  38.460  27.868  1.00  0.00     0.017 A 
HETATM   15  C3  UNL     1      34.425  38.694  27.647  1.00  0.00     0.034 A 
HETATM   16  C22 UNL     1      34.877  38.559  26.342  1.00  0.00     0.047 A 
BRANCH  15  17
HETATM   17  C2  UNL     1      35.372  39.067  28.688  1.00  0.00     0.251 C 
HETATM   18  N1  UNL     1      35.833  40.399  28.826  1.00  0.00    -0.361 N 
HETATM   19  C1  UNL     1      36.790  40.772  29.879  1.00  0.00     0.149 C 
ATOM     20  H1  UNL     1      35.495  41.114  28.181  1.00  0.00     0.162 HD
HETATM   21  O1  UNL     1      35.825  38.233  29.516  1.00  0.00    -0.268 OA
ENDBRANCH  15  17
ENDBRANCH   1  10
BRANCH   5  22
HETATM   22  O2  UNL     1      36.011  37.669  20.137  1.00  0.00    -0.345 OA
BRANCH  22  23
HETATM   23  C13 UNL     1      36.651  36.595  19.563  1.00  0.00     0.217 C 
BRANCH  23  24
HETATM   24  C14 UNL     1      36.198  36.150  18.246  1.00  0.00     0.005 A 
HETATM   25  C15 UNL     1      36.796  36.361  17.043  1.00  0.00     0.015 A 
HETATM   26  C16 UNL     1      36.270  35.912  15.845  1.00  0.00     0.043 A 
HETATM   27  C17 UNL     1      35.082  35.212  15.848  1.00  0.00     0.119 A 
HETATM   28  F1  UNL     1      34.562  34.768  14.667  1.00  0.00    -0.206 F 
HETATM   29  C18 UNL     1      34.451  34.981  17.047  1.00  0.00     0.085 A 
HETATM   30  C19 UNL     1      34.996  35.438  18.216  1.00  0.00     0.127 A 
HETATM   31  F2  UNL     1      34.325  35.178  19.381  1.00  0.00    -0.205 F 
ENDBRANCH  23  24
ENDBRANCH  22  23
ENDBRANCH   5  22
TORSDOF 5
ENDMDL
