MODEL 4
REMARK VINA RESULT: -10.017075041      3.918      9.698
REMARK  5 active torsions:
REMARK  status: ('A' for Active; 'I' for Inactive)
REMARK       I    between atoms: N1_2  and  C2_4 
REMARK    1  A    between atoms: C2_4  and  C3_6 
REMARK    2  A    between atoms: C8_11  and  N2_12 
REMARK    3  A    between atoms: C12_16  and  O2_17 
REMARK    4  A    between atoms: O2_17  and  C13_18 
REMARK    5  A    between atoms: C13_18  and  C14_19 
ROOT
HETATM    1  N2  UNL     1      34.524  38.147  23.800  1.00  0.00    -0.281 N 
HETATM    2  C9  UNL     1      35.030  36.968  23.423  1.00  0.00     0.019 A 
HETATM    3  C10 UNL     1      35.104  35.776  24.308  1.00  0.00     0.069 C 
HETATM    4  C11 UNL     1      35.509  36.867  22.133  1.00  0.00     0.063 A 
HETATM    5  C12 UNL     1      35.488  37.909  21.233  1.00  0.00     0.093 A 
HETATM    6  C20 UNL     1      34.949  39.092  21.703  1.00  0.00     0.112 A 
HETATM    7 BR1  UNL     1      34.860  40.622  20.554  1.00  0.00    -0.042 Br
HETATM    8  C21 UNL     1      34.467  39.212  22.989  1.00  0.00     0.272 A 
HETATM    9  O3  UNL     1      33.971  40.328  23.396  1.00  0.00    -0.266 OA
ENDROOT
BRANCH   1  10
HETATM   10  C8  UNL     1      34.035  38.254  25.116  1.00  0.00     0.049 A 
HETATM   11  C6  UNL     1      32.699  38.036  25.332  1.00  0.00    -0.035 A 
HETATM   12  C5  UNL     1      32.237  38.145  26.625  1.00  0.00     0.010 A 
HETATM   13  C7  UNL     1      31.718  37.688  24.266  1.00  0.00     0.050 C 
HETATM   14  C4  UNL     1      33.059  38.464  27.703  1.00  0.00     0.017 A 
HETATM   15  C3  UNL     1      34.398  38.683  27.486  1.00  0.00     0.034 A 
HETATM   16  C22 UNL     1      34.848  38.569  26.177  1.00  0.00     0.047 A 
BRANCH  15  17
HETATM   17  C2  UNL     1      35.351  39.022  28.534  1.00  0.00     0.251 C 
HETATM   18  N1  UNL     1      35.847  40.339  28.684  1.00  0.00    -0.361 N 
HETATM   19  C1  UNL     1      36.810  40.677  29.745  1.00  0.00     0.149 C 
ATOM     20  H1  UNL     1      35.532  41.069  28.045  1.00  0.00     0.162 HD
HETATM   21  O1  UNL     1      35.779  38.169  29.356  1.00  0.00    -0.268 OA
ENDBRANCH  15  17
ENDBRANCH   1  10
BRANCH   5  22
HETATM   22  O2  UNL     1      35.965  37.793  19.954  1.00  0.00    -0.345 OA
BRANCH  22  23
HETATM   23  C13 UNL     1      36.284  36.656  19.250  1.00  0.00     0.217 C 
BRANCH  23  24
HETATM   24  C14 UNL     1      35.479  36.327  18.076  1.00  0.00     0.005 A 
HETATM   25  C15 UNL     1      34.125  36.372  17.953  1.00  0.00     0.015 A 
HETATM   26  C16 UNL     1      33.455  36.018  16.795  1.00  0.00     0.043 A 
HETATM   27  C17 UNL     1      34.177  35.596  15.699  1.00  0.00     0.119 A 
HETATM   28  F1  UNL     1      33.518  35.246  14.556  1.00  0.00    -0.206 F 
HETATM   29  C18 UNL     1      35.547  35.537  15.788  1.00  0.00     0.085 A 
HETATM   30  C19 UNL     1      36.182  35.894  16.947  1.00  0.00     0.127 A 
HETATM   31  F2  UNL     1      37.548  35.818  16.980  1.00  0.00    -0.205 F 
ENDBRANCH  23  24
ENDBRANCH  22  23
ENDBRANCH   5  22
TORSDOF 5
ENDMDL
