MODEL 3
REMARK VINA RESULT: -10.100319026      1.496      1.755
REMARK  5 active torsions:
REMARK  status: ('A' for Active; 'I' for Inactive)
REMARK       I    between atoms: N1_2  and  C2_4 
REMARK    1  A    between atoms: C2_4  and  C3_6 
REMARK    2  A    between atoms: C8_11  and  N2_12 
REMARK    3  A    between atoms: C12_16  and  O2_17 
REMARK    4  A    between atoms: O2_17  and  C13_18 
REMARK    5  A    between atoms: C13_18  and  C14_19 
ROOT
HETATM    1  N2  UNL     1      35.281  36.646  19.492  1.00  0.00    -0.281 N 
HETATM    2  C9  UNL     1      35.367  35.641  20.371  1.00  0.00     0.019 A 
HETATM    3  C10 UNL     1      35.701  34.242  19.999  1.00  0.00     0.069 C 
HETATM    4  C11 UNL     1      35.127  35.937  21.697  1.00  0.00     0.063 A 
HETATM    5  C12 UNL     1      34.809  37.199  22.147  1.00  0.00     0.093 A 
HETATM    6  C20 UNL     1      34.741  38.179  21.174  1.00  0.00     0.112 A 
HETATM    7 BR1  UNL     1      34.308  39.979  21.664  1.00  0.00    -0.042 Br
HETATM    8  C21 UNL     1      34.977  37.902  19.844  1.00  0.00     0.272 A 
HETATM    9  O3  UNL     1      34.906  38.838  18.963  1.00  0.00    -0.266 OA
ENDROOT
BRANCH   1  10
HETATM   10  C8  UNL     1      35.525  36.349  18.137  1.00  0.00     0.049 A 
HETATM   11  C6  UNL     1      36.809  36.456  17.670  1.00  0.00    -0.035 A 
HETATM   12  C5  UNL     1      37.030  36.161  16.343  1.00  0.00     0.010 A 
HETATM   13  C7  UNL     1      37.977  36.865  18.499  1.00  0.00     0.050 C 
HETATM   14  C4  UNL     1      36.018  35.767  15.471  1.00  0.00     0.017 A 
HETATM   15  C3  UNL     1      34.730  35.661  15.940  1.00  0.00     0.034 A 
HETATM   16  C22 UNL     1      34.524  35.961  17.280  1.00  0.00     0.047 A 
BRANCH  15  17
HETATM   17  C2  UNL     1      33.594  35.259  15.123  1.00  0.00     0.251 C 
HETATM   18  N1  UNL     1      33.689  34.192  14.197  1.00  0.00    -0.361 N 
HETATM   19  C1  UNL     1      32.539  33.789  13.373  1.00  0.00     0.149 C 
ATOM     20  H1  UNL     1      34.573  33.693  14.099  1.00  0.00     0.162 HD
HETATM   21  O1  UNL     1      32.474  35.832  15.197  1.00  0.00    -0.268 OA
ENDBRANCH  15  17
ENDBRANCH   1  10
BRANCH   5  22
HETATM   22  O2  UNL     1      34.576  37.477  23.467  1.00  0.00    -0.345 OA
BRANCH  22  23
HETATM   23  C13 UNL     1      33.465  37.196  24.228  1.00  0.00     0.217 C 
BRANCH  23  24
HETATM   24  C14 UNL     1      33.430  37.695  25.601  1.00  0.00     0.005 A 
HETATM   25  C15 UNL     1      34.456  38.212  26.329  1.00  0.00     0.015 A 
HETATM   26  C16 UNL     1      34.320  38.640  27.637  1.00  0.00     0.043 A 
HETATM   27  C17 UNL     1      33.090  38.548  28.253  1.00  0.00     0.119 A 
HETATM   28  F1  UNL     1      32.953  38.970  29.544  1.00  0.00    -0.206 F 
HETATM   29  C18 UNL     1      32.030  38.031  27.547  1.00  0.00     0.085 A 
HETATM   30  C19 UNL     1      32.196  37.616  26.254  1.00  0.00     0.127 A 
HETATM   31  F2  UNL     1      31.107  37.109  25.598  1.00  0.00    -0.205 F 
ENDBRANCH  23  24
ENDBRANCH  22  23
ENDBRANCH   5  22
TORSDOF 5
ENDMDL
