MODEL 2
REMARK VINA RESULT: -10.179188437      3.768      9.786
REMARK  5 active torsions:
REMARK  status: ('A' for Active; 'I' for Inactive)
REMARK       I    between atoms: N1_2  and  C2_4 
REMARK    1  A    between atoms: C2_4  and  C3_6 
REMARK    2  A    between atoms: C8_11  and  N2_12 
REMARK    3  A    between atoms: C12_16  and  O2_17 
REMARK    4  A    between atoms: O2_17  and  C13_18 
REMARK    5  A    between atoms: C13_18  and  C14_19 
ROOT
HETATM    1  N2  UNL     1      34.581  38.115  24.140  1.00  0.00    -0.281 N 
HETATM    2  C9  UNL     1      35.112  36.938  23.789  1.00  0.00     0.019 A 
HETATM    3  C10 UNL     1      35.232  35.777  24.708  1.00  0.00     0.069 C 
HETATM    4  C11 UNL     1      35.570  36.811  22.494  1.00  0.00     0.063 A 
HETATM    5  C12 UNL     1      35.506  37.825  21.564  1.00  0.00     0.093 A 
HETATM    6  C20 UNL     1      34.944  39.007  22.009  1.00  0.00     0.112 A 
HETATM    7 BR1  UNL     1      34.794  40.499  20.817  1.00  0.00    -0.042 Br
HETATM    8  C21 UNL     1      34.481  39.153  23.300  1.00  0.00     0.272 A 
HETATM    9  O3  UNL     1      33.963  40.268  23.682  1.00  0.00    -0.266 OA
ENDROOT
BRANCH   1  10
HETATM   10  C8  UNL     1      34.113  38.250  25.462  1.00  0.00     0.049 A 
HETATM   11  C6  UNL     1      32.790  37.991  25.710  1.00  0.00    -0.035 A 
HETATM   12  C5  UNL     1      32.348  38.127  27.008  1.00  0.00     0.010 A 
HETATM   13  C7  UNL     1      31.803  37.572  24.676  1.00  0.00     0.050 C 
HETATM   14  C4  UNL     1      33.177  38.512  28.059  1.00  0.00     0.017 A 
HETATM   15  C3  UNL     1      34.504  38.772  27.808  1.00  0.00     0.034 A 
HETATM   16  C22 UNL     1      34.933  38.630  26.496  1.00  0.00     0.047 A 
BRANCH  15  17
HETATM   17  C2  UNL     1      35.462  39.180  28.825  1.00  0.00     0.251 C 
HETATM   18  N1  UNL     1      35.851  40.533  28.975  1.00  0.00    -0.361 N 
HETATM   19  C1  UNL     1      36.820  40.941  30.004  1.00  0.00     0.149 C 
ATOM     20  H1  UNL     1      35.452  41.239  28.356  1.00  0.00     0.162 HD
HETATM   21  O1  UNL     1      35.991  38.358  29.621  1.00  0.00    -0.268 OA
ENDBRANCH  15  17
ENDBRANCH   1  10
BRANCH   5  22
HETATM   22  O2  UNL     1      35.962  37.682  20.281  1.00  0.00    -0.345 OA
BRANCH  22  23
HETATM   23  C13 UNL     1      36.328  36.536  19.615  1.00  0.00     0.217 C 
BRANCH  23  24
HETATM   24  C14 UNL     1      36.719  36.653  18.211  1.00  0.00     0.005 A 
HETATM   25  C15 UNL     1      35.937  36.489  17.111  1.00  0.00     0.015 A 
HETATM   26  C16 UNL     1      36.413  36.603  15.817  1.00  0.00     0.043 A 
HETATM   27  C17 UNL     1      37.744  36.898  15.611  1.00  0.00     0.119 A 
HETATM   28  F1  UNL     1      38.216  37.011  14.335  1.00  0.00    -0.206 F 
HETATM   29  C18 UNL     1      38.563  37.070  16.700  1.00  0.00     0.085 A 
HETATM   30  C19 UNL     1      38.063  36.951  17.968  1.00  0.00     0.127 A 
HETATM   31  F2  UNL     1      38.923  37.133  19.017  1.00  0.00    -0.205 F 
ENDBRANCH  23  24
ENDBRANCH  22  23
ENDBRANCH   5  22
TORSDOF 5
ENDMDL
