MODEL 4
REMARK VINA RESULT: -6.123887489      2.981      5.683
REMARK  3 active torsions:
REMARK  status: ('A' for Active; 'I' for Inactive)
REMARK    1  A    between atoms: C5_6  and  N1_7 
REMARK    2  A    between atoms: N1_7  and  C6_9 
REMARK    3  A    between atoms: C6_9  and  C7_10 
ROOT
HETATM    1 CL1  UNL     1     -33.186 -13.717  -6.543  1.00  0.00    -0.084 Cl
HETATM    2  C1  UNL     1     -33.908 -14.668  -7.826  1.00  0.00     0.036 A 
HETATM    3  C2  UNL     1     -34.465 -15.898  -7.577  1.00  0.00     0.025 A 
HETATM    4  C3  UNL     1     -35.036 -16.648  -8.595  1.00  0.00     0.019 A 
HETATM    5  C4  UNL     1     -35.060 -16.181  -9.877  1.00  0.00     0.035 A 
HETATM    6  C5  UNL     1     -35.632 -16.932 -10.894  1.00  0.00     0.114 A 
HETATM    7  N2  UNL     1     -35.599 -16.368 -12.129  1.00  0.00    -0.338 N 
ATOM      8  H2  UNL     1     -36.007 -16.881 -12.909  1.00  0.00     0.168 HD
HETATM    9  C10 UNL     1     -35.055 -15.169 -12.369  1.00  0.00     0.182 A 
HETATM   10  N3  UNL     1     -34.516 -14.477 -11.367  1.00  0.00    -0.351 N 
ATOM     11  H3  UNL     1     -34.103 -13.564 -11.557  1.00  0.00     0.166 HD
HETATM   12  C11 UNL     1     -34.502 -14.948 -10.126  1.00  0.00     0.048 A 
HETATM   13  C12 UNL     1     -33.929 -14.190  -9.120  1.00  0.00     0.054 A 
ENDROOT
BRANCH   6  14
HETATM   14  N1  UNL     1     -36.218 -18.206 -10.687  1.00  0.00    -0.375 N 
ATOM     15  H1  UNL     1     -36.399 -18.556  -9.746  1.00  0.00     0.161 HD
BRANCH  14  16
HETATM   16  C6  UNL     1     -36.554 -18.997 -11.859  1.00  0.00     0.126 C 
BRANCH  16  17
HETATM   17  C7  UNL     1     -38.020 -18.858 -12.223  1.00  0.00     0.003 A 
HETATM   18  C8  UNL     1     -38.627 -19.812 -13.196  1.00  0.00     0.007 A 
HETATM   19  C9  UNL     1     -38.324 -18.365 -13.568  1.00  0.00     0.007 A 
ENDBRANCH  16  17
ENDBRANCH  14  16
ENDBRANCH   6  14
TORSDOF 3
ENDMDL
