MODEL 8
REMARK VINA RESULT: -6.056582086      1.220      1.795
REMARK  3 active torsions:
REMARK  status: ('A' for Active; 'I' for Inactive)
REMARK    1  A    between atoms: C5_6  and  N1_7 
REMARK    2  A    between atoms: N1_7  and  C6_9 
REMARK    3  A    between atoms: C6_9  and  C7_10 
ROOT
HETATM    1 CL1  UNL     1     -38.426 -19.054 -12.700  1.00  0.00    -0.084 Cl
HETATM    2  C1  UNL     1     -37.347 -17.809 -12.099  1.00  0.00     0.036 A 
HETATM    3  C2  UNL     1     -36.516 -18.039 -11.031  1.00  0.00     0.025 A 
HETATM    4  C3  UNL     1     -35.663 -17.051 -10.559  1.00  0.00     0.019 A 
HETATM    5  C4  UNL     1     -35.628 -15.821 -11.146  1.00  0.00     0.035 A 
HETATM    6  C5  UNL     1     -34.774 -14.835 -10.672  1.00  0.00     0.114 A 
HETATM    7  N2  UNL     1     -34.824 -13.649 -11.334  1.00  0.00    -0.338 N 
ATOM      8  H2  UNL     1     -34.214 -12.893 -11.023  1.00  0.00     0.168 HD
HETATM    9  C10 UNL     1     -35.635 -13.427 -12.374  1.00  0.00     0.182 A 
HETATM   10  N3  UNL     1     -36.440 -14.399 -12.800  1.00  0.00    -0.351 N 
ATOM     11  H3  UNL     1     -37.056 -14.224 -13.595  1.00  0.00     0.166 HD
HETATM   12  C11 UNL     1     -36.461 -15.591 -12.217  1.00  0.00     0.048 A 
HETATM   13  C12 UNL     1     -37.316 -16.566 -12.697  1.00  0.00     0.054 A 
ENDROOT
BRANCH   6  14
HETATM   14  N1  UNL     1     -33.898 -15.023  -9.573  1.00  0.00    -0.375 N 
ATOM     15  H1  UNL     1     -33.059 -15.596  -9.661  1.00  0.00     0.161 HD
BRANCH  14  16
HETATM   16  C6  UNL     1     -34.234 -14.373  -8.318  1.00  0.00     0.126 C 
BRANCH  16  17
HETATM   17  C7  UNL     1     -33.851 -15.230  -7.127  1.00  0.00     0.003 A 
HETATM   18  C8  UNL     1     -34.229 -16.673  -7.110  1.00  0.00     0.007 A 
HETATM   19  C9  UNL     1     -34.935 -15.644  -6.233  1.00  0.00     0.007 A 
ENDBRANCH  16  17
ENDBRANCH  14  16
ENDBRANCH   6  14
TORSDOF 3
ENDMDL
