MODEL 1
REMARK VINA RESULT: -6.289437544      0.000      0.000
REMARK  3 active torsions:
REMARK  status: ('A' for Active; 'I' for Inactive)
REMARK    1  A    between atoms: C5_6  and  N1_7 
REMARK    2  A    between atoms: N1_7  and  C6_9 
REMARK    3  A    between atoms: C6_9  and  C7_10 
ROOT
HETATM    1 CL1  UNL     1     -38.440 -17.976 -14.048  1.00  0.00    -0.084 Cl
HETATM    2  C1  UNL     1     -37.423 -17.519 -12.695  1.00  0.00     0.036 A 
HETATM    3  C2  UNL     1     -37.303 -18.322 -11.588  1.00  0.00     0.025 A 
HETATM    4  C3  UNL     1     -36.496 -17.958 -10.520  1.00  0.00     0.019 A 
HETATM    5  C4  UNL     1     -35.797 -16.786 -10.541  1.00  0.00     0.035 A 
HETATM    6  C5  UNL     1     -34.991 -16.424  -9.471  1.00  0.00     0.114 A 
HETATM    7  N2  UNL     1     -34.343 -15.237  -9.602  1.00  0.00    -0.338 N 
ATOM      8  H2  UNL     1     -33.737 -14.927  -8.842  1.00  0.00     0.168 HD
HETATM    9  C10 UNL     1     -34.462 -14.455 -10.682  1.00  0.00     0.182 A 
HETATM   10  N3  UNL     1     -35.245 -14.838 -11.688  1.00  0.00    -0.351 N 
ATOM     11  H3  UNL     1     -35.331 -14.237 -12.509  1.00  0.00     0.166 HD
HETATM   12  C11 UNL     1     -35.918 -15.982 -11.650  1.00  0.00     0.048 A 
HETATM   13  C12 UNL     1     -36.719 -16.333 -12.722  1.00  0.00     0.054 A 
ENDROOT
BRANCH   6  14
HETATM   14  N1  UNL     1     -34.835 -17.218  -8.307  1.00  0.00    -0.375 N 
ATOM     15  H1  UNL     1     -35.255 -18.145  -8.242  1.00  0.00     0.161 HD
BRANCH  14  16
HETATM   16  C6  UNL     1     -34.056 -16.669  -7.210  1.00  0.00     0.126 C 
BRANCH  16  17
HETATM   17  C7  UNL     1     -34.947 -16.178  -6.085  1.00  0.00     0.003 A 
HETATM   18  C8  UNL     1     -35.223 -14.718  -5.953  1.00  0.00     0.007 A 
HETATM   19  C9  UNL     1     -34.295 -15.452  -4.993  1.00  0.00     0.007 A 
ENDBRANCH  16  17
ENDBRANCH  14  16
ENDBRANCH   6  14
TORSDOF 3
ENDMDL
