MODEL 3
REMARK VINA RESULT: -6.192707087      3.172      5.720
REMARK  3 active torsions:
REMARK  status: ('A' for Active; 'I' for Inactive)
REMARK    1  A    between atoms: C5_6  and  N1_7 
REMARK    2  A    between atoms: N1_7  and  C6_9 
REMARK    3  A    between atoms: C6_9  and  C7_10 
ROOT
HETATM    1 CL1  UNL     1     -32.428 -12.881  -6.289  1.00  0.00    -0.084 Cl
HETATM    2  C1  UNL     1     -33.263 -13.820  -7.512  1.00  0.00     0.036 A 
HETATM    3  C2  UNL     1     -33.566 -15.144  -7.313  1.00  0.00     0.025 A 
HETATM    4  C3  UNL     1     -34.228 -15.884  -8.283  1.00  0.00     0.019 A 
HETATM    5  C4  UNL     1     -34.598 -15.312  -9.465  1.00  0.00     0.035 A 
HETATM    6  C5  UNL     1     -35.260 -16.053 -10.433  1.00  0.00     0.114 A 
HETATM    7  N2  UNL     1     -35.579 -15.380 -11.569  1.00  0.00    -0.338 N 
ATOM      8  H2  UNL     1     -36.068 -15.882 -12.311  1.00  0.00     0.168 HD
HETATM    9  C10 UNL     1     -35.283 -14.090 -11.761  1.00  0.00     0.182 A 
HETATM   10  N3  UNL     1     -34.647 -13.411 -10.807  1.00  0.00    -0.351 N 
ATOM     11  H3  UNL     1     -34.425 -12.427 -10.960  1.00  0.00     0.166 HD
HETATM   12  C11 UNL     1     -34.295 -13.985  -9.663  1.00  0.00     0.048 A 
HETATM   13  C12 UNL     1     -33.635 -13.236  -8.705  1.00  0.00     0.054 A 
ENDROOT
BRANCH   6  14
HETATM   14  N1  UNL     1     -35.593 -17.422 -10.275  1.00  0.00    -0.375 N 
ATOM     15  H1  UNL     1     -34.947 -18.074  -9.830  1.00  0.00     0.161 HD
BRANCH  14  16
HETATM   16  C6  UNL     1     -36.886 -17.867 -10.769  1.00  0.00     0.126 C 
BRANCH  16  17
HETATM   17  C7  UNL     1     -36.738 -18.805 -11.951  1.00  0.00     0.003 A 
HETATM   18  C8  UNL     1     -36.177 -18.287 -13.232  1.00  0.00     0.007 A 
HETATM   19  C9  UNL     1     -37.659 -18.607 -13.073  1.00  0.00     0.007 A 
ENDBRANCH  16  17
ENDBRANCH  14  16
ENDBRANCH   6  14
TORSDOF 3
ENDMDL
