MODEL 7
REMARK VINA RESULT: -6.115586458      1.727      2.712
REMARK  3 active torsions:
REMARK  status: ('A' for Active; 'I' for Inactive)
REMARK    1  A    between atoms: C5_6  and  N1_7 
REMARK    2  A    between atoms: N1_7  and  C6_9 
REMARK    3  A    between atoms: C6_9  and  C7_10 
ROOT
HETATM    1 CL1  UNL     1     -38.421 -20.162 -12.824  1.00  0.00    -0.084 Cl
HETATM    2  C1  UNL     1     -37.440 -18.726 -12.601  1.00  0.00     0.036 A 
HETATM    3  C2  UNL     1     -36.514 -18.643 -11.591  1.00  0.00     0.025 A 
HETATM    4  C3  UNL     1     -35.739 -17.505 -11.418  1.00  0.00     0.019 A 
HETATM    5  C4  UNL     1     -35.878 -16.433 -12.250  1.00  0.00     0.035 A 
HETATM    6  C5  UNL     1     -35.103 -15.295 -12.075  1.00  0.00     0.114 A 
HETATM    7  N2  UNL     1     -35.327 -14.291 -12.962  1.00  0.00    -0.338 N 
ATOM      8  H2  UNL     1     -34.781 -13.434 -12.875  1.00  0.00     0.168 HD
HETATM    9  C10 UNL     1     -36.232 -14.374 -13.945  1.00  0.00     0.182 A 
HETATM   10  N3  UNL     1     -36.957 -15.483 -14.081  1.00  0.00    -0.351 N 
ATOM     11  H3  UNL     1     -37.644 -15.539 -14.833  1.00  0.00     0.166 HD
HETATM   12  C11 UNL     1     -36.807 -16.516 -13.262  1.00  0.00     0.048 A 
HETATM   13  C12 UNL     1     -37.586 -17.645 -13.445  1.00  0.00     0.054 A 
ENDROOT
BRANCH   6  14
HETATM   14  N1  UNL     1     -34.134 -15.162 -11.049  1.00  0.00    -0.375 N 
ATOM     15  H1  UNL     1     -33.232 -15.633 -11.112  1.00  0.00     0.161 HD
BRANCH  14  16
HETATM   16  C6  UNL     1     -34.468 -14.332  -9.903  1.00  0.00     0.126 C 
BRANCH  16  17
HETATM   17  C7  UNL     1     -33.831 -14.856  -8.631  1.00  0.00     0.003 A 
HETATM   18  C8  UNL     1     -33.586 -16.319  -8.482  1.00  0.00     0.007 A 
HETATM   19  C9  UNL     1     -34.696 -15.607  -7.718  1.00  0.00     0.007 A 
ENDBRANCH  16  17
ENDBRANCH  14  16
ENDBRANCH   6  14
TORSDOF 3
ENDMDL
