MODEL 2
REMARK VINA RESULT: -6.204464906      2.899      5.702
REMARK  3 active torsions:
REMARK  status: ('A' for Active; 'I' for Inactive)
REMARK    1  A    between atoms: C5_6  and  N1_7 
REMARK    2  A    between atoms: N1_7  and  C6_9 
REMARK    3  A    between atoms: C6_9  and  C7_10 
ROOT
HETATM    1 CL1  UNL     1     -35.448 -11.923 -13.799  1.00  0.00    -0.084 Cl
HETATM    2  C1  UNL     1     -35.644 -13.574 -13.240  1.00  0.00     0.036 A 
HETATM    3  C2  UNL     1     -36.140 -14.553 -14.065  1.00  0.00     0.025 A 
HETATM    4  C3  UNL     1     -36.293 -15.858 -13.620  1.00  0.00     0.019 A 
HETATM    5  C4  UNL     1     -35.954 -16.205 -12.344  1.00  0.00     0.035 A 
HETATM    6  C5  UNL     1     -36.108 -17.511 -11.901  1.00  0.00     0.114 A 
HETATM    7  N2  UNL     1     -35.738 -17.740 -10.614  1.00  0.00    -0.338 N 
ATOM      8  H2  UNL     1     -35.832 -18.685 -10.242  1.00  0.00     0.168 HD
HETATM    9  C10 UNL     1     -35.256 -16.784  -9.812  1.00  0.00     0.182 A 
HETATM   10  N3  UNL     1     -35.122 -15.542 -10.274  1.00  0.00    -0.351 N 
ATOM     11  H3  UNL     1     -34.753 -14.817  -9.657  1.00  0.00     0.166 HD
HETATM   12  C11 UNL     1     -35.457 -15.223 -11.519  1.00  0.00     0.048 A 
HETATM   13  C12 UNL     1     -35.299 -13.918 -11.949  1.00  0.00     0.054 A 
ENDROOT
BRANCH   6  14
HETATM   14  N1  UNL     1     -36.615 -18.556 -12.714  1.00  0.00    -0.375 N 
ATOM     15  H1  UNL     1     -36.021 -19.028 -13.395  1.00  0.00     0.161 HD
BRANCH  14  16
HETATM   16  C6  UNL     1     -38.008 -18.933 -12.545  1.00  0.00     0.126 C 
BRANCH  16  17
HETATM   17  C7  UNL     1     -38.730 -19.011 -13.876  1.00  0.00     0.003 A 
HETATM   18  C8  UNL     1     -39.331 -17.775 -14.458  1.00  0.00     0.007 A 
HETATM   19  C9  UNL     1     -40.189 -18.878 -13.847  1.00  0.00     0.007 A 
ENDBRANCH  16  17
ENDBRANCH  14  16
ENDBRANCH   6  14
TORSDOF 3
ENDMDL
