MODEL 5
REMARK VINA RESULT: -6.118231344      0.942      1.140
REMARK  3 active torsions:
REMARK  status: ('A' for Active; 'I' for Inactive)
REMARK    1  A    between atoms: C5_6  and  N1_7 
REMARK    2  A    between atoms: N1_7  and  C6_9 
REMARK    3  A    between atoms: C6_9  and  C7_10 
ROOT
HETATM    1 CL1  UNL     1     -38.378 -19.367 -14.194  1.00  0.00    -0.084 Cl
HETATM    2  C1  UNL     1     -37.459 -18.473 -12.998  1.00  0.00     0.036 A 
HETATM    3  C2  UNL     1     -37.191 -19.003 -11.760  1.00  0.00     0.025 A 
HETATM    4  C3  UNL     1     -36.463 -18.293 -10.816  1.00  0.00     0.019 A 
HETATM    5  C4  UNL     1     -35.993 -17.043 -11.093  1.00  0.00     0.035 A 
HETATM    6  C5  UNL     1     -35.266 -16.334 -10.148  1.00  0.00     0.114 A 
HETATM    7  N2  UNL     1     -34.849 -15.100 -10.533  1.00  0.00    -0.338 N 
ATOM      8  H2  UNL     1     -34.310 -14.541  -9.873  1.00  0.00     0.168 HD
HETATM    9  C10 UNL     1     -35.113 -14.585 -11.740  1.00  0.00     0.182 A 
HETATM   10  N3  UNL     1     -35.814 -15.296 -12.621  1.00  0.00    -0.351 N 
ATOM     11  H3  UNL     1     -36.011 -14.897 -13.539  1.00  0.00     0.166 HD
HETATM   12  C11 UNL     1     -36.262 -16.512 -12.334  1.00  0.00     0.048 A 
HETATM   13  C12 UNL     1     -36.987 -17.209 -13.284  1.00  0.00     0.054 A 
ENDROOT
BRANCH   6  14
HETATM   14  N1  UNL     1     -34.963 -16.839  -8.858  1.00  0.00    -0.375 N 
ATOM     15  H1  UNL     1     -35.617 -17.445  -8.362  1.00  0.00     0.161 HD
BRANCH  14  16
HETATM   16  C6  UNL     1     -33.691 -16.464  -8.264  1.00  0.00     0.126 C 
BRANCH  16  17
HETATM   17  C7  UNL     1     -33.859 -16.010  -6.826  1.00  0.00     0.003 A 
HETATM   18  C8  UNL     1     -34.960 -16.585  -6.000  1.00  0.00     0.007 A 
HETATM   19  C9  UNL     1     -35.012 -15.157  -6.532  1.00  0.00     0.007 A 
ENDBRANCH  16  17
ENDBRANCH  14  16
ENDBRANCH   6  14
TORSDOF 3
ENDMDL
