MODEL 2
REMARK VINA RESULT: -10.352102219      0.503      1.084
REMARK  9 active torsions:
REMARK  status: ('A' for Active; 'I' for Inactive)
REMARK    1  A    between atoms: C1_2  and  C2_5 
REMARK    2  A    between atoms: C5_8  and  S1_9 
REMARK    3  A    between atoms: S1_9  and  C6_10 
REMARK    4  A    between atoms: C6_10  and  C7_11 
REMARK    5  A    between atoms: C9_14  and  C10_15 
REMARK    6  A    between atoms: C9_14  and  C18_24 
REMARK    7  A    between atoms: C10_15  and  C11_16 
REMARK    8  A    between atoms: C11_16  and  C12_17 
REMARK    9  A    between atoms: C18_24  and  N1_25 
ROOT
HETATM    1  C7  UNL     1      16.372   1.960  33.467  1.00  0.00     0.158 C 
HETATM    2  C8  UNL     1      15.235   1.203  34.093  1.00  0.00     0.204 C 
HETATM    3  O1  UNL     1      15.108   0.099  33.256  1.00  0.00    -0.351 OA
HETATM    4  C9  UNL     1      16.345  -0.035  32.606  1.00  0.00     0.181 C 
HETATM    5  O2  UNL     1      17.162   0.983  32.937  1.00  0.00    -0.345 OA
ENDROOT
BRANCH   4   6
HETATM    6  C10 UNL     1      16.830  -1.430  33.022  1.00  0.00     0.075 C 
BRANCH   6   7
HETATM    7  C11 UNL     1      18.257  -1.687  32.725  1.00  0.00     0.044 C 
BRANCH   7   8
HETATM    8  C12 UNL     1      18.605  -3.080  33.129  1.00  0.00    -0.058 A 
HETATM    9  C13 UNL     1      19.486  -3.804  32.310  1.00  0.00     0.009 A 
HETATM   10  C14 UNL     1      19.836  -5.093  32.619  1.00  0.00     0.024 A 
HETATM   11  C15 UNL     1      19.350  -5.739  33.733  1.00  0.00     0.034 A 
HETATM   12 CL1  UNL     1      19.815  -7.396  34.111  1.00  0.00    -0.084 Cl
HETATM   13  C16 UNL     1      18.470  -5.039  34.562  1.00  0.00     0.024 A 
HETATM   14  C17 UNL     1      18.135  -3.735  34.223  1.00  0.00     0.009 A 
ENDBRANCH   7   8
ENDBRANCH   6   7
ENDBRANCH   4   6
BRANCH   4  15
HETATM   15  C18 UNL     1      16.085  -0.126  31.110  1.00  0.00     0.197 C 
BRANCH  15  16
HETATM   16  N1  UNL     1      16.939   0.654  30.280  1.00  0.00    -0.347 N 
HETATM   17  C19 UNL     1      18.158   0.372  29.822  1.00  0.00     0.108 A 
HETATM   18  C20 UNL     1      18.599   1.425  29.073  1.00  0.00     0.106 A 
HETATM   19  N2  UNL     1      17.620   2.377  29.076  1.00  0.00    -0.361 N 
HETATM   20  C21 UNL     1      16.612   1.887  29.818  1.00  0.00     0.182 A 
ATOM     21  H2  UNL     1      17.647   3.283  28.607  1.00  0.00     0.166 HD
ENDBRANCH  15  16
ENDBRANCH   4  15
BRANCH   1  22
HETATM   22  C6  UNL     1      17.011   2.951  34.367  1.00  0.00     0.115 C 
BRANCH  22  23
HETATM   23  S1  UNL     1      17.486   2.376  35.988  1.00  0.00    -0.110 SA
BRANCH  23  24
HETATM   24  C5  UNL     1      19.149   1.729  35.873  1.00  0.00     0.069 A 
HETATM   25  C4  UNL     1      19.477   0.636  35.093  1.00  0.00     0.038 A 
HETATM   26  C3  UNL     1      20.749   0.124  35.024  1.00  0.00     0.020 A 
HETATM   27  C2  UNL     1      21.757   0.727  35.766  1.00  0.00     0.063 A 
HETATM   28  C22 UNL     1      21.412   1.820  36.540  1.00  0.00     0.105 A 
HETATM   29  N3  UNL     1      20.132   2.293  36.578  1.00  0.00    -0.360 N 
ATOM     30  H3  UNL     1      19.920   3.101  37.164  1.00  0.00     0.166 HD
BRANCH  27  31
HETATM   31  C1  UNL     1      23.152   0.183  35.722  1.00  0.00     0.418 C 
HETATM   32  F1  UNL     1      23.476  -0.392  36.930  1.00  0.00    -0.166 F 
HETATM   33  F2  UNL     1      23.228  -0.847  34.786  1.00  0.00    -0.166 F 
HETATM   34  F3  UNL     1      24.076   1.151  35.458  1.00  0.00    -0.166 F 
ENDBRANCH  27  31
ENDBRANCH  23  24
ENDBRANCH  22  23
ENDBRANCH   1  22
TORSDOF 9
ENDMDL
