MODEL 3
REMARK VINA RESULT: -10.341908696      0.356      1.263
REMARK  9 active torsions:
REMARK  status: ('A' for Active; 'I' for Inactive)
REMARK    1  A    between atoms: C1_2  and  C2_5 
REMARK    2  A    between atoms: C5_8  and  S1_9 
REMARK    3  A    between atoms: S1_9  and  C6_10 
REMARK    4  A    between atoms: C6_10  and  C7_11 
REMARK    5  A    between atoms: C9_14  and  C10_15 
REMARK    6  A    between atoms: C9_14  and  C18_24 
REMARK    7  A    between atoms: C10_15  and  C11_16 
REMARK    8  A    between atoms: C11_16  and  C12_17 
REMARK    9  A    between atoms: C18_24  and  N1_25 
ROOT
HETATM    1  C7  UNL     1      16.343   1.939  33.547  1.00  0.00     0.158 C 
HETATM    2  C8  UNL     1      15.254   1.144  34.212  1.00  0.00     0.204 C 
HETATM    3  O1  UNL     1      15.180   0.007  33.415  1.00  0.00    -0.351 OA
HETATM    4  C9  UNL     1      16.416  -0.084  32.757  1.00  0.00     0.181 C 
HETATM    5  O2  UNL     1      17.180   0.988  33.043  1.00  0.00    -0.345 OA
ENDROOT
BRANCH   4   6
HETATM    6  C10 UNL     1      16.979  -1.435  33.215  1.00  0.00     0.075 C 
BRANCH   6   7
HETATM    7  C11 UNL     1      18.337  -1.729  32.702  1.00  0.00     0.044 C 
BRANCH   7   8
HETATM    8  C12 UNL     1      18.690  -3.144  33.014  1.00  0.00    -0.058 A 
HETATM    9  C13 UNL     1      18.089  -3.743  34.131  1.00  0.00     0.009 A 
HETATM   10  C14 UNL     1      18.381  -5.037  34.478  1.00  0.00     0.024 A 
HETATM   11  C15 UNL     1      19.267  -5.808  33.761  1.00  0.00     0.034 A 
HETATM   12 CL1  UNL     1      19.626  -7.469  34.225  1.00  0.00    -0.084 Cl
HETATM   13  C16 UNL     1      19.880  -5.232  32.645  1.00  0.00     0.024 A 
HETATM   14  C17 UNL     1      19.563  -3.920  32.319  1.00  0.00     0.009 A 
ENDBRANCH   7   8
ENDBRANCH   6   7
ENDBRANCH   4   6
BRANCH   4  15
HETATM   15  C18 UNL     1      16.146  -0.240  31.267  1.00  0.00     0.197 C 
BRANCH  15  16
HETATM   16  N1  UNL     1      16.880   0.623  30.407  1.00  0.00    -0.347 N 
HETATM   17  C19 UNL     1      16.536   1.811  29.910  1.00  0.00     0.108 A 
HETATM   18  C20 UNL     1      17.553   2.267  29.120  1.00  0.00     0.106 A 
HETATM   19  N2  UNL     1      18.545   1.328  29.135  1.00  0.00    -0.361 N 
HETATM   20  C21 UNL     1      18.115   0.331  29.928  1.00  0.00     0.182 A 
ATOM     21  H2  UNL     1      19.436   1.373  28.641  1.00  0.00     0.166 HD
ENDBRANCH  15  16
ENDBRANCH   4  15
BRANCH   1  22
HETATM   22  C6  UNL     1      16.936   2.994  34.405  1.00  0.00     0.115 C 
BRANCH  22  23
HETATM   23  S1  UNL     1      17.445   2.506  36.045  1.00  0.00    -0.110 SA
BRANCH  23  24
HETATM   24  C5  UNL     1      19.075   1.783  35.919  1.00  0.00     0.069 A 
HETATM   25  C4  UNL     1      20.186   2.325  36.538  1.00  0.00     0.038 A 
HETATM   26  C3  UNL     1      21.442   1.783  36.422  1.00  0.00     0.020 A 
HETATM   27  C2  UNL     1      21.612   0.641  35.651  1.00  0.00     0.063 A 
HETATM   28  C22 UNL     1      20.491   0.112  35.038  1.00  0.00     0.105 A 
HETATM   29  N3  UNL     1      19.261   0.686  35.182  1.00  0.00    -0.360 N 
ATOM     30  H3  UNL     1      18.460   0.264  34.712  1.00  0.00     0.166 HD
BRANCH  27  31
HETATM   31  C1  UNL     1      22.974   0.035  35.493  1.00  0.00     0.418 C 
HETATM   32  F1  UNL     1      23.904   1.017  35.240  1.00  0.00    -0.166 F 
HETATM   33  F2  UNL     1      23.370  -0.555  36.693  1.00  0.00    -0.166 F 
HETATM   34  F3  UNL     1      23.024  -0.864  34.468  1.00  0.00    -0.166 F 
ENDBRANCH  27  31
ENDBRANCH  23  24
ENDBRANCH  22  23
ENDBRANCH   1  22
TORSDOF 9
ENDMDL
