MODEL 13
REMARK VINA RESULT: -9.570416331      4.156      6.504
REMARK  9 active torsions:
REMARK  status: ('A' for Active; 'I' for Inactive)
REMARK    1  A    between atoms: C1_2  and  C2_5 
REMARK    2  A    between atoms: C5_8  and  S1_9 
REMARK    3  A    between atoms: S1_9  and  C6_10 
REMARK    4  A    between atoms: C6_10  and  C7_11 
REMARK    5  A    between atoms: C9_14  and  C10_15 
REMARK    6  A    between atoms: C9_14  and  C18_24 
REMARK    7  A    between atoms: C10_15  and  C11_16 
REMARK    8  A    between atoms: C11_16  and  C12_17 
REMARK    9  A    between atoms: C18_24  and  N1_25 
ROOT
HETATM    1  C7  UNL     1      16.944  -1.008  33.294  1.00  0.00     0.158 C 
HETATM    2  C8  UNL     1      15.604  -1.119  32.623  1.00  0.00     0.204 C 
HETATM    3  O1  UNL     1      15.472   0.120  32.004  1.00  0.00    -0.351 OA
HETATM    4  C9  UNL     1      16.776   0.624  31.869  1.00  0.00     0.181 C 
HETATM    5  O2  UNL     1      17.661  -0.200  32.461  1.00  0.00    -0.345 OA
ENDROOT
BRANCH   4   6
HETATM    6  C10 UNL     1      16.949   0.798  30.355  1.00  0.00     0.075 C 
BRANCH   6   7
HETATM    7  C11 UNL     1      17.532  -0.380  29.674  1.00  0.00     0.044 C 
BRANCH   7   8
HETATM    8  C12 UNL     1      18.991  -0.156  29.456  1.00  0.00    -0.058 A 
HETATM    9  C13 UNL     1      19.860  -1.241  29.645  1.00  0.00     0.009 A 
HETATM   10  C14 UNL     1      21.213  -1.098  29.472  1.00  0.00     0.024 A 
HETATM   11  C15 UNL     1      21.784   0.101  29.110  1.00  0.00     0.034 A 
HETATM   12 CL1  UNL     1      23.525   0.261  28.892  1.00  0.00    -0.084 Cl
HETATM   13  C16 UNL     1      20.938   1.196  28.917  1.00  0.00     0.024 A 
HETATM   14  C17 UNL     1      19.573   1.019  29.099  1.00  0.00     0.009 A 
ENDBRANCH   7   8
ENDBRANCH   6   7
ENDBRANCH   4   6
BRANCH   4  15
HETATM   15  C18 UNL     1      16.798   2.033  32.445  1.00  0.00     0.197 C 
BRANCH  15  16
HETATM   16  N1  UNL     1      16.713   2.129  33.862  1.00  0.00    -0.347 N 
HETATM   17  C19 UNL     1      17.680   2.348  34.752  1.00  0.00     0.108 A 
HETATM   18  C20 UNL     1      17.132   2.344  36.004  1.00  0.00     0.106 A 
HETATM   19  N2  UNL     1      15.792   2.115  35.871  1.00  0.00    -0.361 N 
HETATM   20  C21 UNL     1      15.555   1.987  34.554  1.00  0.00     0.182 A 
ATOM     21  H2  UNL     1      15.106   2.053  36.623  1.00  0.00     0.166 HD
ENDBRANCH  15  16
ENDBRANCH   4  15
BRANCH   1  22
HETATM   22  C6  UNL     1      17.543  -2.311  33.674  1.00  0.00     0.115 C 
BRANCH  22  23
HETATM   23  S1  UNL     1      19.306  -2.480  33.457  1.00  0.00    -0.110 SA
BRANCH  23  24
HETATM   24  C5  UNL     1      19.666  -4.218  33.241  1.00  0.00     0.069 A 
HETATM   25  C4  UNL     1      19.288  -5.183  34.156  1.00  0.00     0.038 A 
HETATM   26  C3  UNL     1      19.586  -6.514  34.001  1.00  0.00     0.020 A 
HETATM   27  C2  UNL     1      20.297  -6.917  32.878  1.00  0.00     0.063 A 
HETATM   28  C22 UNL     1      20.667  -5.940  31.973  1.00  0.00     0.105 A 
HETATM   29  N3  UNL     1      20.349  -4.627  32.170  1.00  0.00    -0.360 N 
ATOM     30  H3  UNL     1      20.643  -3.937  31.478  1.00  0.00     0.166 HD
BRANCH  27  31
HETATM   31  C1  UNL     1      20.650  -8.361  32.689  1.00  0.00     0.418 C 
HETATM   32  F1  UNL     1      21.567  -8.754  33.637  1.00  0.00    -0.166 F 
HETATM   33  F2  UNL     1      19.524  -9.155  32.907  1.00  0.00    -0.166 F 
HETATM   34  F3  UNL     1      21.188  -8.605  31.459  1.00  0.00    -0.166 F 
ENDBRANCH  27  31
ENDBRANCH  23  24
ENDBRANCH  22  23
ENDBRANCH   1  22
TORSDOF 9
ENDMDL
