MODEL 1
REMARK VINA RESULT: -10.476116722      0.000      0.000
REMARK  9 active torsions:
REMARK  status: ('A' for Active; 'I' for Inactive)
REMARK    1  A    between atoms: C1_2  and  C2_5 
REMARK    2  A    between atoms: C5_8  and  S1_9 
REMARK    3  A    between atoms: S1_9  and  C6_10 
REMARK    4  A    between atoms: C6_10  and  C7_11 
REMARK    5  A    between atoms: C9_14  and  C10_15 
REMARK    6  A    between atoms: C9_14  and  C18_24 
REMARK    7  A    between atoms: C10_15  and  C11_16 
REMARK    8  A    between atoms: C11_16  and  C12_17 
REMARK    9  A    between atoms: C18_24  and  N1_25 
ROOT
HETATM    1  C7  UNL     1      16.336   1.921  33.489  1.00  0.00     0.158 C 
HETATM    2  C8  UNL     1      15.215   1.156  34.134  1.00  0.00     0.204 C 
HETATM    3  O1  UNL     1      15.144   0.006  33.354  1.00  0.00    -0.351 OA
HETATM    4  C9  UNL     1      16.397  -0.116  32.733  1.00  0.00     0.181 C 
HETATM    5  O2  UNL     1      17.171   0.947  33.025  1.00  0.00    -0.345 OA
ENDROOT
BRANCH   4   6
HETATM    6  C10 UNL     1      16.923  -1.469  33.229  1.00  0.00     0.075 C 
BRANCH   6   7
HETATM    7  C11 UNL     1      18.305  -1.776  32.795  1.00  0.00     0.044 C 
BRANCH   7   8
HETATM    8  C12 UNL     1      18.640  -3.182  33.161  1.00  0.00    -0.058 A 
HETATM    9  C13 UNL     1      19.534  -3.883  32.338  1.00  0.00     0.009 A 
HETATM   10  C14 UNL     1      19.873  -5.183  32.613  1.00  0.00     0.024 A 
HETATM   11  C15 UNL     1      19.362  -5.862  33.696  1.00  0.00     0.034 A 
HETATM   12 CL1  UNL     1      19.813  -7.532  34.030  1.00  0.00    -0.084 Cl
HETATM   13  C16 UNL     1      18.468  -5.185  34.529  1.00  0.00     0.024 A 
HETATM   14  C17 UNL     1      18.145  -3.870  34.224  1.00  0.00     0.009 A 
ENDBRANCH   7   8
ENDBRANCH   6   7
ENDBRANCH   4   6
BRANCH   4  15
HETATM   15  C18 UNL     1      16.168  -0.292  31.239  1.00  0.00     0.197 C 
BRANCH  15  16
HETATM   16  N1  UNL     1      16.935   0.551  30.387  1.00  0.00    -0.347 N 
HETATM   17  C19 UNL     1      18.171   0.379  29.921  1.00  0.00     0.108 A 
HETATM   18  C20 UNL     1      18.502   1.457  29.149  1.00  0.00     0.106 A 
HETATM   19  N2  UNL     1      17.435   2.310  29.146  1.00  0.00    -0.361 N 
HETATM   20  C21 UNL     1      16.487   1.738  29.908  1.00  0.00     0.182 A 
ATOM     21  H2  UNL     1      17.371   3.205  28.662  1.00  0.00     0.166 HD
ENDBRANCH  15  16
ENDBRANCH   4  15
BRANCH   1  22
HETATM   22  C6  UNL     1      16.922   2.979  34.347  1.00  0.00     0.115 C 
BRANCH  22  23
HETATM   23  S1  UNL     1      17.401   2.503  35.999  1.00  0.00    -0.110 SA
BRANCH  23  24
HETATM   24  C5  UNL     1      19.040   1.793  35.909  1.00  0.00     0.069 A 
HETATM   25  C4  UNL     1      20.132   2.342  36.555  1.00  0.00     0.038 A 
HETATM   26  C3  UNL     1      21.395   1.810  36.467  1.00  0.00     0.020 A 
HETATM   27  C2  UNL     1      21.591   0.671  35.697  1.00  0.00     0.063 A 
HETATM   28  C22 UNL     1      20.489   0.134  35.058  1.00  0.00     0.105 A 
HETATM   29  N3  UNL     1      19.251   0.699  35.175  1.00  0.00    -0.360 N 
ATOM     30  H3  UNL     1      18.464   0.272  34.686  1.00  0.00     0.166 HD
BRANCH  27  31
HETATM   31  C1  UNL     1      22.961   0.076  35.570  1.00  0.00     0.418 C 
HETATM   32  F1  UNL     1      22.972  -0.883  34.582  1.00  0.00    -0.166 F 
HETATM   33  F2  UNL     1      23.863   1.053  35.152  1.00  0.00    -0.166 F 
HETATM   34  F3  UNL     1      23.379  -0.511  36.728  1.00  0.00    -0.166 F 
ENDBRANCH  27  31
ENDBRANCH  23  24
ENDBRANCH  22  23
ENDBRANCH   1  22
TORSDOF 9
ENDMDL
