MODEL 2
REMARK VINA RESULT: -7.186198759      1.420      2.420
REMARK  5 active torsions:
REMARK  status: ('A' for Active; 'I' for Inactive)
REMARK    1  A    between atoms: O1_2  and  C2_3 
REMARK    2  A    between atoms: C5_6  and  N1_7 
REMARK    3  A    between atoms: N1_7  and  C6_9 
REMARK    4  A    between atoms: C8_11  and  C9_12 
REMARK    5  A    between atoms: C13_20  and  C14_21 
ROOT
HETATM    1  N1  UNL     1      34.357   0.317  54.624  1.00  0.00    -0.354 N 
ATOM      2  H1  UNL     1      35.156   0.313  55.259  1.00  0.00     0.166 HD
ENDROOT
BRANCH   1   3
HETATM    3  C5  UNL     1      34.230  -0.836  53.847  1.00  0.00     0.050 A 
HETATM    4  C4  UNL     1      33.311  -1.855  54.172  1.00  0.00     0.033 A 
HETATM    5  C3  UNL     1      33.109  -2.929  53.344  1.00  0.00     0.039 A 
HETATM    6  C2  UNL     1      33.779  -3.077  52.164  1.00  0.00     0.069 A 
HETATM    7  C15 UNL     1      34.698  -2.087  51.805  1.00  0.00     0.057 A 
HETATM    8  C13 UNL     1      34.895  -0.996  52.661  1.00  0.00     0.070 A 
BRANCH   6   9
HETATM    9  O1  UNL     1      33.599  -4.145  51.309  1.00  0.00    -0.356 OA
HETATM   10  C1  UNL     1      34.036  -4.110  49.957  1.00  0.00     0.210 C 
ENDBRANCH   6   9
BRANCH   8  11
HETATM   11  C14 UNL     1      35.935  -0.044  52.263  1.00  0.00     0.211 C 
HETATM   12  O2  UNL     1      35.787   0.553  51.138  1.00  0.00    -0.644 OA
HETATM   13  O3  UNL     1      37.047   0.263  52.980  1.00  0.00    -0.644 OA
ENDBRANCH   8  11
ENDBRANCH   1   3
BRANCH   1  14
HETATM   14  C6  UNL     1      33.582   1.470  54.681  1.00  0.00     0.055 A 
HETATM   15  C7  UNL     1      32.210   1.417  54.694  1.00  0.00     0.047 A 
HETATM   16  C8  UNL     1      31.401   2.542  54.837  1.00  0.00     0.050 A 
HETATM   17  C10 UNL     1      32.018   3.756  54.972  1.00  0.00     0.018 A 
HETATM   18  C11 UNL     1      33.386   3.862  54.965  1.00  0.00     0.027 A 
HETATM   19  C12 UNL     1      34.144   2.717  54.819  1.00  0.00     0.060 A 
HETATM   20 CL1  UNL     1      35.902   2.812  54.788  1.00  0.00    -0.082 Cl
BRANCH  16  21
HETATM   21  C9  UNL     1      29.921   2.486  54.905  1.00  0.00     0.417 C 
HETATM   22  F1  UNL     1      29.492   2.902  56.169  1.00  0.00    -0.166 F 
HETATM   23  F2  UNL     1      29.334   3.306  53.978  1.00  0.00    -0.166 F 
HETATM   24  F3  UNL     1      29.513   1.170  54.739  1.00  0.00    -0.166 F 
ENDBRANCH  16  21
ENDBRANCH   1  14
TORSDOF 5
ENDMDL
