MODEL 17
REMARK VINA RESULT: -5.976988947      3.739      6.250
REMARK  5 active torsions:
REMARK  status: ('A' for Active; 'I' for Inactive)
REMARK    1  A    between atoms: O1_2  and  C2_3 
REMARK    2  A    between atoms: C5_6  and  N1_7 
REMARK    3  A    between atoms: N1_7  and  C6_9 
REMARK    4  A    between atoms: C8_11  and  C9_12 
REMARK    5  A    between atoms: C13_20  and  C14_21 
ROOT
HETATM    1  N1  UNL     1      35.519   1.160  54.671  1.00  0.00    -0.354 N 
ATOM      2  H1  UNL     1      35.937   0.847  55.547  1.00  0.00     0.166 HD
ENDROOT
BRANCH   1   3
HETATM    3  C5  UNL     1      34.242   1.708  54.803  1.00  0.00     0.050 A 
HETATM    4  C4  UNL     1      34.027   3.101  54.817  1.00  0.00     0.033 A 
HETATM    5  C3  UNL     1      32.763   3.633  54.831  1.00  0.00     0.039 A 
HETATM    6  C2  UNL     1      31.644   2.852  54.833  1.00  0.00     0.069 A 
HETATM    7  C15 UNL     1      31.814   1.465  54.817  1.00  0.00     0.057 A 
HETATM    8  C13 UNL     1      33.111   0.936  54.804  1.00  0.00     0.070 A 
BRANCH   6   9
HETATM    9  O1  UNL     1      30.359   3.355  54.846  1.00  0.00    -0.356 OA
HETATM   10  C1  UNL     1      29.219   2.509  54.910  1.00  0.00     0.210 C 
ENDBRANCH   6   9
BRANCH   8  11
HETATM   11  C14 UNL     1      33.213  -0.523  54.876  1.00  0.00     0.211 C 
HETATM   12  O2  UNL     1      34.016  -1.015  55.746  1.00  0.00    -0.644 OA
HETATM   13  O3  UNL     1      32.531  -1.406  54.100  1.00  0.00    -0.644 OA
ENDBRANCH   8  11
ENDBRANCH   1   3
BRANCH   1  14
HETATM   14  C6  UNL     1      36.317   0.966  53.550  1.00  0.00     0.055 A 
HETATM   15  C7  UNL     1      35.788   0.564  52.347  1.00  0.00     0.047 A 
HETATM   16  C8  UNL     1      36.540   0.442  51.181  1.00  0.00     0.050 A 
HETATM   17  C10 UNL     1      37.874   0.744  51.250  1.00  0.00     0.018 A 
HETATM   18  C11 UNL     1      38.449   1.151  52.427  1.00  0.00     0.027 A 
HETATM   19  C12 UNL     1      37.662   1.255  53.556  1.00  0.00     0.060 A 
HETATM   20 CL1  UNL     1      38.366   1.756  55.090  1.00  0.00    -0.082 Cl
BRANCH  16  21
HETATM   21  C9  UNL     1      35.966   0.059  49.870  1.00  0.00     0.417 C 
HETATM   22  F1  UNL     1      36.664  -1.037  49.352  1.00  0.00    -0.166 F 
HETATM   23  F2  UNL     1      34.648  -0.301  49.971  1.00  0.00    -0.166 F 
HETATM   24  F3  UNL     1      36.130   1.113  48.982  1.00  0.00    -0.166 F 
ENDBRANCH  16  21
ENDBRANCH   1  14
TORSDOF 5
ENDMDL
