MODEL 3
REMARK VINA RESULT: -7.143279686      1.465      2.316
REMARK  5 active torsions:
REMARK  status: ('A' for Active; 'I' for Inactive)
REMARK    1  A    between atoms: O1_2  and  C2_3 
REMARK    2  A    between atoms: C5_6  and  N1_7 
REMARK    3  A    between atoms: N1_7  and  C6_9 
REMARK    4  A    between atoms: C8_11  and  C9_12 
REMARK    5  A    between atoms: C13_20  and  C14_21 
ROOT
HETATM    1  N1  UNL     1      34.173   0.254  54.825  1.00  0.00    -0.354 N 
ATOM      2  H1  UNL     1      34.908   0.216  55.532  1.00  0.00     0.166 HD
ENDROOT
BRANCH   1   3
HETATM    3  C5  UNL     1      34.083  -0.885  54.023  1.00  0.00     0.050 A 
HETATM    4  C4  UNL     1      33.099  -1.871  54.236  1.00  0.00     0.033 A 
HETATM    5  C3  UNL     1      32.942  -2.928  53.376  1.00  0.00     0.039 A 
HETATM    6  C2  UNL     1      33.725  -3.089  52.270  1.00  0.00     0.069 A 
HETATM    7  C15 UNL     1      34.713  -2.132  52.021  1.00  0.00     0.057 A 
HETATM    8  C13 UNL     1      34.861  -1.058  52.909  1.00  0.00     0.070 A 
BRANCH   6   9
HETATM    9  O1  UNL     1      33.594  -4.140  51.385  1.00  0.00    -0.356 OA
HETATM   10  C1  UNL     1      34.064  -4.062  50.047  1.00  0.00     0.210 C 
ENDBRANCH   6   9
BRANCH   8  11
HETATM   11  C14 UNL     1      35.971  -0.143  52.633  1.00  0.00     0.211 C 
HETATM   12  O2  UNL     1      36.976  -0.180  53.429  1.00  0.00    -0.644 OA
HETATM   13  O3  UNL     1      36.032   0.746  51.607  1.00  0.00    -0.644 OA
ENDBRANCH   8  11
ENDBRANCH   1   3
BRANCH   1  14
HETATM   14  C6  UNL     1      33.434   1.431  54.825  1.00  0.00     0.055 A 
HETATM   15  C7  UNL     1      32.061   1.421  54.873  1.00  0.00     0.047 A 
HETATM   16  C8  UNL     1      31.289   2.577  54.962  1.00  0.00     0.050 A 
HETATM   17  C10 UNL     1      31.944   3.778  55.004  1.00  0.00     0.018 A 
HETATM   18  C11 UNL     1      33.314   3.841  54.960  1.00  0.00     0.027 A 
HETATM   19  C12 UNL     1      34.035   2.667  54.871  1.00  0.00     0.060 A 
HETATM   20 CL1  UNL     1      35.793   2.706  54.793  1.00  0.00    -0.082 Cl
BRANCH  16  21
HETATM   21  C9  UNL     1      29.810   2.571  55.066  1.00  0.00     0.417 C 
HETATM   22  F1  UNL     1      29.266   3.421  54.098  1.00  0.00    -0.166 F 
HETATM   23  F2  UNL     1      29.286   1.322  54.861  1.00  0.00    -0.166 F 
HETATM   24  F3  UNL     1      29.446   3.069  56.309  1.00  0.00    -0.166 F 
ENDBRANCH  16  21
ENDBRANCH   1  14
TORSDOF 5
ENDMDL
