MODEL 12
REMARK VINA RESULT: -6.194664075      4.455      7.137
REMARK  5 active torsions:
REMARK  status: ('A' for Active; 'I' for Inactive)
REMARK    1  A    between atoms: O1_2  and  C2_3 
REMARK    2  A    between atoms: C5_6  and  N1_7 
REMARK    3  A    between atoms: N1_7  and  C6_9 
REMARK    4  A    between atoms: C8_11  and  C9_12 
REMARK    5  A    between atoms: C13_20  and  C14_21 
ROOT
HETATM    1  N1  UNL     1      34.685  -0.052  53.857  1.00  0.00    -0.354 N 
ATOM      2  H1  UNL     1      35.155  -0.552  54.612  1.00  0.00     0.166 HD
ENDROOT
BRANCH   1   3
HETATM    3  C5  UNL     1      33.870   0.999  54.279  1.00  0.00     0.050 A 
HETATM    4  C4  UNL     1      32.463   0.905  54.259  1.00  0.00     0.033 A 
HETATM    5  C3  UNL     1      31.670   1.894  54.782  1.00  0.00     0.039 A 
HETATM    6  C2  UNL     1      32.189   3.022  55.348  1.00  0.00     0.069 A 
HETATM    7  C15 UNL     1      33.580   3.153  55.389  1.00  0.00     0.057 A 
HETATM    8  C13 UNL     1      34.378   2.135  54.850  1.00  0.00     0.070 A 
BRANCH   6   9
HETATM    9  O1  UNL     1      31.420   4.036  55.882  1.00  0.00    -0.356 OA
HETATM   10  C1  UNL     1      30.092   3.815  56.335  1.00  0.00     0.210 C 
ENDBRANCH   6   9
BRANCH   8  11
HETATM   11  C14 UNL     1      35.822   2.380  54.850  1.00  0.00     0.211 C 
HETATM   12  O2  UNL     1      36.365   2.692  53.732  1.00  0.00    -0.644 OA
HETATM   13  O3  UNL     1      36.641   2.304  55.932  1.00  0.00    -0.644 OA
ENDBRANCH   8  11
ENDBRANCH   1   3
BRANCH   1  14
HETATM   14  C6  UNL     1      34.967  -0.535  52.584  1.00  0.00     0.055 A 
HETATM   15  C7  UNL     1      35.617   0.234  51.649  1.00  0.00     0.047 A 
HETATM   16  C8  UNL     1      35.993  -0.242  50.394  1.00  0.00     0.050 A 
HETATM   17  C10 UNL     1      35.695  -1.543  50.092  1.00  0.00     0.018 A 
HETATM   18  C11 UNL     1      35.049  -2.351  50.992  1.00  0.00     0.027 A 
HETATM   19  C12 UNL     1      34.695  -1.833  52.223  1.00  0.00     0.060 A 
HETATM   20 CL1  UNL     1      33.848  -2.832  53.399  1.00  0.00    -0.082 Cl
BRANCH  16  21
HETATM   21  C9  UNL     1      36.739   0.565  49.400  1.00  0.00     0.417 C 
HETATM   22  F1  UNL     1      37.404   1.612  50.047  1.00  0.00    -0.166 F 
HETATM   23  F2  UNL     1      37.682  -0.177  48.740  1.00  0.00    -0.166 F 
HETATM   24  F3  UNL     1      35.836   1.132  48.512  1.00  0.00    -0.166 F 
ENDBRANCH  16  21
ENDBRANCH   1  14
TORSDOF 5
ENDMDL
