MODEL 2
REMARK VINA RESULT: -6.055740932      1.096      1.272
REMARK  3 active torsions:
REMARK  status: ('A' for Active; 'I' for Inactive)
REMARK       I    between atoms: C2_2  and  N1_4 
REMARK    1  A    between atoms: N1_4  and  C3_6 
REMARK    2  A    between atoms: C4_11  and  S1_12 
REMARK    3  A    between atoms: S1_12  and  N4_13 
ROOT
HETATM    1  C3  UNL     1      -4.741   1.635  15.082  1.00  0.00     0.168 A 
HETATM    2  N2  UNL     1      -4.342   0.422  14.708  1.00  0.00    -0.278 N 
ATOM      3  H2  UNL     1      -4.225  -0.316  15.402  1.00  0.00     0.189 HD
HETATM    4  N3  UNL     1      -4.108   0.191  13.491  1.00  0.00    -0.281 N 
ATOM      5  H3  UNL     1      -3.803  -0.738  13.199  1.00  0.00     0.188 HD
HETATM    6  C4  UNL     1      -4.261   1.155  12.590  1.00  0.00     0.208 A 
HETATM    7  S2  UNL     1      -4.770   2.453  13.581  1.00  0.00    -0.020 SA
ENDROOT
BRANCH   6   8
HETATM    8  S1  UNL     1      -3.994   1.061  10.840  1.00  0.00     0.280 S 
HETATM    9  O2  UNL     1      -4.799  -0.051  10.270  1.00  0.00    -0.199 OA
HETATM   10  O3  UNL     1      -4.442   2.380  10.278  1.00  0.00    -0.199 OA
BRANCH   8  11
HETATM   11  N4  UNL     1      -2.310   0.865  10.556  1.00  0.00    -0.323 N 
ATOM     12  H42 UNL     1      -1.651   0.445  11.212  1.00  0.00     0.169 HD
ATOM     13  H41 UNL     1      -2.093   1.238   9.632  1.00  0.00     0.169 HD
ENDBRANCH   8  11
ENDBRANCH   6   8
BRANCH   1  14
HETATM   14  N1  UNL     1      -5.059   2.109  16.404  1.00  0.00    -0.306 N 
HETATM   15  C2  UNL     1      -5.998   1.396  17.182  1.00  0.00     0.219 C 
HETATM   16  C1  UNL     1      -6.382   1.816  18.551  1.00  0.00     0.117 C 
HETATM   17  O1  UNL     1      -6.520   0.366  16.679  1.00  0.00    -0.274 OA
ATOM     18  H1  UNL     1      -4.612   2.949  16.774  1.00  0.00     0.171 HD
ENDBRANCH   1  14
TORSDOF 3
ENDMDL
