MODEL 1
REMARK VINA RESULT: -6.468759689      0.000      0.000
REMARK  3 active torsions:
REMARK  status: ('A' for Active; 'I' for Inactive)
REMARK       I    between atoms: C2_2  and  N1_4 
REMARK    1  A    between atoms: N1_4  and  C3_6 
REMARK    2  A    between atoms: C4_11  and  S1_12 
REMARK    3  A    between atoms: S1_12  and  N4_13 
ROOT
HETATM    1  C3  UNL     1      -4.724   1.705  15.116  1.00  0.00     0.168 A 
HETATM    2  N2  UNL     1      -4.301   0.548  14.613  1.00  0.00    -0.278 N 
ATOM      3  H2  UNL     1      -4.097  -0.236  15.232  1.00  0.00     0.189 HD
HETATM    4  N3  UNL     1      -4.155   0.426  13.367  1.00  0.00    -0.281 N 
ATOM      5  H3  UNL     1      -3.832  -0.459  12.976  1.00  0.00     0.188 HD
HETATM    6  C4  UNL     1      -4.422   1.450  12.562  1.00  0.00     0.208 A 
HETATM    7  S2  UNL     1      -4.909   2.637  13.693  1.00  0.00    -0.020 SA
ENDROOT
BRANCH   6   8
HETATM    8  S1  UNL     1      -4.292   1.509  10.796  1.00  0.00     0.280 S 
HETATM    9  O2  UNL     1      -4.833   2.801  10.297  1.00  0.00    -0.199 OA
HETATM   10  O3  UNL     1      -2.829   1.392  10.480  1.00  0.00    -0.199 OA
BRANCH   8  11
HETATM   11  N4  UNL     1      -5.124   0.154  10.143  1.00  0.00    -0.323 N 
ATOM     12  H42 UNL     1      -5.519  -0.610  10.692  1.00  0.00     0.169 HD
ATOM     13  H41 UNL     1      -5.150   0.249   9.128  1.00  0.00     0.169 HD
ENDBRANCH   8  11
ENDBRANCH   6   8
BRANCH   1  14
HETATM   14  N1  UNL     1      -4.957   2.056  16.493  1.00  0.00    -0.306 N 
HETATM   15  C2  UNL     1      -5.936   1.349  17.225  1.00  0.00     0.219 C 
HETATM   16  C1  UNL     1      -6.238   1.647  18.646  1.00  0.00     0.117 C 
HETATM   17  O1  UNL     1      -6.568   0.434  16.634  1.00  0.00    -0.274 OA
ATOM     18  H1  UNL     1      -4.422   2.805  16.933  1.00  0.00     0.171 HD
ENDBRANCH   1  14
TORSDOF 3
ENDMDL
