MODEL 13
REMARK VINA RESULT: -5.749386471      3.578      5.800
REMARK  3 active torsions:
REMARK  status: ('A' for Active; 'I' for Inactive)
REMARK       I    between atoms: C2_2  and  N1_4 
REMARK    1  A    between atoms: N1_4  and  C3_6 
REMARK    2  A    between atoms: C4_11  and  S1_12 
REMARK    3  A    between atoms: S1_12  and  N4_13 
ROOT
HETATM    1  C3  UNL     1      -4.324   3.720  14.201  1.00  0.00     0.168 A 
HETATM    2  N2  UNL     1      -3.450   3.104  14.993  1.00  0.00    -0.278 N 
ATOM      3  H2  UNL     1      -2.454   3.303  14.909  1.00  0.00     0.189 HD
HETATM    4  N3  UNL     1      -3.861   2.272  15.846  1.00  0.00    -0.281 N 
ATOM      5  H3  UNL     1      -3.196   1.797  16.456  1.00  0.00     0.188 HD
HETATM    6  C4  UNL     1      -5.160   2.014  15.952  1.00  0.00     0.208 A 
HETATM    7  S2  UNL     1      -5.798   3.042  14.743  1.00  0.00    -0.020 SA
ENDROOT
BRANCH   6   8
HETATM    8  S1  UNL     1      -5.961   0.894  17.068  1.00  0.00     0.280 S 
HETATM    9  O2  UNL     1      -5.563  -0.502  16.748  1.00  0.00    -0.199 OA
HETATM   10  O3  UNL     1      -5.497   1.273  18.445  1.00  0.00    -0.199 OA
BRANCH   8  11
HETATM   11  N4  UNL     1      -7.659   1.134  16.955  1.00  0.00    -0.323 N 
ATOM     12  H42 UNL     1      -8.244   0.820  16.180  1.00  0.00     0.169 HD
ATOM     13  H41 UNL     1      -7.970   1.638  17.785  1.00  0.00     0.169 HD
ENDBRANCH   8  11
ENDBRANCH   6   8
BRANCH   1  14
HETATM   14  N1  UNL     1      -4.073   4.694  13.171  1.00  0.00    -0.306 N 
HETATM   15  C2  UNL     1      -3.595   5.972  13.537  1.00  0.00     0.219 C 
HETATM   16  C1  UNL     1      -3.311   7.032  12.540  1.00  0.00     0.117 C 
HETATM   17  O1  UNL     1      -3.407   6.203  14.760  1.00  0.00    -0.274 OA
ATOM     18  H1  UNL     1      -4.239   4.465  12.191  1.00  0.00     0.171 HD
ENDBRANCH   1  14
TORSDOF 3
ENDMDL
