MODEL 4
REMARK VINA RESULT: -5.973741457      2.179      2.474
REMARK  3 active torsions:
REMARK  status: ('A' for Active; 'I' for Inactive)
REMARK       I    between atoms: C2_2  and  N1_4 
REMARK    1  A    between atoms: N1_4  and  C3_6 
REMARK    2  A    between atoms: C4_11  and  S1_12 
REMARK    3  A    between atoms: S1_12  and  N4_13 
ROOT
HETATM    1  C3  UNL     1      -4.696   2.052  14.187  1.00  0.00     0.168 A 
HETATM    2  N2  UNL     1      -4.017   1.138  13.499  1.00  0.00    -0.278 N 
ATOM      3  H2  UNL     1      -3.992   0.170  13.819  1.00  0.00     0.189 HD
HETATM    4  N3  UNL     1      -3.406   1.475  12.450  1.00  0.00    -0.281 N 
ATOM      5  H3  UNL     1      -2.884   0.778  11.918  1.00  0.00     0.188 HD
HETATM    6  C4  UNL     1      -3.440   2.737  12.035  1.00  0.00     0.208 A 
HETATM    7  S2  UNL     1      -4.416   3.452  13.245  1.00  0.00    -0.020 SA
ENDROOT
BRANCH   6   8
HETATM    8  S1  UNL     1      -2.664   3.434  10.603  1.00  0.00     0.280 S 
HETATM    9  O2  UNL     1      -1.745   2.437   9.996  1.00  0.00    -0.199 OA
HETATM   10  O3  UNL     1      -3.774   3.778   9.652  1.00  0.00    -0.199 OA
BRANCH   8  11
HETATM   11  N4  UNL     1      -1.853   4.876  11.071  1.00  0.00    -0.323 N 
ATOM     12  H42 UNL     1      -1.266   5.442  10.458  1.00  0.00     0.169 HD
ATOM     13  H41 UNL     1      -2.059   5.058  12.053  1.00  0.00     0.169 HD
ENDBRANCH   8  11
ENDBRANCH   6   8
BRANCH   1  14
HETATM   14  N1  UNL     1      -5.456   1.885  15.399  1.00  0.00    -0.306 N 
HETATM   15  C2  UNL     1      -4.887   1.164  16.472  1.00  0.00     0.219 C 
HETATM   16  C1  UNL     1      -5.601   0.947  17.753  1.00  0.00     0.117 C 
HETATM   17  O1  UNL     1      -3.728   0.696  16.319  1.00  0.00    -0.274 OA
ATOM     18  H1  UNL     1      -6.392   2.282  15.481  1.00  0.00     0.171 HD
ENDBRANCH   1  14
TORSDOF 3
ENDMDL
