MODEL 5
REMARK VINA RESULT: -5.950823314      3.655      5.515
REMARK  3 active torsions:
REMARK  status: ('A' for Active; 'I' for Inactive)
REMARK       I    between atoms: C2_2  and  N1_4 
REMARK    1  A    between atoms: N1_4  and  C3_6 
REMARK    2  A    between atoms: C4_11  and  S1_12 
REMARK    3  A    between atoms: S1_12  and  N4_13 
ROOT
HETATM    1  C3  UNL     1      -5.200   4.479  13.545  1.00  0.00     0.168 A 
HETATM    2  N2  UNL     1      -5.781   4.437  14.741  1.00  0.00    -0.278 N 
ATOM      3  H2  UNL     1      -6.289   5.248  15.094  1.00  0.00     0.189 HD
HETATM    4  N3  UNL     1      -5.702   3.388  15.436  1.00  0.00    -0.281 N 
ATOM      5  H3  UNL     1      -6.146   3.349  16.353  1.00  0.00     0.188 HD
HETATM    6  C4  UNL     1      -5.039   2.333  14.974  1.00  0.00     0.208 A 
HETATM    7  S2  UNL     1      -4.516   2.915  13.453  1.00  0.00    -0.020 SA
ENDROOT
BRANCH   6   8
HETATM    8  S1  UNL     1      -4.798   0.766  15.766  1.00  0.00     0.280 S 
HETATM    9  O2  UNL     1      -4.778  -0.314  14.746  1.00  0.00    -0.199 OA
HETATM   10  O3  UNL     1      -3.474   0.853  16.470  1.00  0.00    -0.199 OA
BRANCH   8  11
HETATM   11  N4  UNL     1      -6.045   0.547  16.929  1.00  0.00    -0.323 N 
ATOM     12  H42 UNL     1      -5.971   0.784  17.918  1.00  0.00     0.169 HD
ATOM     13  H41 UNL     1      -6.856   0.145  16.460  1.00  0.00     0.169 HD
ENDBRANCH   8  11
ENDBRANCH   6   8
BRANCH   1  14
HETATM   14  N1  UNL     1      -5.169   5.564  12.598  1.00  0.00    -0.306 N 
HETATM   15  C2  UNL     1      -6.334   6.339  12.405  1.00  0.00     0.219 C 
HETATM   16  C1  UNL     1      -6.387   7.473  11.450  1.00  0.00     0.117 C 
HETATM   17  O1  UNL     1      -7.357   6.044  13.076  1.00  0.00    -0.274 OA
ATOM     18  H1  UNL     1      -4.318   5.770  12.075  1.00  0.00     0.171 HD
ENDBRANCH   1  14
TORSDOF 3
ENDMDL
