MODEL 14
REMARK VINA RESULT: -5.745921873      3.466      5.553
REMARK  3 active torsions:
REMARK  status: ('A' for Active; 'I' for Inactive)
REMARK       I    between atoms: C2_2  and  N1_4 
REMARK    1  A    between atoms: N1_4  and  C3_6 
REMARK    2  A    between atoms: C4_11  and  S1_12 
REMARK    3  A    between atoms: S1_12  and  N4_13 
ROOT
HETATM    1  C3  UNL     1      -4.952   4.656  13.594  1.00  0.00     0.168 A 
HETATM    2  N2  UNL     1      -3.868   3.921  13.361  1.00  0.00    -0.278 N 
ATOM      3  H2  UNL     1      -3.140   4.266  12.735  1.00  0.00     0.189 HD
HETATM    4  N3  UNL     1      -3.745   2.796  13.916  1.00  0.00    -0.281 N 
ATOM      5  H3  UNL     1      -2.916   2.229  13.742  1.00  0.00     0.188 HD
HETATM    6  C4  UNL     1      -4.696   2.350  14.730  1.00  0.00     0.208 A 
HETATM    7  S2  UNL     1      -5.813   3.644  14.671  1.00  0.00    -0.020 SA
ENDROOT
BRANCH   6   8
HETATM    8  S1  UNL     1      -4.739   0.815  15.615  1.00  0.00     0.280 S 
HETATM    9  O2  UNL     1      -4.756  -0.317  14.652  1.00  0.00    -0.199 OA
HETATM   10  O3  UNL     1      -3.494   0.779  16.452  1.00  0.00    -0.199 OA
BRANCH   8  11
HETATM   11  N4  UNL     1      -6.115   0.819  16.645  1.00  0.00    -0.323 N 
ATOM     12  H42 UNL     1      -7.074   0.990  16.341  1.00  0.00     0.169 HD
ATOM     13  H41 UNL     1      -5.807   0.625  17.597  1.00  0.00     0.169 HD
ENDBRANCH   8  11
ENDBRANCH   6   8
BRANCH   1  14
HETATM   14  N1  UNL     1      -5.289   5.954  13.070  1.00  0.00    -0.306 N 
HETATM   15  C2  UNL     1      -5.348   6.134  11.669  1.00  0.00     0.219 C 
HETATM   16  C1  UNL     1      -5.687   7.436  11.047  1.00  0.00     0.117 C 
HETATM   17  O1  UNL     1      -5.100   5.141  10.936  1.00  0.00    -0.274 OA
ATOM     18  H1  UNL     1      -5.483   6.732  13.700  1.00  0.00     0.171 HD
ENDBRANCH   1  14
TORSDOF 3
ENDMDL
