MODEL 1
REMARK VINA RESULT: -9.298418035      0.000      0.000
REMARK  10 active torsions:
REMARK  status: ('A' for Active; 'I' for Inactive)
REMARK    1  A    between atoms: N5_13  and  C6_14 
REMARK    2  A    between atoms: C7_16  and  C8_17 
REMARK    3  A    between atoms: C8_17  and  O2_18 
REMARK    4  A    between atoms: O2_18  and  P1_19 
REMARK    5  A    between atoms: P1_19  and  O5_22 
REMARK    6  A    between atoms: O5_22  and  P2_23 
REMARK    7  A    between atoms: P2_23  and  O8_26 
REMARK    8  A    between atoms: O8_26  and  P3_27 
REMARK    9  A    between atoms: C9_31  and  O11_32 
REMARK   10  A    between atoms: C10_34  and  O12_35 
ROOT
HETATM    1  C6  UNL     1      15.725  49.056  -7.386  1.00  0.00     0.262 C 
HETATM    2  O1  UNL     1      16.386  48.346  -8.356  1.00  0.00    -0.353 OA
HETATM    3  C7  UNL     1      16.666  49.295  -9.331  1.00  0.00     0.180 C 
HETATM    4  C9  UNL     1      16.898  50.598  -8.690  1.00  0.00     0.182 C 
HETATM    5  C10 UNL     1      16.662  50.273  -7.232  1.00  0.00     0.198 C 
ENDROOT
BRANCH   3   6
HETATM    6  C8  UNL     1      17.792  48.845 -10.243  1.00  0.00     0.216 C 
BRANCH   6   7
HETATM    7  O2  UNL     1      18.867  49.669  -9.977  1.00  0.00    -0.287 OA
BRANCH   7   8
HETATM    8  P1  UNL     1      20.322  49.008 -10.297  1.00  0.00     0.417 P 
HETATM    9  O3  UNL     1      20.355  47.673 -11.367  1.00  0.00    -0.624 OA
HETATM   10  O4  UNL     1      21.724  49.542  -9.705  1.00  0.00    -0.624 OA
BRANCH   8  11
HETATM   11  O5  UNL     1      20.489  49.920 -11.551  1.00  0.00    -0.180 OA
BRANCH  11  12
HETATM   12  P2  UNL     1      20.325  51.415 -11.697  1.00  0.00     0.426 P 
HETATM   13  O6  UNL     1      21.435  51.345 -12.948  1.00  0.00    -0.624 OA
HETATM   14  O7  UNL     1      20.790  51.869 -10.231  1.00  0.00    -0.624 OA
BRANCH  12  15
HETATM   15  O8  UNL     1      18.749  51.271 -12.147  1.00  0.00    -0.191 OA
BRANCH  15  16
HETATM   16  P3  UNL     1      18.030  52.700 -12.288  1.00  0.00     0.358 P 
HETATM   17  O9  UNL     1      18.930  54.029 -12.597  1.00  0.00    -0.635 OA
HETATM   18  O10 UNL     1      17.868  53.004 -10.802  1.00  0.00    -0.635 OA
HETATM   19  S1  UNL     1      15.916  52.858 -12.415  1.00  0.00     0.013 SA
ENDBRANCH  15  16
ENDBRANCH  12  15
ENDBRANCH  11  12
ENDBRANCH   8  11
ENDBRANCH   7   8
ENDBRANCH   6   7
ENDBRANCH   3   6
BRANCH   4  20
HETATM   20  O11 UNL     1      15.920  51.533  -9.062  1.00  0.00    -0.390 OA
ATOM     21  H11 UNL     1      16.214  52.423  -8.906  1.00  0.00     0.210 HD
ENDBRANCH   4  20
BRANCH   1  22
HETATM   22  N5  UNL     1      15.544  48.406  -6.112  1.00  0.00    -0.297 N 
HETATM   23  C3  UNL     1      16.389  47.863  -5.310  1.00  0.00     0.142 A 
HETATM   24  N3  UNL     1      17.660  47.419  -5.514  1.00  0.00    -0.336 N 
HETATM   25  C4  UNL     1      15.753  47.419  -4.203  1.00  0.00     0.119 A 
HETATM   26  C2  UNL     1      18.213  46.571  -4.621  1.00  0.00     0.183 A 
ATOM     27  H3  UNL     1      18.187  47.724  -6.331  1.00  0.00     0.168 HD
HETATM   28  N2  UNL     1      17.560  46.116  -3.501  1.00  0.00    -0.339 N 
HETATM   29  C1  UNL     1      16.322  46.523  -3.279  1.00  0.00     0.148 A 
ATOM     30  H2  UNL     1      18.021  45.477  -2.853  1.00  0.00     0.167 HD
HETATM   31  N1  UNL     1      15.383  46.146  -2.279  1.00  0.00    -0.080 NA
HETATM   32  N4  UNL     1      14.444  47.770  -4.295  1.00  0.00    -0.346 N 
HETATM   33  C5  UNL     1      14.340  48.420  -5.509  1.00  0.00     0.188 A 
ATOM     34  H4  UNL     1      13.702  47.593  -3.618  1.00  0.00     0.167 HD
ENDBRANCH   1  22
BRANCH   5  35
HETATM   35  O12 UNL     1      16.065  51.304  -6.544  1.00  0.00    -0.388 OA
ATOM     36  H12 UNL     1      16.025  51.136  -5.610  1.00  0.00     0.210 HD
ENDBRANCH   5  35
TORSDOF 10
ENDMDL
