MODEL 2
REMARK VINA RESULT: -9.084076581      2.242      3.675
REMARK  10 active torsions:
REMARK  status: ('A' for Active; 'I' for Inactive)
REMARK    1  A    between atoms: N5_13  and  C6_14 
REMARK    2  A    between atoms: C7_16  and  C8_17 
REMARK    3  A    between atoms: C8_17  and  O2_18 
REMARK    4  A    between atoms: O2_18  and  P1_19 
REMARK    5  A    between atoms: P1_19  and  O5_22 
REMARK    6  A    between atoms: O5_22  and  P2_23 
REMARK    7  A    between atoms: P2_23  and  O8_26 
REMARK    8  A    between atoms: O8_26  and  P3_27 
REMARK    9  A    between atoms: C9_31  and  O11_32 
REMARK   10  A    between atoms: C10_34  and  O12_35 
ROOT
HETATM    1  C6  UNL     1      18.807  48.011  -7.593  1.00  0.00     0.262 C 
HETATM    2  O1  UNL     1      19.202  49.040  -8.410  1.00  0.00    -0.353 OA
HETATM    3  C7  UNL     1      19.303  48.449  -9.663  1.00  0.00     0.180 C 
HETATM    4  C9  UNL     1      18.293  47.387  -9.784  1.00  0.00     0.182 C 
HETATM    5  C10 UNL     1      17.644  47.419  -8.418  1.00  0.00     0.198 C 
ENDROOT
BRANCH   3   6
HETATM    6  C8  UNL     1      19.249  49.482 -10.774  1.00  0.00     0.216 C 
BRANCH   6   7
HETATM    7  O2  UNL     1      19.654  50.679 -10.219  1.00  0.00    -0.287 OA
BRANCH   7   8
HETATM    8  P1  UNL     1      20.296  51.735 -11.282  1.00  0.00     0.417 P 
HETATM    9  O3  UNL     1      21.133  51.080 -12.625  1.00  0.00    -0.624 OA
HETATM   10  O4  UNL     1      20.172  53.338 -11.173  1.00  0.00    -0.624 OA
BRANCH   8  11
HETATM   11  O5  UNL     1      19.006  51.680 -12.156  1.00  0.00    -0.180 OA
BRANCH  11  12
HETATM   12  P2  UNL     1      17.879  52.677 -12.292  1.00  0.00     0.426 P 
HETATM   13  O6  UNL     1      16.987  51.466 -13.025  1.00  0.00    -0.624 OA
HETATM   14  O7  UNL     1      18.622  53.784 -13.184  1.00  0.00    -0.624 OA
BRANCH  12  15
HETATM   15  O8  UNL     1      17.693  52.800 -10.662  1.00  0.00    -0.191 OA
BRANCH  15  16
HETATM   16  P3  UNL     1      16.209  52.405 -10.194  1.00  0.00     0.358 P 
HETATM   17  O9  UNL     1      15.022  53.528 -10.239  1.00  0.00    -0.635 OA
HETATM   18  O10 UNL     1      16.425  52.513  -8.688  1.00  0.00    -0.635 OA
HETATM   19  S1  UNL     1      15.672  50.381  -9.837  1.00  0.00     0.013 SA
ENDBRANCH  15  16
ENDBRANCH  12  15
ENDBRANCH  11  12
ENDBRANCH   8  11
ENDBRANCH   7   8
ENDBRANCH   6   7
ENDBRANCH   3   6
BRANCH   4  20
HETATM   20  O11 UNL     1      18.891  46.125  -9.921  1.00  0.00    -0.390 OA
ATOM     21  H11 UNL     1      18.622  45.698 -10.726  1.00  0.00     0.210 HD
ENDBRANCH   4  20
BRANCH   1  22
HETATM   22  N5  UNL     1      18.347  48.367  -6.273  1.00  0.00    -0.297 N 
HETATM   23  C3  UNL     1      17.614  49.340  -5.866  1.00  0.00     0.142 A 
HETATM   24  N3  UNL     1      17.295  50.528  -6.450  1.00  0.00    -0.336 N 
HETATM   25  C4  UNL     1      17.409  49.236  -4.534  1.00  0.00     0.119 A 
HETATM   26  C2  UNL     1      16.805  51.528  -5.686  1.00  0.00     0.183 A 
ATOM     27  H3  UNL     1      17.426  50.661  -7.452  1.00  0.00     0.168 HD
HETATM   28  N2  UNL     1      16.606  51.420  -4.331  1.00  0.00    -0.339 N 
HETATM   29  C1  UNL     1      16.912  50.281  -3.734  1.00  0.00     0.148 A 
ATOM     30  H2  UNL     1      16.230  52.202  -3.796  1.00  0.00     0.167 HD
HETATM   31  N1  UNL     1      16.911  49.922  -2.357  1.00  0.00    -0.080 NA
HETATM   32  N4  UNL     1      17.997  48.090  -4.102  1.00  0.00    -0.346 N 
HETATM   33  C5  UNL     1      18.566  47.540  -5.234  1.00  0.00     0.188 A 
ATOM     34  H4  UNL     1      18.013  47.717  -3.153  1.00  0.00     0.167 HD
ENDBRANCH   1  22
BRANCH   5  35
HETATM   35  O12 UNL     1      17.274  46.171  -7.972  1.00  0.00    -0.388 OA
ATOM     36  H12 UNL     1      16.339  46.111  -7.813  1.00  0.00     0.210 HD
ENDBRANCH   5  35
TORSDOF 10
ENDMDL
