MODEL 3
REMARK VINA RESULT: -8.876702613      1.821      3.615
REMARK  10 active torsions:
REMARK  status: ('A' for Active; 'I' for Inactive)
REMARK    1  A    between atoms: N5_13  and  C6_14 
REMARK    2  A    between atoms: C7_16  and  C8_17 
REMARK    3  A    between atoms: C8_17  and  O2_18 
REMARK    4  A    between atoms: O2_18  and  P1_19 
REMARK    5  A    between atoms: P1_19  and  O5_22 
REMARK    6  A    between atoms: O5_22  and  P2_23 
REMARK    7  A    between atoms: P2_23  and  O8_26 
REMARK    8  A    between atoms: O8_26  and  P3_27 
REMARK    9  A    between atoms: C9_31  and  O11_32 
REMARK   10  A    between atoms: C10_34  and  O12_35 
ROOT
HETATM    1  C6  UNL     1      18.698  47.647  -7.590  1.00  0.00     0.262 C 
HETATM    2  O1  UNL     1      18.687  48.838  -8.270  1.00  0.00    -0.353 OA
HETATM    3  C7  UNL     1      19.529  48.611  -9.351  1.00  0.00     0.180 C 
HETATM    4  C9  UNL     1      19.421  47.205  -9.767  1.00  0.00     0.182 C 
HETATM    5  C10 UNL     1      18.450  46.654  -8.746  1.00  0.00     0.198 C 
ENDROOT
BRANCH   3   6
HETATM    6  C8  UNL     1      19.283  49.606 -10.471  1.00  0.00     0.216 C 
BRANCH   6   7
HETATM    7  O2  UNL     1      19.782  50.818 -10.037  1.00  0.00    -0.287 OA
BRANCH   7   8
HETATM    8  P1  UNL     1      20.334  51.786 -11.226  1.00  0.00     0.417 P 
HETATM    9  O3  UNL     1      21.064  51.028 -12.576  1.00  0.00    -0.624 OA
HETATM   10  O4  UNL     1      20.213  53.394 -11.233  1.00  0.00    -0.624 OA
BRANCH   8  11
HETATM   11  O5  UNL     1      18.979  51.667 -11.988  1.00  0.00    -0.180 OA
BRANCH  11  12
HETATM   12  P2  UNL     1      17.943  52.721 -12.304  1.00  0.00     0.426 P 
HETATM   13  O6  UNL     1      17.014  51.506 -12.983  1.00  0.00    -0.624 OA
HETATM   14  O7  UNL     1      18.827  53.679 -13.239  1.00  0.00    -0.624 OA
BRANCH  12  15
HETATM   15  O8  UNL     1      17.656  53.019 -10.711  1.00  0.00    -0.191 OA
BRANCH  15  16
HETATM   16  P3  UNL     1      16.187  52.546 -10.266  1.00  0.00     0.358 P 
HETATM   17  O9  UNL     1      14.988  53.651 -10.138  1.00  0.00    -0.635 OA
HETATM   18  O10 UNL     1      16.438  52.462  -8.764  1.00  0.00    -0.635 OA
HETATM   19  S1  UNL     1      15.680  50.486 -10.163  1.00  0.00     0.013 SA
ENDBRANCH  15  16
ENDBRANCH  12  15
ENDBRANCH  11  12
ENDBRANCH   8  11
ENDBRANCH   7   8
ENDBRANCH   6   7
ENDBRANCH   3   6
BRANCH   4  20
HETATM   20  O11 UNL     1      20.633  46.521  -9.583  1.00  0.00    -0.390 OA
ATOM     21  H11 UNL     1      21.082  46.815  -8.799  1.00  0.00     0.210 HD
ENDBRANCH   4  20
BRANCH   1  22
HETATM   22  N5  UNL     1      17.699  47.473  -6.565  1.00  0.00    -0.297 N 
HETATM   23  C3  UNL     1      16.430  47.679  -6.575  1.00  0.00     0.142 A 
HETATM   24  N3  UNL     1      15.649  48.422  -7.407  1.00  0.00    -0.336 N 
HETATM   25  C4  UNL     1      15.897  47.327  -5.384  1.00  0.00     0.119 A 
HETATM   26  C2  UNL     1      14.406  48.769  -7.009  1.00  0.00     0.183 A 
ATOM     27  H3  UNL     1      15.999  48.713  -8.319  1.00  0.00     0.168 HD
HETATM   28  N2  UNL     1      13.872  48.415  -5.793  1.00  0.00    -0.339 N 
HETATM   29  C1  UNL     1      14.608  47.699  -4.961  1.00  0.00     0.148 A 
ATOM     30  H2  UNL     1      12.926  48.699  -5.538  1.00  0.00     0.167 HD
HETATM   31  N1  UNL     1      14.363  47.285  -3.623  1.00  0.00    -0.080 NA
HETATM   32  N4  UNL     1      16.888  46.807  -4.612  1.00  0.00    -0.346 N 
HETATM   33  C5  UNL     1      18.021  46.888  -5.396  1.00  0.00     0.188 A 
ATOM     34  H4  UNL     1      16.811  46.439  -3.664  1.00  0.00     0.167 HD
ENDBRANCH   1  22
BRANCH   5  35
HETATM   35  O12 UNL     1      18.730  45.356  -8.385  1.00  0.00    -0.388 OA
ATOM     36  H12 UNL     1      19.507  45.024  -8.818  1.00  0.00     0.210 HD
ENDBRANCH   5  35
TORSDOF 10
ENDMDL
