MODEL 10
REMARK VINA RESULT: -8.393066219      4.126      7.048
REMARK  5 active torsions:
REMARK  status: ('A' for Active; 'I' for Inactive)
REMARK       I    between atoms: N1_4  and  C4_5 
REMARK    1  A    between atoms: C4_5  and  C5_7 
REMARK    2  A    between atoms: C8_10  and  C9_11 
REMARK    3  A    between atoms: C9_11  and  C10_13 
REMARK       I    between atoms: C10_13  and  N2_15 
REMARK    4  A    between atoms: N4_28  and  C21_29 
REMARK    5  A    between atoms: C21_29  and  C22_30 
ROOT
HETATM    1  C5  UNL     1      21.488   9.018 -25.601  1.00  0.00     0.054 A 
HETATM    2  C6  UNL     1      22.081   9.701 -24.567  1.00  0.00     0.033 A 
HETATM    3  C7  UNL     1      23.321  10.323 -24.729  1.00  0.00     0.007 A 
HETATM    4  C8  UNL     1      24.153  11.070 -23.885  1.00  0.00     0.048 A 
HETATM    5  C13 UNL     1      25.259  11.418 -24.627  1.00  0.00     0.107 A 
HETATM    6  N3  UNL     1      25.142  10.920 -25.877  1.00  0.00    -0.359 N 
HETATM    7  C14 UNL     1      26.105  11.073 -26.958  1.00  0.00     0.156 C 
HETATM    8  C15 UNL     1      23.972  10.264 -25.927  1.00  0.00     0.046 A 
HETATM    9  C16 UNL     1      23.387   9.582 -26.970  1.00  0.00     0.055 A 
HETATM   10  C17 UNL     1      22.142   8.959 -26.804  1.00  0.00     0.051 A 
HETATM   11 CL1  UNL     1      21.510   8.131 -28.206  1.00  0.00    -0.083 Cl
ENDROOT
BRANCH   1  12
HETATM   12  C4  UNL     1      20.208   8.368 -25.452  1.00  0.00     0.256 C 
HETATM   13  N1  UNL     1      19.984   7.178 -24.746  1.00  0.00    -0.340 N 
HETATM   14  C3  UNL     1      21.022   6.432 -24.062  1.00  0.00     0.162 C 
HETATM   15  C18 UNL     1      18.646   6.628 -24.670  1.00  0.00     0.111 C 
HETATM   16  C2  UNL     1      20.863   4.933 -24.242  1.00  0.00     0.237 C 
HETATM   17  C1  UNL     1      21.282   4.590 -25.648  1.00  0.00     0.044 C 
HETATM   18  N4  UNL     1      19.549   4.460 -23.893  1.00  0.00     0.100 N 
HETATM   19  C20 UNL     1      18.665   5.561 -23.584  1.00  0.00     0.298 C 
HETATM   20  C19 UNL     1      17.641   7.671 -24.221  1.00  0.00     0.034 C 
HETATM   21  O1  UNL     1      19.228   8.957 -26.023  1.00  0.00    -0.267 OA
BRANCH  18  22
HETATM   22  C21 UNL     1      19.040   3.567 -24.870  1.00  0.00     0.311 C 
BRANCH  22  23
HETATM   23  C22 UNL     1      18.934   2.157 -24.485  1.00  0.00    -0.030 A 
HETATM   24  C23 UNL     1      18.537   1.913 -23.167  1.00  0.00     0.012 A 
HETATM   25  C24 UNL     1      18.391   0.644 -22.652  1.00  0.00     0.043 A 
HETATM   26  C25 UNL     1      18.649  -0.428 -23.481  1.00  0.00     0.116 A 
HETATM   27  F1  UNL     1      18.504  -1.692 -22.972  1.00  0.00    -0.206 F 
HETATM   28  C26 UNL     1      19.042  -0.225 -24.785  1.00  0.00     0.043 A 
HETATM   29  C27 UNL     1      19.180   1.069 -25.272  1.00  0.00     0.012 A 
ENDBRANCH  22  23
ENDBRANCH  18  22
ENDBRANCH   1  12
BRANCH   4  30
HETATM   30  C9  UNL     1      23.855  11.383 -22.514  1.00  0.00     0.251 C 
HETATM   31  O2  UNL     1      24.632  11.031 -21.591  1.00  0.00    -0.281 OA
BRANCH  30  32
HETATM   32  C10 UNL     1      22.659  12.110 -22.129  1.00  0.00     0.294 C 
HETATM   33  O3  UNL     1      21.663  11.515 -21.632  1.00  0.00    -0.264 OA
HETATM   34  N2  UNL     1      22.533  13.519 -22.284  1.00  0.00    -0.354 N 
HETATM   35  C11 UNL     1      23.618  14.301 -22.845  1.00  0.00     0.152 C 
HETATM   36  C12 UNL     1      21.308  14.220 -21.883  1.00  0.00     0.152 C 
ENDBRANCH  30  32
ENDBRANCH   4  30
TORSDOF 5
ENDMDL
