MODEL 1
REMARK VINA RESULT: -10.395280448      0.000      0.000
REMARK  5 active torsions:
REMARK  status: ('A' for Active; 'I' for Inactive)
REMARK       I    between atoms: N1_4  and  C4_5 
REMARK    1  A    between atoms: C4_5  and  C5_7 
REMARK    2  A    between atoms: C8_10  and  C9_11 
REMARK    3  A    between atoms: C9_11  and  C10_13 
REMARK       I    between atoms: C10_13  and  N2_15 
REMARK    4  A    between atoms: N4_28  and  C21_29 
REMARK    5  A    between atoms: C21_29  and  C22_30 
ROOT
HETATM    1  C5  UNL     1      18.883   3.573 -24.335  1.00  0.00     0.054 A 
HETATM    2  C6  UNL     1      19.668   4.667 -24.608  1.00  0.00     0.033 A 
HETATM    3  C7  UNL     1      19.218   5.964 -24.348  1.00  0.00     0.007 A 
HETATM    4  C8  UNL     1      19.774   7.239 -24.515  1.00  0.00     0.048 A 
HETATM    5  C13 UNL     1      18.834   8.140 -24.069  1.00  0.00     0.107 A 
HETATM    6  N3  UNL     1      17.737   7.479 -23.640  1.00  0.00    -0.359 N 
HETATM    7  C14 UNL     1      16.528   8.079 -23.096  1.00  0.00     0.156 C 
HETATM    8  C15 UNL     1      17.980   6.170 -23.813  1.00  0.00     0.046 A 
HETATM    9  C16 UNL     1      17.185   5.081 -23.535  1.00  0.00     0.055 A 
HETATM   10  C17 UNL     1      17.640   3.781 -23.797  1.00  0.00     0.051 A 
HETATM   11 CL1  UNL     1      16.534   2.490 -23.396  1.00  0.00    -0.083 Cl
ENDROOT
BRANCH   1  12
HETATM   12  C4  UNL     1      19.331   2.227 -24.598  1.00  0.00     0.256 C 
HETATM   13  N1  UNL     1      19.678   1.286 -23.619  1.00  0.00    -0.340 N 
HETATM   14  C3  UNL     1      19.632   1.543 -22.193  1.00  0.00     0.162 C 
HETATM   15  C18 UNL     1      20.113  -0.038 -24.015  1.00  0.00     0.111 C 
HETATM   16  C2  UNL     1      20.821   0.941 -21.463  1.00  0.00     0.237 C 
HETATM   17  C1  UNL     1      22.027   1.791 -21.768  1.00  0.00     0.044 C 
HETATM   18  N4  UNL     1      21.006  -0.458 -21.747  1.00  0.00     0.100 N 
HETATM   19  C20 UNL     1      20.085  -0.908 -22.767  1.00  0.00     0.298 C 
HETATM   20  C19 UNL     1      19.143  -0.671 -24.994  1.00  0.00     0.034 C 
HETATM   21  O1  UNL     1      19.401   1.908 -25.833  1.00  0.00    -0.267 OA
BRANCH  18  22
HETATM   22  C21 UNL     1      22.364  -0.759 -22.021  1.00  0.00     0.311 C 
BRANCH  22  23
HETATM   23  C22 UNL     1      22.951  -1.888 -21.294  1.00  0.00    -0.030 A 
HETATM   24  C23 UNL     1      22.169  -2.424 -20.266  1.00  0.00     0.012 A 
HETATM   25  C24 UNL     1      22.578  -3.485 -19.490  1.00  0.00     0.043 A 
HETATM   26  C25 UNL     1      23.816  -4.038 -19.744  1.00  0.00     0.116 A 
HETATM   27  F1  UNL     1      24.227  -5.094 -18.975  1.00  0.00    -0.206 F 
HETATM   28  C26 UNL     1      24.613  -3.535 -20.750  1.00  0.00     0.043 A 
HETATM   29  C27 UNL     1      24.169  -2.463 -21.513  1.00  0.00     0.012 A 
ENDBRANCH  22  23
ENDBRANCH  18  22
ENDBRANCH   1  12
BRANCH   4  30
HETATM   30  C9  UNL     1      21.081   7.495 -25.053  1.00  0.00     0.251 C 
HETATM   31  O2  UNL     1      21.958   8.074 -24.364  1.00  0.00    -0.281 OA
BRANCH  30  32
HETATM   32  C10 UNL     1      21.453   7.105 -26.401  1.00  0.00     0.294 C 
HETATM   33  O3  UNL     1      21.924   5.959 -26.644  1.00  0.00    -0.264 OA
HETATM   34  N2  UNL     1      21.312   7.974 -27.519  1.00  0.00    -0.354 N 
HETATM   35  C11 UNL     1      20.781   9.313 -27.352  1.00  0.00     0.152 C 
HETATM   36  C12 UNL     1      21.699   7.544 -28.868  1.00  0.00     0.152 C 
ENDBRANCH  30  32
ENDBRANCH   4  30
TORSDOF 5
ENDMDL
