MODEL 6
REMARK VINA RESULT: -9.241663139      1.106      1.666
REMARK  5 active torsions:
REMARK  status: ('A' for Active; 'I' for Inactive)
REMARK       I    between atoms: N1_4  and  C4_5 
REMARK    1  A    between atoms: C4_5  and  C5_7 
REMARK    2  A    between atoms: C8_10  and  C9_11 
REMARK    3  A    between atoms: C9_11  and  C10_13 
REMARK       I    between atoms: C10_13  and  N2_15 
REMARK    4  A    between atoms: N4_28  and  C21_29 
REMARK    5  A    between atoms: C21_29  and  C22_30 
ROOT
HETATM    1  C5  UNL     1      19.054   4.293 -24.453  1.00  0.00     0.054 A 
HETATM    2  C6  UNL     1      19.893   5.314 -24.830  1.00  0.00     0.033 A 
HETATM    3  C7  UNL     1      19.551   6.650 -24.607  1.00  0.00     0.007 A 
HETATM    4  C8  UNL     1      20.181   7.873 -24.873  1.00  0.00     0.048 A 
HETATM    5  C13 UNL     1      19.338   8.859 -24.414  1.00  0.00     0.107 A 
HETATM    6  N3  UNL     1      18.229   8.299 -23.885  1.00  0.00    -0.359 N 
HETATM    7  C14 UNL     1      17.103   9.009 -23.296  1.00  0.00     0.156 C 
HETATM    8  C15 UNL     1      18.369   6.969 -24.006  1.00  0.00     0.046 A 
HETATM    9  C16 UNL     1      17.520   5.955 -23.624  1.00  0.00     0.055 A 
HETATM   10  C17 UNL     1      17.867   4.615 -23.849  1.00  0.00     0.051 A 
HETATM   11 CL1  UNL     1      16.704   3.426 -23.314  1.00  0.00    -0.083 Cl
ENDROOT
BRANCH   1  12
HETATM   12  C4  UNL     1      19.389   2.907 -24.675  1.00  0.00     0.256 C 
HETATM   13  N1  UNL     1      19.675   1.974 -23.669  1.00  0.00    -0.340 N 
HETATM   14  C3  UNL     1      19.671   2.280 -22.253  1.00  0.00     0.162 C 
HETATM   15  C18 UNL     1      19.998   0.608 -24.026  1.00  0.00     0.111 C 
HETATM   16  C2  UNL     1      20.818   1.610 -21.517  1.00  0.00     0.237 C 
HETATM   17  C1  UNL     1      22.084   2.350 -21.865  1.00  0.00     0.044 C 
HETATM   18  N4  UNL     1      20.887   0.192 -21.756  1.00  0.00     0.100 N 
HETATM   19  C20 UNL     1      19.919  -0.216 -22.748  1.00  0.00     0.298 C 
HETATM   20  C19 UNL     1      18.967   0.022 -24.971  1.00  0.00     0.034 C 
HETATM   21  O1  UNL     1      19.416   2.543 -25.899  1.00  0.00    -0.267 OA
BRANCH  18  22
HETATM   22  C21 UNL     1      22.213  -0.225 -22.036  1.00  0.00     0.311 C 
BRANCH  22  23
HETATM   23  C22 UNL     1      22.700  -1.406 -21.317  1.00  0.00    -0.030 A 
HETATM   24  C23 UNL     1      23.907  -1.943 -21.774  1.00  0.00     0.012 A 
HETATM   25  C24 UNL     1      24.496  -3.050 -21.206  1.00  0.00     0.043 A 
HETATM   26  C25 UNL     1      23.861  -3.650 -20.139  1.00  0.00     0.116 A 
HETATM   27  F1  UNL     1      24.444  -4.752 -19.570  1.00  0.00    -0.206 F 
HETATM   28  C26 UNL     1      22.671  -3.147 -19.661  1.00  0.00     0.043 A 
HETATM   29  C27 UNL     1      22.103  -2.028 -20.259  1.00  0.00     0.012 A 
ENDBRANCH  22  23
ENDBRANCH  18  22
ENDBRANCH   1  12
BRANCH   4  30
HETATM   30  C9  UNL     1      21.464   8.009 -25.505  1.00  0.00     0.251 C 
HETATM   31  O2  UNL     1      21.953   7.066 -26.177  1.00  0.00    -0.281 OA
BRANCH  30  32
HETATM   32  C10 UNL     1      22.252   9.224 -25.403  1.00  0.00     0.294 C 
HETATM   33  O3  UNL     1      22.862   9.520 -24.338  1.00  0.00    -0.264 OA
HETATM   34  N2  UNL     1      22.387  10.145 -26.479  1.00  0.00    -0.354 N 
HETATM   35  C11 UNL     1      21.729   9.901 -27.749  1.00  0.00     0.152 C 
HETATM   36  C12 UNL     1      23.193  11.363 -26.338  1.00  0.00     0.152 C 
ENDBRANCH  30  32
ENDBRANCH   4  30
TORSDOF 5
ENDMDL
