MODEL 2
REMARK VINA RESULT: -10.184477664      0.615      1.100
REMARK  5 active torsions:
REMARK  status: ('A' for Active; 'I' for Inactive)
REMARK       I    between atoms: N1_4  and  C4_5 
REMARK    1  A    between atoms: C4_5  and  C5_7 
REMARK    2  A    between atoms: C8_10  and  C9_11 
REMARK    3  A    between atoms: C9_11  and  C10_13 
REMARK       I    between atoms: C10_13  and  N2_15 
REMARK    4  A    between atoms: N4_28  and  C21_29 
REMARK    5  A    between atoms: C21_29  and  C22_30 
ROOT
HETATM    1  C5  UNL     1      18.923   3.505 -24.409  1.00  0.00     0.054 A 
HETATM    2  C6  UNL     1      19.710   4.567 -24.786  1.00  0.00     0.033 A 
HETATM    3  C7  UNL     1      19.305   5.884 -24.560  1.00  0.00     0.007 A 
HETATM    4  C8  UNL     1      19.873   7.137 -24.825  1.00  0.00     0.048 A 
HETATM    5  C13 UNL     1      18.984   8.080 -24.362  1.00  0.00     0.107 A 
HETATM    6  N3  UNL     1      17.905   7.465 -23.831  1.00  0.00    -0.359 N 
HETATM    7  C14 UNL     1      16.747   8.118 -23.238  1.00  0.00     0.156 C 
HETATM    8  C15 UNL     1      18.109   6.144 -23.955  1.00  0.00     0.046 A 
HETATM    9  C16 UNL     1      17.312   5.088 -23.573  1.00  0.00     0.055 A 
HETATM   10  C17 UNL     1      17.723   3.767 -23.802  1.00  0.00     0.051 A 
HETATM   11 CL1  UNL     1      16.622   2.522 -23.267  1.00  0.00    -0.083 Cl
ENDROOT
BRANCH   1  12
HETATM   12  C4  UNL     1      19.326   2.138 -24.635  1.00  0.00     0.256 C 
HETATM   13  N1  UNL     1      19.669   1.221 -23.632  1.00  0.00    -0.340 N 
HETATM   14  C3  UNL     1      19.664   1.528 -22.216  1.00  0.00     0.162 C 
HETATM   15  C18 UNL     1      20.056  -0.128 -23.992  1.00  0.00     0.111 C 
HETATM   16  C2  UNL     1      20.852   0.916 -21.492  1.00  0.00     0.237 C 
HETATM   17  C1  UNL     1      22.075   1.719 -21.854  1.00  0.00     0.044 C 
HETATM   18  N4  UNL     1      20.989  -0.497 -21.732  1.00  0.00     0.100 N 
HETATM   19  C20 UNL     1      20.033  -0.954 -22.714  1.00  0.00     0.298 C 
HETATM   20  C19 UNL     1      19.045  -0.765 -24.926  1.00  0.00     0.034 C 
HETATM   21  O1  UNL     1      19.358   1.775 -25.860  1.00  0.00    -0.267 OA
BRANCH  18  22
HETATM   22  C21 UNL     1      22.331  -0.847 -22.026  1.00  0.00     0.311 C 
BRANCH  22  23
HETATM   23  C22 UNL     1      22.906  -1.960 -21.266  1.00  0.00    -0.030 A 
HETATM   24  C23 UNL     1      22.103  -2.483 -20.248  1.00  0.00     0.012 A 
HETATM   25  C24 UNL     1      22.498  -3.529 -19.444  1.00  0.00     0.043 A 
HETATM   26  C25 UNL     1      23.745  -4.080 -19.660  1.00  0.00     0.116 A 
HETATM   27  F1  UNL     1      24.142  -5.121 -18.863  1.00  0.00    -0.206 F 
HETATM   28  C26 UNL     1      24.563  -3.590 -20.655  1.00  0.00     0.043 A 
HETATM   29  C27 UNL     1      24.132  -2.533 -21.447  1.00  0.00     0.012 A 
ENDBRANCH  22  23
ENDBRANCH  18  22
ENDBRANCH   1  12
BRANCH   4  30
HETATM   30  C9  UNL     1      21.146   7.337 -25.460  1.00  0.00     0.251 C 
HETATM   31  O2  UNL     1      21.757   6.376 -25.992  1.00  0.00    -0.281 OA
BRANCH  30  32
HETATM   32  C10 UNL     1      21.785   8.639 -25.520  1.00  0.00     0.294 C 
HETATM   33  O3  UNL     1      22.417   9.103 -24.531  1.00  0.00    -0.264 OA
HETATM   34  N2  UNL     1      21.741   9.464 -26.679  1.00  0.00    -0.354 N 
HETATM   35  C11 UNL     1      21.042   9.026 -27.872  1.00  0.00     0.152 C 
HETATM   36  C12 UNL     1      22.400  10.775 -26.701  1.00  0.00     0.152 C 
ENDBRANCH  30  32
ENDBRANCH   4  30
TORSDOF 5
ENDMDL
