MODEL 4
REMARK VINA RESULT: -9.522368131      2.857      5.216
REMARK  5 active torsions:
REMARK  status: ('A' for Active; 'I' for Inactive)
REMARK       I    between atoms: N1_4  and  C4_5 
REMARK    1  A    between atoms: C4_5  and  C5_7 
REMARK    2  A    between atoms: C8_10  and  C9_11 
REMARK    3  A    between atoms: C9_11  and  C10_13 
REMARK       I    between atoms: C10_13  and  N2_15 
REMARK    4  A    between atoms: N4_28  and  C21_29 
REMARK    5  A    between atoms: C21_29  and  C22_30 
ROOT
HETATM    1  C5  UNL     1      20.287   6.646 -24.024  1.00  0.00     0.054 A 
HETATM    2  C6  UNL     1      19.548   7.478 -23.217  1.00  0.00     0.033 A 
HETATM    3  C7  UNL     1      19.153   8.745 -23.654  1.00  0.00     0.007 A 
HETATM    4  C8  UNL     1      18.417   9.788 -23.076  1.00  0.00     0.048 A 
HETATM    5  C13 UNL     1      18.361  10.796 -24.011  1.00  0.00     0.107 A 
HETATM    6  N3  UNL     1      19.025  10.420 -25.126  1.00  0.00    -0.359 N 
HETATM    7  C14 UNL     1      19.190  11.210 -26.337  1.00  0.00     0.156 C 
HETATM    8  C15 UNL     1      19.496   9.184 -24.899  1.00  0.00     0.046 A 
HETATM    9  C16 UNL     1      20.237   8.359 -25.716  1.00  0.00     0.055 A 
HETATM   10  C17 UNL     1      20.632   7.088 -25.274  1.00  0.00     0.051 A 
HETATM   11 CL1  UNL     1      21.565   6.142 -26.408  1.00  0.00    -0.083 Cl
ENDROOT
BRANCH   1  12
HETATM   12  C4  UNL     1      20.705   5.335 -23.589  1.00  0.00     0.256 C 
HETATM   13  N1  UNL     1      20.107   4.128 -23.976  1.00  0.00    -0.340 N 
HETATM   14  C3  UNL     1      18.974   4.035 -24.876  1.00  0.00     0.162 C 
HETATM   15  C18 UNL     1      20.624   2.874 -23.468  1.00  0.00     0.111 C 
HETATM   16  C2  UNL     1      17.971   2.986 -24.429  1.00  0.00     0.237 C 
HETATM   17  C1  UNL     1      17.223   3.540 -23.243  1.00  0.00     0.044 C 
HETATM   18  N4  UNL     1      18.571   1.699 -24.191  1.00  0.00     0.100 N 
HETATM   19  C20 UNL     1      20.009   1.765 -24.311  1.00  0.00     0.298 C 
HETATM   20  C19 UNL     1      22.124   2.772 -23.663  1.00  0.00     0.034 C 
HETATM   21  O1  UNL     1      21.702   5.318 -22.791  1.00  0.00    -0.267 OA
BRANCH  18  22
HETATM   22  C21 UNL     1      18.118   1.130 -22.974  1.00  0.00     0.311 C 
BRANCH  22  23
HETATM   23  C22 UNL     1      18.902   0.018 -22.432  1.00  0.00    -0.030 A 
HETATM   24  C23 UNL     1      19.703   0.318 -21.326  1.00  0.00     0.012 A 
HETATM   25  C24 UNL     1      20.498  -0.617 -20.701  1.00  0.00     0.043 A 
HETATM   26  C25 UNL     1      20.500  -1.904 -21.197  1.00  0.00     0.116 A 
HETATM   27  F1  UNL     1      21.290  -2.838 -20.578  1.00  0.00    -0.206 F 
HETATM   28  C26 UNL     1      19.723  -2.236 -22.285  1.00  0.00     0.043 A 
HETATM   29  C27 UNL     1      18.933  -1.268 -22.891  1.00  0.00     0.012 A 
ENDBRANCH  22  23
ENDBRANCH  18  22
ENDBRANCH   1  12
BRANCH   4  30
HETATM   30  C9  UNL     1      17.852   9.754 -21.755  1.00  0.00     0.251 C 
HETATM   31  O2  UNL     1      18.556  10.019 -20.749  1.00  0.00    -0.281 OA
BRANCH  30  32
HETATM   32  C10 UNL     1      16.461   9.416 -21.518  1.00  0.00     0.294 C 
HETATM   33  O3  UNL     1      16.050   8.226 -21.620  1.00  0.00    -0.264 OA
HETATM   34  N2  UNL     1      15.485  10.387 -21.159  1.00  0.00    -0.354 N 
HETATM   35  C11 UNL     1      15.849  11.784 -21.014  1.00  0.00     0.152 C 
HETATM   36  C12 UNL     1      14.087  10.007 -20.926  1.00  0.00     0.152 C 
ENDBRANCH  30  32
ENDBRANCH   4  30
TORSDOF 5
ENDMDL
