MODEL 12
REMARK VINA RESULT: -8.277816693      4.422      7.670
REMARK  5 active torsions:
REMARK  status: ('A' for Active; 'I' for Inactive)
REMARK       I    between atoms: N1_4  and  C4_5 
REMARK    1  A    between atoms: C4_5  and  C5_7 
REMARK    2  A    between atoms: C8_10  and  C9_11 
REMARK    3  A    between atoms: C9_11  and  C10_13 
REMARK       I    between atoms: C10_13  and  N2_15 
REMARK    4  A    between atoms: N4_28  and  C21_29 
REMARK    5  A    between atoms: C21_29  and  C22_30 
ROOT
HETATM    1  C5  UNL     1      21.973   9.293 -26.121  1.00  0.00     0.054 A 
HETATM    2  C6  UNL     1      22.667  10.163 -25.315  1.00  0.00     0.033 A 
HETATM    3  C7  UNL     1      23.963  10.571 -25.638  1.00  0.00     0.007 A 
HETATM    4  C8  UNL     1      24.895  11.422 -25.031  1.00  0.00     0.048 A 
HETATM    5  C13 UNL     1      26.012  11.423 -25.836  1.00  0.00     0.107 A 
HETATM    6  N3  UNL     1      25.806  10.616 -26.899  1.00  0.00    -0.359 N 
HETATM    7  C14 UNL     1      26.750  10.352 -27.976  1.00  0.00     0.156 C 
HETATM    8  C15 UNL     1      24.570  10.109 -26.769  1.00  0.00     0.046 A 
HETATM    9  C16 UNL     1      23.884   9.236 -27.584  1.00  0.00     0.055 A 
HETATM   10  C17 UNL     1      22.583   8.829 -27.257  1.00  0.00     0.051 A 
HETATM   11 CL1  UNL     1      21.825   7.723 -28.376  1.00  0.00    -0.083 Cl
ENDROOT
BRANCH   1  12
HETATM   12  C4  UNL     1      20.634   8.860 -25.802  1.00  0.00     0.256 C 
HETATM   13  N1  UNL     1      20.311   7.791 -24.954  1.00  0.00    -0.340 N 
HETATM   14  C3  UNL     1      21.292   6.968 -24.275  1.00  0.00     0.162 C 
HETATM   15  C18 UNL     1      18.922   7.457 -24.714  1.00  0.00     0.111 C 
HETATM   16  C2  UNL     1      20.908   5.499 -24.276  1.00  0.00     0.237 C 
HETATM   17  C1  UNL     1      21.142   4.962 -25.665  1.00  0.00     0.044 C 
HETATM   18  N4  UNL     1      19.578   5.265 -23.776  1.00  0.00     0.100 N 
HETATM   19  C20 UNL     1      18.891   6.511 -23.523  1.00  0.00     0.298 C 
HETATM   20  C19 UNL     1      18.120   8.678 -24.306  1.00  0.00     0.034 C 
HETATM   21  O1  UNL     1      19.698   9.530 -26.356  1.00  0.00    -0.267 OA
BRANCH  18  22
HETATM   22  C21 UNL     1      18.861   4.367 -24.606  1.00  0.00     0.311 C 
BRANCH  22  23
HETATM   23  C22 UNL     1      18.667   3.007 -24.098  1.00  0.00    -0.030 A 
HETATM   24  C23 UNL     1      18.912   1.975 -25.007  1.00  0.00     0.012 A 
HETATM   25  C24 UNL     1      18.776   0.643 -24.684  1.00  0.00     0.043 A 
HETATM   26  C25 UNL     1      18.378   0.323 -23.403  1.00  0.00     0.116 A 
HETATM   27  F1  UNL     1      18.241  -1.001 -23.077  1.00  0.00    -0.206 F 
HETATM   28  C26 UNL     1      18.128   1.314 -22.480  1.00  0.00     0.043 A 
HETATM   29  C27 UNL     1      18.275   2.648 -22.840  1.00  0.00     0.012 A 
ENDBRANCH  22  23
ENDBRANCH  18  22
ENDBRANCH   1  12
BRANCH   4  30
HETATM   30  C9  UNL     1      24.672  12.134 -23.803  1.00  0.00     0.251 C 
HETATM   31  O2  UNL     1      24.185  13.293 -23.812  1.00  0.00    -0.281 OA
BRANCH  30  32
HETATM   32  C10 UNL     1      24.992  11.562 -22.508  1.00  0.00     0.294 C 
HETATM   33  O3  UNL     1      24.119  10.955 -21.827  1.00  0.00    -0.264 OA
HETATM   34  N2  UNL     1      26.289  11.646 -21.930  1.00  0.00    -0.354 N 
HETATM   35  C11 UNL     1      27.367  12.321 -22.628  1.00  0.00     0.152 C 
HETATM   36  C12 UNL     1      26.575  11.055 -20.618  1.00  0.00     0.152 C 
ENDBRANCH  30  32
ENDBRANCH   4  30
TORSDOF 5
ENDMDL
