MODEL 14
REMARK VINA RESULT: -9.397575654      1.836      2.340
REMARK  5 active torsions:
REMARK  status: ('A' for Active; 'I' for Inactive)
REMARK    1  A    between atoms: C2_2  and  C3_3 
REMARK       I    between atoms: C3_3  and  N1_5 
REMARK    2  A    between atoms: N1_5  and  C4_7 
REMARK    3  A    between atoms: C8_11  and  N2_12 
REMARK    4  A    between atoms: N2_12  and  C9_14 
REMARK    5  A    between atoms: C12_23  and  C13_24 
ROOT
HETATM    1  C4  UNL     1      20.975   0.396 -14.322  1.00  0.00     0.037 A 
HETATM    2  C5  UNL     1      20.732   1.718 -14.656  1.00  0.00     0.030 A 
HETATM    3  C6  UNL     1      21.105   2.250 -15.901  1.00  0.00     0.020 A 
HETATM    4  C7  UNL     1      21.724   1.471 -16.821  1.00  0.00     0.035 A 
HETATM    5  C8  UNL     1      22.099   1.985 -18.057  1.00  0.00     0.121 A 
HETATM    6  N5  UNL     1      22.717   1.115 -18.913  1.00  0.00    -0.327 N 
ATOM      7  H5  UNL     1      23.003   1.466 -19.827  1.00  0.00     0.169 HD
HETATM    8  C12 UNL     1      22.968  -0.161 -18.626  1.00  0.00     0.117 A 
HETATM    9  N6  UNL     1      22.574  -0.600 -17.398  1.00  0.00    -0.341 N 
ATOM     10  H6  UNL     1      22.755  -1.573 -17.153  1.00  0.00     0.167 HD
HETATM   11  C19 UNL     1      21.971   0.167 -16.508  1.00  0.00     0.050 A 
HETATM   12  C20 UNL     1      21.596  -0.351 -15.268  1.00  0.00     0.060 A 
ENDROOT
BRANCH   5  13
HETATM   13  N2  UNL     1      21.866   3.316 -18.424  1.00  0.00    -0.327 N 
ATOM     14  H2  UNL     1      21.642   3.989 -17.691  1.00  0.00     0.169 HD
BRANCH  13  15
HETATM   15  C9  UNL     1      21.925   3.772 -19.755  1.00  0.00     0.122 A 
HETATM   16  C10 UNL     1      23.081   4.339 -20.312  1.00  0.00     0.068 A 
HETATM   17  C11 UNL     1      22.820   4.678 -21.605  1.00  0.00     0.111 A 
HETATM   18  N3  UNL     1      21.556   4.337 -21.846  1.00  0.00    -0.310 N 
HETATM   19  N4  UNL     1      21.035   3.800 -20.738  1.00  0.00    -0.286 N 
ATOM     20  H3  UNL     1      21.065   4.465 -22.731  1.00  0.00     0.186 HD
ATOM     21  H4  UNL     1      20.077   3.457 -20.659  1.00  0.00     0.188 HD
ENDBRANCH  13  15
ENDBRANCH   5  13
BRANCH   8  22
HETATM   22  C13 UNL     1      23.626  -1.067 -19.550  1.00  0.00     0.008 A 
HETATM   23  C14 UNL     1      23.248  -2.422 -19.453  1.00  0.00     0.015 A 
HETATM   24  C15 UNL     1      23.826  -3.343 -20.292  1.00  0.00     0.001 A 
HETATM   25  C16 UNL     1      24.769  -2.983 -21.237  1.00  0.00     0.000 A 
HETATM   26  C17 UNL     1      25.123  -1.652 -21.314  1.00  0.00     0.001 A 
HETATM   27  C18 UNL     1      24.562  -0.709 -20.485  1.00  0.00     0.015 A 
ENDBRANCH   8  22
BRANCH   1  28
HETATM   28  N1  UNL     1      20.559  -0.034 -13.046  1.00  0.00    -0.324 N 
HETATM   29  C3  UNL     1      19.237  -0.332 -12.640  1.00  0.00     0.244 C 
HETATM   30  O1  UNL     1      18.286  -0.215 -13.476  1.00  0.00    -0.268 OA
ATOM     31  H1  UNL     1      21.288  -0.142 -12.341  1.00  0.00     0.169 HD
BRANCH  29  32
HETATM   32  C2  UNL     1      18.975  -0.767 -11.273  1.00  0.00     0.064 C 
HETATM   33  C1  UNL     1      17.766  -0.675 -10.804  1.00  0.00     0.017 C 
ENDBRANCH  29  32
ENDBRANCH   1  28
TORSDOF 5
ENDMDL
