MODEL 3
REMARK VINA RESULT: -10.439107237      1.285      1.322
REMARK  5 active torsions:
REMARK  status: ('A' for Active; 'I' for Inactive)
REMARK    1  A    between atoms: C2_2  and  C3_3 
REMARK       I    between atoms: C3_3  and  N1_5 
REMARK    2  A    between atoms: N1_5  and  C4_7 
REMARK    3  A    between atoms: C8_11  and  N2_12 
REMARK    4  A    between atoms: N2_12  and  C9_14 
REMARK    5  A    between atoms: C12_23  and  C13_24 
ROOT
HETATM    1  C4  UNL     1      21.457   1.218 -15.753  1.00  0.00     0.037 A 
HETATM    2  C5  UNL     1      21.396   2.415 -16.445  1.00  0.00     0.030 A 
HETATM    3  C6  UNL     1      21.867   2.535 -17.763  1.00  0.00     0.020 A 
HETATM    4  C7  UNL     1      22.403   1.465 -18.399  1.00  0.00     0.035 A 
HETATM    5  C8  UNL     1      22.874   1.571 -19.703  1.00  0.00     0.121 A 
HETATM    6  N5  UNL     1      23.395   0.432 -20.253  1.00  0.00    -0.327 N 
ATOM      7  H5  UNL     1      23.747   0.480 -21.209  1.00  0.00     0.169 HD
HETATM    8  C12 UNL     1      23.471  -0.736 -19.617  1.00  0.00     0.117 A 
HETATM    9  N6  UNL     1      22.992  -0.770 -18.342  1.00  0.00    -0.341 N 
ATOM     10  H6  UNL     1      23.038  -1.652 -17.832  1.00  0.00     0.167 HD
HETATM   11  C19 UNL     1      22.471   0.279 -17.731  1.00  0.00     0.050 A 
HETATM   12  C20 UNL     1      22.000   0.170 -16.422  1.00  0.00     0.060 A 
ENDROOT
BRANCH   5  13
HETATM   13  N2  UNL     1      22.825   2.766 -20.429  1.00  0.00    -0.327 N 
ATOM     14  H2  UNL     1      23.592   3.431 -20.322  1.00  0.00     0.169 HD
BRANCH  13  15
HETATM   15  C9  UNL     1      21.769   3.099 -21.301  1.00  0.00     0.122 A 
HETATM   16  C10 UNL     1      21.695   2.623 -22.618  1.00  0.00     0.068 A 
HETATM   17  C11 UNL     1      20.566   3.119 -23.197  1.00  0.00     0.111 A 
HETATM   18  N3  UNL     1      19.962   3.873 -22.282  1.00  0.00    -0.310 N 
HETATM   19  N4  UNL     1      20.687   3.853 -21.159  1.00  0.00    -0.286 N 
ATOM     20  H3  UNL     1      19.088   4.383 -22.415  1.00  0.00     0.186 HD
ATOM     21  H4  UNL     1      20.441   4.353 -20.304  1.00  0.00     0.188 HD
ENDBRANCH  13  15
ENDBRANCH   5  13
BRANCH   8  22
HETATM   22  C13 UNL     1      24.028  -1.933 -20.220  1.00  0.00     0.008 A 
HETATM   23  C14 UNL     1      23.425  -3.150 -19.839  1.00  0.00     0.015 A 
HETATM   24  C15 UNL     1      23.896  -4.327 -20.366  1.00  0.00     0.001 A 
HETATM   25  C16 UNL     1      24.947  -4.360 -21.264  1.00  0.00     0.000 A 
HETATM   26  C17 UNL     1      25.522  -3.158 -21.622  1.00  0.00     0.001 A 
HETATM   27  C18 UNL     1      25.071  -1.964 -21.110  1.00  0.00     0.015 A 
ENDBRANCH   8  22
BRANCH   1  28
HETATM   28  N1  UNL     1      20.955   1.208 -14.435  1.00  0.00    -0.324 N 
HETATM   29  C3  UNL     1      20.572   0.075 -13.681  1.00  0.00     0.244 C 
HETATM   30  O1  UNL     1      20.670  -1.082 -14.199  1.00  0.00    -0.268 OA
ATOM     31  H1  UNL     1      20.859   2.114 -13.978  1.00  0.00     0.169 HD
BRANCH  29  32
HETATM   32  C2  UNL     1      20.069   0.239 -12.322  1.00  0.00     0.064 C 
HETATM   33  C1  UNL     1      20.548   1.197 -11.584  1.00  0.00     0.017 C 
ENDBRANCH  29  32
ENDBRANCH   1  28
TORSDOF 5
ENDMDL
