MODEL 1
REMARK VINA RESULT: -10.561753170      0.000      0.000
REMARK  5 active torsions:
REMARK  status: ('A' for Active; 'I' for Inactive)
REMARK    1  A    between atoms: C2_2  and  C3_3 
REMARK       I    between atoms: C3_3  and  N1_5 
REMARK    2  A    between atoms: N1_5  and  C4_7 
REMARK    3  A    between atoms: C8_11  and  N2_12 
REMARK    4  A    between atoms: N2_12  and  C9_14 
REMARK    5  A    between atoms: C12_23  and  C13_24 
ROOT
HETATM    1  C4  UNL     1      21.489   1.538 -16.076  1.00  0.00     0.037 A 
HETATM    2  C5  UNL     1      21.466   2.695 -16.835  1.00  0.00     0.030 A 
HETATM    3  C6  UNL     1      21.957   2.731 -18.151  1.00  0.00     0.020 A 
HETATM    4  C7  UNL     1      22.475   1.614 -18.719  1.00  0.00     0.035 A 
HETATM    5  C8  UNL     1      22.964   1.636 -20.020  1.00  0.00     0.121 A 
HETATM    6  N5  UNL     1      23.465   0.456 -20.498  1.00  0.00    -0.327 N 
ATOM      7  H5  UNL     1      23.831   0.442 -21.450  1.00  0.00     0.169 HD
HETATM    8  C12 UNL     1      23.504  -0.676 -19.797  1.00  0.00     0.117 A 
HETATM    9  N6  UNL     1      23.008  -0.627 -18.529  1.00  0.00    -0.341 N 
ATOM     10  H6  UNL     1      23.026  -1.480 -17.970  1.00  0.00     0.167 HD
HETATM   11  C19 UNL     1      22.505   0.466 -17.984  1.00  0.00     0.050 A 
HETATM   12  C20 UNL     1      22.015   0.442 -16.678  1.00  0.00     0.060 A 
ENDROOT
BRANCH   5  13
HETATM   13  N2  UNL     1      22.954   2.790 -20.812  1.00  0.00    -0.327 N 
ATOM     14  H2  UNL     1      23.366   3.642 -20.433  1.00  0.00     0.169 HD
BRANCH  13  15
HETATM   15  C9  UNL     1      22.402   2.833 -22.107  1.00  0.00     0.122 A 
HETATM   16  C10 UNL     1      23.171   2.650 -23.266  1.00  0.00     0.068 A 
HETATM   17  C11 UNL     1      22.353   2.749 -24.351  1.00  0.00     0.111 A 
HETATM   18  N3  UNL     1      21.127   2.984 -23.890  1.00  0.00    -0.310 N 
HETATM   19  N4  UNL     1      21.169   3.032 -22.555  1.00  0.00    -0.286 N 
ATOM     20  H3  UNL     1      20.291   3.107 -24.463  1.00  0.00     0.186 HD
ATOM     21  H4  UNL     1      20.358   3.199 -21.959  1.00  0.00     0.188 HD
ENDBRANCH  13  15
ENDBRANCH   5  13
BRANCH   8  22
HETATM   22  C13 UNL     1      24.041  -1.917 -20.325  1.00  0.00     0.008 A 
HETATM   23  C14 UNL     1      23.434  -3.098 -19.850  1.00  0.00     0.015 A 
HETATM   24  C15 UNL     1      23.885  -4.314 -20.301  1.00  0.00     0.001 A 
HETATM   25  C16 UNL     1      24.920  -4.420 -21.212  1.00  0.00     0.000 A 
HETATM   26  C17 UNL     1      25.498  -3.252 -21.662  1.00  0.00     0.001 A 
HETATM   27  C18 UNL     1      25.067  -2.021 -21.227  1.00  0.00     0.015 A 
ENDBRANCH   8  22
BRANCH   1  28
HETATM   28  N1  UNL     1      20.970   1.614 -14.768  1.00  0.00    -0.324 N 
HETATM   29  C3  UNL     1      19.742   2.194 -14.373  1.00  0.00     0.244 C 
HETATM   30  O1  UNL     1      18.988   2.717 -15.254  1.00  0.00    -0.268 OA
ATOM     31  H1  UNL     1      21.541   1.207 -14.027  1.00  0.00     0.169 HD
BRANCH  29  32
HETATM   32  C2  UNL     1      19.351   2.190 -12.969  1.00  0.00     0.064 C 
HETATM   33  C1  UNL     1      20.150   1.652 -12.094  1.00  0.00     0.017 C 
ENDBRANCH  29  32
ENDBRANCH   1  28
TORSDOF 5
ENDMDL
