MODEL 5
REMARK VINA RESULT: -9.976016804      2.463      6.764
REMARK  5 active torsions:
REMARK  status: ('A' for Active; 'I' for Inactive)
REMARK    1  A    between atoms: C2_2  and  C3_3 
REMARK       I    between atoms: C3_3  and  N1_5 
REMARK    2  A    between atoms: N1_5  and  C4_7 
REMARK    3  A    between atoms: C8_11  and  N2_12 
REMARK    4  A    between atoms: N2_12  and  C9_14 
REMARK    5  A    between atoms: C12_23  and  C13_24 
ROOT
HETATM    1  C4  UNL     1      23.895  -0.780 -20.135  1.00  0.00     0.037 A 
HETATM    2  C5  UNL     1      23.798  -0.005 -21.277  1.00  0.00     0.030 A 
HETATM    3  C6  UNL     1      23.161   1.247 -21.274  1.00  0.00     0.020 A 
HETATM    4  C7  UNL     1      22.616   1.735 -20.132  1.00  0.00     0.035 A 
HETATM    5  C8  UNL     1      21.982   2.973 -20.115  1.00  0.00     0.121 A 
HETATM    6  N5  UNL     1      21.466   3.372 -18.913  1.00  0.00    -0.327 N 
ATOM      7  H5  UNL     1      20.996   4.276 -18.871  1.00  0.00     0.169 HD
HETATM    8  C12 UNL     1      21.540   2.653 -17.794  1.00  0.00     0.117 A 
HETATM    9  N6  UNL     1      22.174   1.450 -17.882  1.00  0.00    -0.341 N 
ATOM     10  H6  UNL     1      22.245   0.880 -17.039  1.00  0.00     0.167 HD
HETATM   11  C19 UNL     1      22.703   0.984 -18.999  1.00  0.00     0.050 A 
HETATM   12  C20 UNL     1      23.338  -0.258 -19.013  1.00  0.00     0.060 A 
ENDROOT
BRANCH   5  13
HETATM   13  N2  UNL     1      21.869   3.779 -21.254  1.00  0.00    -0.327 N 
ATOM     14  H2  UNL     1      22.696   4.279 -21.578  1.00  0.00     0.169 HD
BRANCH  13  15
HETATM   15  C9  UNL     1      20.668   3.936 -21.973  1.00  0.00     0.122 A 
HETATM   16  C10 UNL     1      20.151   2.939 -22.814  1.00  0.00     0.068 A 
HETATM   17  C11 UNL     1      18.989   3.391 -23.362  1.00  0.00     0.111 A 
HETATM   18  N3  UNL     1      18.788   4.617 -22.884  1.00  0.00    -0.310 N 
HETATM   19  N4  UNL     1      19.793   4.930 -22.060  1.00  0.00    -0.286 N 
ATOM     20  H3  UNL     1      17.996   5.220 -23.110  1.00  0.00     0.186 HD
ATOM     21  H4  UNL     1      19.876   5.817 -21.563  1.00  0.00     0.188 HD
ENDBRANCH  13  15
ENDBRANCH   5  13
BRANCH   8  22
HETATM   22  C13 UNL     1      20.985   3.097 -16.528  1.00  0.00     0.008 A 
HETATM   23  C14 UNL     1      20.734   2.083 -15.580  1.00  0.00     0.015 A 
HETATM   24  C15 UNL     1      20.208   2.422 -14.358  1.00  0.00     0.001 A 
HETATM   25  C16 UNL     1      19.917   3.731 -14.022  1.00  0.00     0.000 A 
HETATM   26  C17 UNL     1      20.171   4.706 -14.965  1.00  0.00     0.001 A 
HETATM   27  C18 UNL     1      20.696   4.395 -16.197  1.00  0.00     0.015 A 
ENDBRANCH   8  22
BRANCH   1  28
HETATM   28  N1  UNL     1      24.555  -2.020 -20.251  1.00  0.00    -0.324 N 
HETATM   29  C3  UNL     1      23.957  -3.283 -20.466  1.00  0.00     0.244 C 
HETATM   30  O1  UNL     1      22.692  -3.365 -20.573  1.00  0.00    -0.268 OA
ATOM     31  H1  UNL     1      25.572  -2.004 -20.171  1.00  0.00     0.169 HD
BRANCH  29  32
HETATM   32  C2  UNL     1      24.789  -4.477 -20.562  1.00  0.00     0.064 C 
HETATM   33  C1  UNL     1      24.355  -5.494 -21.246  1.00  0.00     0.017 C 
ENDBRANCH  29  32
ENDBRANCH   1  28
TORSDOF 5
ENDMDL
