MODEL 2
REMARK VINA RESULT: -10.457783125      2.475      6.668
REMARK  5 active torsions:
REMARK  status: ('A' for Active; 'I' for Inactive)
REMARK    1  A    between atoms: C2_2  and  C3_3 
REMARK       I    between atoms: C3_3  and  N1_5 
REMARK    2  A    between atoms: N1_5  and  C4_7 
REMARK    3  A    between atoms: C8_11  and  N2_12 
REMARK    4  A    between atoms: N2_12  and  C9_14 
REMARK    5  A    between atoms: C12_23  and  C13_24 
ROOT
HETATM    1  C4  UNL     1      24.023  -2.113 -20.593  1.00  0.00     0.037 A 
HETATM    2  C5  UNL     1      24.167  -1.042 -21.459  1.00  0.00     0.030 A 
HETATM    3  C6  UNL     1      23.759   0.256 -21.110  1.00  0.00     0.020 A 
HETATM    4  C7  UNL     1      23.204   0.496 -19.896  1.00  0.00     0.035 A 
HETATM    5  C8  UNL     1      22.795   1.776 -19.538  1.00  0.00     0.121 A 
HETATM    6  N5  UNL     1      22.248   1.910 -18.291  1.00  0.00    -0.327 N 
ATOM      7  H5  UNL     1      21.940   2.838 -18.002  1.00  0.00     0.169 HD
HETATM    8  C12 UNL     1      22.094   0.904 -17.433  1.00  0.00     0.117 A 
HETATM    9  N6  UNL     1      22.515  -0.324 -17.848  1.00  0.00    -0.341 N 
ATOM     10  H6  UNL     1      22.408  -1.112 -17.210  1.00  0.00     0.167 HD
HETATM   11  C19 UNL     1      23.055  -0.548 -19.032  1.00  0.00     0.050 A 
HETATM   12  C20 UNL     1      23.464  -1.833 -19.389  1.00  0.00     0.060 A 
ENDROOT
BRANCH   5  13
HETATM   13  N2  UNL     1      22.929   2.878 -20.391  1.00  0.00    -0.327 N 
ATOM     14  H2  UNL     1      23.853   3.294 -20.505  1.00  0.00     0.169 HD
BRANCH  13  15
HETATM   15  C9  UNL     1      21.849   3.441 -21.099  1.00  0.00     0.122 A 
HETATM   16  C10 UNL     1      21.455   2.989 -22.367  1.00  0.00     0.068 A 
HETATM   17  C11 UNL     1      20.391   3.731 -22.783  1.00  0.00     0.111 A 
HETATM   18  N3  UNL     1      20.132   4.609 -21.816  1.00  0.00    -0.310 N 
HETATM   19  N4  UNL     1      21.006   4.427 -20.821  1.00  0.00    -0.286 N 
ATOM     20  H3  UNL     1      19.387   5.307 -21.832  1.00  0.00     0.186 HD
ATOM     21  H4  UNL     1      21.022   4.975 -19.961  1.00  0.00     0.188 HD
ENDBRANCH  13  15
ENDBRANCH   5  13
BRANCH   8  22
HETATM   22  C13 UNL     1      21.510   1.069 -16.114  1.00  0.00     0.008 A 
HETATM   23  C14 UNL     1      21.596  -0.051 -15.261  1.00  0.00     0.015 A 
HETATM   24  C15 UNL     1      21.066   0.026 -13.996  1.00  0.00     0.001 A 
HETATM   25  C16 UNL     1      20.450   1.172 -13.527  1.00  0.00     0.000 A 
HETATM   26  C17 UNL     1      20.377   2.254 -14.379  1.00  0.00     0.001 A 
HETATM   27  C18 UNL     1      20.898   2.205 -15.651  1.00  0.00     0.015 A 
ENDBRANCH   8  22
BRANCH   1  28
HETATM   28  N1  UNL     1      24.466  -3.372 -21.045  1.00  0.00    -0.324 N 
HETATM   29  C3  UNL     1      23.857  -4.625 -20.799  1.00  0.00     0.244 C 
HETATM   30  O1  UNL     1      22.795  -4.676 -20.101  1.00  0.00    -0.268 OA
ATOM     31  H1  UNL     1      25.315  -3.381 -21.609  1.00  0.00     0.169 HD
BRANCH  29  32
HETATM   32  C2  UNL     1      24.448  -5.842 -21.343  1.00  0.00     0.064 C 
HETATM   33  C1  UNL     1      23.689  -6.675 -21.992  1.00  0.00     0.017 C 
ENDBRANCH  29  32
ENDBRANCH   1  28
TORSDOF 5
ENDMDL
