MODEL 4
REMARK VINA RESULT: -10.118281520      2.693      6.836
REMARK  5 active torsions:
REMARK  status: ('A' for Active; 'I' for Inactive)
REMARK    1  A    between atoms: C2_2  and  C3_3 
REMARK       I    between atoms: C3_3  and  N1_5 
REMARK    2  A    between atoms: N1_5  and  C4_7 
REMARK    3  A    between atoms: C8_11  and  N2_12 
REMARK    4  A    between atoms: N2_12  and  C9_14 
REMARK    5  A    between atoms: C12_23  and  C13_24 
ROOT
HETATM    1  C4  UNL     1      23.985  -1.954 -20.533  1.00  0.00     0.037 A 
HETATM    2  C5  UNL     1      24.146  -0.874 -21.384  1.00  0.00     0.030 A 
HETATM    3  C6  UNL     1      23.742   0.422 -21.024  1.00  0.00     0.020 A 
HETATM    4  C7  UNL     1      23.175   0.651 -19.813  1.00  0.00     0.035 A 
HETATM    5  C8  UNL     1      22.770   1.929 -19.444  1.00  0.00     0.121 A 
HETATM    6  N5  UNL     1      22.210   2.051 -18.202  1.00  0.00    -0.327 N 
ATOM      7  H5  UNL     1      21.904   2.978 -17.905  1.00  0.00     0.169 HD
HETATM    8  C12 UNL     1      22.039   1.035 -17.358  1.00  0.00     0.117 A 
HETATM    9  N6  UNL     1      22.458  -0.190 -17.783  1.00  0.00    -0.341 N 
ATOM     10  H6  UNL     1      22.338  -0.985 -17.156  1.00  0.00     0.167 HD
HETATM   11  C19 UNL     1      23.010  -0.402 -18.964  1.00  0.00     0.050 A 
HETATM   12  C20 UNL     1      23.414  -1.686 -19.332  1.00  0.00     0.060 A 
ENDROOT
BRANCH   5  13
HETATM   13  N2  UNL     1      22.920   3.040 -20.282  1.00  0.00    -0.327 N 
ATOM     14  H2  UNL     1      23.579   2.977 -21.058  1.00  0.00     0.169 HD
BRANCH  13  15
HETATM   15  C9  UNL     1      22.205   4.242 -20.107  1.00  0.00     0.122 A 
HETATM   16  C10 UNL     1      22.759   5.370 -19.484  1.00  0.00     0.068 A 
HETATM   17  C11 UNL     1      21.825   6.361 -19.468  1.00  0.00     0.111 A 
HETATM   18  N3  UNL     1      20.735   5.873 -20.055  1.00  0.00    -0.310 N 
HETATM   19  N4  UNL     1      20.973   4.613 -20.430  1.00  0.00    -0.286 N 
ATOM     20  H3  UNL     1      19.859   6.379 -20.196  1.00  0.00     0.186 HD
ATOM     21  H4  UNL     1      20.296   4.014 -20.904  1.00  0.00     0.188 HD
ENDBRANCH  13  15
ENDBRANCH   5  13
BRANCH   8  22
HETATM   22  C13 UNL     1      21.441   1.188 -16.044  1.00  0.00     0.008 A 
HETATM   23  C14 UNL     1      21.550   0.073 -15.187  1.00  0.00     0.015 A 
HETATM   24  C15 UNL     1      21.010   0.139 -13.927  1.00  0.00     0.001 A 
HETATM   25  C16 UNL     1      20.360   1.269 -13.465  1.00  0.00     0.000 A 
HETATM   26  C17 UNL     1      20.265   2.347 -14.321  1.00  0.00     0.001 A 
HETATM   27  C18 UNL     1      20.797   2.309 -15.588  1.00  0.00     0.015 A 
ENDBRANCH   8  22
BRANCH   1  28
HETATM   28  N1  UNL     1      24.426  -3.211 -20.995  1.00  0.00    -0.324 N 
HETATM   29  C3  UNL     1      23.845  -4.470 -20.716  1.00  0.00     0.244 C 
HETATM   30  O1  UNL     1      22.813  -4.530 -19.974  1.00  0.00    -0.268 OA
ATOM     31  H1  UNL     1      25.251  -3.212 -21.595  1.00  0.00     0.169 HD
BRANCH  29  32
HETATM   32  C2  UNL     1      24.428  -5.683 -21.277  1.00  0.00     0.064 C 
HETATM   33  C1  UNL     1      23.657  -6.521 -21.904  1.00  0.00     0.017 C 
ENDBRANCH  29  32
ENDBRANCH   1  28
TORSDOF 5
ENDMDL
