MODEL 2
REMARK VINA RESULT: -10.188168838      3.674      4.948
REMARK  12 active torsions:
REMARK  status: ('A' for Active; 'I' for Inactive)
REMARK    1  A    between atoms: C2_2  and  N1_3 
REMARK    2  A    between atoms: N1_3  and  C3_5 
REMARK    3  A    between atoms: N5_16  and  C8_17 
REMARK    4  A    between atoms: C9_19  and  C10_20 
REMARK    5  A    between atoms: C11_21  and  C12_22 
REMARK    6  A    between atoms: C12_22  and  N6_23 
REMARK       I    between atoms: N6_23  and  C13_25 
REMARK    7  A    between atoms: C13_25  and  C14_27 
REMARK    8  A    between atoms: C16_29  and  C17_30 
REMARK    9  A    between atoms: C24_38  and  O3_39 
REMARK   10  A    between atoms: C25_41  and  O4_42 
REMARK   11  A    between atoms: C26_44  and  O5_45 
REMARK   12  A    between atoms: C27_47  and  O6_48 
ROOT
HETATM    1  C8  UNL     1      -4.536  22.006  14.130  1.00  0.00     0.262 C 
HETATM    2  O1  UNL     1      -3.339  21.398  13.872  1.00  0.00    -0.352 OA
HETATM    3  C9  UNL     1      -3.000  20.547  14.891  1.00  0.00     0.178 C 
HETATM    4  C26 UNL     1      -4.336  20.063  15.406  1.00  0.00     0.183 C 
HETATM    5  C27 UNL     1      -5.139  21.370  15.361  1.00  0.00     0.199 C 
ENDROOT
BRANCH   3   6
HETATM    6  C10 UNL     1      -2.191  19.400  14.396  1.00  0.00     0.005 C 
HETATM    7  C11 UNL     1      -2.792  18.264  14.124  1.00  0.00    -0.009 C 
BRANCH   7   8
HETATM    8  C12 UNL     1      -2.138  17.056  13.630  1.00  0.00     0.150 C 
BRANCH   8   9
HETATM    9  N6  UNL     1      -2.961  15.861  13.721  1.00  0.00    -0.353 N 
HETATM   10  C13 UNL     1      -2.411  14.611  14.064  1.00  0.00     0.254 C 
HETATM   11  O2  UNL     1      -1.142  14.622  14.274  1.00  0.00    -0.268 OA
ATOM     12  H6  UNL     1      -3.961  15.930  13.531  1.00  0.00     0.163 HD
BRANCH  10  13
HETATM   13  C14 UNL     1      -3.080  13.349  14.206  1.00  0.00     0.068 A 
HETATM   14  C15 UNL     1      -3.952  12.919  13.198  1.00  0.00     0.032 A 
HETATM   15  C16 UNL     1      -4.622  11.738  13.271  1.00  0.00    -0.022 A 
HETATM   16  C23 UNL     1      -4.479  10.901  14.343  1.00  0.00     0.051 A 
HETATM   17  C24 UNL     1      -3.619  11.292  15.367  1.00  0.00     0.100 A 
HETATM   18  C25 UNL     1      -2.936  12.508  15.281  1.00  0.00     0.114 A 
BRANCH  15  19
HETATM   19  C17 UNL     1      -5.528  11.335  12.178  1.00  0.00    -0.026 A 
HETATM   20  C18 UNL     1      -6.539  12.154  11.734  1.00  0.00     0.015 A 
HETATM   21  C19 UNL     1      -7.365  11.752  10.717  1.00  0.00     0.043 A 
HETATM   22  C20 UNL     1      -7.222  10.519  10.098  1.00  0.00     0.116 A 
HETATM   23  F1  UNL     1      -8.075  10.189   9.100  1.00  0.00    -0.206 F 
HETATM   24  C21 UNL     1      -6.210   9.688  10.536  1.00  0.00     0.043 A 
HETATM   25  C22 UNL     1      -5.381  10.100  11.561  1.00  0.00     0.015 A 
ENDBRANCH  15  19
BRANCH  17  26
HETATM   26  O3  UNL     1      -3.496  10.426  16.433  1.00  0.00    -0.358 OA
ATOM     27  H3  UNL     1      -2.613  10.251  16.737  1.00  0.00     0.217 HD
ENDBRANCH  17  26
BRANCH  18  28
HETATM   28  O4  UNL     1      -2.107  12.831  16.324  1.00  0.00    -0.357 OA
ATOM     29  H4  UNL     1      -2.452  12.973  17.198  1.00  0.00     0.217 HD
ENDBRANCH  18  28
ENDBRANCH  10  13
ENDBRANCH   8   9
ENDBRANCH   7   8
ENDBRANCH   3   6
BRANCH   4  30
HETATM   30  O5  UNL     1      -4.262  19.617  16.715  1.00  0.00    -0.390 OA
ATOM     31  H5  UNL     1      -4.953  19.978  17.257  1.00  0.00     0.210 HD
ENDBRANCH   4  30
BRANCH   1  32
HETATM   32  N5  UNL     1      -5.457  21.803  13.010  1.00  0.00    -0.297 N 
HETATM   33  C5  UNL     1      -5.775  22.703  12.067  1.00  0.00     0.142 A 
HETATM   34  N3  UNL     1      -5.400  23.976  11.840  1.00  0.00    -0.336 N 
HETATM   35  C6  UNL     1      -6.679  22.151  11.172  1.00  0.00     0.122 A 
HETATM   36  C4  UNL     1      -5.870  24.690  10.801  1.00  0.00     0.183 A 
ATOM     37  H3  UNL     1      -4.737  24.415  12.479  1.00  0.00     0.168 HD
HETATM   38  N2  UNL     1      -6.747  24.119   9.951  1.00  0.00    -0.337 N 
HETATM   39  C3  UNL     1      -7.180  22.855  10.097  1.00  0.00     0.133 A 
ATOM     40  H2  UNL     1      -7.096  24.668   9.166  1.00  0.00     0.168 HD
HETATM   41  N4  UNL     1      -6.895  20.899  11.601  1.00  0.00    -0.346 N 
HETATM   42  C7  UNL     1      -6.149  20.694  12.719  1.00  0.00     0.188 A 
ATOM     43  H4  UNL     1      -7.514  20.216  11.163  1.00  0.00     0.167 HD
BRANCH  39  44
HETATM   44  N1  UNL     1      -8.099  22.259   9.208  1.00  0.00    -0.375 N 
ATOM     45  H1  UNL     1      -7.744  21.902   8.321  1.00  0.00     0.161 HD
BRANCH  44  46
HETATM   46  C2  UNL     1      -9.502  22.123   9.474  1.00  0.00     0.116 C 
HETATM   47  C1  UNL     1      -9.853  20.659   9.560  1.00  0.00     0.026 C 
ENDBRANCH  44  46
ENDBRANCH  39  44
ENDBRANCH   1  32
BRANCH   5  48
HETATM   48  O6  UNL     1      -4.846  22.058  16.514  1.00  0.00    -0.388 OA
ATOM     49  H6  UNL     1      -5.602  22.173  17.077  1.00  0.00     0.210 HD
ENDBRANCH   5  48
TORSDOF 12
ENDMDL
