MODEL 7
REMARK VINA RESULT: -9.002058847      3.595      4.558
REMARK  12 active torsions:
REMARK  status: ('A' for Active; 'I' for Inactive)
REMARK    1  A    between atoms: C2_2  and  N1_3 
REMARK    2  A    between atoms: N1_3  and  C3_5 
REMARK    3  A    between atoms: N5_16  and  C8_17 
REMARK    4  A    between atoms: C9_19  and  C10_20 
REMARK    5  A    between atoms: C11_21  and  C12_22 
REMARK    6  A    between atoms: C12_22  and  N6_23 
REMARK       I    between atoms: N6_23  and  C13_25 
REMARK    7  A    between atoms: C13_25  and  C14_27 
REMARK    8  A    between atoms: C16_29  and  C17_30 
REMARK    9  A    between atoms: C24_38  and  O3_39 
REMARK   10  A    between atoms: C25_41  and  O4_42 
REMARK   11  A    between atoms: C26_44  and  O5_45 
REMARK   12  A    between atoms: C27_47  and  O6_48 
ROOT
HETATM    1  C8  UNL     1      -4.273  21.530  13.723  1.00  0.00     0.262 C 
HETATM    2  O1  UNL     1      -3.485  20.426  13.546  1.00  0.00    -0.352 OA
HETATM    3  C9  UNL     1      -3.375  19.719  14.714  1.00  0.00     0.178 C 
HETATM    4  C26 UNL     1      -4.697  19.968  15.403  1.00  0.00     0.183 C 
HETATM    5  C27 UNL     1      -4.889  21.460  15.101  1.00  0.00     0.199 C 
ENDROOT
BRANCH   3   6
HETATM    6  C10 UNL     1      -3.193  18.265  14.454  1.00  0.00     0.005 C 
HETATM    7  C11 UNL     1      -2.074  17.848  13.905  1.00  0.00    -0.009 C 
BRANCH   7   8
HETATM    8  C12 UNL     1      -1.750  16.459  13.592  1.00  0.00     0.150 C 
BRANCH   8   9
HETATM    9  N6  UNL     1      -2.808  15.519  13.926  1.00  0.00    -0.353 N 
HETATM   10  C13 UNL     1      -2.521  14.240  14.442  1.00  0.00     0.254 C 
HETATM   11  O2  UNL     1      -1.268  13.984  14.576  1.00  0.00    -0.268 OA
ATOM     12  H6  UNL     1      -3.780  15.792  13.783  1.00  0.00     0.163 HD
BRANCH  10  13
HETATM   13  C14 UNL     1      -3.439  13.206  14.827  1.00  0.00     0.068 A 
HETATM   14  C15 UNL     1      -3.792  12.220  13.898  1.00  0.00     0.032 A 
HETATM   15  C16 UNL     1      -4.660  11.216  14.195  1.00  0.00    -0.022 A 
HETATM   16  C23 UNL     1      -5.240  11.117  15.430  1.00  0.00     0.051 A 
HETATM   17  C24 UNL     1      -4.914  12.079  16.384  1.00  0.00     0.100 A 
HETATM   18  C25 UNL     1      -4.021  13.105  16.066  1.00  0.00     0.114 A 
BRANCH  15  19
HETATM   19  C17 UNL     1      -4.994  10.205  13.176  1.00  0.00    -0.026 A 
HETATM   20  C18 UNL     1      -5.101  10.523  11.843  1.00  0.00     0.015 A 
HETATM   21  C19 UNL     1      -5.414   9.562  10.919  1.00  0.00     0.043 A 
HETATM   22  C20 UNL     1      -5.635   8.240  11.280  1.00  0.00     0.116 A 
HETATM   23  F1  UNL     1      -5.940   7.344  10.313  1.00  0.00    -0.206 F 
HETATM   24  C21 UNL     1      -5.531   7.908  12.616  1.00  0.00     0.043 A 
HETATM   25  C22 UNL     1      -5.215   8.883  13.542  1.00  0.00     0.015 A 
ENDBRANCH  15  19
BRANCH  17  26
HETATM   26  O3  UNL     1      -5.514  11.950  17.618  1.00  0.00    -0.358 OA
ATOM     27  H3  UNL     1      -5.520  12.723  18.170  1.00  0.00     0.217 HD
ENDBRANCH  17  26
BRANCH  18  28
HETATM   28  O4  UNL     1      -3.745  14.017  17.053  1.00  0.00    -0.357 OA
ATOM     29  H4  UNL     1      -4.369  14.189  17.749  1.00  0.00     0.217 HD
ENDBRANCH  18  28
ENDBRANCH  10  13
ENDBRANCH   8   9
ENDBRANCH   7   8
ENDBRANCH   3   6
BRANCH   4  30
HETATM   30  O5  UNL     1      -4.615  19.785  16.774  1.00  0.00    -0.390 OA
ATOM     31  H5  UNL     1      -5.445  19.517  17.150  1.00  0.00     0.210 HD
ENDBRANCH   4  30
BRANCH   1  32
HETATM   32  N5  UNL     1      -5.354  21.543  12.737  1.00  0.00    -0.297 N 
HETATM   33  C5  UNL     1      -5.718  22.580  11.966  1.00  0.00     0.142 A 
HETATM   34  N3  UNL     1      -5.265  23.842  11.842  1.00  0.00    -0.336 N 
HETATM   35  C6  UNL     1      -6.782  22.217  11.156  1.00  0.00     0.122 A 
HETATM   36  C4  UNL     1      -5.809  24.718  10.977  1.00  0.00     0.183 A 
ATOM     37  H3  UNL     1      -4.484  24.144  12.422  1.00  0.00     0.168 HD
HETATM   38  N2  UNL     1      -6.842  24.328  10.204  1.00  0.00    -0.337 N 
HETATM   39  C3  UNL     1      -7.362  23.090  10.260  1.00  0.00     0.133 A 
ATOM     40  H2  UNL     1      -7.246  24.999   9.552  1.00  0.00     0.168 HD
HETATM   41  N4  UNL     1      -7.048  20.937  11.458  1.00  0.00    -0.346 N 
HETATM   42  C7  UNL     1      -6.176  20.535  12.420  1.00  0.00     0.188 A 
ATOM     43  H4  UNL     1      -7.780  20.364  11.038  1.00  0.00     0.167 HD
BRANCH  39  44
HETATM   44  N1  UNL     1      -8.445  22.683   9.452  1.00  0.00    -0.375 N 
ATOM     45  H1  UNL     1      -8.314  22.684   8.440  1.00  0.00     0.161 HD
BRANCH  44  46
HETATM   46  C2  UNL     1      -9.719  22.268   9.964  1.00  0.00     0.116 C 
HETATM   47  C1  UNL     1      -9.958  20.826   9.595  1.00  0.00     0.026 C 
ENDBRANCH  44  46
ENDBRANCH  39  44
ENDBRANCH   1  32
BRANCH   5  48
HETATM   48  O6  UNL     1      -4.167  22.154  16.043  1.00  0.00    -0.388 OA
ATOM     49  H6  UNL     1      -3.597  21.593  16.557  1.00  0.00     0.210 HD
ENDBRANCH   5  48
TORSDOF 12
ENDMDL
