MODEL 1
REMARK VINA RESULT: -10.378897713      0.000      0.000
REMARK  12 active torsions:
REMARK  status: ('A' for Active; 'I' for Inactive)
REMARK    1  A    between atoms: C2_2  and  N1_3 
REMARK    2  A    between atoms: N1_3  and  C3_5 
REMARK    3  A    between atoms: N5_16  and  C8_17 
REMARK    4  A    between atoms: C9_19  and  C10_20 
REMARK    5  A    between atoms: C11_21  and  C12_22 
REMARK    6  A    between atoms: C12_22  and  N6_23 
REMARK       I    between atoms: N6_23  and  C13_25 
REMARK    7  A    between atoms: C13_25  and  C14_27 
REMARK    8  A    between atoms: C16_29  and  C17_30 
REMARK    9  A    between atoms: C24_38  and  O3_39 
REMARK   10  A    between atoms: C25_41  and  O4_42 
REMARK   11  A    between atoms: C26_44  and  O5_45 
REMARK   12  A    between atoms: C27_47  and  O6_48 
ROOT
HETATM    1  C8  UNL     1      -4.216  21.685  13.895  1.00  0.00     0.262 C 
HETATM    2  O1  UNL     1      -3.261  20.740  13.639  1.00  0.00    -0.352 OA
HETATM    3  C9  UNL     1      -3.051  19.955  14.742  1.00  0.00     0.178 C 
HETATM    4  C26 UNL     1      -4.402  19.928  15.418  1.00  0.00     0.183 C 
HETATM    5  C27 UNL     1      -4.826  21.393  15.246  1.00  0.00     0.199 C 
ENDROOT
BRANCH   3   6
HETATM    6  C10 UNL     1      -2.639  18.577  14.357  1.00  0.00     0.005 C 
HETATM    7  C11 UNL     1      -3.563  17.699  14.036  1.00  0.00    -0.009 C 
BRANCH   7   8
HETATM    8  C12 UNL     1      -3.316  16.317  13.637  1.00  0.00     0.150 C 
BRANCH   8   9
HETATM    9  N6  UNL     1      -1.973  15.849  13.937  1.00  0.00    -0.353 N 
HETATM   10  C13 UNL     1      -1.708  14.491  14.207  1.00  0.00     0.254 C 
HETATM   11  O2  UNL     1      -2.741  13.727  14.175  1.00  0.00    -0.268 OA
ATOM     12  H6  UNL     1      -1.204  16.519  13.953  1.00  0.00     0.163 HD
BRANCH  10  13
HETATM   13  C14 UNL     1      -0.450  13.870  14.509  1.00  0.00     0.068 A 
HETATM   14  C15 UNL     1      -0.429  12.703  15.282  1.00  0.00     0.032 A 
HETATM   15  C16 UNL     1       0.727  12.066  15.609  1.00  0.00    -0.022 A 
HETATM   16  C23 UNL     1       1.943  12.539  15.196  1.00  0.00     0.051 A 
HETATM   17  C24 UNL     1       1.965  13.698  14.423  1.00  0.00     0.100 A 
HETATM   18  C25 UNL     1       0.770  14.343  14.094  1.00  0.00     0.114 A 
BRANCH  15  19
HETATM   19  C17 UNL     1       0.688  10.840  16.426  1.00  0.00    -0.026 A 
HETATM   20  C18 UNL     1      -0.247  10.655  17.416  1.00  0.00     0.015 A 
HETATM   21  C19 UNL     1      -0.258   9.504  18.160  1.00  0.00     0.043 A 
HETATM   22  C20 UNL     1       0.661   8.487  17.952  1.00  0.00     0.116 A 
HETATM   23  F1  UNL     1       0.590   7.377  18.724  1.00  0.00    -0.206 F 
HETATM   24  C21 UNL     1       1.606   8.661  16.960  1.00  0.00     0.043 A 
HETATM   25  C22 UNL     1       1.610   9.823  16.214  1.00  0.00     0.015 A 
ENDBRANCH  15  19
BRANCH  17  26
HETATM   26  O3  UNL     1       3.206  14.147  14.023  1.00  0.00    -0.358 OA
ATOM     27  H3  UNL     1       3.592  13.711  13.272  1.00  0.00     0.217 HD
ENDBRANCH  17  26
BRANCH  18  28
HETATM   28  O4  UNL     1       0.866  15.478  13.331  1.00  0.00    -0.357 OA
ATOM     29  H4  UNL     1       0.625  15.471  12.412  1.00  0.00     0.217 HD
ENDBRANCH  18  28
ENDBRANCH  10  13
ENDBRANCH   8   9
ENDBRANCH   7   8
ENDBRANCH   3   6
BRANCH   4  30
HETATM   30  O5  UNL     1      -4.306  19.636  16.769  1.00  0.00    -0.390 OA
ATOM     31  H5  UNL     1      -5.081  19.901  17.250  1.00  0.00     0.210 HD
ENDBRANCH   4  30
BRANCH   1  32
HETATM   32  N5  UNL     1      -5.275  21.618  12.888  1.00  0.00    -0.297 N 
HETATM   33  C5  UNL     1      -5.644  22.601  12.051  1.00  0.00     0.142 A 
HETATM   34  N3  UNL     1      -5.214  23.864  11.863  1.00  0.00    -0.336 N 
HETATM   35  C6  UNL     1      -6.683  22.170  11.242  1.00  0.00     0.122 A 
HETATM   36  C4  UNL     1      -5.756  24.676  10.939  1.00  0.00     0.183 A 
ATOM     37  H3  UNL     1      -4.451  24.215  12.441  1.00  0.00     0.168 HD
HETATM   38  N2  UNL     1      -6.765  24.221  10.169  1.00  0.00    -0.337 N 
HETATM   39  C3  UNL     1      -7.261  22.977  10.286  1.00  0.00     0.133 A 
ATOM     40  H2  UNL     1      -7.168  24.845   9.471  1.00  0.00     0.168 HD
HETATM   41  N4  UNL     1      -6.930  20.904  11.612  1.00  0.00    -0.346 N 
HETATM   42  C7  UNL     1      -6.070  20.576  12.613  1.00  0.00     0.188 A 
ATOM     43  H4  UNL     1      -7.640  20.292  11.211  1.00  0.00     0.167 HD
BRANCH  39  44
HETATM   44  N1  UNL     1      -8.318  22.502   9.481  1.00  0.00    -0.375 N 
ATOM     45  H1  UNL     1      -8.153  22.412   8.478  1.00  0.00     0.161 HD
BRANCH  44  46
HETATM   46  C2  UNL     1      -9.610  22.136   9.985  1.00  0.00     0.116 C 
HETATM   47  C1  UNL     1      -9.922  20.720   9.574  1.00  0.00     0.026 C 
ENDBRANCH  44  46
ENDBRANCH  39  44
ENDBRANCH   1  32
BRANCH   5  48
HETATM   48  O6  UNL     1      -4.233  22.102  16.263  1.00  0.00    -0.388 OA
ATOM     49  H6  UNL     1      -4.846  22.351  16.945  1.00  0.00     0.210 HD
ENDBRANCH   5  48
TORSDOF 12
ENDMDL
