MODEL 6
REMARK VINA RESULT: -9.048284403      6.390     10.916
REMARK  12 active torsions:
REMARK  status: ('A' for Active; 'I' for Inactive)
REMARK    1  A    between atoms: C2_2  and  N1_3 
REMARK    2  A    between atoms: N1_3  and  C3_5 
REMARK    3  A    between atoms: N5_16  and  C8_17 
REMARK    4  A    between atoms: C9_19  and  C10_20 
REMARK    5  A    between atoms: C11_21  and  C12_22 
REMARK    6  A    between atoms: C12_22  and  N6_23 
REMARK       I    between atoms: N6_23  and  C13_25 
REMARK    7  A    between atoms: C13_25  and  C14_27 
REMARK    8  A    between atoms: C16_29  and  C17_30 
REMARK    9  A    between atoms: C24_38  and  O3_39 
REMARK   10  A    between atoms: C25_41  and  O4_42 
REMARK   11  A    between atoms: C26_44  and  O5_45 
REMARK   12  A    between atoms: C27_47  and  O6_48 
ROOT
HETATM    1  C8  UNL     1     -13.115  17.291  12.784  1.00  0.00     0.262 C 
HETATM    2  O1  UNL     1     -12.464  17.841  11.715  1.00  0.00    -0.352 OA
HETATM    3  C9  UNL     1     -12.782  19.168  11.586  1.00  0.00     0.178 C 
HETATM    4  C26 UNL     1     -13.028  19.612  13.010  1.00  0.00     0.183 C 
HETATM    5  C27 UNL     1     -13.802  18.401  13.547  1.00  0.00     0.199 C 
ENDROOT
BRANCH   3   6
HETATM    6  C10 UNL     1     -11.658  19.941  10.990  1.00  0.00     0.005 C 
HETATM    7  C11 UNL     1     -11.472  19.900   9.690  1.00  0.00    -0.009 C 
BRANCH   7   8
HETATM    8  C12 UNL     1     -10.419  20.603   8.962  1.00  0.00     0.150 C 
BRANCH   8   9
HETATM    9  N6  UNL     1      -9.588  21.449   9.803  1.00  0.00    -0.353 N 
HETATM   10  C13 UNL     1      -8.262  21.095  10.122  1.00  0.00     0.254 C 
HETATM   11  O2  UNL     1      -7.870  19.977   9.622  1.00  0.00    -0.268 OA
ATOM     12  H6  UNL     1      -9.973  22.319  10.170  1.00  0.00     0.163 HD
BRANCH  10  13
HETATM   13  C14 UNL     1      -7.313  21.816  10.922  1.00  0.00     0.068 A 
HETATM   14  C15 UNL     1      -6.870  21.260  12.128  1.00  0.00     0.032 A 
HETATM   15  C16 UNL     1      -5.977  21.891  12.937  1.00  0.00    -0.022 A 
HETATM   16  C23 UNL     1      -5.461  23.116  12.611  1.00  0.00     0.051 A 
HETATM   17  C24 UNL     1      -5.876  23.703  11.418  1.00  0.00     0.100 A 
HETATM   18  C25 UNL     1      -6.794  23.044  10.595  1.00  0.00     0.114 A 
BRANCH  15  19
HETATM   19  C17 UNL     1      -5.546  21.257  14.196  1.00  0.00    -0.026 A 
HETATM   20  C18 UNL     1      -6.011  21.679  15.419  1.00  0.00     0.015 A 
HETATM   21  C19 UNL     1      -5.592  21.070  16.572  1.00  0.00     0.043 A 
HETATM   22  C20 UNL     1      -4.691  20.015  16.560  1.00  0.00     0.116 A 
HETATM   23  F1  UNL     1      -4.322  19.461  17.739  1.00  0.00    -0.206 F 
HETATM   24  C21 UNL     1      -4.217  19.582  15.338  1.00  0.00     0.043 A 
HETATM   25  C22 UNL     1      -4.645  20.200  14.179  1.00  0.00     0.015 A 
ENDBRANCH  15  19
BRANCH  17  26
HETATM   26  O3  UNL     1      -5.337  24.936  11.118  1.00  0.00    -0.358 OA
ATOM     27  H3  UNL     1      -5.360  25.588  11.808  1.00  0.00     0.217 HD
ENDBRANCH  17  26
BRANCH  18  28
HETATM   28  O4  UNL     1      -7.158  23.679   9.436  1.00  0.00    -0.357 OA
ATOM     29  H4  UNL     1      -6.861  23.363   8.591  1.00  0.00     0.217 HD
ENDBRANCH  18  28
ENDBRANCH  10  13
ENDBRANCH   8   9
ENDBRANCH   7   8
ENDBRANCH   3   6
BRANCH   4  30
HETATM   30  O5  UNL     1     -13.834  20.736  13.076  1.00  0.00    -0.390 OA
ATOM     31  H5  UNL     1     -13.905  21.075  13.960  1.00  0.00     0.210 HD
ENDBRANCH   4  30
BRANCH   1  32
HETATM   32  N5  UNL     1     -12.157  16.643  13.680  1.00  0.00    -0.297 N 
HETATM   33  C5  UNL     1     -11.232  15.733  13.334  1.00  0.00     0.142 A 
HETATM   34  N3  UNL     1     -10.894  15.157  12.164  1.00  0.00    -0.336 N 
HETATM   35  C6  UNL     1     -10.509  15.345  14.451  1.00  0.00     0.122 A 
HETATM   36  C4  UNL     1      -9.906  14.250  12.070  1.00  0.00     0.183 A 
ATOM     37  H3  UNL     1     -11.405  15.419  11.321  1.00  0.00     0.168 HD
HETATM   38  N2  UNL     1      -9.224  13.898  13.178  1.00  0.00    -0.337 N 
HETATM   39  C3  UNL     1      -9.490  14.417  14.389  1.00  0.00     0.133 A 
ATOM     40  H2  UNL     1      -8.476  13.210  13.095  1.00  0.00     0.168 HD
HETATM   41  N4  UNL     1     -11.022  16.043  15.475  1.00  0.00    -0.346 N 
HETATM   42  C7  UNL     1     -12.023  16.829  14.999  1.00  0.00     0.188 A 
ATOM     43  H4  UNL     1     -10.713  15.993  16.446  1.00  0.00     0.167 HD
BRANCH  39  44
HETATM   44  N1  UNL     1      -8.777  14.048  15.548  1.00  0.00    -0.375 N 
ATOM     45  H1  UNL     1      -8.607  14.764  16.254  1.00  0.00     0.161 HD
BRANCH  44  46
HETATM   46  C2  UNL     1      -8.276  12.727  15.797  1.00  0.00     0.116 C 
HETATM   47  C1  UNL     1      -6.769  12.756  15.784  1.00  0.00     0.026 C 
ENDBRANCH  44  46
ENDBRANCH  39  44
ENDBRANCH   1  32
BRANCH   5  48
HETATM   48  O6  UNL     1     -15.114  18.569  13.175  1.00  0.00    -0.388 OA
ATOM     49  H6  UNL     1     -15.353  19.483  13.070  1.00  0.00     0.210 HD
ENDBRANCH   5  48
TORSDOF 12
ENDMDL
