MODEL 8
REMARK VINA RESULT: -8.694434667      6.913     10.799
REMARK  13 active torsions:
REMARK  status: ('A' for Active; 'I' for Inactive)
REMARK    1  A    between atoms: C2_2  and  C3_3 
REMARK    2  A    between atoms: C3_3  and  N1_4 
REMARK    3  A    between atoms: N1_4  and  C4_6 
REMARK    4  A    between atoms: N5_17  and  C9_18 
REMARK    5  A    between atoms: C10_20  and  C11_21 
REMARK    6  A    between atoms: C12_22  and  C13_23 
REMARK    7  A    between atoms: C13_23  and  N6_24 
REMARK       I    between atoms: N6_24  and  C14_26 
REMARK    8  A    between atoms: C14_26  and  C15_28 
REMARK    9  A    between atoms: C17_30  and  C18_31 
REMARK   10  A    between atoms: C25_39  and  O3_40 
REMARK   11  A    between atoms: C26_42  and  O4_43 
REMARK   12  A    between atoms: C27_45  and  O5_46 
REMARK   13  A    between atoms: C28_48  and  O6_49 
ROOT
HETATM    1  C9  UNL     1      -9.067  20.103 -31.174  1.00  0.00     0.262 C 
HETATM    2  O1  UNL     1      -9.926  19.038 -31.217  1.00  0.00    -0.352 OA
HETATM    3  C10 UNL     1     -10.962  19.367 -32.048  1.00  0.00     0.178 C 
HETATM    4  C27 UNL     1     -10.553  20.507 -32.928  1.00  0.00     0.183 C 
HETATM    5  C28 UNL     1      -9.068  20.611 -32.599  1.00  0.00     0.199 C 
ENDROOT
BRANCH   3   6
HETATM    6  C11 UNL     1     -11.357  18.217 -32.936  1.00  0.00     0.005 C 
HETATM    7  C12 UNL     1     -10.692  17.078 -32.920  1.00  0.00    -0.009 C 
BRANCH   7   8
HETATM    8  C13 UNL     1     -11.054  15.949 -33.767  1.00  0.00     0.150 C 
BRANCH   8   9
HETATM    9  N6  UNL     1     -10.065  14.874 -33.636  1.00  0.00    -0.353 N 
HETATM   10  C14 UNL     1     -10.491  13.541 -33.775  1.00  0.00     0.254 C 
HETATM   11  O2  UNL     1     -11.743  13.362 -33.999  1.00  0.00    -0.268 OA
ATOM     12  H6  UNL     1      -9.085  15.089 -33.449  1.00  0.00     0.163 HD
BRANCH  10  13
HETATM   13  C15 UNL     1      -9.623  12.388 -33.679  1.00  0.00     0.068 A 
HETATM   14  C16 UNL     1      -8.408  12.421 -34.365  1.00  0.00     0.032 A 
HETATM   15  C17 UNL     1      -7.502  11.415 -34.368  1.00  0.00    -0.022 A 
HETATM   16  C24 UNL     1      -7.801  10.266 -33.638  1.00  0.00     0.051 A 
HETATM   17  C25 UNL     1      -8.991  10.203 -32.950  1.00  0.00     0.100 A 
HETATM   18  C26 UNL     1      -9.920  11.262 -32.959  1.00  0.00     0.114 A 
BRANCH  15  19
HETATM   19  C18 UNL     1      -6.236  11.465 -35.092  1.00  0.00    -0.026 A 
HETATM   20  C19 UNL     1      -5.038  11.112 -34.531  1.00  0.00     0.015 A 
HETATM   21  C20 UNL     1      -3.850  11.167 -35.230  1.00  0.00     0.043 A 
HETATM   22  C21 UNL     1      -3.852  11.591 -36.548  1.00  0.00     0.116 A 
HETATM   23  F1  UNL     1      -2.695  11.641 -37.221  1.00  0.00    -0.206 F 
HETATM   24  C22 UNL     1      -5.056  11.950 -37.128  1.00  0.00     0.043 A 
HETATM   25  C23 UNL     1      -6.231  11.887 -36.410  1.00  0.00     0.015 A 
ENDBRANCH  15  19
BRANCH  17  26
HETATM   26  O3  UNL     1      -9.334   9.084 -32.209  1.00  0.00    -0.358 OA
ATOM     27  H3  UNL     1     -10.157   8.631 -32.352  1.00  0.00     0.217 HD
ENDBRANCH  17  26
BRANCH  18  28
HETATM   28  O4  UNL     1     -11.097  11.134 -32.247  1.00  0.00    -0.357 OA
ATOM     29  H4  UNL     1     -11.477  10.286 -32.047  1.00  0.00     0.217 HD
ENDBRANCH  18  28
ENDBRANCH  10  13
ENDBRANCH   8   9
ENDBRANCH   7   8
ENDBRANCH   3   6
BRANCH   4  30
HETATM   30  O5  UNL     1     -11.145  21.696 -32.509  1.00  0.00    -0.390 OA
ATOM     31  H5  UNL     1     -11.002  22.388 -33.145  1.00  0.00     0.210 HD
ENDBRANCH   4  30
BRANCH   1  32
HETATM   32  N5  UNL     1      -7.734  19.710 -30.752  1.00  0.00    -0.297 N 
HETATM   33  C6  UNL     1      -6.936  20.462 -29.977  1.00  0.00     0.142 A 
HETATM   34  N3  UNL     1      -7.039  21.651 -29.395  1.00  0.00    -0.336 N 
HETATM   35  C7  UNL     1      -5.738  19.768 -29.776  1.00  0.00     0.122 A 
HETATM   36  C5  UNL     1      -6.041  22.169 -28.649  1.00  0.00     0.183 A 
ATOM     37  H3  UNL     1      -7.898  22.188 -29.516  1.00  0.00     0.168 HD
HETATM   38  N2  UNL     1      -4.878  21.481 -28.463  1.00  0.00    -0.337 N 
HETATM   39  C4  UNL     1      -4.705  20.275 -29.019  1.00  0.00     0.133 A 
ATOM     40  H2  UNL     1      -4.134  21.889 -27.897  1.00  0.00     0.168 HD
HETATM   41  N4  UNL     1      -5.841  18.620 -30.433  1.00  0.00    -0.346 N 
HETATM   42  C8  UNL     1      -7.052  18.591 -31.021  1.00  0.00     0.188 A 
ATOM     43  H4  UNL     1      -5.131  17.890 -30.483  1.00  0.00     0.167 HD
BRANCH  39  44
HETATM   44  N1  UNL     1      -3.493  19.563 -28.816  1.00  0.00    -0.374 N 
ATOM     45  H1  UNL     1      -3.519  18.548 -28.906  1.00  0.00     0.161 HD
BRANCH  44  46
HETATM   46  C3  UNL     1      -2.242  20.168 -28.495  1.00  0.00     0.121 C 
BRANCH  46  47
HETATM   47  C2  UNL     1      -1.174  19.123 -28.426  1.00  0.00     0.015 C 
HETATM   48  C1  UNL     1      -1.322  18.432 -27.066  1.00  0.00     0.006 C 
ENDBRANCH  46  47
ENDBRANCH  44  46
ENDBRANCH  39  44
ENDBRANCH   1  32
BRANCH   5  49
HETATM   49  O6  UNL     1      -8.594  21.893 -32.732  1.00  0.00    -0.388 OA
ATOM     50  H6  UNL     1      -7.876  21.975 -33.348  1.00  0.00     0.210 HD
ENDBRANCH   5  49
TORSDOF 13
ENDMDL
