MODEL 7
REMARK VINA RESULT: -8.749705411      1.210      2.263
REMARK  13 active torsions:
REMARK  status: ('A' for Active; 'I' for Inactive)
REMARK    1  A    between atoms: C2_2  and  C3_3 
REMARK    2  A    between atoms: C3_3  and  N1_4 
REMARK    3  A    between atoms: N1_4  and  C4_6 
REMARK    4  A    between atoms: N5_17  and  C9_18 
REMARK    5  A    between atoms: C10_20  and  C11_21 
REMARK    6  A    between atoms: C12_22  and  C13_23 
REMARK    7  A    between atoms: C13_23  and  N6_24 
REMARK       I    between atoms: N6_24  and  C14_26 
REMARK    8  A    between atoms: C14_26  and  C15_28 
REMARK    9  A    between atoms: C17_30  and  C18_31 
REMARK   10  A    between atoms: C25_39  and  O3_40 
REMARK   11  A    between atoms: C26_42  and  O4_43 
REMARK   12  A    between atoms: C27_45  and  O5_46 
REMARK   13  A    between atoms: C28_48  and  O6_49 
ROOT
HETATM    1  C9  UNL     1     -18.265  12.967 -32.436  1.00  0.00     0.262 C 
HETATM    2  O1  UNL     1     -16.946  12.719 -32.171  1.00  0.00    -0.352 OA
HETATM    3  C10 UNL     1     -16.467  11.897 -33.153  1.00  0.00     0.178 C 
HETATM    4  C27 UNL     1     -17.372  11.962 -34.344  1.00  0.00     0.183 C 
HETATM    5  C28 UNL     1     -18.300  13.104 -33.942  1.00  0.00     0.199 C 
ENDROOT
BRANCH   3   6
HETATM    6  C11 UNL     1     -15.087  12.301 -33.601  1.00  0.00     0.005 C 
HETATM    7  C12 UNL     1     -14.374  13.175 -32.920  1.00  0.00    -0.009 C 
BRANCH   7   8
HETATM    8  C13 UNL     1     -13.035  13.582 -33.329  1.00  0.00     0.150 C 
BRANCH   8   9
HETATM    9  N6  UNL     1     -12.099  12.461 -33.202  1.00  0.00    -0.353 N 
HETATM   10  C14 UNL     1     -10.744  12.672 -33.514  1.00  0.00     0.254 C 
HETATM   11  O2  UNL     1     -10.425  13.853 -33.906  1.00  0.00    -0.268 OA
ATOM     12  H6  UNL     1     -12.424  11.545 -32.892  1.00  0.00     0.163 HD
BRANCH  10  13
HETATM   13  C15 UNL     1      -9.715  11.660 -33.425  1.00  0.00     0.068 A 
HETATM   14  C16 UNL     1      -8.551  11.837 -34.175  1.00  0.00     0.032 A 
HETATM   15  C17 UNL     1      -7.510  10.971 -34.192  1.00  0.00    -0.022 A 
HETATM   16  C24 UNL     1      -7.605   9.822 -33.408  1.00  0.00     0.051 A 
HETATM   17  C25 UNL     1      -8.740   9.619 -32.657  1.00  0.00     0.100 A 
HETATM   18  C26 UNL     1      -9.811  10.533 -32.653  1.00  0.00     0.114 A 
BRANCH  15  19
HETATM   19  C18 UNL     1      -6.301  11.171 -34.983  1.00  0.00    -0.026 A 
HETATM   20  C19 UNL     1      -5.070  10.707 -34.601  1.00  0.00     0.015 A 
HETATM   21  C20 UNL     1      -3.937  10.907 -35.361  1.00  0.00     0.043 A 
HETATM   22  C21 UNL     1      -4.030  11.599 -36.557  1.00  0.00     0.116 A 
HETATM   23  F1  UNL     1      -2.924  11.788 -37.290  1.00  0.00    -0.206 F 
HETATM   24  C22 UNL     1      -5.266  12.073 -36.956  1.00  0.00     0.043 A 
HETATM   25  C23 UNL     1      -6.386  11.862 -36.180  1.00  0.00     0.015 A 
ENDBRANCH  15  19
BRANCH  17  26
HETATM   26  O3  UNL     1      -8.881   8.494 -31.860  1.00  0.00    -0.358 OA
ATOM     27  H3  UNL     1      -8.309   8.342 -31.116  1.00  0.00     0.217 HD
ENDBRANCH  17  26
BRANCH  18  28
HETATM   28  O4  UNL     1     -10.921  10.268 -31.875  1.00  0.00    -0.357 OA
ATOM     29  H4  UNL     1     -11.766  10.669 -32.046  1.00  0.00     0.217 HD
ENDBRANCH  18  28
ENDBRANCH  10  13
ENDBRANCH   8   9
ENDBRANCH   7   8
ENDBRANCH   3   6
BRANCH   4  30
HETATM   30  O5  UNL     1     -18.158  10.816 -34.436  1.00  0.00    -0.390 OA
ATOM     31  H5  UNL     1     -19.067  11.011 -34.239  1.00  0.00     0.210 HD
ENDBRANCH   4  30
BRANCH   1  32
HETATM   32  N5  UNL     1     -18.733  14.177 -31.782  1.00  0.00    -0.297 N 
HETATM   33  C6  UNL     1     -19.822  14.239 -30.999  1.00  0.00     0.142 A 
HETATM   34  N3  UNL     1     -20.736  13.367 -30.589  1.00  0.00    -0.336 N 
HETATM   35  C7  UNL     1     -19.964  15.555 -30.546  1.00  0.00     0.122 A 
HETATM   36  C5  UNL     1     -21.752  13.727 -29.777  1.00  0.00     0.183 A 
ATOM     37  H3  UNL     1     -20.667  12.396 -30.897  1.00  0.00     0.168 HD
HETATM   38  N2  UNL     1     -21.877  15.014 -29.344  1.00  0.00    -0.337 N 
HETATM   39  C4  UNL     1     -20.991  15.947 -29.717  1.00  0.00     0.133 A 
ATOM     40  H2  UNL     1     -22.652  15.268 -28.731  1.00  0.00     0.168 HD
HETATM   41  N4  UNL     1     -18.962  16.252 -31.065  1.00  0.00    -0.346 N 
HETATM   42  C8  UNL     1     -18.221  15.413 -31.812  1.00  0.00     0.188 A 
ATOM     43  H4  UNL     1     -18.785  17.246 -30.923  1.00  0.00     0.167 HD
BRANCH  39  44
HETATM   44  N1  UNL     1     -21.126  17.283 -29.257  1.00  0.00    -0.374 N 
ATOM     45  H1  UNL     1     -21.453  17.424 -28.301  1.00  0.00     0.161 HD
BRANCH  44  46
HETATM   46  C3  UNL     1     -20.839  18.442 -30.036  1.00  0.00     0.121 C 
BRANCH  46  47
HETATM   47  C2  UNL     1     -19.570  19.076 -29.559  1.00  0.00     0.015 C 
HETATM   48  C1  UNL     1     -19.348  20.321 -30.426  1.00  0.00     0.006 C 
ENDBRANCH  46  47
ENDBRANCH  44  46
ENDBRANCH  39  44
ENDBRANCH   1  32
BRANCH   5  49
HETATM   49  O6  UNL     1     -19.555  12.970 -34.483  1.00  0.00    -0.388 OA
ATOM     50  H6  UNL     1     -19.767  13.632 -35.130  1.00  0.00     0.210 HD
ENDBRANCH   5  49
TORSDOF 13
ENDMDL
