MODEL 6
REMARK VINA RESULT: -8.805832023      5.302      8.948
REMARK  13 active torsions:
REMARK  status: ('A' for Active; 'I' for Inactive)
REMARK    1  A    between atoms: C2_2  and  C3_3 
REMARK    2  A    between atoms: C3_3  and  N1_4 
REMARK    3  A    between atoms: N1_4  and  C4_6 
REMARK    4  A    between atoms: N5_17  and  C9_18 
REMARK    5  A    between atoms: C10_20  and  C11_21 
REMARK    6  A    between atoms: C12_22  and  C13_23 
REMARK    7  A    between atoms: C13_23  and  N6_24 
REMARK       I    between atoms: N6_24  and  C14_26 
REMARK    8  A    between atoms: C14_26  and  C15_28 
REMARK    9  A    between atoms: C17_30  and  C18_31 
REMARK   10  A    between atoms: C25_39  and  O3_40 
REMARK   11  A    between atoms: C26_42  and  O4_43 
REMARK   12  A    between atoms: C27_45  and  O5_46 
REMARK   13  A    between atoms: C28_48  and  O6_49 
ROOT
HETATM    1  C9  UNL     1     -11.075  19.176 -33.989  1.00  0.00     0.262 C 
HETATM    2  O1  UNL     1     -10.335  18.248 -34.671  1.00  0.00    -0.352 OA
HETATM    3  C10 UNL     1      -9.428  17.711 -33.800  1.00  0.00     0.178 C 
HETATM    4  C27 UNL     1      -9.875  17.966 -32.394  1.00  0.00     0.183 C 
HETATM    5  C28 UNL     1     -11.268  18.539 -32.631  1.00  0.00     0.199 C 
ENDROOT
BRANCH   3   6
HETATM    6  C11 UNL     1      -9.293  16.221 -33.977  1.00  0.00     0.005 C 
HETATM    7  C12 UNL     1     -10.056  15.379 -33.307  1.00  0.00    -0.009 C 
BRANCH   7   8
HETATM    8  C13 UNL     1      -9.949  13.934 -33.461  1.00  0.00     0.150 C 
BRANCH   8   9
HETATM    9  N6  UNL     1     -11.281  13.321 -33.479  1.00  0.00    -0.353 N 
HETATM   10  C14 UNL     1     -11.458  12.068 -32.867  1.00  0.00     0.254 C 
HETATM   11  O2  UNL     1     -10.414  11.539 -32.336  1.00  0.00    -0.268 OA
ATOM     12  H6  UNL     1     -12.065  13.796 -33.928  1.00  0.00     0.163 HD
BRANCH  10  13
HETATM   13  C15 UNL     1     -12.715  11.356 -32.804  1.00  0.00     0.068 A 
HETATM   14  C16 UNL     1     -13.882  12.053 -33.121  1.00  0.00     0.032 A 
HETATM   15  C17 UNL     1     -15.125  11.516 -33.101  1.00  0.00    -0.022 A 
HETATM   16  C24 UNL     1     -15.251  10.177 -32.737  1.00  0.00     0.051 A 
HETATM   17  C25 UNL     1     -14.119   9.463 -32.418  1.00  0.00     0.100 A 
HETATM   18  C26 UNL     1     -12.835  10.040 -32.446  1.00  0.00     0.114 A 
BRANCH  15  19
HETATM   19  C18 UNL     1     -16.335  12.260 -33.436  1.00  0.00    -0.026 A 
HETATM   20  C19 UNL     1     -16.685  13.436 -32.827  1.00  0.00     0.015 A 
HETATM   21  C20 UNL     1     -17.834  14.124 -33.155  1.00  0.00     0.043 A 
HETATM   22  C21 UNL     1     -18.675  13.622 -34.134  1.00  0.00     0.116 A 
HETATM   23  F1  UNL     1     -19.789  14.296 -34.448  1.00  0.00    -0.206 F 
HETATM   24  C22 UNL     1     -18.334  12.435 -34.758  1.00  0.00     0.043 A 
HETATM   25  C23 UNL     1     -17.181  11.764 -34.414  1.00  0.00     0.015 A 
ENDBRANCH  15  19
BRANCH  17  26
HETATM   26  O3  UNL     1     -14.192   8.128 -32.051  1.00  0.00    -0.358 OA
ATOM     27  H3  UNL     1     -13.428   7.564 -32.092  1.00  0.00     0.217 HD
ENDBRANCH  17  26
BRANCH  18  28
HETATM   28  O4  UNL     1     -11.740   9.266 -32.114  1.00  0.00    -0.357 OA
ATOM     29  H4  UNL     1     -11.766   8.628 -31.410  1.00  0.00     0.217 HD
ENDBRANCH  18  28
ENDBRANCH  10  13
ENDBRANCH   8   9
ENDBRANCH   7   8
ENDBRANCH   3   6
BRANCH   4  30
HETATM   30  O5  UNL     1      -9.117  18.977 -31.806  1.00  0.00    -0.390 OA
ATOM     31  H5  UNL     1      -9.671  19.585 -31.332  1.00  0.00     0.210 HD
ENDBRANCH   4  30
BRANCH   1  32
HETATM   32  N5  UNL     1     -12.348  19.440 -34.637  1.00  0.00    -0.297 N 
HETATM   33  C6  UNL     1     -13.260  20.314 -34.181  1.00  0.00     0.142 A 
HETATM   34  N3  UNL     1     -13.337  21.135 -33.141  1.00  0.00    -0.336 N 
HETATM   35  C7  UNL     1     -14.352  20.304 -35.055  1.00  0.00     0.122 A 
HETATM   36  C5  UNL     1     -14.413  21.922 -32.931  1.00  0.00     0.183 A 
ATOM     37  H3  UNL     1     -12.560  21.171 -32.481  1.00  0.00     0.168 HD
HETATM   38  N2  UNL     1     -15.471  21.902 -33.792  1.00  0.00    -0.337 N 
HETATM   39  C4  UNL     1     -15.461  21.098 -34.864  1.00  0.00     0.133 A 
ATOM     40  H2  UNL     1     -16.276  22.503 -33.618  1.00  0.00     0.168 HD
HETATM   41  N4  UNL     1     -14.075  19.429 -36.012  1.00  0.00    -0.346 N 
HETATM   42  C8  UNL     1     -12.860  18.909 -35.753  1.00  0.00     0.188 A 
ATOM     43  H4  UNL     1     -14.674  19.192 -36.802  1.00  0.00     0.167 HD
BRANCH  39  44
HETATM   44  N1  UNL     1     -16.565  21.087 -35.757  1.00  0.00    -0.374 N 
ATOM     45  H1  UNL     1     -16.372  20.931 -36.746  1.00  0.00     0.161 HD
BRANCH  44  46
HETATM   46  C3  UNL     1     -17.924  21.280 -35.370  1.00  0.00     0.121 C 
BRANCH  46  47
HETATM   47  C2  UNL     1     -18.834  20.616 -36.354  1.00  0.00     0.015 C 
HETATM   48  C1  UNL     1     -17.982  19.601 -37.125  1.00  0.00     0.006 C 
ENDBRANCH  46  47
ENDBRANCH  44  46
ENDBRANCH  39  44
ENDBRANCH   1  32
BRANCH   5  49
HETATM   49  O6  UNL     1     -11.640  19.425 -31.650  1.00  0.00    -0.388 OA
ATOM     50  H6  UNL     1     -11.677  20.328 -31.941  1.00  0.00     0.210 HD
ENDBRANCH   5  49
TORSDOF 13
ENDMDL
