MODEL 2
REMARK VINA RESULT: -10.393703396      3.147      4.405
REMARK  13 active torsions:
REMARK  status: ('A' for Active; 'I' for Inactive)
REMARK    1  A    between atoms: C2_2  and  C3_3 
REMARK    2  A    between atoms: C3_3  and  N1_4 
REMARK    3  A    between atoms: N1_4  and  C4_6 
REMARK    4  A    between atoms: N5_17  and  C9_18 
REMARK    5  A    between atoms: C10_20  and  C11_21 
REMARK    6  A    between atoms: C12_22  and  C13_23 
REMARK    7  A    between atoms: C13_23  and  N6_24 
REMARK       I    between atoms: N6_24  and  C14_26 
REMARK    8  A    between atoms: C14_26  and  C15_28 
REMARK    9  A    between atoms: C17_30  and  C18_31 
REMARK   10  A    between atoms: C25_39  and  O3_40 
REMARK   11  A    between atoms: C26_42  and  O4_43 
REMARK   12  A    between atoms: C27_45  and  O5_46 
REMARK   13  A    between atoms: C28_48  and  O6_49 
ROOT
HETATM    1  C9  UNL     1     -18.704  12.852 -32.830  1.00  0.00     0.262 C 
HETATM    2  O1  UNL     1     -17.839  12.006 -32.190  1.00  0.00    -0.352 OA
HETATM    3  C10 UNL     1     -17.335  11.138 -33.120  1.00  0.00     0.178 C 
HETATM    4  C27 UNL     1     -17.530  11.707 -34.491  1.00  0.00     0.183 C 
HETATM    5  C28 UNL     1     -18.025  13.111 -34.156  1.00  0.00     0.199 C 
ENDROOT
BRANCH   3   6
HETATM    6  C11 UNL     1     -15.861  10.899 -32.926  1.00  0.00     0.005 C 
HETATM    7  C12 UNL     1     -15.024  11.899 -32.732  1.00  0.00    -0.009 C 
BRANCH   7   8
HETATM    8  C13 UNL     1     -13.594  11.697 -32.539  1.00  0.00     0.150 C 
BRANCH   8   9
HETATM    9  N6  UNL     1     -12.840  12.842 -33.058  1.00  0.00    -0.353 N 
HETATM   10  C14 UNL     1     -11.447  12.723 -33.212  1.00  0.00     0.254 C 
HETATM   11  O2  UNL     1     -10.929  11.599 -32.869  1.00  0.00    -0.268 OA
ATOM     12  H6  UNL     1     -13.317  13.710 -33.303  1.00  0.00     0.163 HD
BRANCH  10  13
HETATM   13  C15 UNL     1     -10.586  13.768 -33.719  1.00  0.00     0.068 A 
HETATM   14  C16 UNL     1     -10.708  15.045 -33.170  1.00  0.00     0.032 A 
HETATM   15  C17 UNL     1      -9.972  16.117 -33.549  1.00  0.00    -0.022 A 
HETATM   16  C24 UNL     1      -9.027  15.935 -34.558  1.00  0.00     0.051 A 
HETATM   17  C25 UNL     1      -8.883  14.687 -35.119  1.00  0.00     0.100 A 
HETATM   18  C26 UNL     1      -9.658  13.585 -34.709  1.00  0.00     0.114 A 
BRANCH  15  19
HETATM   19  C18 UNL     1     -10.113  17.447 -32.965  1.00  0.00    -0.026 A 
HETATM   20  C19 UNL     1     -11.316  18.093 -32.855  1.00  0.00     0.015 A 
HETATM   21  C20 UNL     1     -11.430  19.351 -32.302  1.00  0.00     0.043 A 
HETATM   22  C21 UNL     1     -10.298  19.997 -31.834  1.00  0.00     0.116 A 
HETATM   23  F1  UNL     1     -10.417  21.218 -31.297  1.00  0.00    -0.206 F 
HETATM   24  C22 UNL     1      -9.077  19.356 -31.937  1.00  0.00     0.043 A 
HETATM   25  C23 UNL     1      -8.986  18.098 -32.495  1.00  0.00     0.015 A 
ENDBRANCH  15  19
BRANCH  17  26
HETATM   26  O3  UNL     1      -7.957  14.455 -36.124  1.00  0.00    -0.358 OA
ATOM     27  H3  UNL     1      -7.940  13.630 -36.597  1.00  0.00     0.217 HD
ENDBRANCH  17  26
BRANCH  18  28
HETATM   28  O4  UNL     1      -9.462  12.359 -35.315  1.00  0.00    -0.357 OA
ATOM     29  H4  UNL     1      -8.818  12.232 -36.002  1.00  0.00     0.217 HD
ENDBRANCH  18  28
ENDBRANCH  10  13
ENDBRANCH   8   9
ENDBRANCH   7   8
ENDBRANCH   3   6
BRANCH   4  30
HETATM   30  O5  UNL     1     -18.569  11.060 -35.156  1.00  0.00    -0.390 OA
ATOM     31  H5  UNL     1     -19.119  10.584 -34.544  1.00  0.00     0.210 HD
ENDBRANCH   4  30
BRANCH   1  32
HETATM   32  N5  UNL     1     -18.907  14.085 -32.089  1.00  0.00    -0.297 N 
HETATM   33  C6  UNL     1     -19.883  14.271 -31.186  1.00  0.00     0.142 A 
HETATM   34  N3  UNL     1     -20.871  13.527 -30.704  1.00  0.00    -0.336 N 
HETATM   35  C7  UNL     1     -19.771  15.569 -30.678  1.00  0.00     0.122 A 
HETATM   36  C5  UNL     1     -21.727  13.995 -29.771  1.00  0.00     0.183 A 
ATOM     37  H3  UNL     1     -20.987  12.573 -31.049  1.00  0.00     0.168 HD
HETATM   38  N2  UNL     1     -21.605  15.263 -29.285  1.00  0.00    -0.337 N 
HETATM   39  C4  UNL     1     -20.630  16.070 -29.726  1.00  0.00     0.133 A 
ATOM     40  H2  UNL     1     -22.261  15.600 -28.581  1.00  0.00     0.168 HD
HETATM   41  N4  UNL     1     -18.734  16.133 -31.283  1.00  0.00    -0.346 N 
HETATM   42  C8  UNL     1     -18.215  15.230 -32.136  1.00  0.00     0.188 A 
ATOM     43  H4  UNL     1     -18.391  17.081 -31.131  1.00  0.00     0.167 HD
BRANCH  39  44
HETATM   44  N1  UNL     1     -20.508  17.387 -29.210  1.00  0.00    -0.374 N 
ATOM     45  H1  UNL     1     -20.296  17.489 -28.218  1.00  0.00     0.161 HD
BRANCH  44  46
HETATM   46  C3  UNL     1     -20.659  18.577 -29.981  1.00  0.00     0.121 C 
BRANCH  46  47
HETATM   47  C2  UNL     1     -19.377  19.347 -29.987  1.00  0.00     0.015 C 
HETATM   48  C1  UNL     1     -19.731  20.787 -30.380  1.00  0.00     0.006 C 
ENDBRANCH  46  47
ENDBRANCH  44  46
ENDBRANCH  39  44
ENDBRANCH   1  32
BRANCH   5  49
HETATM   49  O6  UNL     1     -18.863  13.611 -35.122  1.00  0.00    -0.388 OA
ATOM     50  H6  UNL     1     -19.756  13.740 -34.826  1.00  0.00     0.210 HD
ENDBRANCH   5  49
TORSDOF 13
ENDMDL
