MODEL 2
REMARK VINA RESULT: -9.861244910      1.265      1.776
REMARK  5 active torsions:
REMARK  status: ('A' for Active; 'I' for Inactive)
REMARK    1  A    between atoms: C3_3  and  C4_4 
REMARK    2  A    between atoms: C5_5  and  C6_6 
REMARK    3  A    between atoms: C8_8  and  C9_9 
REMARK    4  A    between atoms: C10_10  and  C11_11 
REMARK    5  A    between atoms: C13_13  and  C14_14 
ROOT
HETATM    1  C4  UNL     1       2.229   3.027  14.264  1.00  0.00     0.009 C 
HETATM    2  C5  UNL     1       2.676   3.415  13.095  1.00  0.00     0.007 C 
ENDROOT
BRANCH   2   3
HETATM    3  C6  UNL     1       3.962   4.115  12.964  1.00  0.00    -0.062 C 
HETATM    4  C7  UNL     1       5.283   3.467  13.033  1.00  0.00     0.048 C 
HETATM    5  C8  UNL     1       3.916   5.422  12.769  1.00  0.00     0.007 C 
BRANCH   5   6
HETATM    6  C9  UNL     1       5.150   6.183  12.631  1.00  0.00     0.001 C 
HETATM    7  C10 UNL     1       5.223   7.439  13.001  1.00  0.00     0.007 C 
BRANCH   7   8
HETATM    8  C11 UNL     1       6.414   8.235  12.887  1.00  0.00    -0.059 C 
HETATM    9  C12 UNL     1       6.478   9.629  13.322  1.00  0.00     0.048 C 
HETATM   10  C13 UNL     1       7.487   7.658  12.359  1.00  0.00     0.048 C 
BRANCH  10  11
HETATM   11  C14 UNL     1       8.769   8.320  12.174  1.00  0.00     0.259 C 
HETATM   12  O1  UNL     1       9.232   8.406  11.010  1.00  0.00    -0.302 OA
ENDBRANCH  10  11
ENDBRANCH   7   8
ENDBRANCH   5   6
ENDBRANCH   2   3
BRANCH   1  13
HETATM   13  C3  UNL     1       0.942   2.325  14.416  1.00  0.00    -0.048 C 
HETATM   14  C2  UNL     1       0.946   1.055  14.005  1.00  0.00    -0.077 C 
HETATM   15  C1  UNL     1       2.178   0.420  13.441  1.00  0.00     0.044 C 
HETATM   16  C20 UNL     1      -0.270   0.216  14.059  1.00  0.00     0.034 C 
HETATM   17  C19 UNL     1      -1.505   1.116  14.036  1.00  0.00     0.005 C 
HETATM   18  C18 UNL     1      -1.413   2.117  15.140  1.00  0.00     0.014 C 
HETATM   19  C15 UNL     1      -0.196   3.026  14.998  1.00  0.00    -0.020 C 
HETATM   20  C16 UNL     1       0.134   3.496  16.415  1.00  0.00     0.020 C 
HETATM   21  C17 UNL     1      -0.649   4.236  14.206  1.00  0.00     0.020 C 
ENDBRANCH   1  13
TORSDOF 5
ENDMDL
