MODEL 3
REMARK VINA RESULT: -9.766969592      4.999      7.570
REMARK  5 active torsions:
REMARK  status: ('A' for Active; 'I' for Inactive)
REMARK    1  A    between atoms: C3_3  and  C4_4 
REMARK    2  A    between atoms: C5_5  and  C6_6 
REMARK    3  A    between atoms: C8_8  and  C9_9 
REMARK    4  A    between atoms: C10_10  and  C11_11 
REMARK    5  A    between atoms: C13_13  and  C14_14 
ROOT
HETATM    1  C4  UNL     1       0.465   5.037  13.650  1.00  0.00     0.009 C 
HETATM    2  C5  UNL     1       0.816   6.120  14.300  1.00  0.00     0.007 C 
ENDROOT
BRANCH   2   3
HETATM    3  C6  UNL     1       0.182   7.416  14.019  1.00  0.00    -0.062 C 
HETATM    4  C7  UNL     1       0.501   8.276  12.866  1.00  0.00     0.048 C 
HETATM    5  C8  UNL     1      -0.743   7.829  14.869  1.00  0.00     0.007 C 
BRANCH   5   6
HETATM    6  C9  UNL     1      -1.414   9.103  14.655  1.00  0.00     0.001 C 
HETATM    7  C10 UNL     1      -2.679   9.160  14.313  1.00  0.00     0.007 C 
BRANCH   7   8
HETATM    8  C11 UNL     1      -3.390  10.389  14.091  1.00  0.00    -0.059 C 
HETATM    9  C12 UNL     1      -3.662  11.348  15.159  1.00  0.00     0.048 C 
HETATM   10  C13 UNL     1      -3.807  10.639  12.856  1.00  0.00     0.048 C 
BRANCH  10  11
HETATM   11  C14 UNL     1      -4.537  11.834  12.461  1.00  0.00     0.259 C 
HETATM   12  O1  UNL     1      -3.954  12.676  11.735  1.00  0.00    -0.302 OA
ENDBRANCH  10  11
ENDBRANCH   7   8
ENDBRANCH   5   6
ENDBRANCH   2   3
BRANCH   1  13
HETATM   13  C3  UNL     1       1.090   3.728  13.916  1.00  0.00    -0.048 C 
HETATM   14  C2  UNL     1       2.236   3.515  13.265  1.00  0.00    -0.077 C 
HETATM   15  C1  UNL     1       2.817   4.542  12.346  1.00  0.00     0.044 C 
HETATM   16  C20 UNL     1       2.978   2.242  13.395  1.00  0.00     0.034 C 
HETATM   17  C19 UNL     1       2.010   1.133  13.806  1.00  0.00     0.005 C 
HETATM   18  C18 UNL     1       1.285   1.538  15.047  1.00  0.00     0.014 C 
HETATM   19  C15 UNL     1       0.456   2.803  14.845  1.00  0.00    -0.020 C 
HETATM   20  C16 UNL     1       0.333   3.439  16.232  1.00  0.00     0.020 C 
HETATM   21  C17 UNL     1      -0.928   2.351  14.423  1.00  0.00     0.020 C 
ENDBRANCH   1  13
TORSDOF 5
ENDMDL
