MODEL 1
REMARK VINA RESULT: -10.105792292      0.000      0.000
REMARK  5 active torsions:
REMARK  status: ('A' for Active; 'I' for Inactive)
REMARK    1  A    between atoms: C3_3  and  C4_4 
REMARK    2  A    between atoms: C5_5  and  C6_6 
REMARK    3  A    between atoms: C8_8  and  C9_9 
REMARK    4  A    between atoms: C10_10  and  C11_11 
REMARK    5  A    between atoms: C13_13  and  C14_14 
ROOT
HETATM    1  C4  UNL     1       2.129   3.359  14.161  1.00  0.00     0.009 C 
HETATM    2  C5  UNL     1       2.181   4.316  13.267  1.00  0.00     0.007 C 
ENDROOT
BRANCH   2   3
HETATM    3  C6  UNL     1       3.384   5.146  13.108  1.00  0.00    -0.062 C 
HETATM    4  C7  UNL     1       3.824   6.180  14.060  1.00  0.00     0.048 C 
HETATM    5  C8  UNL     1       4.118   4.939  12.028  1.00  0.00     0.007 C 
BRANCH   5   6
HETATM    6  C9  UNL     1       5.323   5.723  11.803  1.00  0.00     0.001 C 
HETATM    7  C10 UNL     1       6.502   5.154  11.710  1.00  0.00     0.007 C 
BRANCH   7   8
HETATM    8  C11 UNL     1       7.722   5.880  11.488  1.00  0.00    -0.059 C 
HETATM    9  C12 UNL     1       9.032   5.233  11.458  1.00  0.00     0.048 C 
HETATM   10  C13 UNL     1       7.628   7.192  11.307  1.00  0.00     0.048 C 
BRANCH  10  11
HETATM   11  C14 UNL     1       8.763   8.072  11.070  1.00  0.00     0.259 C 
HETATM   12  O1  UNL     1       9.106   8.860  11.985  1.00  0.00    -0.302 OA
ENDBRANCH  10  11
ENDBRANCH   7   8
ENDBRANCH   5   6
ENDBRANCH   2   3
BRANCH   1  13
HETATM   13  C3  UNL     1       0.932   2.517  14.336  1.00  0.00    -0.048 C 
HETATM   14  C2  UNL     1       1.055   1.270  13.879  1.00  0.00    -0.077 C 
HETATM   15  C1  UNL     1       2.322   0.790  13.243  1.00  0.00     0.044 C 
HETATM   16  C20 UNL     1      -0.062   0.302  13.949  1.00  0.00     0.034 C 
HETATM   17  C19 UNL     1      -1.386   1.063  14.007  1.00  0.00     0.005 C 
HETATM   18  C18 UNL     1      -1.354   2.031  15.143  1.00  0.00     0.014 C 
HETATM   19  C15 UNL     1      -0.248   3.071  14.987  1.00  0.00    -0.020 C 
HETATM   20  C16 UNL     1       0.090   3.528  16.407  1.00  0.00     0.020 C 
HETATM   21  C17 UNL     1      -0.862   4.250  14.259  1.00  0.00     0.020 C 
ENDBRANCH   1  13
TORSDOF 5
ENDMDL
