MODEL 1
REMARK VINA RESULT: -7.148168546      0.000      0.000
REMARK  10 active torsions:
REMARK  status: ('A' for Active; 'I' for Inactive)
REMARK    1  A    between atoms: N4_17  and  C9_18 
REMARK    2  A    between atoms: C9_18  and  C10_19 
REMARK    3  A    between atoms: C10_19  and  O3_20 
REMARK    4  A    between atoms: C10_19  and  C11_22 
REMARK    5  A    between atoms: C11_22  and  O4_23 
REMARK    6  A    between atoms: C11_22  and  C12_25 
REMARK    7  A    between atoms: C12_25  and  O5_26 
REMARK    8  A    between atoms: C12_25  and  C13_28 
REMARK    9  A    between atoms: C13_28  and  O6_29 
REMARK   10  A    between atoms: O6_29  and  P1_30 
ROOT
HETATM    1  C1  UNL     1      26.117  11.976  19.199  1.00  0.00     0.049 C 
HETATM    2  C2  UNL     1      26.975  12.980  19.873  1.00  0.00    -0.054 A 
HETATM    3  C3  UNL     1      26.929  13.148  21.240  1.00  0.00     0.039 A 
HETATM    4  C4  UNL     1      27.721  14.079  21.896  1.00  0.00     0.060 A 
HETATM    5  N1  UNL     1      27.637  14.195  23.233  1.00  0.00    -0.347 N 
ATOM      6  H1  UNL     1      26.990  13.600  23.751  1.00  0.00     0.166 HD
HETATM    7  C5  UNL     1      28.393  15.081  23.892  1.00  0.00     0.146 A 
HETATM    8  C6  UNL     1      28.344  15.240  25.282  1.00  0.00     0.280 A 
HETATM    9  O1  UNL     1      27.556  14.517  25.920  1.00  0.00    -0.265 OA
HETATM   10  N2  UNL     1      29.139  16.159  25.883  1.00  0.00    -0.273 N 
ATOM     11  H2  UNL     1      29.106  16.279  26.896  1.00  0.00     0.173 HD
HETATM   12  C7  UNL     1      29.972  16.914  25.145  1.00  0.00     0.328 A 
HETATM   13  O2  UNL     1      30.683  17.748  25.764  1.00  0.00    -0.247 OA
HETATM   14  N3  UNL     1      30.052  16.793  23.787  1.00  0.00    -0.292 N 
ATOM     15  H3  UNL     1      30.699  17.387  23.269  1.00  0.00     0.172 HD
HETATM   16  C8  UNL     1      29.298  15.906  23.120  1.00  0.00     0.145 A 
HETATM   17  N4  UNL     1      29.349  15.754  21.760  1.00  0.00    -0.327 N 
HETATM   18  C14 UNL     1      28.583  14.859  21.116  1.00  0.00     0.063 A 
HETATM   19  C15 UNL     1      28.636  14.697  19.745  1.00  0.00     0.039 A 
HETATM   20  C16 UNL     1      27.835  13.760  19.122  1.00  0.00    -0.054 A 
HETATM   21  C17 UNL     1      27.878  13.572  17.650  1.00  0.00     0.049 C 
ENDROOT
BRANCH  17  22
HETATM   22  C9  UNL     1      30.271  16.602  21.037  1.00  0.00     0.165 C 
BRANCH  22  23
HETATM   23  C10 UNL     1      29.493  17.834  20.554  1.00  0.00     0.167 C 
BRANCH  23  24
HETATM   24  O3  UNL     1      29.459  17.973  19.194  1.00  0.00    -0.391 OA
ATOM     25  H3  UNL     1      28.905  17.338  18.754  1.00  0.00     0.210 HD
ENDBRANCH  23  24
BRANCH  23  26
HETATM   26  C11 UNL     1      29.846  19.071  21.246  1.00  0.00     0.179 C 
BRANCH  26  27
HETATM   27  O4  UNL     1      31.097  18.949  21.855  1.00  0.00    -0.390 OA
ATOM     28  H4  UNL     1      31.514  19.800  21.930  1.00  0.00     0.210 HD
ENDBRANCH  26  27
BRANCH  26  29
HETATM   29  C12 UNL     1      28.918  19.778  22.131  1.00  0.00     0.173 C 
BRANCH  29  30
HETATM   30  O5  UNL     1      29.584  19.786  23.414  1.00  0.00    -0.391 OA
ATOM     31  H5  UNL     1      29.276  20.582  23.833  1.00  0.00     0.210 HD
ENDBRANCH  29  30
BRANCH  29  32
HETATM   32  C13 UNL     1      27.620  19.049  22.463  1.00  0.00     0.217 C 
BRANCH  32  33
HETATM   33  O6  UNL     1      26.661  19.346  21.449  1.00  0.00    -0.280 OA
BRANCH  33  34
HETATM   34  P1  UNL     1      25.789  17.961  21.061  1.00  0.00     0.422 P 
HETATM   35  O7  UNL     1      25.968  16.962  22.156  1.00  0.00    -0.617 OA
HETATM   36  O8  UNL     1      26.304  17.277  19.607  1.00  0.00    -0.617 OA
HETATM   37  O9  UNL     1      24.128  18.291  20.920  1.00  0.00    -0.617 OA
ENDBRANCH  33  34
ENDBRANCH  32  33
ENDBRANCH  29  32
ENDBRANCH  26  29
ENDBRANCH  23  26
ENDBRANCH  22  23
ENDBRANCH  17  22
TORSDOF 10
ENDMDL
