MODEL 4
REMARK VINA RESULT: -6.891066864      2.698      5.374
REMARK  10 active torsions:
REMARK  status: ('A' for Active; 'I' for Inactive)
REMARK    1  A    between atoms: N4_17  and  C9_18 
REMARK    2  A    between atoms: C9_18  and  C10_19 
REMARK    3  A    between atoms: C10_19  and  O3_20 
REMARK    4  A    between atoms: C10_19  and  C11_22 
REMARK    5  A    between atoms: C11_22  and  O4_23 
REMARK    6  A    between atoms: C11_22  and  C12_25 
REMARK    7  A    between atoms: C12_25  and  O5_26 
REMARK    8  A    between atoms: C12_25  and  C13_28 
REMARK    9  A    between atoms: C13_28  and  O6_29 
REMARK   10  A    between atoms: O6_29  and  P1_30 
ROOT
HETATM    1  C1  UNL     1      30.910  10.785  18.005  1.00  0.00     0.049 C 
HETATM    2  C2  UNL     1      30.184  11.592  19.016  1.00  0.00    -0.054 A 
HETATM    3  C3  UNL     1      29.551  12.765  18.663  1.00  0.00     0.039 A 
HETATM    4  C4  UNL     1      28.866  13.538  19.588  1.00  0.00     0.060 A 
HETATM    5  N1  UNL     1      28.262  14.671  19.184  1.00  0.00    -0.347 N 
ATOM      6  H1  UNL     1      28.318  14.951  18.205  1.00  0.00     0.166 HD
HETATM    7  C5  UNL     1      27.589  15.434  20.054  1.00  0.00     0.146 A 
HETATM    8  C6  UNL     1      26.943  16.620  19.685  1.00  0.00     0.280 A 
HETATM    9  O1  UNL     1      27.008  16.968  18.492  1.00  0.00    -0.265 OA
HETATM   10  N2  UNL     1      26.279  17.344  20.621  1.00  0.00    -0.273 N 
ATOM     11  H2  UNL     1      25.808  18.210  20.357  1.00  0.00     0.173 HD
HETATM   12  C7  UNL     1      26.242  16.921  21.897  1.00  0.00     0.328 A 
HETATM   13  O2  UNL     1      25.609  17.639  22.715  1.00  0.00    -0.247 OA
HETATM   14  N3  UNL     1      26.857  15.770  22.300  1.00  0.00    -0.292 N 
ATOM     15  H3  UNL     1      26.801  15.490  23.279  1.00  0.00     0.172 HD
HETATM   16  C8  UNL     1      27.533  15.000  21.434  1.00  0.00     0.145 A 
HETATM   17  N4  UNL     1      28.163  13.841  21.799  1.00  0.00    -0.327 N 
HETATM   18  C14 UNL     1      28.833  13.087  20.913  1.00  0.00     0.063 A 
HETATM   19  C15 UNL     1      29.465  11.913  21.275  1.00  0.00     0.039 A 
HETATM   20  C16 UNL     1      30.140  11.165  20.329  1.00  0.00    -0.054 A 
HETATM   21  C17 UNL     1      30.824   9.901  20.699  1.00  0.00     0.049 C 
ENDROOT
BRANCH  17  22
HETATM   22  C9  UNL     1      28.076  13.453  23.190  1.00  0.00     0.165 C 
BRANCH  22  23
HETATM   23  C10 UNL     1      29.024  14.358  23.988  1.00  0.00     0.167 C 
BRANCH  23  24
HETATM   24  O3  UNL     1      30.315  13.913  24.029  1.00  0.00    -0.391 OA
ATOM     25  H3  UNL     1      30.806  14.217  24.784  1.00  0.00     0.210 HD
ENDBRANCH  23  24
BRANCH  23  26
HETATM   26  C11 UNL     1      28.512  14.748  25.300  1.00  0.00     0.179 C 
BRANCH  26  27
HETATM   27  O4  UNL     1      27.351  14.030  25.602  1.00  0.00    -0.390 OA
ATOM     28  H4  UNL     1      27.527  13.097  25.595  1.00  0.00     0.210 HD
ENDBRANCH  26  27
BRANCH  26  29
HETATM   29  C12 UNL     1      28.367  16.145  25.714  1.00  0.00     0.173 C 
BRANCH  29  30
HETATM   30  O5  UNL     1      27.134  16.575  25.093  1.00  0.00    -0.391 OA
ATOM     31  H5  UNL     1      26.477  16.456  25.769  1.00  0.00     0.210 HD
ENDBRANCH  29  30
BRANCH  29  32
HETATM   32  C13 UNL     1      29.369  17.128  25.118  1.00  0.00     0.217 C 
BRANCH  32  33
HETATM   33  O6  UNL     1      30.565  17.083  25.896  1.00  0.00    -0.280 OA
BRANCH  33  34
HETATM   34  P1  UNL     1      31.907  17.221  24.893  1.00  0.00     0.422 P 
HETATM   35  O7  UNL     1      32.254  18.667  24.754  1.00  0.00    -0.617 OA
HETATM   36  O8  UNL     1      31.618  16.579  23.358  1.00  0.00    -0.617 OA
HETATM   37  O9  UNL     1      33.256  16.420  25.545  1.00  0.00    -0.617 OA
ENDBRANCH  33  34
ENDBRANCH  32  33
ENDBRANCH  29  32
ENDBRANCH  26  29
ENDBRANCH  23  26
ENDBRANCH  22  23
ENDBRANCH  17  22
TORSDOF 10
ENDMDL
