MODEL 3
REMARK VINA RESULT: -6.943412139      2.719      5.527
REMARK  10 active torsions:
REMARK  status: ('A' for Active; 'I' for Inactive)
REMARK    1  A    between atoms: N4_17  and  C9_18 
REMARK    2  A    between atoms: C9_18  and  C10_19 
REMARK    3  A    between atoms: C10_19  and  O3_20 
REMARK    4  A    between atoms: C10_19  and  C11_22 
REMARK    5  A    between atoms: C11_22  and  O4_23 
REMARK    6  A    between atoms: C11_22  and  C12_25 
REMARK    7  A    between atoms: C12_25  and  O5_26 
REMARK    8  A    between atoms: C12_25  and  C13_28 
REMARK    9  A    between atoms: C13_28  and  O6_29 
REMARK   10  A    between atoms: O6_29  and  P1_30 
ROOT
HETATM    1  C1  UNL     1      32.345  16.467  24.812  1.00  0.00     0.049 C 
HETATM    2  C2  UNL     1      31.006  16.388  24.179  1.00  0.00    -0.054 A 
HETATM    3  C3  UNL     1      30.653  15.306  23.403  1.00  0.00     0.039 A 
HETATM    4  C4  UNL     1      29.408  15.208  22.800  1.00  0.00     0.060 A 
HETATM    5  N1  UNL     1      29.116  14.125  22.057  1.00  0.00    -0.347 N 
ATOM      6  H1  UNL     1      29.814  13.391  21.941  1.00  0.00     0.166 HD
HETATM    7  C5  UNL     1      27.921  14.001  21.468  1.00  0.00     0.146 A 
HETATM    8  C6  UNL     1      27.568  12.895  20.685  1.00  0.00     0.280 A 
HETATM    9  O1  UNL     1      28.414  11.995  20.539  1.00  0.00    -0.265 OA
HETATM   10  N2  UNL     1      26.337  12.837  20.118  1.00  0.00    -0.273 N 
ATOM     11  H2  UNL     1      26.076  12.034  19.547  1.00  0.00     0.173 HD
HETATM   12  C7  UNL     1      25.460  13.839  20.309  1.00  0.00     0.328 A 
HETATM   13  O2  UNL     1      24.335  13.723  19.756  1.00  0.00    -0.247 OA
HETATM   14  N3  UNL     1      25.762  14.936  21.065  1.00  0.00    -0.292 N 
ATOM     15  H3  UNL     1      25.064  15.671  21.181  1.00  0.00     0.172 HD
HETATM   16  C8  UNL     1      26.958  15.067  21.658  1.00  0.00     0.145 A 
HETATM   17  N4  UNL     1      27.299  16.150  22.422  1.00  0.00    -0.327 N 
HETATM   18  C14 UNL     1      28.504  16.257  23.006  1.00  0.00     0.063 A 
HETATM   19  C15 UNL     1      28.850  17.345  23.784  1.00  0.00     0.039 A 
HETATM   20  C16 UNL     1      30.099  17.413  24.371  1.00  0.00    -0.054 A 
HETATM   21  C17 UNL     1      30.488  18.574  25.210  1.00  0.00     0.049 C 
ENDROOT
BRANCH  17  22
HETATM   22  C9  UNL     1      26.301  17.185  22.581  1.00  0.00     0.165 C 
BRANCH  22  23
HETATM   23  C10 UNL     1      26.519  18.219  21.468  1.00  0.00     0.167 C 
BRANCH  23  24
HETATM   24  O3  UNL     1      27.149  19.359  21.883  1.00  0.00    -0.391 OA
ATOM     25  H3  UNL     1      27.365  19.960  21.180  1.00  0.00     0.210 HD
ENDBRANCH  23  24
BRANCH  23  26
HETATM   26  C11 UNL     1      25.331  18.485  20.660  1.00  0.00     0.179 C 
BRANCH  26  27
HETATM   27  O4  UNL     1      25.055  17.397  19.827  1.00  0.00    -0.390 OA
ATOM     28  H4  UNL     1      24.542  16.746  20.292  1.00  0.00     0.210 HD
ENDBRANCH  26  27
BRANCH  26  29
HETATM   29  C12 UNL     1      25.127  19.742  19.937  1.00  0.00     0.173 C 
BRANCH  29  30
HETATM   30  O5  UNL     1      23.693  19.919  19.925  1.00  0.00    -0.391 OA
ATOM     31  H5  UNL     1      23.349  19.069  20.172  1.00  0.00     0.210 HD
ENDBRANCH  29  30
BRANCH  29  32
HETATM   32  C13 UNL     1      25.446  19.717  18.446  1.00  0.00     0.217 C 
BRANCH  32  33
HETATM   33  O6  UNL     1      26.863  19.664  18.286  1.00  0.00    -0.280 OA
BRANCH  33  34
HETATM   34  P1  UNL     1      27.277  18.403  17.253  1.00  0.00     0.422 P 
HETATM   35  O7  UNL     1      26.211  18.265  16.217  1.00  0.00    -0.617 OA
HETATM   36  O8  UNL     1      27.433  16.937  18.076  1.00  0.00    -0.617 OA
HETATM   37  O9  UNL     1      28.745  18.708  16.455  1.00  0.00    -0.617 OA
ENDBRANCH  33  34
ENDBRANCH  32  33
ENDBRANCH  29  32
ENDBRANCH  26  29
ENDBRANCH  23  26
ENDBRANCH  22  23
ENDBRANCH  17  22
TORSDOF 10
ENDMDL
