MODEL 2
REMARK VINA RESULT: -6.978963002      5.324      7.694
REMARK  10 active torsions:
REMARK  status: ('A' for Active; 'I' for Inactive)
REMARK    1  A    between atoms: N4_17  and  C9_18 
REMARK    2  A    between atoms: C9_18  and  C10_19 
REMARK    3  A    between atoms: C10_19  and  O3_20 
REMARK    4  A    between atoms: C10_19  and  C11_22 
REMARK    5  A    between atoms: C11_22  and  O4_23 
REMARK    6  A    between atoms: C11_22  and  C12_25 
REMARK    7  A    between atoms: C12_25  and  O5_26 
REMARK    8  A    between atoms: C12_25  and  C13_28 
REMARK    9  A    between atoms: C13_28  and  O6_29 
REMARK   10  A    between atoms: O6_29  and  P1_30 
ROOT
HETATM    1  C1  UNL     1      32.712   8.771  20.005  1.00  0.00     0.049 C 
HETATM    2  C2  UNL     1      31.498   9.555  19.671  1.00  0.00    -0.054 A 
HETATM    3  C3  UNL     1      30.808  10.240  20.647  1.00  0.00     0.039 A 
HETATM    4  C4  UNL     1      29.670  10.981  20.363  1.00  0.00     0.060 A 
HETATM    5  N1  UNL     1      29.040  11.633  21.356  1.00  0.00    -0.347 N 
ATOM      6  H1  UNL     1      29.402  11.574  22.307  1.00  0.00     0.166 HD
HETATM    7  C5  UNL     1      27.943  12.360  21.109  1.00  0.00     0.146 A 
HETATM    8  C6  UNL     1      27.251  13.058  22.106  1.00  0.00     0.280 A 
HETATM    9  O1  UNL     1      27.688  12.990  23.270  1.00  0.00    -0.265 OA
HETATM   10  N2  UNL     1      26.146  13.774  21.783  1.00  0.00    -0.273 N 
ATOM     11  H2  UNL     1      25.638  14.284  22.507  1.00  0.00     0.173 HD
HETATM   12  C7  UNL     1      25.718  13.813  20.508  1.00  0.00     0.328 A 
HETATM   13  O2  UNL     1      24.687  14.497  20.276  1.00  0.00    -0.247 OA
HETATM   14  N3  UNL     1      26.362  13.148  19.505  1.00  0.00    -0.292 N 
ATOM     15  H3  UNL     1      26.000  13.207  18.553  1.00  0.00     0.172 HD
HETATM   16  C8  UNL     1      27.462  12.418  19.745  1.00  0.00     0.145 A 
HETATM   17  N4  UNL     1      28.135  11.737  18.767  1.00  0.00    -0.327 N 
HETATM   18  C14 UNL     1      29.235  11.014  19.032  1.00  0.00     0.063 A 
HETATM   19  C15 UNL     1      29.922  10.330  18.047  1.00  0.00     0.039 A 
HETATM   20  C16 UNL     1      31.052   9.602  18.364  1.00  0.00    -0.054 A 
HETATM   21  C17 UNL     1      31.803   8.861  17.319  1.00  0.00     0.049 C 
ENDROOT
BRANCH  17  22
HETATM   22  C9  UNL     1      27.613  11.830  17.421  1.00  0.00     0.165 C 
BRANCH  22  23
HETATM   23  C10 UNL     1      26.379  10.921  17.334  1.00  0.00     0.167 C 
BRANCH  23  24
HETATM   24  O3  UNL     1      26.655   9.646  16.925  1.00  0.00    -0.391 OA
ATOM     25  H3  UNL     1      26.153   8.978  17.377  1.00  0.00     0.210 HD
ENDBRANCH  23  24
BRANCH  23  26
HETATM   26  C11 UNL     1      25.249  11.517  16.625  1.00  0.00     0.179 C 
BRANCH  26  27
HETATM   27  O4  UNL     1      24.305  12.001  17.534  1.00  0.00    -0.390 OA
ATOM     28  H4  UNL     1      23.822  12.727  17.155  1.00  0.00     0.210 HD
ENDBRANCH  26  27
BRANCH  26  29
HETATM   29  C12 UNL     1      24.580  10.858  15.502  1.00  0.00     0.173 C 
BRANCH  29  30
HETATM   30  O5  UNL     1      25.573  10.843  14.452  1.00  0.00    -0.391 OA
ATOM     31  H5  UNL     1      25.260  11.482  13.823  1.00  0.00     0.210 HD
ENDBRANCH  29  30
BRANCH  29  32
HETATM   32  C13 UNL     1      23.449  11.640  14.842  1.00  0.00     0.217 C 
BRANCH  32  33
HETATM   33  O6  UNL     1      22.206  11.055  15.230  1.00  0.00    -0.280 OA
BRANCH  33  34
HETATM   34  P1  UNL     1      21.147  12.252  15.754  1.00  0.00     0.422 P 
HETATM   35  O7  UNL     1      21.945  13.403  16.270  1.00  0.00    -0.617 OA
HETATM   36  O8  UNL     1      20.126  11.701  16.979  1.00  0.00    -0.617 OA
HETATM   37  O9  UNL     1      20.172  12.819  14.483  1.00  0.00    -0.617 OA
ENDBRANCH  33  34
ENDBRANCH  32  33
ENDBRANCH  29  32
ENDBRANCH  26  29
ENDBRANCH  23  26
ENDBRANCH  22  23
ENDBRANCH  17  22
TORSDOF 10
ENDMDL
