MODEL 1
REMARK VINA RESULT: -6.148510945      0.000      0.000
REMARK  18 active torsions:
REMARK  status: ('A' for Active; 'I' for Inactive)
REMARK    1  A    between atoms: C2_2  and  C3_3 
REMARK    2  A    between atoms: C3_3  and  O1_4 
REMARK    3  A    between atoms: O1_4  and  C4_5 
REMARK    4  A    between atoms: C4_5  and  C5_6 
REMARK    5  A    between atoms: C7_10  and  O4_11 
REMARK    6  A    between atoms: O4_11  and  C8_12 
REMARK    7  A    between atoms: C8_12  and  C9_13 
REMARK    8  A    between atoms: C11_17  and  O7_18 
REMARK    9  A    between atoms: C12_20  and  O8_21 
REMARK   10  A    between atoms: C13_23  and  C14_24 
REMARK   11  A    between atoms: C14_24  and  O9_25 
REMARK   12  A    between atoms: C14_24  and  C15_27 
REMARK   13  A    between atoms: C15_27  and  O10_28 
REMARK   14  A    between atoms: C16_31  and  O12_32 
REMARK   15  A    between atoms: C17_34  and  C18_35 
REMARK   16  A    between atoms: C18_35  and  O13_36 
REMARK   17  A    between atoms: C18_35  and  C19_38 
REMARK   18  A    between atoms: C19_38  and  O14_39 
ROOT
HETATM    1  C4  UNL     1      11.088   0.097  -1.957  1.00  0.00     0.259 C 
HETATM    2  C6  UNL     1      10.331   1.254  -2.567  1.00  0.00     0.115 C 
HETATM    3  C7  UNL     1       8.843   1.261  -2.301  1.00  0.00     0.162 C 
HETATM    4  C16 UNL     1       8.521   0.796  -0.906  1.00  0.00     0.179 C 
HETATM    5  C17 UNL     1       9.834   0.765  -0.162  1.00  0.00     0.187 C 
HETATM    6  O15 UNL     1      10.568  -0.273  -0.726  1.00  0.00    -0.336 OA
ENDROOT
BRANCH   3   7
HETATM    7  O4  UNL     1       8.181   0.527  -3.297  1.00  0.00    -0.338 OA
BRANCH   7   8
HETATM    8  C8  UNL     1       7.219   1.293  -3.989  1.00  0.00     0.259 C 
HETATM    9  C10 UNL     1       6.954   0.453  -5.252  1.00  0.00     0.115 C 
HETATM   10  C11 UNL     1       6.216   1.174  -6.314  1.00  0.00     0.155 C 
HETATM   11  C12 UNL     1       6.741   2.564  -6.478  1.00  0.00     0.178 C 
HETATM   12  C13 UNL     1       7.940   2.823  -5.588  1.00  0.00     0.187 C 
HETATM   13  O11 UNL     1       7.680   2.548  -4.272  1.00  0.00    -0.336 OA
BRANCH   8  14
HETATM   14  C9  UNL     1       5.917   1.362  -3.297  1.00  0.00     0.239 C 
HETATM   15  O5  UNL     1       5.463   0.375  -2.629  1.00  0.00    -0.644 OA
HETATM   16  O6  UNL     1       5.120   2.497  -3.331  1.00  0.00    -0.644 OA
ENDBRANCH   8  14
BRANCH  10  17
HETATM   17  O7  UNL     1       4.834   1.240  -6.134  1.00  0.00    -0.393 OA
ATOM     18  H7  UNL     1       4.451   2.099  -6.268  1.00  0.00     0.210 HD
ENDBRANCH  10  17
BRANCH  11  19
HETATM   19  O8  UNL     1       5.762   3.550  -6.345  1.00  0.00    -0.390 OA
ATOM     20  H8  UNL     1       6.022   4.270  -5.782  1.00  0.00     0.210 HD
ENDBRANCH  11  19
BRANCH  12  21
HETATM   21  C14 UNL     1       8.307   4.275  -5.747  1.00  0.00     0.173 C 
BRANCH  21  22
HETATM   22  O9  UNL     1       9.641   4.436  -6.126  1.00  0.00    -0.391 OA
ATOM     23  H9  UNL     1       9.839   5.337  -6.349  1.00  0.00     0.210 HD
ENDBRANCH  21  22
BRANCH  21  24
HETATM   24  C15 UNL     1       8.182   4.959  -4.378  1.00  0.00     0.198 C 
BRANCH  24  25
HETATM   25  O10 UNL     1       6.810   5.158  -4.157  1.00  0.00    -0.398 OA
ATOM     26  H10 UNL     1       6.726   5.498  -3.274  1.00  0.00     0.209 HD
ENDBRANCH  24  25
ENDBRANCH  21  24
ENDBRANCH  12  21
ENDBRANCH   7   8
ENDBRANCH   3   7
BRANCH   4  27
HETATM   27  O12 UNL     1       8.001  -0.499  -1.041  1.00  0.00    -0.390 OA
ATOM     28  H12 UNL     1       8.573  -1.064  -0.536  1.00  0.00     0.210 HD
ENDBRANCH   4  27
BRANCH   1  29
HETATM   29  O1  UNL     1      12.367   0.540  -1.756  1.00  0.00    -0.343 OA
BRANCH  29  30
HETATM   30  C3  UNL     1      12.665   1.836  -2.014  1.00  0.00     0.198 C 
BRANCH  30  31
HETATM   31  C2  UNL     1      13.247   2.391  -0.730  1.00  0.00    -0.011 C 
HETATM   32  C1  UNL     1      12.711   3.459  -0.156  1.00  0.00     0.009 C 
ENDBRANCH  30  31
ENDBRANCH  29  30
ENDBRANCH   1  29
BRANCH   1  33
HETATM   33  C5  UNL     1      11.048  -1.050  -2.867  1.00  0.00     0.239 C 
HETATM   34  O2  UNL     1      10.291  -2.060  -2.642  1.00  0.00    -0.644 OA
HETATM   35  O3  UNL     1      11.804  -1.140  -4.021  1.00  0.00    -0.644 OA
ENDBRANCH   1  33
BRANCH   5  36
HETATM   36  C18 UNL     1       9.758   0.680   1.309  1.00  0.00     0.173 C 
BRANCH  36  37
HETATM   37  O13 UNL     1       8.433   0.326   1.625  1.00  0.00    -0.391 OA
ATOM     38  H13 UNL     1       8.239  -0.466   1.136  1.00  0.00     0.210 HD
ENDBRANCH  36  37
BRANCH  36  39
HETATM   39  C19 UNL     1      10.219   1.850   2.097  1.00  0.00     0.198 C 
BRANCH  39  40
HETATM   40  O14 UNL     1       9.249   2.829   2.225  1.00  0.00    -0.398 OA
ATOM     41  H14 UNL     1       9.163   3.148   3.115  1.00  0.00     0.209 HD
ENDBRANCH  39  40
ENDBRANCH  36  39
ENDBRANCH   5  36
TORSDOF 18
ENDMDL
