MODEL 4
REMARK VINA RESULT: -5.740651170      1.675      6.867
REMARK  18 active torsions:
REMARK  status: ('A' for Active; 'I' for Inactive)
REMARK    1  A    between atoms: C2_2  and  C3_3 
REMARK    2  A    between atoms: C3_3  and  O1_4 
REMARK    3  A    between atoms: O1_4  and  C4_5 
REMARK    4  A    between atoms: C4_5  and  C5_6 
REMARK    5  A    between atoms: C7_10  and  O4_11 
REMARK    6  A    between atoms: O4_11  and  C8_12 
REMARK    7  A    between atoms: C8_12  and  C9_13 
REMARK    8  A    between atoms: C11_17  and  O7_18 
REMARK    9  A    between atoms: C12_20  and  O8_21 
REMARK   10  A    between atoms: C13_23  and  C14_24 
REMARK   11  A    between atoms: C14_24  and  O9_25 
REMARK   12  A    between atoms: C14_24  and  C15_27 
REMARK   13  A    between atoms: C15_27  and  O10_28 
REMARK   14  A    between atoms: C16_31  and  O12_32 
REMARK   15  A    between atoms: C17_34  and  C18_35 
REMARK   16  A    between atoms: C18_35  and  O13_36 
REMARK   17  A    between atoms: C18_35  and  C19_38 
REMARK   18  A    between atoms: C19_38  and  O14_39 
ROOT
HETATM    1  C4  UNL     1       7.425   3.607  -5.185  1.00  0.00     0.259 C 
HETATM    2  C6  UNL     1       8.286   2.634  -4.416  1.00  0.00     0.115 C 
HETATM    3  C7  UNL     1       7.646   2.043  -3.182  1.00  0.00     0.162 C 
HETATM    4  C16 UNL     1       6.182   1.757  -3.392  1.00  0.00     0.179 C 
HETATM    5  C17 UNL     1       5.939   1.894  -4.875  1.00  0.00     0.187 C 
HETATM    6  O15 UNL     1       6.086   3.246  -5.163  1.00  0.00    -0.336 OA
ENDROOT
BRANCH   3   7
HETATM    7  O4  UNL     1       7.896   2.871  -2.076  1.00  0.00    -0.338 OA
BRANCH   7   8
HETATM    8  C8  UNL     1       8.575   2.201  -1.036  1.00  0.00     0.259 C 
HETATM    9  C10 UNL     1       9.163   3.357  -0.209  1.00  0.00     0.115 C 
HETATM   10  C11 UNL     1      10.193   2.938   0.770  1.00  0.00     0.155 C 
HETATM   11  C12 UNL     1      11.130   1.944   0.164  1.00  0.00     0.178 C 
HETATM   12  C13 UNL     1      10.835   1.711  -1.304  1.00  0.00     0.187 C 
HETATM   13  O11 UNL     1       9.531   1.353  -1.522  1.00  0.00    -0.336 OA
BRANCH   8  14
HETATM   14  C9  UNL     1       7.672   1.490  -0.110  1.00  0.00     0.239 C 
HETATM   15  O5  UNL     1       6.512   1.939   0.167  1.00  0.00    -0.644 OA
HETATM   16  O6  UNL     1       8.031   0.298   0.504  1.00  0.00    -0.644 OA
ENDBRANCH   8  14
BRANCH  10  17
HETATM   17  O7  UNL     1       9.696   2.409   1.962  1.00  0.00    -0.393 OA
ATOM     18  H7  UNL     1       9.401   3.053   2.595  1.00  0.00     0.210 HD
ENDBRANCH  10  17
BRANCH  11  19
HETATM   19  O8  UNL     1      11.218   0.749   0.881  1.00  0.00    -0.390 OA
ATOM     20  H8  UNL     1      12.037   0.648   1.352  1.00  0.00     0.210 HD
ENDBRANCH  11  19
BRANCH  12  21
HETATM   21  C14 UNL     1      11.754   0.616  -1.775  1.00  0.00     0.173 C 
BRANCH  21  22
HETATM   22  O9  UNL     1      12.547   1.027  -2.848  1.00  0.00    -0.391 OA
ATOM     23  H9  UNL     1      12.843   0.292  -3.371  1.00  0.00     0.210 HD
ENDBRANCH  21  22
BRANCH  21  24
HETATM   24  C15 UNL     1      10.897  -0.538  -2.314  1.00  0.00     0.198 C 
BRANCH  24  25
HETATM   25  O10 UNL     1      10.362  -1.194  -1.194  1.00  0.00    -0.398 OA
ATOM     26  H10 UNL     1       9.901  -1.957  -1.523  1.00  0.00     0.209 HD
ENDBRANCH  24  25
ENDBRANCH  21  24
ENDBRANCH  12  21
ENDBRANCH   7   8
ENDBRANCH   3   7
BRANCH   4  27
HETATM   27  O12 UNL     1       5.490   2.752  -2.685  1.00  0.00    -0.390 OA
ATOM     28  H12 UNL     1       4.724   2.326  -2.318  1.00  0.00     0.210 HD
ENDBRANCH   4  27
BRANCH   1  29
HETATM   29  O1  UNL     1       7.852   3.555  -6.484  1.00  0.00    -0.343 OA
BRANCH  29  30
HETATM   30  C3  UNL     1       8.801   2.652  -6.830  1.00  0.00     0.198 C 
BRANCH  30  31
HETATM   31  C2  UNL     1       8.217   1.856  -7.980  1.00  0.00    -0.011 C 
HETATM   32  C1  UNL     1       7.151   2.299  -8.630  1.00  0.00     0.009 C 
ENDBRANCH  30  31
ENDBRANCH  29  30
ENDBRANCH   1  29
BRANCH   1  33
HETATM   33  C5  UNL     1       7.576   4.950  -4.619  1.00  0.00     0.239 C 
HETATM   34  O2  UNL     1       6.864   5.345  -3.629  1.00  0.00    -0.644 OA
HETATM   35  O3  UNL     1       8.480   5.883  -5.091  1.00  0.00    -0.644 OA
ENDBRANCH   1  33
BRANCH   5  36
HETATM   36  C18 UNL     1       4.676   1.331  -5.391  1.00  0.00     0.173 C 
BRANCH  36  37
HETATM   37  O13 UNL     1       5.026   0.408  -6.393  1.00  0.00    -0.391 OA
ATOM     38  H13 UNL     1       4.354   0.464  -7.062  1.00  0.00     0.210 HD
ENDBRANCH  36  37
BRANCH  36  39
HETATM   39  C19 UNL     1       3.632   2.279  -5.853  1.00  0.00     0.198 C 
BRANCH  39  40
HETATM   40  O14 UNL     1       3.321   3.240  -4.907  1.00  0.00    -0.398 OA
ATOM     41  H14 UNL     1       2.926   4.016  -5.286  1.00  0.00     0.209 HD
ENDBRANCH  39  40
ENDBRANCH  36  39
ENDBRANCH   5  36
TORSDOF 18
ENDMDL
