MODEL 2
REMARK VINA RESULT: -5.948661899      1.869      6.794
REMARK  18 active torsions:
REMARK  status: ('A' for Active; 'I' for Inactive)
REMARK    1  A    between atoms: C2_2  and  C3_3 
REMARK    2  A    between atoms: C3_3  and  O1_4 
REMARK    3  A    between atoms: O1_4  and  C4_5 
REMARK    4  A    between atoms: C4_5  and  C5_6 
REMARK    5  A    between atoms: C7_10  and  O4_11 
REMARK    6  A    between atoms: O4_11  and  C8_12 
REMARK    7  A    between atoms: C8_12  and  C9_13 
REMARK    8  A    between atoms: C11_17  and  O7_18 
REMARK    9  A    between atoms: C12_20  and  O8_21 
REMARK   10  A    between atoms: C13_23  and  C14_24 
REMARK   11  A    between atoms: C14_24  and  O9_25 
REMARK   12  A    between atoms: C14_24  and  C15_27 
REMARK   13  A    between atoms: C15_27  and  O10_28 
REMARK   14  A    between atoms: C16_31  and  O12_32 
REMARK   15  A    between atoms: C17_34  and  C18_35 
REMARK   16  A    between atoms: C18_35  and  O13_36 
REMARK   17  A    between atoms: C18_35  and  C19_38 
REMARK   18  A    between atoms: C19_38  and  O14_39 
ROOT
HETATM    1  C4  UNL     1       7.946   4.868  -3.687  1.00  0.00     0.259 C 
HETATM    2  C6  UNL     1       8.746   3.725  -3.107  1.00  0.00     0.115 C 
HETATM    3  C7  UNL     1       7.927   2.584  -2.550  1.00  0.00     0.162 C 
HETATM    4  C16 UNL     1       6.708   2.307  -3.389  1.00  0.00     0.179 C 
HETATM    5  C17 UNL     1       6.895   3.087  -4.667  1.00  0.00     0.187 C 
HETATM    6  O15 UNL     1       6.791   4.428  -4.315  1.00  0.00    -0.336 OA
ENDROOT
BRANCH   3   7
HETATM    7  O4  UNL     1       7.628   2.832  -1.201  1.00  0.00    -0.338 OA
BRANCH   7   8
HETATM    8  C8  UNL     1       8.445   2.095  -0.318  1.00  0.00     0.259 C 
HETATM    9  C10 UNL     1       9.137   3.194   0.508  1.00  0.00     0.115 C 
HETATM   10  C11 UNL     1      10.292   2.716   1.302  1.00  0.00     0.155 C 
HETATM   11  C12 UNL     1      11.142   1.785   0.500  1.00  0.00     0.178 C 
HETATM   12  C13 UNL     1      10.649   1.659  -0.927  1.00  0.00     0.187 C 
HETATM   13  O11 UNL     1       9.329   1.300  -0.992  1.00  0.00    -0.336 OA
BRANCH   8  14
HETATM   14  C9  UNL     1       7.680   1.303   0.666  1.00  0.00     0.239 C 
HETATM   15  O5  UNL     1       6.607   1.748   1.191  1.00  0.00    -0.644 OA
HETATM   16  O6  UNL     1       8.081   0.038   1.070  1.00  0.00    -0.644 OA
ENDBRANCH   8  14
BRANCH  10  17
HETATM   17  O7  UNL     1       9.965   2.093   2.507  1.00  0.00    -0.393 OA
ATOM     18  H7  UNL     1       9.656   2.675   3.190  1.00  0.00     0.210 HD
ENDBRANCH  10  17
BRANCH  11  19
HETATM   19  O8  UNL     1      11.331   0.540   1.104  1.00  0.00    -0.390 OA
ATOM     20  H8  UNL     1      12.115   0.091   0.812  1.00  0.00     0.210 HD
ENDBRANCH  11  19
BRANCH  12  21
HETATM   21  C14 UNL     1      11.499   0.615  -1.602  1.00  0.00     0.173 C 
BRANCH  21  22
HETATM   22  O9  UNL     1      12.143   1.120  -2.734  1.00  0.00    -0.391 OA
ATOM     23  H9  UNL     1      12.025   0.556  -3.488  1.00  0.00     0.210 HD
ENDBRANCH  21  22
BRANCH  21  24
HETATM   24  C15 UNL     1      10.579  -0.502  -2.115  1.00  0.00     0.198 C 
BRANCH  24  25
HETATM   25  O10 UNL     1      10.201  -1.255  -0.991  1.00  0.00    -0.398 OA
ATOM     26  H10 UNL     1       9.289  -1.050  -0.824  1.00  0.00     0.209 HD
ENDBRANCH  24  25
ENDBRANCH  21  24
ENDBRANCH  12  21
ENDBRANCH   7   8
ENDBRANCH   3   7
BRANCH   4  27
HETATM   27  O12 UNL     1       5.617   2.807  -2.662  1.00  0.00    -0.390 OA
ATOM     28  H12 UNL     1       4.917   2.175  -2.775  1.00  0.00     0.210 HD
ENDBRANCH   4  27
BRANCH   1  29
HETATM   29  O1  UNL     1       8.743   5.452  -4.635  1.00  0.00    -0.343 OA
BRANCH  29  30
HETATM   30  C3  UNL     1      10.087   5.444  -4.462  1.00  0.00     0.198 C 
BRANCH  30  31
HETATM   31  C2  UNL     1      10.528   6.889  -4.581  1.00  0.00    -0.011 C 
HETATM   32  C1  UNL     1      10.676   7.638  -3.498  1.00  0.00     0.009 C 
ENDBRANCH  30  31
ENDBRANCH  29  30
ENDBRANCH   1  29
BRANCH   1  33
HETATM   33  C5  UNL     1       7.593   5.810  -2.622  1.00  0.00     0.239 C 
HETATM   34  O2  UNL     1       7.215   7.007  -2.883  1.00  0.00    -0.644 OA
HETATM   35  O3  UNL     1       7.633   5.497  -1.276  1.00  0.00    -0.644 OA
ENDBRANCH   1  33
BRANCH   5  36
HETATM   36  C18 UNL     1       6.020   2.722  -5.798  1.00  0.00     0.173 C 
BRANCH  36  37
HETATM   37  O13 UNL     1       6.689   3.117  -6.970  1.00  0.00    -0.391 OA
ATOM     38  H13 UNL     1       6.033   3.496  -7.544  1.00  0.00     0.210 HD
ENDBRANCH  36  37
BRANCH  36  39
HETATM   39  C19 UNL     1       4.616   3.204  -5.773  1.00  0.00     0.198 C 
BRANCH  39  40
HETATM   40  O14 UNL     1       4.522   4.584  -5.804  1.00  0.00    -0.398 OA
ATOM     41  H14 UNL     1       3.661   4.889  -6.066  1.00  0.00     0.209 HD
ENDBRANCH  39  40
ENDBRANCH  36  39
ENDBRANCH   5  36
TORSDOF 18
ENDMDL
