MODEL 11
REMARK VINA RESULT: -5.123780451      6.957      8.139
REMARK  1 active torsions:
REMARK  status: ('A' for Active; 'I' for Inactive)
REMARK    1  A    between atoms: C1_2  and  C2_4 
ROOT
HETATM    1  C2  UNL     1     -41.762 -18.338  25.832  1.00  0.00     0.109 A 
HETATM    2  C3  UNL     1     -42.926 -17.655  25.567  1.00  0.00     0.037 A 
HETATM    3  C4  UNL     1     -43.045 -16.308  25.891  1.00  0.00     0.004 A 
HETATM    4  C5  UNL     1     -42.002 -15.627  26.486  1.00  0.00     0.017 A 
HETATM    5  C6  UNL     1     -40.855 -16.354  26.733  1.00  0.00     0.088 A 
HETATM    6  N1  UNL     1     -40.753 -17.670  26.410  1.00  0.00    -0.360 N 
ATOM      7  H1  UNL     1     -39.884 -18.164  26.613  1.00  0.00     0.165 HD
ENDROOT
BRANCH   1   8
HETATM    8  C1  UNL     1     -41.648 -19.761  25.483  1.00  0.00     0.226 C 
HETATM    9  O1  UNL     1     -41.485 -20.136  24.293  1.00  0.00    -0.643 OA
HETATM   10  O2  UNL     1     -41.712 -20.756  26.441  1.00  0.00    -0.643 OA
ENDBRANCH   1   8
TORSDOF 1
ENDMDL
