MODEL 17
REMARK VINA RESULT: -4.819796211      4.454      4.810
REMARK  1 active torsions:
REMARK  status: ('A' for Active; 'I' for Inactive)
REMARK    1  A    between atoms: C1_2  and  C2_4 
ROOT
HETATM    1  C2  UNL     1     -37.287 -18.932  24.651  1.00  0.00     0.109 A 
HETATM    2  C3  UNL     1     -37.409 -17.636  25.094  1.00  0.00     0.037 A 
HETATM    3  C4  UNL     1     -36.308 -16.788  25.112  1.00  0.00     0.004 A 
HETATM    4  C5  UNL     1     -35.069 -17.224  24.687  1.00  0.00     0.017 A 
HETATM    5  C6  UNL     1     -34.995 -18.532  24.252  1.00  0.00     0.088 A 
HETATM    6  N1  UNL     1     -36.080 -19.350  24.240  1.00  0.00    -0.360 N 
ATOM      7  H1  UNL     1     -35.974 -20.309  23.909  1.00  0.00     0.165 HD
ENDROOT
BRANCH   1   8
HETATM    8  C1  UNL     1     -38.459 -19.819  24.636  1.00  0.00     0.226 C 
HETATM    9  O1  UNL     1     -38.710 -20.560  23.650  1.00  0.00    -0.643 OA
HETATM   10  O2  UNL     1     -39.339 -19.885  25.699  1.00  0.00    -0.643 OA
ENDBRANCH   1   8
TORSDOF 1
ENDMDL
