MODEL 2
REMARK VINA RESULT: -6.625798712      0.158      1.063
REMARK  1 active torsions:
REMARK  status: ('A' for Active; 'I' for Inactive)
REMARK    1  A    between atoms: C1_2  and  C2_4 
ROOT
HETATM    1  C2  UNL     1     -37.105 -21.706  21.322  1.00  0.00     0.109 A 
HETATM    2  C3  UNL     1     -37.050 -21.164  20.060  1.00  0.00     0.037 A 
HETATM    3  C4  UNL     1     -35.828 -20.852  19.475  1.00  0.00     0.004 A 
HETATM    4  C5  UNL     1     -34.643 -21.076  20.146  1.00  0.00     0.017 A 
HETATM    5  C6  UNL     1     -34.747 -21.620  21.411  1.00  0.00     0.088 A 
HETATM    6  N1  UNL     1     -35.949 -21.921  21.969  1.00  0.00    -0.360 N 
ATOM      7  H1  UNL     1     -35.974 -22.321  22.907  1.00  0.00     0.165 HD
ENDROOT
BRANCH   1   8
HETATM    8  C1  UNL     1     -38.403 -22.032  21.928  1.00  0.00     0.226 C 
HETATM    9  O1  UNL     1     -38.931 -21.287  22.794  1.00  0.00    -0.643 OA
HETATM   10  O2  UNL     1     -39.107 -23.169  21.579  1.00  0.00    -0.643 OA
ENDBRANCH   1   8
TORSDOF 1
ENDMDL
