MODEL 1
REMARK VINA RESULT: -6.626900123      0.000      0.000
REMARK  1 active torsions:
REMARK  status: ('A' for Active; 'I' for Inactive)
REMARK    1  A    between atoms: C1_2  and  C2_4 
ROOT
HETATM    1  C2  UNL     1     -37.137 -21.821  21.281  1.00  0.00     0.109 A 
HETATM    2  C3  UNL     1     -37.082 -21.216  20.047  1.00  0.00     0.037 A 
HETATM    3  C4  UNL     1     -35.863 -20.824  19.505  1.00  0.00     0.004 A 
HETATM    4  C5  UNL     1     -34.683 -21.030  20.189  1.00  0.00     0.017 A 
HETATM    5  C6  UNL     1     -34.787 -21.640  21.424  1.00  0.00     0.088 A 
HETATM    6  N1  UNL     1     -35.986 -22.019  21.941  1.00  0.00    -0.360 N 
ATOM      7  H1  UNL     1     -36.011 -22.465  22.857  1.00  0.00     0.165 HD
ENDROOT
BRANCH   1   8
HETATM    8  C1  UNL     1     -38.431 -22.233  21.842  1.00  0.00     0.226 C 
HETATM    9  O1  UNL     1     -38.942 -23.350  21.569  1.00  0.00    -0.643 OA
HETATM   10  O2  UNL     1     -39.149 -21.418  22.697  1.00  0.00    -0.643 OA
ENDBRANCH   1   8
TORSDOF 1
ENDMDL
