MODEL 5
REMARK VINA RESULT: -6.414726210      1.387      1.844
REMARK  1 active torsions:
REMARK  status: ('A' for Active; 'I' for Inactive)
REMARK    1  A    between atoms: C1_2  and  C2_4 
ROOT
HETATM    1  C2  UNL     1     -37.360 -21.569  20.570  1.00  0.00     0.109 A 
HETATM    2  C3  UNL     1     -36.369 -21.814  21.492  1.00  0.00     0.037 A 
HETATM    3  C4  UNL     1     -35.053 -21.456  21.228  1.00  0.00     0.004 A 
HETATM    4  C5  UNL     1     -34.708 -20.849  20.038  1.00  0.00     0.017 A 
HETATM    5  C6  UNL     1     -35.735 -20.623  19.143  1.00  0.00     0.088 A 
HETATM    6  N1  UNL     1     -37.018 -20.979  19.415  1.00  0.00    -0.360 N 
ATOM      7  H1  UNL     1     -37.742 -20.792  18.722  1.00  0.00     0.165 HD
ENDROOT
BRANCH   1   8
HETATM    8  C1  UNL     1     -38.748 -21.952  20.862  1.00  0.00     0.226 C 
HETATM    9  O1  UNL     1     -39.019 -22.939  21.593  1.00  0.00    -0.643 OA
HETATM   10  O2  UNL     1     -39.823 -21.248  20.351  1.00  0.00    -0.643 OA
ENDBRANCH   1   8
TORSDOF 1
ENDMDL
