MODEL 18
REMARK VINA RESULT: -4.753212648      7.079      8.237
REMARK  1 active torsions:
REMARK  status: ('A' for Active; 'I' for Inactive)
REMARK    1  A    between atoms: C1_2  and  C2_4 
ROOT
HETATM    1  C2  UNL     1     -41.780 -18.382  25.824  1.00  0.00     0.109 A 
HETATM    2  C3  UNL     1     -40.733 -17.701  26.400  1.00  0.00     0.037 A 
HETATM    3  C4  UNL     1     -40.853 -16.353  26.716  1.00  0.00     0.004 A 
HETATM    4  C5  UNL     1     -42.022 -15.666  26.460  1.00  0.00     0.017 A 
HETATM    5  C6  UNL     1     -43.046 -16.390  25.881  1.00  0.00     0.088 A 
HETATM    6  N1  UNL     1     -42.914 -17.708  25.578  1.00  0.00    -0.360 N 
ATOM      7  H1  UNL     1     -43.699 -18.199  25.151  1.00  0.00     0.165 HD
ENDROOT
BRANCH   1   8
HETATM    8  C1  UNL     1     -41.641 -19.807  25.496  1.00  0.00     0.226 C 
HETATM    9  O1  UNL     1     -41.691 -20.696  26.386  1.00  0.00    -0.643 OA
HETATM   10  O2  UNL     1     -41.451 -20.243  24.198  1.00  0.00    -0.643 OA
ENDBRANCH   1   8
TORSDOF 1
ENDMDL
