MODEL 4
REMARK VINA RESULT: -6.450287163      1.385      1.971
REMARK  1 active torsions:
REMARK  status: ('A' for Active; 'I' for Inactive)
REMARK    1  A    between atoms: C1_2  and  C2_4 
ROOT
HETATM    1  C2  UNL     1     -37.353 -21.560  20.540  1.00  0.00     0.109 A 
HETATM    2  C3  UNL     1     -36.380 -21.805  21.480  1.00  0.00     0.037 A 
HETATM    3  C4  UNL     1     -35.058 -21.446  21.242  1.00  0.00     0.004 A 
HETATM    4  C5  UNL     1     -34.691 -20.838  20.058  1.00  0.00     0.017 A 
HETATM    5  C6  UNL     1     -35.701 -20.613  19.144  1.00  0.00     0.088 A 
HETATM    6  N1  UNL     1     -36.989 -20.969  19.392  1.00  0.00    -0.360 N 
ATOM      7  H1  UNL     1     -37.699 -20.782  18.685  1.00  0.00     0.165 HD
ENDROOT
BRANCH   1   8
HETATM    8  C1  UNL     1     -38.746 -21.943  20.805  1.00  0.00     0.226 C 
HETATM    9  O1  UNL     1     -39.710 -21.273  20.352  1.00  0.00    -0.643 OA
HETATM   10  O2  UNL     1     -39.068 -23.055  21.561  1.00  0.00    -0.643 OA
ENDBRANCH   1   8
TORSDOF 1
ENDMDL
