MODEL 3
REMARK VINA RESULT: -6.563500201      1.018      1.607
REMARK  1 active torsions:
REMARK  status: ('A' for Active; 'I' for Inactive)
REMARK    1  A    between atoms: C1_2  and  C2_4 
ROOT
HETATM    1  C2  UNL     1     -37.108 -21.609  21.098  1.00  0.00     0.109 A 
HETATM    2  C3  UNL     1     -35.845 -21.805  21.604  1.00  0.00     0.037 A 
HETATM    3  C4  UNL     1     -34.723 -21.433  20.874  1.00  0.00     0.004 A 
HETATM    4  C5  UNL     1     -34.848 -20.860  19.624  1.00  0.00     0.017 A 
HETATM    5  C6  UNL     1     -36.135 -20.683  19.156  1.00  0.00     0.088 A 
HETATM    6  N1  UNL     1     -37.222 -21.051  19.883  1.00  0.00    -0.360 N 
ATOM      7  H1  UNL     1     -38.152 -20.900  19.493  1.00  0.00     0.165 HD
ENDROOT
BRANCH   1   8
HETATM    8  C1  UNL     1     -38.286 -22.005  21.881  1.00  0.00     0.226 C 
HETATM    9  O1  UNL     1     -38.876 -23.098  21.675  1.00  0.00    -0.643 OA
HETATM   10  O2  UNL     1     -38.803 -21.203  22.880  1.00  0.00    -0.643 OA
ENDBRANCH   1   8
TORSDOF 1
ENDMDL
