MODEL 9
REMARK VINA RESULT: -5.739818303      2.168      4.181
REMARK  8 active torsions:
REMARK  status: ('A' for Active; 'I' for Inactive)
REMARK    1  A    between atoms: C1_2  and  C2_4 
REMARK    2  A    between atoms: C2_4  and  O3_5 
REMARK    3  A    between atoms: C4_8  and  O4_9 
REMARK    4  A    between atoms: C5_11  and  O5_12 
REMARK    5  A    between atoms: C6_14  and  C7_15 
REMARK    6  A    between atoms: C7_15  and  O6_16 
REMARK    7  A    between atoms: C7_15  and  C8_18 
REMARK    8  A    between atoms: C8_18  and  O7_19 
ROOT
HETATM    1  C2  UNL     1      -6.717   4.034   1.960  1.00  0.00     0.256 C 
HETATM    2  C3  UNL     1      -7.778   3.347   2.770  1.00  0.00     0.114 C 
HETATM    3  C4  UNL     1      -7.719   1.880   2.497  1.00  0.00     0.155 C 
HETATM    4  C5  UNL     1      -7.020   1.579   1.215  1.00  0.00     0.178 C 
HETATM    5  C6  UNL     1      -7.162   2.635   0.167  1.00  0.00     0.187 C 
HETATM    6  O8  UNL     1      -6.908   3.913   0.599  1.00  0.00    -0.336 OA
ENDROOT
BRANCH   5   7
HETATM    7  C7  UNL     1      -8.494   2.549  -0.560  1.00  0.00     0.173 C 
BRANCH   7   8
HETATM    8  O6  UNL     1      -8.311   1.721  -1.668  1.00  0.00    -0.391 OA
ATOM      9  H6  UNL     1      -9.136   1.687  -2.136  1.00  0.00     0.210 HD
ENDBRANCH   7   8
BRANCH   7  10
HETATM   10  C8  UNL     1      -8.945   3.937  -0.973  1.00  0.00     0.198 C 
BRANCH  10  11
HETATM   11  O7  UNL     1      -8.551   4.204  -2.261  1.00  0.00    -0.398 OA
ATOM     12  H7  UNL     1      -8.807   5.085  -2.510  1.00  0.00     0.209 HD
ENDBRANCH  10  11
ENDBRANCH   7  10
ENDBRANCH   5   7
BRANCH   4  13
HETATM   13  O5  UNL     1      -7.528   0.387   0.713  1.00  0.00    -0.390 OA
ATOM     14  H5  UNL     1      -7.729   0.514  -0.207  1.00  0.00     0.210 HD
ENDBRANCH   4  13
BRANCH   3  15
HETATM   15  O4  UNL     1      -9.013   1.370   2.537  1.00  0.00    -0.393 OA
ATOM     16  H4  UNL     1      -9.038   0.569   2.026  1.00  0.00     0.210 HD
ENDBRANCH   3  15
BRANCH   1  17
HETATM   17  C1  UNL     1      -6.730   5.473   2.332  1.00  0.00     0.238 C 
HETATM   18  O1  UNL     1      -7.081   6.335   1.486  1.00  0.00    -0.644 OA
HETATM   19  O2  UNL     1      -6.367   5.923   3.591  1.00  0.00    -0.644 OA
ENDBRANCH   1  17
BRANCH   1  20
HETATM   20  O3  UNL     1      -5.478   3.515   2.339  1.00  0.00    -0.357 OA
ATOM     21  H3  UNL     1      -5.643   2.756   2.884  1.00  0.00     0.213 HD
ENDBRANCH   1  20
TORSDOF 8
ENDMDL
