MODEL 12
REMARK VINA RESULT: -5.655552904      1.553      3.341
REMARK  8 active torsions:
REMARK  status: ('A' for Active; 'I' for Inactive)
REMARK    1  A    between atoms: C1_2  and  C2_4 
REMARK    2  A    between atoms: C2_4  and  O3_5 
REMARK    3  A    between atoms: C4_8  and  O4_9 
REMARK    4  A    between atoms: C5_11  and  O5_12 
REMARK    5  A    between atoms: C6_14  and  C7_15 
REMARK    6  A    between atoms: C7_15  and  O6_16 
REMARK    7  A    between atoms: C7_15  and  C8_18 
REMARK    8  A    between atoms: C8_18  and  O7_19 
ROOT
HETATM    1  C2  UNL     1      -8.116   1.124   1.063  1.00  0.00     0.256 C 
HETATM    2  C3  UNL     1      -7.668   1.416  -0.339  1.00  0.00     0.114 C 
HETATM    3  C4  UNL     1      -6.331   2.078  -0.290  1.00  0.00     0.155 C 
HETATM    4  C5  UNL     1      -6.057   2.683   1.045  1.00  0.00     0.178 C 
HETATM    5  C6  UNL     1      -7.272   3.162   1.771  1.00  0.00     0.187 C 
HETATM    6  O8  UNL     1      -8.306   2.260   1.821  1.00  0.00    -0.336 OA
ENDROOT
BRANCH   5   7
HETATM    7  C7  UNL     1      -7.743   4.519   1.274  1.00  0.00     0.173 C 
BRANCH   7   8
HETATM    8  O6  UNL     1      -7.266   5.478   2.168  1.00  0.00    -0.391 OA
ATOM      9  H6  UNL     1      -6.740   6.092   1.671  1.00  0.00     0.210 HD
ENDBRANCH   7   8
BRANCH   7  10
HETATM   10  C8  UNL     1      -9.256   4.540   1.192  1.00  0.00     0.198 C 
BRANCH  10  11
HETATM   11  O7  UNL     1      -9.669   4.330  -0.100  1.00  0.00    -0.398 OA
ATOM     12  H7  UNL     1     -10.406   3.731  -0.120  1.00  0.00     0.209 HD
ENDBRANCH  10  11
ENDBRANCH   7  10
ENDBRANCH   5   7
BRANCH   4  13
HETATM   13  O5  UNL     1      -5.196   3.759   0.866  1.00  0.00    -0.390 OA
ATOM     14  H5  UNL     1      -4.510   3.494   0.264  1.00  0.00     0.210 HD
ENDBRANCH   4  13
BRANCH   3  15
HETATM   15  O4  UNL     1      -6.258   3.005  -1.325  1.00  0.00    -0.393 OA
ATOM     16  H4  UNL     1      -5.608   2.709  -1.951  1.00  0.00     0.210 HD
ENDBRANCH   3  15
BRANCH   1  17
HETATM   17  C1  UNL     1      -9.395   0.371   0.978  1.00  0.00     0.238 C 
HETATM   18  O1  UNL     1     -10.148   0.529  -0.017  1.00  0.00    -0.644 OA
HETATM   19  O2  UNL     1      -9.808  -0.515   1.960  1.00  0.00    -0.644 OA
ENDBRANCH   1  17
BRANCH   1  20
HETATM   20  O3  UNL     1      -7.173   0.280   1.653  1.00  0.00    -0.357 OA
ATOM     21  H3  UNL     1      -7.098   0.532   2.566  1.00  0.00     0.213 HD
ENDBRANCH   1  20
TORSDOF 8
ENDMDL
