MODEL 4
REMARK VINA RESULT: -5.934182225      1.523      2.463
REMARK  8 active torsions:
REMARK  status: ('A' for Active; 'I' for Inactive)
REMARK    1  A    between atoms: C1_2  and  C2_4 
REMARK    2  A    between atoms: C2_4  and  O3_5 
REMARK    3  A    between atoms: C4_8  and  O4_9 
REMARK    4  A    between atoms: C5_11  and  O5_12 
REMARK    5  A    between atoms: C6_14  and  C7_15 
REMARK    6  A    between atoms: C7_15  and  O6_16 
REMARK    7  A    between atoms: C7_15  and  C8_18 
REMARK    8  A    between atoms: C8_18  and  O7_19 
ROOT
HETATM    1  C2  UNL     1      -8.278   1.052   1.439  1.00  0.00     0.256 C 
HETATM    2  C3  UNL     1      -8.897   0.914   0.078  1.00  0.00     0.114 C 
HETATM    3  C4  UNL     1      -7.897   1.326  -0.951  1.00  0.00     0.155 C 
HETATM    4  C5  UNL     1      -6.819   2.178  -0.371  1.00  0.00     0.178 C 
HETATM    5  C6  UNL     1      -7.248   3.022   0.785  1.00  0.00     0.187 C 
HETATM    6  O8  UNL     1      -7.949   2.353   1.757  1.00  0.00    -0.336 OA
ENDROOT
BRANCH   5   7
HETATM    7  C7  UNL     1      -7.978   4.279   0.341  1.00  0.00     0.173 C 
BRANCH   7   8
HETATM    8  O6  UNL     1      -7.016   5.270   0.143  1.00  0.00    -0.391 OA
ATOM      9  H6  UNL     1      -7.406   6.098   0.397  1.00  0.00     0.210 HD
ENDBRANCH   7   8
BRANCH   7  10
HETATM   10  C8  UNL     1      -8.987   4.688   1.396  1.00  0.00     0.198 C 
BRANCH  10  11
HETATM   11  O7  UNL     1     -10.159   3.991   1.233  1.00  0.00    -0.398 OA
ATOM     12  H7  UNL     1     -10.140   3.189   1.741  1.00  0.00     0.209 HD
ENDBRANCH  10  11
ENDBRANCH   7  10
ENDBRANCH   5   7
BRANCH   4  13
HETATM   13  O5  UNL     1      -6.339   3.013  -1.373  1.00  0.00    -0.390 OA
ATOM     14  H5  UNL     1      -5.450   2.748  -1.580  1.00  0.00     0.210 HD
ENDBRANCH   4  13
BRANCH   3  15
HETATM   15  O4  UNL     1      -8.569   1.949  -1.998  1.00  0.00    -0.393 OA
ATOM     16  H4  UNL     1      -8.271   1.570  -2.817  1.00  0.00     0.210 HD
ENDBRANCH   3  15
BRANCH   1  17
HETATM   17  C1  UNL     1      -9.256   0.534   2.431  1.00  0.00     0.238 C 
HETATM   18  O1  UNL     1     -10.308   1.182   2.668  1.00  0.00    -0.644 OA
HETATM   19  O2  UNL     1      -9.064  -0.650   3.123  1.00  0.00    -0.644 OA
ENDBRANCH   1  17
BRANCH   1  20
HETATM   20  O3  UNL     1      -7.154   0.225   1.489  1.00  0.00    -0.357 OA
ATOM     21  H3  UNL     1      -7.420  -0.636   1.189  1.00  0.00     0.213 HD
ENDBRANCH   1  20
TORSDOF 8
ENDMDL
