MODEL 6
REMARK VINA RESULT: -5.806394768      2.663      4.793
REMARK  8 active torsions:
REMARK  status: ('A' for Active; 'I' for Inactive)
REMARK    1  A    between atoms: C1_2  and  C2_4 
REMARK    2  A    between atoms: C2_4  and  O3_5 
REMARK    3  A    between atoms: C4_8  and  O4_9 
REMARK    4  A    between atoms: C5_11  and  O5_12 
REMARK    5  A    between atoms: C6_14  and  C7_15 
REMARK    6  A    between atoms: C7_15  and  O6_16 
REMARK    7  A    between atoms: C7_15  and  C8_18 
REMARK    8  A    between atoms: C8_18  and  O7_19 
ROOT
HETATM    1  C2  UNL     1      -7.621   5.386   2.278  1.00  0.00     0.256 C 
HETATM    2  C3  UNL     1      -7.938   4.083   2.952  1.00  0.00     0.114 C 
HETATM    3  C4  UNL     1      -6.762   3.173   2.821  1.00  0.00     0.155 C 
HETATM    4  C5  UNL     1      -5.860   3.585   1.707  1.00  0.00     0.178 C 
HETATM    5  C6  UNL     1      -6.552   4.254   0.563  1.00  0.00     0.187 C 
HETATM    6  O8  UNL     1      -7.414   5.260   0.920  1.00  0.00    -0.336 OA
ENDROOT
BRANCH   5   7
HETATM    7  C7  UNL     1      -7.219   3.255  -0.370  1.00  0.00     0.173 C 
BRANCH   7   8
HETATM    8  O6  UNL     1      -6.322   2.991  -1.405  1.00  0.00    -0.391 OA
ATOM      9  H6  UNL     1      -6.220   2.048  -1.458  1.00  0.00     0.210 HD
ENDBRANCH   7   8
BRANCH   7  10
HETATM   10  C8  UNL     1      -8.519   3.832  -0.895  1.00  0.00     0.198 C 
BRANCH  10  11
HETATM   11  O7  UNL     1      -8.456   3.992  -2.258  1.00  0.00    -0.398 OA
ATOM     12  H7  UNL     1      -9.285   4.311  -2.592  1.00  0.00     0.209 HD
ENDBRANCH  10  11
ENDBRANCH   7  10
ENDBRANCH   5   7
BRANCH   4  13
HETATM   13  O5  UNL     1      -5.213   2.451   1.230  1.00  0.00    -0.390 OA
ATOM     14  H5  UNL     1      -5.568   1.694   1.682  1.00  0.00     0.210 HD
ENDBRANCH   4  13
BRANCH   3  15
HETATM   15  O4  UNL     1      -7.224   1.868   2.684  1.00  0.00    -0.393 OA
ATOM     16  H4  UNL     1      -6.661   1.294   3.189  1.00  0.00     0.210 HD
ENDBRANCH   3  15
BRANCH   1  17
HETATM   17  C1  UNL     1      -8.765   6.305   2.517  1.00  0.00     0.238 C 
HETATM   18  O1  UNL     1      -9.925   5.837   2.654  1.00  0.00    -0.644 OA
HETATM   19  O2  UNL     1      -8.615   7.680   2.597  1.00  0.00    -0.644 OA
ENDBRANCH   1  17
BRANCH   1  20
HETATM   20  O3  UNL     1      -6.503   5.938   2.905  1.00  0.00    -0.357 OA
ATOM     21  H3  UNL     1      -6.479   5.600   3.792  1.00  0.00     0.213 HD
ENDBRANCH   1  20
TORSDOF 8
ENDMDL
