MODEL 8
REMARK VINA RESULT: -5.211768105      4.066      5.235
REMARK  5 active torsions:
REMARK  status: ('A' for Active; 'I' for Inactive)
REMARK    1  A    between atoms: C2_4  and  C3_5 
REMARK    2  A    between atoms: C3_5  and  O3_6 
REMARK    3  A    between atoms: C4_8  and  O4_9 
REMARK    4  A    between atoms: C5_11  and  O5_12 
REMARK    5  A    between atoms: C6_14  and  O6_15 
ROOT
HETATM    1  O1  UNL     1     -17.041 -30.756 -26.577  1.00  0.00    -0.262 OA
HETATM    2  C1  UNL     1     -16.054 -29.955 -26.448  1.00  0.00     0.291 C 
HETATM    3  O2  UNL     1     -14.835 -30.194 -27.049  1.00  0.00    -0.309 OA
HETATM    4  C2  UNL     1     -14.027 -29.147 -27.530  1.00  0.00     0.186 C 
HETATM    5  C4  UNL     1     -14.026 -27.995 -26.577  1.00  0.00     0.181 C 
HETATM    6  C5  UNL     1     -15.485 -27.607 -26.342  1.00  0.00     0.188 C 
HETATM    7  C6  UNL     1     -16.198 -28.724 -25.629  1.00  0.00     0.248 C 
ENDROOT
BRANCH   4   8
HETATM    8  C3  UNL     1     -12.643 -29.654 -27.846  1.00  0.00     0.199 C 
BRANCH   8   9
HETATM    9  O3  UNL     1     -12.308 -30.780 -27.121  1.00  0.00    -0.398 OA
ATOM     10  H3  UNL     1     -11.543 -31.225 -27.466  1.00  0.00     0.209 HD
ENDBRANCH   8   9
ENDBRANCH   4   8
BRANCH   5  11
HETATM   11  O4  UNL     1     -13.388 -28.288 -25.375  1.00  0.00    -0.390 OA
ATOM     12  H4  UNL     1     -12.783 -27.608 -25.102  1.00  0.00     0.210 HD
ENDBRANCH   5  11
BRANCH   6  13
HETATM   13  O5  UNL     1     -15.577 -26.398 -25.690  1.00  0.00    -0.390 OA
ATOM     14  H5  UNL     1     -16.405 -26.321 -25.229  1.00  0.00     0.210 HD
ENDBRANCH   6  13
BRANCH   7  15
HETATM   15  O6  UNL     1     -17.544 -28.377 -25.528  1.00  0.00    -0.383 OA
ATOM     16  H6  UNL     1     -17.704 -27.563 -25.993  1.00  0.00     0.210 HD
ENDBRANCH   7  15
TORSDOF 5
ENDMDL
