MODEL 20
REMARK VINA RESULT: -4.871342972      4.101      5.518
REMARK  5 active torsions:
REMARK  status: ('A' for Active; 'I' for Inactive)
REMARK    1  A    between atoms: C2_4  and  C3_5 
REMARK    2  A    between atoms: C3_5  and  O3_6 
REMARK    3  A    between atoms: C4_8  and  O4_9 
REMARK    4  A    between atoms: C5_11  and  O5_12 
REMARK    5  A    between atoms: C6_14  and  O6_15 
ROOT
HETATM    1  O1  UNL     1     -12.624 -30.531 -26.631  1.00  0.00    -0.262 OA
HETATM    2  C1  UNL     1     -13.626 -29.748 -26.507  1.00  0.00     0.291 C 
HETATM    3  O2  UNL     1     -14.909 -30.224 -26.328  1.00  0.00    -0.309 OA
HETATM    4  C2  UNL     1     -15.848 -29.543 -25.533  1.00  0.00     0.186 C 
HETATM    5  C4  UNL     1     -15.768 -28.067 -25.758  1.00  0.00     0.181 C 
HETATM    6  C5  UNL     1     -14.318 -27.655 -25.510  1.00  0.00     0.188 C 
HETATM    7  C6  UNL     1     -13.428 -28.276 -26.553  1.00  0.00     0.248 C 
ENDROOT
BRANCH   4   8
HETATM    8  C3  UNL     1     -17.231 -30.101 -25.759  1.00  0.00     0.199 C 
BRANCH   8   9
HETATM    9  O3  UNL     1     -17.248 -31.130 -26.678  1.00  0.00    -0.398 OA
ATOM     10  H3  UNL     1     -17.912 -31.781 -26.489  1.00  0.00     0.209 HD
ENDBRANCH   8   9
ENDBRANCH   4   8
BRANCH   5  11
HETATM   11  O4  UNL     1     -16.182 -27.691 -27.033  1.00  0.00    -0.390 OA
ATOM     12  H4  UNL     1     -15.896 -28.296 -27.707  1.00  0.00     0.210 HD
ENDBRANCH   5  11
BRANCH   6  13
HETATM   13  O5  UNL     1     -14.197 -26.286 -25.437  1.00  0.00    -0.390 OA
ATOM     14  H5  UNL     1     -13.289 -26.018 -25.518  1.00  0.00     0.210 HD
ENDBRANCH   6  13
BRANCH   7  15
HETATM   15  O6  UNL     1     -12.109 -27.964 -26.232  1.00  0.00    -0.383 OA
ATOM     16  H6  UNL     1     -12.019 -27.026 -26.108  1.00  0.00     0.210 HD
ENDBRANCH   7  15
TORSDOF 5
ENDMDL
