MODEL 17
REMARK VINA RESULT: -5.015460146      4.029      5.905
REMARK  5 active torsions:
REMARK  status: ('A' for Active; 'I' for Inactive)
REMARK    1  A    between atoms: C2_4  and  C3_5 
REMARK    2  A    between atoms: C3_5  and  O3_6 
REMARK    3  A    between atoms: C4_8  and  O4_9 
REMARK    4  A    between atoms: C5_11  and  O5_12 
REMARK    5  A    between atoms: C6_14  and  O6_15 
ROOT
HETATM    1  O1  UNL     1     -14.467 -26.539 -24.372  1.00  0.00    -0.262 OA
HETATM    2  C1  UNL     1     -14.587 -27.577 -25.108  1.00  0.00     0.291 C 
HETATM    3  O2  UNL     1     -15.703 -28.387 -25.054  1.00  0.00    -0.309 OA
HETATM    4  C2  UNL     1     -16.206 -29.034 -26.197  1.00  0.00     0.186 C 
HETATM    5  C4  UNL     1     -15.092 -29.580 -27.033  1.00  0.00     0.181 C 
HETATM    6  C5  UNL     1     -14.148 -28.417 -27.333  1.00  0.00     0.188 C 
HETATM    7  C6  UNL     1     -13.505 -27.943 -26.057  1.00  0.00     0.248 C 
ENDROOT
BRANCH   4   8
HETATM    8  C3  UNL     1     -17.218 -30.081 -25.806  1.00  0.00     0.199 C 
BRANCH   8   9
HETATM    9  O3  UNL     1     -17.244 -31.151 -26.678  1.00  0.00    -0.398 OA
ATOM     10  H3  UNL     1     -16.385 -31.365 -27.022  1.00  0.00     0.209 HD
ENDBRANCH   8   9
ENDBRANCH   4   8
BRANCH   5  11
HETATM   11  O4  UNL     1     -14.414 -30.626 -26.416  1.00  0.00    -0.390 OA
ATOM     12  H4  UNL     1     -14.993 -31.215 -25.946  1.00  0.00     0.210 HD
ENDBRANCH   5  11
BRANCH   6  13
HETATM   13  O5  UNL     1     -13.237 -28.757 -28.308  1.00  0.00    -0.390 OA
ATOM     14  H5  UNL     1     -13.314 -28.184 -29.063  1.00  0.00     0.210 HD
ENDBRANCH   6  13
BRANCH   7  15
HETATM   15  O6  UNL     1     -12.735 -26.821 -26.356  1.00  0.00    -0.383 OA
ATOM     16  H6  UNL     1     -11.846 -27.084 -26.563  1.00  0.00     0.210 HD
ENDBRANCH   7  15
TORSDOF 5
ENDMDL
