MODEL 1
REMARK VINA RESULT: -9.751094008      0.000      0.000
REMARK  8 active torsions:
REMARK  status: ('A' for Active; 'I' for Inactive)
REMARK    1  A    between atoms: C4_6  and  N2_7 
REMARK    2  A    between atoms: N2_7  and  C5_9 
REMARK    3  A    between atoms: C11_17  and  C12_18 
REMARK    4  A    between atoms: C14_22  and  C15_23 
REMARK       I    between atoms: C15_23  and  N5_25 
REMARK    5  A    between atoms: N5_25  and  C16_27 
REMARK    6  A    between atoms: C16_27  and  C17_28 
REMARK    7  A    between atoms: C16_27  and  C18_31 
REMARK    8  A    between atoms: C17_28  and  O2_29 
ROOT
HETATM    1  C12 UNL     1      38.723  36.257  55.256  1.00  0.00     0.009 A 
HETATM    2  C13 UNL     1      39.209  36.660  56.468  1.00  0.00     0.102 A 
HETATM    3  N4  UNL     1      38.288  36.312  57.421  1.00  0.00    -0.361 N 
ATOM      4  H4  UNL     1      38.391  36.492  58.420  1.00  0.00     0.165 HD
HETATM    5  C14 UNL     1      37.242  35.707  56.863  1.00  0.00     0.101 A 
HETATM    6  C24 UNL     1      37.508  35.667  55.495  1.00  0.00     0.050 A 
ENDROOT
BRANCH   1   7
HETATM    7  C11 UNL     1      39.368  36.424  53.964  1.00  0.00     0.068 A 
HETATM    8  C2  UNL     1      39.411  35.357  53.080  1.00  0.00    -0.018 A 
HETATM    9  C1  UNL     1      38.808  34.067  53.451  1.00  0.00     0.052 C 
HETATM   10  C3  UNL     1      40.026  35.480  51.832  1.00  0.00     0.115 A 
HETATM   11  N1  UNL     1      40.555  36.679  51.570  1.00  0.00    -0.201 N 
HETATM   12  C4  UNL     1      40.530  37.729  52.405  1.00  0.00     0.683 A 
ATOM     13  H1  UNL     1      41.012  36.805  50.667  1.00  0.00     0.183 HD
HETATM   14  N3  UNL     1      39.930  37.606  53.621  1.00  0.00    -0.190 N 
ATOM     15  H3  UNL     1      39.903  38.395  54.266  1.00  0.00     0.184 HD
BRANCH  12  16
HETATM   16  N2  UNL     1      41.092  38.988  52.118  1.00  0.00    -0.192 N 
ATOM     17  H2  UNL     1      40.993  39.331  51.162  1.00  0.00     0.184 HD
BRANCH  16  18
HETATM   18  C5  UNL     1      41.776  39.821  53.025  1.00  0.00     0.049 A 
HETATM   19  C6  UNL     1      41.055  40.880  53.604  1.00  0.00     0.030 A 
HETATM   20  C7  UNL     1      41.676  41.704  54.501  1.00  0.00     0.002 A 
HETATM   21  C8  UNL     1      42.996  41.519  54.849  1.00  0.00     0.000 A 
HETATM   22  C9  UNL     1      43.703  40.491  54.288  1.00  0.00     0.002 A 
HETATM   23  C10 UNL     1      43.089  39.650  53.382  1.00  0.00     0.030 A 
ENDBRANCH  16  18
ENDBRANCH  12  16
ENDBRANCH   1   7
BRANCH   5  24
HETATM   24  C15 UNL     1      36.043  35.176  57.499  1.00  0.00     0.268 C 
HETATM   25  O1  UNL     1      34.938  35.222  56.907  1.00  0.00    -0.266 OA
HETATM   26  N5  UNL     1      36.066  34.594  58.792  1.00  0.00    -0.345 N 
ATOM     27  H5  UNL     1      36.948  34.541  59.299  1.00  0.00     0.163 HD
BRANCH  26  28
HETATM   28  C16 UNL     1      34.847  34.065  59.416  1.00  0.00     0.141 C 
BRANCH  28  29
HETATM   29  C17 UNL     1      34.291  35.172  60.278  1.00  0.00     0.194 C 
BRANCH  29  30
HETATM   30  O2  UNL     1      33.395  35.897  59.483  1.00  0.00    -0.399 OA
ATOM     31  H2  UNL     1      32.826  35.265  59.059  1.00  0.00     0.209 HD
ENDBRANCH  29  30
ENDBRANCH  28  29
BRANCH  28  32
HETATM   32  C18 UNL     1      35.268  32.883  60.235  1.00  0.00    -0.033 A 
HETATM   33  C19 UNL     1      36.605  32.567  60.303  1.00  0.00     0.009 A 
HETATM   34  C20 UNL     1      37.082  31.485  61.040  1.00  0.00     0.001 A 
HETATM   35  C21 UNL     1      36.154  30.718  61.721  1.00  0.00     0.000 A 
HETATM   36  C22 UNL     1      34.807  31.017  61.667  1.00  0.00     0.001 A 
HETATM   37  C23 UNL     1      34.367  32.110  60.916  1.00  0.00     0.009 A 
ENDBRANCH  28  32
ENDBRANCH  26  28
ENDBRANCH   5  24
TORSDOF 8
ENDMDL
