MODEL 6
REMARK VINA RESULT: -9.262959908      1.364      1.659
REMARK  8 active torsions:
REMARK  status: ('A' for Active; 'I' for Inactive)
REMARK    1  A    between atoms: C4_6  and  N2_7 
REMARK    2  A    between atoms: N2_7  and  C5_9 
REMARK    3  A    between atoms: C11_17  and  C12_18 
REMARK    4  A    between atoms: C14_22  and  C15_23 
REMARK       I    between atoms: C15_23  and  N5_25 
REMARK    5  A    between atoms: N5_25  and  C16_27 
REMARK    6  A    between atoms: C16_27  and  C17_28 
REMARK    7  A    between atoms: C16_27  and  C18_31 
REMARK    8  A    between atoms: C17_28  and  O2_29 
ROOT
HETATM    1  C12 UNL     1      38.322  34.613  54.201  1.00  0.00     0.009 A 
HETATM    2  C13 UNL     1      38.462  33.261  54.067  1.00  0.00     0.102 A 
HETATM    3  N4  UNL     1      37.621  32.666  54.971  1.00  0.00    -0.361 N 
ATOM      4  H4  UNL     1      37.518  31.658  55.092  1.00  0.00     0.165 HD
HETATM    5  C14 UNL     1      36.956  33.585  55.669  1.00  0.00     0.101 A 
HETATM    6  C24 UNL     1      37.393  34.819  55.188  1.00  0.00     0.050 A 
ENDROOT
BRANCH   1   7
HETATM    7  C11 UNL     1      39.025  35.637  53.444  1.00  0.00     0.068 A 
HETATM    8  C2  UNL     1      39.477  35.350  52.165  1.00  0.00    -0.018 A 
HETATM    9  C1  UNL     1      39.246  34.019  51.583  1.00  0.00     0.052 C 
HETATM   10  C3  UNL     1      40.159  36.308  51.411  1.00  0.00     0.115 A 
HETATM   11  N1  UNL     1      40.334  37.489  52.009  1.00  0.00    -0.201 N 
HETATM   12  C4  UNL     1      39.910  37.795  53.245  1.00  0.00     0.683 A 
ATOM     13  H1  UNL     1      40.828  38.213  51.487  1.00  0.00     0.183 HD
HETATM   14  N3  UNL     1      39.245  36.860  53.977  1.00  0.00    -0.190 N 
ATOM     15  H3  UNL     1      38.917  37.079  54.918  1.00  0.00     0.184 HD
BRANCH  12  16
HETATM   16  N2  UNL     1      40.101  39.046  53.866  1.00  0.00    -0.192 N 
ATOM     17  H2  UNL     1      39.264  39.548  54.160  1.00  0.00     0.184 HD
BRANCH  16  18
HETATM   18  C5  UNL     1      41.339  39.668  54.120  1.00  0.00     0.049 A 
HETATM   19  C6  UNL     1      41.412  40.535  55.225  1.00  0.00     0.030 A 
HETATM   20  C7  UNL     1      42.599  41.150  55.517  1.00  0.00     0.002 A 
HETATM   21  C8  UNL     1      43.723  40.938  54.752  1.00  0.00     0.000 A 
HETATM   22  C9  UNL     1      43.658  40.096  53.676  1.00  0.00     0.002 A 
HETATM   23  C10 UNL     1      42.467  39.467  53.368  1.00  0.00     0.030 A 
ENDBRANCH  16  18
ENDBRANCH  12  16
ENDBRANCH   1   7
BRANCH   5  24
HETATM   24  C15 UNL     1      35.968  33.398  56.723  1.00  0.00     0.268 C 
HETATM   25  O1  UNL     1      35.019  32.594  56.567  1.00  0.00    -0.266 OA
HETATM   26  N5  UNL     1      36.029  34.103  57.952  1.00  0.00    -0.345 N 
ATOM     27  H5  UNL     1      36.789  34.765  58.110  1.00  0.00     0.163 HD
BRANCH  26  28
HETATM   28  C16 UNL     1      35.024  33.902  59.002  1.00  0.00     0.141 C 
BRANCH  28  29
HETATM   29  C17 UNL     1      34.824  35.241  59.668  1.00  0.00     0.194 C 
BRANCH  29  30
HETATM   30  O2  UNL     1      33.809  35.900  58.962  1.00  0.00    -0.399 OA
ATOM     31  H2  UNL     1      33.938  36.832  59.095  1.00  0.00     0.209 HD
ENDBRANCH  29  30
ENDBRANCH  28  29
BRANCH  28  32
HETATM   32  C18 UNL     1      35.596  32.892  59.950  1.00  0.00    -0.033 A 
HETATM   33  C19 UNL     1      36.963  32.768  60.039  1.00  0.00     0.009 A 
HETATM   34  C20 UNL     1      37.578  31.854  60.894  1.00  0.00     0.001 A 
HETATM   35  C21 UNL     1      36.758  31.055  61.671  1.00  0.00     0.000 A 
HETATM   36  C22 UNL     1      35.383  31.164  61.597  1.00  0.00     0.001 A 
HETATM   37  C23 UNL     1      34.804  32.092  60.727  1.00  0.00     0.009 A 
ENDBRANCH  28  32
ENDBRANCH  26  28
ENDBRANCH   5  24
TORSDOF 8
ENDMDL
