MODEL 3
REMARK VINA RESULT: -9.356687528      3.044     11.385
REMARK  8 active torsions:
REMARK  status: ('A' for Active; 'I' for Inactive)
REMARK    1  A    between atoms: C4_6  and  N2_7 
REMARK    2  A    between atoms: N2_7  and  C5_9 
REMARK    3  A    between atoms: C11_17  and  C12_18 
REMARK    4  A    between atoms: C14_22  and  C15_23 
REMARK       I    between atoms: C15_23  and  N5_25 
REMARK    5  A    between atoms: N5_25  and  C16_27 
REMARK    6  A    between atoms: C16_27  and  C17_28 
REMARK    7  A    between atoms: C16_27  and  C18_31 
REMARK    8  A    between atoms: C17_28  and  O2_29 
ROOT
HETATM    1  C12 UNL     1      35.679  33.603  59.008  1.00  0.00     0.009 A 
HETATM    2  C13 UNL     1      36.105  34.882  59.231  1.00  0.00     0.102 A 
HETATM    3  N4  UNL     1      36.588  35.370  58.046  1.00  0.00    -0.361 N 
ATOM      4  H4  UNL     1      36.974  36.307  57.918  1.00  0.00     0.165 HD
HETATM    5  C14 UNL     1      36.486  34.455  57.084  1.00  0.00     0.101 A 
HETATM    6  C24 UNL     1      35.911  33.334  57.683  1.00  0.00     0.050 A 
ENDROOT
BRANCH   1   7
HETATM    7  C11 UNL     1      35.094  32.700  59.986  1.00  0.00     0.068 A 
HETATM    8  C2  UNL     1      35.924  31.920  60.777  1.00  0.00    -0.018 A 
HETATM    9  C1  UNL     1      37.384  32.008  60.623  1.00  0.00     0.052 C 
HETATM   10  C3  UNL     1      35.397  31.040  61.724  1.00  0.00     0.115 A 
HETATM   11  N1  UNL     1      34.063  31.013  61.801  1.00  0.00    -0.201 N 
HETATM   12  C4  UNL     1      33.235  31.754  61.050  1.00  0.00     0.683 A 
ATOM     13  H1  UNL     1      33.643  30.381  62.483  1.00  0.00     0.183 HD
HETATM   14  N3  UNL     1      33.752  32.612  60.128  1.00  0.00    -0.190 N 
ATOM     15  H3  UNL     1      33.134  33.182  59.550  1.00  0.00     0.184 HD
BRANCH  12  16
HETATM   16  N2  UNL     1      31.829  31.717  61.140  1.00  0.00    -0.192 N 
ATOM     17  H2  UNL     1      31.309  32.293  60.477  1.00  0.00     0.184 HD
BRANCH  16  18
HETATM   18  C5  UNL     1      31.073  30.962  62.057  1.00  0.00     0.049 A 
HETATM   19  C6  UNL     1      30.380  31.664  63.058  1.00  0.00     0.030 A 
HETATM   20  C7  UNL     1      29.621  30.971  63.961  1.00  0.00     0.002 A 
HETATM   21  C8  UNL     1      29.522  29.599  63.910  1.00  0.00     0.000 A 
HETATM   22  C9  UNL     1      30.195  28.910  62.938  1.00  0.00     0.002 A 
HETATM   23  C10 UNL     1      30.964  29.596  62.019  1.00  0.00     0.030 A 
ENDBRANCH  16  18
ENDBRANCH  12  16
ENDBRANCH   1   7
BRANCH   5  24
HETATM   24  C15 UNL     1      36.875  34.550  55.683  1.00  0.00     0.268 C 
HETATM   25  O1  UNL     1      36.213  33.954  54.800  1.00  0.00    -0.266 OA
HETATM   26  N5  UNL     1      37.997  35.304  55.257  1.00  0.00    -0.345 N 
ATOM     27  H5  UNL     1      38.557  35.800  55.951  1.00  0.00     0.163 HD
BRANCH  26  28
HETATM   28  C16 UNL     1      38.373  35.386  53.841  1.00  0.00     0.141 C 
BRANCH  28  29
HETATM   29  C17 UNL     1      39.063  34.087  53.504  1.00  0.00     0.194 C 
BRANCH  29  30
HETATM   30  O2  UNL     1      38.228  33.402  52.611  1.00  0.00    -0.399 OA
ATOM     31  H2  UNL     1      38.605  33.505  51.745  1.00  0.00     0.209 HD
ENDBRANCH  29  30
ENDBRANCH  28  29
BRANCH  28  32
HETATM   32  C18 UNL     1      39.302  36.555  53.716  1.00  0.00    -0.033 A 
HETATM   33  C19 UNL     1      39.515  37.352  54.816  1.00  0.00     0.009 A 
HETATM   34  C20 UNL     1      40.363  38.459  54.786  1.00  0.00     0.001 A 
HETATM   35  C21 UNL     1      41.000  38.742  53.592  1.00  0.00     0.000 A 
HETATM   36  C22 UNL     1      40.800  37.955  52.475  1.00  0.00     0.001 A 
HETATM   37  C23 UNL     1      39.943  36.854  52.544  1.00  0.00     0.009 A 
ENDBRANCH  28  32
ENDBRANCH  26  28
ENDBRANCH   5  24
TORSDOF 8
ENDMDL
