MODEL 2
REMARK VINA RESULT: -9.571826441      3.646     10.735
REMARK  8 active torsions:
REMARK  status: ('A' for Active; 'I' for Inactive)
REMARK    1  A    between atoms: C4_6  and  N2_7 
REMARK    2  A    between atoms: N2_7  and  C5_9 
REMARK    3  A    between atoms: C11_17  and  C12_18 
REMARK    4  A    between atoms: C14_22  and  C15_23 
REMARK       I    between atoms: C15_23  and  N5_25 
REMARK    5  A    between atoms: N5_25  and  C16_27 
REMARK    6  A    between atoms: C16_27  and  C17_28 
REMARK    7  A    between atoms: C16_27  and  C18_31 
REMARK    8  A    between atoms: C17_28  and  O2_29 
ROOT
HETATM    1  C12 UNL     1      34.507  37.373  59.287  1.00  0.00     0.009 A 
HETATM    2  C13 UNL     1      34.374  38.288  58.282  1.00  0.00     0.102 A 
HETATM    3  N4  UNL     1      35.458  38.157  57.455  1.00  0.00    -0.361 N 
ATOM      4  H4  UNL     1      35.621  38.717  56.617  1.00  0.00     0.165 HD
HETATM    5  C14 UNL     1      36.271  37.199  57.895  1.00  0.00     0.101 A 
HETATM    6  C24 UNL     1      35.677  36.697  59.053  1.00  0.00     0.050 A 
ENDROOT
BRANCH   1   7
HETATM    7  C11 UNL     1      33.588  37.159  60.393  1.00  0.00     0.068 A 
HETATM    8  C2  UNL     1      33.793  37.828  61.590  1.00  0.00    -0.018 A 
HETATM    9  C1  UNL     1      34.933  38.745  61.736  1.00  0.00     0.052 C 
HETATM   10  C3  UNL     1      32.932  37.643  62.674  1.00  0.00     0.115 A 
HETATM   11  N1  UNL     1      31.924  36.791  62.466  1.00  0.00    -0.201 N 
HETATM   12  C4  UNL     1      31.701  36.129  61.321  1.00  0.00     0.683 A 
ATOM     13  H1  UNL     1      31.274  36.633  63.237  1.00  0.00     0.183 HD
HETATM   14  N3  UNL     1      32.541  36.312  60.266  1.00  0.00    -0.190 N 
ATOM     15  H3  UNL     1      32.384  35.816  59.389  1.00  0.00     0.184 HD
BRANCH  12  16
HETATM   16  N2  UNL     1      30.634  35.233  61.114  1.00  0.00    -0.192 N 
ATOM     17  H2  UNL     1      29.918  35.514  60.443  1.00  0.00     0.184 HD
BRANCH  16  18
HETATM   18  C5  UNL     1      30.460  33.985  61.743  1.00  0.00     0.049 A 
HETATM   19  C6  UNL     1      31.612  33.215  61.982  1.00  0.00     0.030 A 
HETATM   20  C7  UNL     1      31.492  32.003  62.604  1.00  0.00     0.002 A 
HETATM   21  C8  UNL     1      30.264  31.520  63.001  1.00  0.00     0.000 A 
HETATM   22  C9  UNL     1      29.141  32.265  62.770  1.00  0.00     0.002 A 
HETATM   23  C10 UNL     1      29.246  33.490  62.144  1.00  0.00     0.030 A 
ENDBRANCH  16  18
ENDBRANCH  12  16
ENDBRANCH   1   7
BRANCH   5  24
HETATM   24  C15 UNL     1      37.527  36.729  57.326  1.00  0.00     0.268 C 
HETATM   25  O1  UNL     1      38.510  36.495  58.069  1.00  0.00    -0.266 OA
HETATM   26  N5  UNL     1      37.698  36.519  55.934  1.00  0.00    -0.345 N 
ATOM     27  H5  UNL     1      36.918  36.701  55.303  1.00  0.00     0.163 HD
BRANCH  26  28
HETATM   28  C16 UNL     1      38.972  36.047  55.381  1.00  0.00     0.141 C 
BRANCH  28  29
HETATM   29  C17 UNL     1      39.680  37.263  54.835  1.00  0.00     0.194 C 
BRANCH  29  30
HETATM   30  O2  UNL     1      40.396  37.829  55.898  1.00  0.00    -0.399 OA
ATOM     31  H2  UNL     1      41.282  37.487  55.849  1.00  0.00     0.209 HD
ENDBRANCH  29  30
ENDBRANCH  28  29
BRANCH  28  32
HETATM   32  C18 UNL     1      38.628  35.072  54.295  1.00  0.00    -0.033 A 
HETATM   33  C19 UNL     1      39.305  35.146  53.101  1.00  0.00     0.009 A 
HETATM   34  C20 UNL     1      39.047  34.279  52.039  1.00  0.00     0.001 A 
HETATM   35  C21 UNL     1      38.069  33.319  52.223  1.00  0.00     0.000 A 
HETATM   36  C22 UNL     1      37.377  33.228  53.415  1.00  0.00     0.001 A 
HETATM   37  C23 UNL     1      37.663  34.115  54.456  1.00  0.00     0.009 A 
ENDBRANCH  28  32
ENDBRANCH  26  28
ENDBRANCH   5  24
TORSDOF 8
ENDMDL
