MODEL 4
REMARK VINA RESULT: -9.320615712      2.778     10.675
REMARK  8 active torsions:
REMARK  status: ('A' for Active; 'I' for Inactive)
REMARK    1  A    between atoms: C4_6  and  N2_7 
REMARK    2  A    between atoms: N2_7  and  C5_9 
REMARK    3  A    between atoms: C11_17  and  C12_18 
REMARK    4  A    between atoms: C14_22  and  C15_23 
REMARK       I    between atoms: C15_23  and  N5_25 
REMARK    5  A    between atoms: N5_25  and  C16_27 
REMARK    6  A    between atoms: C16_27  and  C17_28 
REMARK    7  A    between atoms: C16_27  and  C18_31 
REMARK    8  A    between atoms: C17_28  and  O2_29 
ROOT
HETATM    1  C12 UNL     1      36.017  33.288  59.155  1.00  0.00     0.009 A 
HETATM    2  C13 UNL     1      36.240  34.631  59.267  1.00  0.00     0.102 A 
HETATM    3  N4  UNL     1      36.469  35.120  58.007  1.00  0.00    -0.361 N 
ATOM      4  H4  UNL     1      36.665  36.098  57.791  1.00  0.00     0.165 HD
HETATM    5  C14 UNL     1      36.400  34.143  57.105  1.00  0.00     0.101 A 
HETATM    6  C24 UNL     1      36.114  32.981  57.821  1.00  0.00     0.050 A 
ENDROOT
BRANCH   1   7
HETATM    7  C11 UNL     1      35.733  32.363  60.240  1.00  0.00     0.068 A 
HETATM    8  C2  UNL     1      36.780  31.707  60.868  1.00  0.00    -0.018 A 
HETATM    9  C1  UNL     1      38.166  31.947  60.437  1.00  0.00     0.052 C 
HETATM   10  C3  UNL     1      36.544  30.808  61.911  1.00  0.00     0.115 A 
HETATM   11  N1  UNL     1      35.261  30.639  62.242  1.00  0.00    -0.201 N 
HETATM   12  C4  UNL     1      34.227  31.258  61.652  1.00  0.00     0.683 A 
ATOM     13  H1  UNL     1      35.051  29.989  63.000  1.00  0.00     0.183 HD
HETATM   14  N3  UNL     1      34.460  32.133  60.636  1.00  0.00    -0.190 N 
ATOM     15  H3  UNL     1      33.684  32.612  60.178  1.00  0.00     0.184 HD
BRANCH  12  16
HETATM   16  N2  UNL     1      32.877  31.071  62.009  1.00  0.00    -0.192 N 
ATOM     17  H2  UNL     1      32.630  30.174  62.428  1.00  0.00     0.184 HD
BRANCH  16  18
HETATM   18  C5  UNL     1      31.835  32.004  61.842  1.00  0.00     0.049 A 
HETATM   19  C6  UNL     1      30.676  31.568  61.176  1.00  0.00     0.030 A 
HETATM   20  C7  UNL     1      29.633  32.436  61.006  1.00  0.00     0.002 A 
HETATM   21  C8  UNL     1      29.695  33.730  61.473  1.00  0.00     0.000 A 
HETATM   22  C9  UNL     1      30.819  34.159  62.122  1.00  0.00     0.002 A 
HETATM   23  C10 UNL     1      31.880  33.294  62.302  1.00  0.00     0.030 A 
ENDBRANCH  16  18
ENDBRANCH  12  16
ENDBRANCH   1   7
BRANCH   5  24
HETATM   24  C15 UNL     1      36.576  34.215  55.661  1.00  0.00     0.268 C 
HETATM   25  O1  UNL     1      35.701  33.751  54.891  1.00  0.00    -0.266 OA
HETATM   26  N5  UNL     1      37.722  34.799  55.065  1.00  0.00    -0.345 N 
ATOM     27  H5  UNL     1      38.453  35.185  55.663  1.00  0.00     0.163 HD
BRANCH  26  28
HETATM   28  C16 UNL     1      37.882  34.861  53.607  1.00  0.00     0.141 C 
BRANCH  28  29
HETATM   29  C17 UNL     1      38.412  33.516  53.176  1.00  0.00     0.194 C 
BRANCH  29  30
HETATM   30  O2  UNL     1      37.401  32.901  52.426  1.00  0.00    -0.399 OA
ATOM     31  H2  UNL     1      37.814  32.213  51.917  1.00  0.00     0.209 HD
ENDBRANCH  29  30
ENDBRANCH  28  29
BRANCH  28  32
HETATM   32  C18 UNL     1      38.867  35.958  53.335  1.00  0.00    -0.033 A 
HETATM   33  C19 UNL     1      39.676  35.861  52.228  1.00  0.00     0.009 A 
HETATM   34  C20 UNL     1      40.619  36.834  51.901  1.00  0.00     0.001 A 
HETATM   35  C21 UNL     1      40.721  37.930  52.739  1.00  0.00     0.000 A 
HETATM   36  C22 UNL     1      39.917  38.048  53.856  1.00  0.00     0.001 A 
HETATM   37  C23 UNL     1      38.984  37.050  54.151  1.00  0.00     0.009 A 
ENDBRANCH  28  32
ENDBRANCH  26  28
ENDBRANCH   5  24
TORSDOF 8
ENDMDL
