MODEL 12
REMARK VINA RESULT: -3.225814435     10.191     10.798
REMARK  2 active torsions:
REMARK  status: ('A' for Active; 'I' for Inactive)
REMARK    1  A    between atoms: O1_1  and  C1_3 
REMARK    2  A    between atoms: C6_10  and  O2_11 
ROOT
HETATM    1  C1  UNL     1       9.603  -6.553  25.793  1.00  0.00     0.102 A 
HETATM    2  C2  UNL     1       9.277  -7.831  26.234  1.00  0.00     0.063 A 
HETATM    3  C3  UNL     1       8.153  -8.080  26.986  1.00  0.00     0.038 A 
HETATM    4 CL1  UNL     1       7.807  -9.712  27.504  1.00  0.00    -0.084 Cl
HETATM    5  C4  UNL     1       7.318  -7.041  27.319  1.00  0.00     0.050 A 
HETATM    6  C5  UNL     1       7.628  -5.772  26.890  1.00  0.00     0.071 A 
HETATM    7 CL2  UNL     1       6.582  -4.425  27.300  1.00  0.00    -0.081 Cl
HETATM    8  C6  UNL     1       8.749  -5.528  26.142  1.00  0.00     0.120 A 
ENDROOT
BRANCH   1   9
HETATM    9  O1  UNL     1      10.754  -6.336  25.030  1.00  0.00    -0.358 OA
ATOM     10  H1  UNL     1      11.457  -6.974  25.024  1.00  0.00     0.217 HD
ENDBRANCH   1   9
BRANCH   8  11
HETATM   11  O2  UNL     1       9.064  -4.248  25.707  1.00  0.00    -0.356 OA
ATOM     12  H2  UNL     1       9.925  -4.108  25.332  1.00  0.00     0.218 HD
ENDBRANCH   8  11
TORSDOF 2
ENDMDL
