MODEL 11
REMARK VINA RESULT: -3.339927050      9.718     10.465
REMARK  2 active torsions:
REMARK  status: ('A' for Active; 'I' for Inactive)
REMARK    1  A    between atoms: O1_1  and  C1_3 
REMARK    2  A    between atoms: C6_10  and  O2_11 
ROOT
HETATM    1  C1  UNL     1      -2.683  -8.513  15.433  1.00  0.00     0.102 A 
HETATM    2  C2  UNL     1      -3.047  -7.770  14.315  1.00  0.00     0.063 A 
HETATM    3  C3  UNL     1      -4.360  -7.493  14.018  1.00  0.00     0.038 A 
HETATM    4 CL1  UNL     1      -4.742  -6.552  12.596  1.00  0.00    -0.084 Cl
HETATM    5  C4  UNL     1      -5.355  -7.959  14.844  1.00  0.00     0.050 A 
HETATM    6  C5  UNL     1      -5.010  -8.694  15.953  1.00  0.00     0.071 A 
HETATM    7 CL2  UNL     1      -6.255  -9.303  17.027  1.00  0.00    -0.081 Cl
HETATM    8  C6  UNL     1      -3.700  -8.970  16.246  1.00  0.00     0.120 A 
ENDROOT
BRANCH   1   9
HETATM    9  O1  UNL     1      -1.338  -8.777  15.704  1.00  0.00    -0.358 OA
ATOM     10  H1  UNL     1      -0.887  -8.319  16.404  1.00  0.00     0.217 HD
ENDBRANCH   1   9
BRANCH   8  11
HETATM   11  O2  UNL     1      -3.349  -9.712  17.364  1.00  0.00    -0.356 OA
ATOM     12  H2  UNL     1      -2.909  -9.260  18.075  1.00  0.00     0.218 HD
ENDBRANCH   8  11
TORSDOF 2
ENDMDL
