MODEL 2
REMARK VINA RESULT: -5.275449978      1.268      1.536
REMARK  2 active torsions:
REMARK  status: ('A' for Active; 'I' for Inactive)
REMARK    1  A    between atoms: O1_1  and  C1_3 
REMARK    2  A    between atoms: C6_10  and  O2_11 
ROOT
HETATM    1  C1  UNL     1       3.420  -1.725  19.098  1.00  0.00     0.102 A 
HETATM    2  C2  UNL     1       2.378  -2.635  19.249  1.00  0.00     0.063 A 
HETATM    3  C3  UNL     1       1.483  -2.554  20.288  1.00  0.00     0.038 A 
HETATM    4 CL1  UNL     1       0.199  -3.732  20.413  1.00  0.00    -0.084 Cl
HETATM    5  C4  UNL     1       1.610  -1.546  21.215  1.00  0.00     0.050 A 
HETATM    6  C5  UNL     1       2.635  -0.640  21.078  1.00  0.00     0.071 A 
HETATM    7 CL2  UNL     1       2.824   0.656  22.244  1.00  0.00    -0.081 Cl
HETATM    8  C6  UNL     1       3.525  -0.724  20.041  1.00  0.00     0.120 A 
ENDROOT
BRANCH   1   9
HETATM    9  O1  UNL     1       4.312  -1.837  18.028  1.00  0.00    -0.358 OA
ATOM     10  H1  UNL     1       5.240  -1.966  18.184  1.00  0.00     0.217 HD
ENDBRANCH   1   9
BRANCH   8  11
HETATM   11  O2  UNL     1       4.560   0.189  19.901  1.00  0.00    -0.356 OA
ATOM     12  H2  UNL     1       5.332   0.070  20.442  1.00  0.00     0.218 HD
ENDBRANCH   8  11
TORSDOF 2
ENDMDL
