MODEL 6
REMARK VINA RESULT: -4.194285872      9.369     11.000
REMARK  2 active torsions:
REMARK  status: ('A' for Active; 'I' for Inactive)
REMARK    1  A    between atoms: O1_1  and  C1_3 
REMARK    2  A    between atoms: C6_10  and  O2_11 
ROOT
HETATM    1  C1  UNL     1      -3.124  -7.050  13.529  1.00  0.00     0.102 A 
HETATM    2  C2  UNL     1      -3.071  -7.563  14.820  1.00  0.00     0.063 A 
HETATM    3  C3  UNL     1      -3.963  -8.507  15.270  1.00  0.00     0.038 A 
HETATM    4 CL1  UNL     1      -3.834  -9.105  16.906  1.00  0.00    -0.084 Cl
HETATM    5  C4  UNL     1      -4.944  -8.967  14.425  1.00  0.00     0.050 A 
HETATM    6  C5  UNL     1      -5.010  -8.470  13.145  1.00  0.00     0.071 A 
HETATM    7 CL2  UNL     1      -6.251  -9.037  12.043  1.00  0.00    -0.081 Cl
HETATM    8  C6  UNL     1      -4.119  -7.529  12.701  1.00  0.00     0.120 A 
ENDROOT
BRANCH   1   9
HETATM    9  O1  UNL     1      -2.201  -6.091  13.105  1.00  0.00    -0.358 OA
ATOM     10  H1  UNL     1      -2.489  -5.224  12.847  1.00  0.00     0.217 HD
ENDBRANCH   1   9
BRANCH   8  11
HETATM   11  O2  UNL     1      -4.182  -7.025  11.409  1.00  0.00    -0.356 OA
ATOM     12  H2  UNL     1      -4.961  -7.213  10.899  1.00  0.00     0.218 HD
ENDBRANCH   8  11
TORSDOF 2
ENDMDL
