MODEL 1
REMARK VINA RESULT: -5.606119748      0.000      0.000
REMARK  2 active torsions:
REMARK  status: ('A' for Active; 'I' for Inactive)
REMARK    1  A    between atoms: O1_1  and  C1_3 
REMARK    2  A    between atoms: C6_10  and  O2_11 
ROOT
HETATM    1  C1  UNL     1       2.518  -2.485  18.327  1.00  0.00     0.102 A 
HETATM    2  C2  UNL     1       1.215  -2.632  18.789  1.00  0.00     0.063 A 
HETATM    3  C3  UNL     1       0.761  -1.985  19.913  1.00  0.00     0.038 A 
HETATM    4 CL1  UNL     1      -0.891  -2.217  20.433  1.00  0.00    -0.084 Cl
HETATM    5  C4  UNL     1       1.613  -1.165  20.613  1.00  0.00     0.050 A 
HETATM    6  C5  UNL     1       2.905  -1.010  20.169  1.00  0.00     0.071 A 
HETATM    7 CL2  UNL     1       4.016   0.029  21.040  1.00  0.00    -0.081 Cl
HETATM    8  C6  UNL     1       3.354  -1.657  19.048  1.00  0.00     0.120 A 
ENDROOT
BRANCH   1   9
HETATM    9  O1  UNL     1       2.947  -3.158  17.180  1.00  0.00    -0.358 OA
ATOM     10  H1  UNL     1       3.624  -2.788  16.627  1.00  0.00     0.217 HD
ENDBRANCH   1   9
BRANCH   8  11
HETATM   11  O2  UNL     1       4.657  -1.502  18.597  1.00  0.00    -0.356 OA
ATOM     12  H2  UNL     1       5.268  -2.211  18.760  1.00  0.00     0.218 HD
ENDBRANCH   8  11
TORSDOF 2
ENDMDL
