MODEL 7
REMARK VINA RESULT: -3.797129978     10.119     10.898
REMARK  2 active torsions:
REMARK  status: ('A' for Active; 'I' for Inactive)
REMARK    1  A    between atoms: O1_1  and  C1_3 
REMARK    2  A    between atoms: C6_10  and  O2_11 
ROOT
HETATM    1  C1  UNL     1       8.314  -4.141  27.025  1.00  0.00     0.100 A 
HETATM    2  C2  UNL     1       7.316  -5.105  26.885  1.00  0.00     0.065 A 
HETATM    3  C3  UNL     1       7.575  -6.412  27.239  1.00  0.00     0.058 A 
HETATM    4 CL1  UNL     1       6.323  -7.629  27.065  1.00  0.00    -0.082 Cl
HETATM    5  C4  UNL     1       8.798  -6.825  27.735  1.00  0.00     0.058 A 
HETATM    6 CL2  UNL     1       9.119  -8.490  28.183  1.00  0.00    -0.082 Cl
HETATM    7  C5  UNL     1       9.774  -5.860  27.868  1.00  0.00     0.065 A 
HETATM    8  C6  UNL     1       9.541  -4.549  27.521  1.00  0.00     0.100 A 
ENDROOT
BRANCH   1   9
HETATM    9  O1  UNL     1       8.109  -2.810  26.684  1.00  0.00    -0.358 OA
ATOM     10  H1  UNL     1       8.757  -2.305  26.207  1.00  0.00     0.217 HD
ENDBRANCH   1   9
BRANCH   8  11
HETATM   11  O2  UNL     1      10.519  -3.575  27.652  1.00  0.00    -0.358 OA
ATOM     12  H2  UNL     1      11.181  -3.536  26.971  1.00  0.00     0.217 HD
ENDBRANCH   8  11
TORSDOF 2
ENDMDL
