MODEL 5
REMARK VINA RESULT: -3.958533632      0.983      1.133
REMARK  2 active torsions:
REMARK  status: ('A' for Active; 'I' for Inactive)
REMARK    1  A    between atoms: O1_1  and  C1_3 
REMARK    2  A    between atoms: C6_10  and  O2_11 
ROOT
HETATM    1  C1  UNL     1       3.890  -2.134  19.153  1.00  0.00     0.100 A 
HETATM    2  C2  UNL     1       2.575  -2.439  19.504  1.00  0.00     0.065 A 
HETATM    3  C3  UNL     1       1.900  -1.627  20.391  1.00  0.00     0.058 A 
HETATM    4 CL1  UNL     1       0.245  -2.007  20.835  1.00  0.00    -0.082 Cl
HETATM    5  C4  UNL     1       2.470  -0.504  20.961  1.00  0.00     0.058 A 
HETATM    6 CL2  UNL     1       1.604   0.523  22.088  1.00  0.00    -0.082 Cl
HETATM    7  C5  UNL     1       3.771  -0.216  20.603  1.00  0.00     0.065 A 
HETATM    8  C6  UNL     1       4.467  -1.011  19.721  1.00  0.00     0.100 A 
ENDROOT
BRANCH   1   9
HETATM    9  O1  UNL     1       4.619  -2.916  18.265  1.00  0.00    -0.358 OA
ATOM     10  H1  UNL     1       4.777  -2.648  17.367  1.00  0.00     0.217 HD
ENDBRANCH   1   9
BRANCH   8  11
HETATM   11  O2  UNL     1       5.774  -0.726  19.359  1.00  0.00    -0.358 OA
ATOM     12  H2  UNL     1       6.378  -0.513  20.061  1.00  0.00     0.217 HD
ENDBRANCH   8  11
TORSDOF 2
ENDMDL
