MODEL 1
REMARK VINA RESULT: -5.560805281      0.000      0.000
REMARK  2 active torsions:
REMARK  status: ('A' for Active; 'I' for Inactive)
REMARK    1  A    between atoms: O1_1  and  C1_3 
REMARK    2  A    between atoms: C6_10  and  O2_11 
ROOT
HETATM    1  C1  UNL     1       2.795  -2.512  18.603  1.00  0.00     0.100 A 
HETATM    2  C2  UNL     1       1.475  -2.315  19.005  1.00  0.00     0.065 A 
HETATM    3  C3  UNL     1       1.205  -1.498  20.083  1.00  0.00     0.058 A 
HETATM    4 CL1  UNL     1      -0.455  -1.248  20.594  1.00  0.00    -0.082 Cl
HETATM    5  C4  UNL     1       2.194  -0.850  20.799  1.00  0.00     0.058 A 
HETATM    6 CL2  UNL     1       1.842   0.187  22.167  1.00  0.00    -0.082 Cl
HETATM    7  C5  UNL     1       3.495  -1.055  20.387  1.00  0.00     0.065 A 
HETATM    8  C6  UNL     1       3.792  -1.866  19.316  1.00  0.00     0.100 A 
ENDROOT
BRANCH   1   9
HETATM    9  O1  UNL     1       3.127  -3.324  17.525  1.00  0.00    -0.358 OA
ATOM     10  H1  UNL     1       4.016  -3.391  17.197  1.00  0.00     0.217 HD
ENDBRANCH   1   9
BRANCH   8  11
HETATM   11  O2  UNL     1       5.097  -2.075  18.899  1.00  0.00    -0.358 OA
ATOM     12  H2  UNL     1       5.542  -2.838  19.246  1.00  0.00     0.217 HD
ENDBRANCH   8  11
TORSDOF 2
ENDMDL
