MODEL 14
REMARK VINA RESULT: -3.295081604      1.279      2.576
REMARK  2 active torsions:
REMARK  status: ('A' for Active; 'I' for Inactive)
REMARK    1  A    between atoms: O1_1  and  C1_3 
REMARK    2  A    between atoms: C6_10  and  O2_11 
ROOT
HETATM    1  C1  UNL     1       4.049  -0.386  20.036  1.00  0.00     0.100 A 
HETATM    2  C2  UNL     1       2.962   0.281  20.601  1.00  0.00     0.065 A 
HETATM    3  C3  UNL     1       1.754  -0.372  20.732  1.00  0.00     0.058 A 
HETATM    4 CL1  UNL     1       0.384   0.463  21.442  1.00  0.00    -0.082 Cl
HETATM    5  C4  UNL     1       1.561  -1.679  20.325  1.00  0.00     0.058 A 
HETATM    6 CL2  UNL     1       0.022  -2.501  20.496  1.00  0.00    -0.082 Cl
HETATM    7  C5  UNL     1       2.646  -2.324  19.768  1.00  0.00     0.065 A 
HETATM    8  C6  UNL     1       3.861  -1.695  19.625  1.00  0.00     0.100 A 
ENDROOT
BRANCH   1   9
HETATM    9  O1  UNL     1       5.289   0.221  19.878  1.00  0.00    -0.358 OA
ATOM     10  H1  UNL     1       6.096  -0.202  20.146  1.00  0.00     0.217 HD
ENDBRANCH   1   9
BRANCH   8  11
HETATM   11  O2  UNL     1       4.954  -2.340  19.066  1.00  0.00    -0.358 OA
ATOM     12  H2  UNL     1       5.267  -2.010  18.232  1.00  0.00     0.217 HD
ENDBRANCH   8  11
TORSDOF 2
ENDMDL
