MODEL 4
REMARK VINA RESULT: -4.032844193     10.004     11.131
REMARK  2 active torsions:
REMARK  status: ('A' for Active; 'I' for Inactive)
REMARK    1  A    between atoms: O1_1  and  C1_3 
REMARK    2  A    between atoms: C6_10  and  O2_11 
ROOT
HETATM    1  C1  UNL     1      -3.898  -6.783  13.015  1.00  0.00     0.100 A 
HETATM    2  C2  UNL     1      -2.983  -7.236  13.965  1.00  0.00     0.065 A 
HETATM    3  C3  UNL     1      -3.412  -8.058  14.986  1.00  0.00     0.058 A 
HETATM    4 CL1  UNL     1      -2.266  -8.631  16.185  1.00  0.00    -0.082 Cl
HETATM    5  C4  UNL     1      -4.727  -8.465  15.118  1.00  0.00     0.058 A 
HETATM    6 CL2  UNL     1      -5.263  -9.511  16.419  1.00  0.00    -0.082 Cl
HETATM    7  C5  UNL     1      -5.618  -8.008  14.170  1.00  0.00     0.065 A 
HETATM    8  C6  UNL     1      -5.216  -7.186  13.142  1.00  0.00     0.100 A 
ENDROOT
BRANCH   1   9
HETATM    9  O1  UNL     1      -3.523  -5.952  11.965  1.00  0.00    -0.358 OA
ATOM     10  H1  UNL     1      -3.809  -6.106  11.073  1.00  0.00     0.217 HD
ENDBRANCH   1   9
BRANCH   8  11
HETATM   11  O2  UNL     1      -6.108  -6.725  12.186  1.00  0.00    -0.358 OA
ATOM     12  H2  UNL     1      -7.032  -6.765  12.405  1.00  0.00     0.217 HD
ENDBRANCH   8  11
TORSDOF 2
ENDMDL
