MODEL 2
REMARK VINA RESULT: -5.549375405      0.065      2.390
REMARK  2 active torsions:
REMARK  status: ('A' for Active; 'I' for Inactive)
REMARK    1  A    between atoms: O1_1  and  C1_3 
REMARK    2  A    between atoms: C6_10  and  O2_11 
ROOT
HETATM    1  C1  UNL     1       3.852  -1.832  19.305  1.00  0.00     0.100 A 
HETATM    2  C2  UNL     1       3.538  -0.998  20.378  1.00  0.00     0.065 A 
HETATM    3  C3  UNL     1       2.220  -0.837  20.753  1.00  0.00     0.058 A 
HETATM    4 CL1  UNL     1       1.819   0.211  22.102  1.00  0.00    -0.082 Cl
HETATM    5  C4  UNL     1       1.175  -1.471  20.108  1.00  0.00     0.058 A 
HETATM    6 CL2  UNL     1      -0.497  -1.261  20.592  1.00  0.00    -0.082 Cl
HETATM    7  C5  UNL     1       1.503  -2.293  19.049  1.00  0.00     0.065 A 
HETATM    8  C6  UNL     1       2.809  -2.470  18.655  1.00  0.00     0.100 A 
ENDROOT
BRANCH   1   9
HETATM    9  O1  UNL     1       5.161  -2.031  18.883  1.00  0.00    -0.358 OA
ATOM     10  H1  UNL     1       5.821  -2.415  19.448  1.00  0.00     0.217 HD
ENDBRANCH   1   9
BRANCH   8  11
HETATM   11  O2  UNL     1       3.144  -3.294  17.592  1.00  0.00    -0.358 OA
ATOM     12  H2  UNL     1       2.539  -3.996  17.385  1.00  0.00     0.217 HD
ENDBRANCH   8  11
TORSDOF 2
ENDMDL
