MODEL 8
REMARK VINA RESULT: -3.694194307     10.186     11.212
REMARK  2 active torsions:
REMARK  status: ('A' for Active; 'I' for Inactive)
REMARK    1  A    between atoms: O1_1  and  C1_3 
REMARK    2  A    between atoms: C6_10  and  O2_11 
ROOT
HETATM    1  C1  UNL     1       9.783  -4.061  27.557  1.00  0.00     0.100 A 
HETATM    2  C2  UNL     1      10.176  -5.351  27.915  1.00  0.00     0.065 A 
HETATM    3  C3  UNL     1       9.304  -6.404  27.734  1.00  0.00     0.058 A 
HETATM    4 CL1  UNL     1       9.793  -8.028  28.183  1.00  0.00    -0.082 Cl
HETATM    5  C4  UNL     1       8.036  -6.246  27.205  1.00  0.00     0.058 A 
HETATM    6 CL2  UNL     1       6.935  -7.591  26.978  1.00  0.00    -0.082 Cl
HETATM    7  C5  UNL     1       7.664  -4.964  26.856  1.00  0.00     0.065 A 
HETATM    8  C6  UNL     1       8.514  -3.896  27.027  1.00  0.00     0.100 A 
ENDROOT
BRANCH   1   9
HETATM    9  O1  UNL     1      10.619  -2.963  27.717  1.00  0.00    -0.358 OA
ATOM     10  H1  UNL     1      11.555  -3.055  27.849  1.00  0.00     0.217 HD
ENDBRANCH   1   9
BRANCH   8  11
HETATM   11  O2  UNL     1       8.144  -2.606  26.678  1.00  0.00    -0.358 OA
ATOM     12  H2  UNL     1       7.288  -2.312  26.965  1.00  0.00     0.217 HD
ENDBRANCH   8  11
TORSDOF 2
ENDMDL
