MODEL 8
REMARK VINA RESULT: -9.516691267      2.561      4.546
REMARK  8 active torsions:
REMARK  status: ('A' for Active; 'I' for Inactive)
REMARK    1  A    between atoms: C4_6  and  N2_7 
REMARK    2  A    between atoms: N2_7  and  C5_9 
REMARK    3  A    between atoms: C11_17  and  C12_18 
REMARK    4  A    between atoms: C14_22  and  C15_23 
REMARK       I    between atoms: C15_23  and  N5_25 
REMARK    5  A    between atoms: N5_25  and  C16_27 
REMARK    6  A    between atoms: C16_27  and  C17_28 
REMARK    7  A    between atoms: C16_27  and  C18_31 
REMARK    8  A    between atoms: C17_28  and  O2_29 
ROOT
HETATM    1  C12 UNL     1       7.839  -2.522  45.692  1.00  0.00     0.009 A 
HETATM    2  C13 UNL     1       8.242  -2.029  46.901  1.00  0.00     0.102 A 
HETATM    3  N4  UNL     1       9.605  -2.160  46.969  1.00  0.00    -0.361 N 
ATOM      4  H4  UNL     1      10.177  -1.872  47.763  1.00  0.00     0.165 HD
HETATM    5  C14 UNL     1      10.079  -2.715  45.855  1.00  0.00     0.101 A 
HETATM    6  C24 UNL     1       8.969  -2.947  45.042  1.00  0.00     0.050 A 
ENDROOT
BRANCH   1   7
HETATM    7  C11 UNL     1       6.475  -2.587  45.193  1.00  0.00     0.068 A 
HETATM    8  C2  UNL     1       5.514  -1.739  45.722  1.00  0.00    -0.018 A 
HETATM    9  C1  UNL     1       5.876  -0.784  46.781  1.00  0.00     0.052 C 
HETATM   10  C3  UNL     1       4.193  -1.776  45.269  1.00  0.00     0.115 A 
HETATM   11  N1  UNL     1       3.942  -2.673  44.311  1.00  0.00    -0.201 N 
HETATM   12  C4  UNL     1       4.849  -3.507  43.781  1.00  0.00     0.683 A 
ATOM     13  H1  UNL     1       2.987  -2.728  43.956  1.00  0.00     0.183 HD
HETATM   14  N3  UNL     1       6.136  -3.468  44.224  1.00  0.00    -0.190 N 
ATOM     15  H3  UNL     1       6.837  -4.095  43.830  1.00  0.00     0.184 HD
BRANCH  12  16
HETATM   16  N2  UNL     1       4.572  -4.449  42.771  1.00  0.00    -0.192 N 
ATOM     17  H2  UNL     1       5.240  -5.212  42.655  1.00  0.00     0.184 HD
BRANCH  16  18
HETATM   18  C5  UNL     1       3.461  -4.440  41.905  1.00  0.00     0.049 A 
HETATM   19  C6  UNL     1       3.700  -4.159  40.549  1.00  0.00     0.030 A 
HETATM   20  C7  UNL     1       2.652  -4.154  39.670  1.00  0.00     0.002 A 
HETATM   21  C8  UNL     1       1.366  -4.417  40.087  1.00  0.00     0.000 A 
HETATM   22  C9  UNL     1       1.128  -4.690  41.406  1.00  0.00     0.002 A 
HETATM   23  C10 UNL     1       2.176  -4.700  42.305  1.00  0.00     0.030 A 
ENDBRANCH  16  18
ENDBRANCH  12  16
ENDBRANCH   1   7
BRANCH   5  24
HETATM   24  C15 UNL     1      11.456  -3.034  45.504  1.00  0.00     0.268 C 
HETATM   25  O1  UNL     1      12.389  -2.264  45.834  1.00  0.00    -0.266 OA
HETATM   26  N5  UNL     1      11.803  -4.207  44.788  1.00  0.00    -0.345 N 
ATOM     27  H5  UNL     1      11.068  -4.854  44.504  1.00  0.00     0.163 HD
BRANCH  26  28
HETATM   28  C16 UNL     1      13.197  -4.511  44.443  1.00  0.00     0.141 C 
BRANCH  28  29
HETATM   29  C17 UNL     1      13.197  -4.946  42.998  1.00  0.00     0.194 C 
BRANCH  29  30
HETATM   30  O2  UNL     1      13.126  -3.782  42.222  1.00  0.00    -0.399 OA
ATOM     31  H2  UNL     1      12.231  -3.711  41.910  1.00  0.00     0.209 HD
ENDBRANCH  29  30
ENDBRANCH  28  29
BRANCH  28  32
HETATM   32  C18 UNL     1      13.628  -5.619  45.356  1.00  0.00    -0.033 A 
HETATM   33  C19 UNL     1      14.972  -5.811  45.575  1.00  0.00     0.009 A 
HETATM   34  C20 UNL     1      15.458  -6.818  46.408  1.00  0.00     0.001 A 
HETATM   35  C21 UNL     1      14.531  -7.639  47.024  1.00  0.00     0.000 A 
HETATM   36  C22 UNL     1      13.177  -7.464  46.817  1.00  0.00     0.001 A 
HETATM   37  C23 UNL     1      12.728  -6.443  45.975  1.00  0.00     0.009 A 
ENDBRANCH  28  32
ENDBRANCH  26  28
ENDBRANCH   5  24
TORSDOF 8
ENDMDL
