MODEL 16
REMARK VINA RESULT: -9.104489114      2.525      4.065
REMARK  8 active torsions:
REMARK  status: ('A' for Active; 'I' for Inactive)
REMARK    1  A    between atoms: C4_6  and  N2_7 
REMARK    2  A    between atoms: N2_7  and  C5_9 
REMARK    3  A    between atoms: C11_17  and  C12_18 
REMARK    4  A    between atoms: C14_22  and  C15_23 
REMARK       I    between atoms: C15_23  and  N5_25 
REMARK    5  A    between atoms: N5_25  and  C16_27 
REMARK    6  A    between atoms: C16_27  and  C17_28 
REMARK    7  A    between atoms: C16_27  and  C18_31 
REMARK    8  A    between atoms: C17_28  and  O2_29 
ROOT
HETATM    1  C12 UNL     1       8.093  -2.173  46.668  1.00  0.00     0.009 A 
HETATM    2  C13 UNL     1       8.629  -2.323  47.916  1.00  0.00     0.102 A 
HETATM    3  N4  UNL     1       9.958  -2.622  47.763  1.00  0.00    -0.361 N 
ATOM      4  H4  UNL     1      10.608  -2.788  48.532  1.00  0.00     0.165 HD
HETATM    5  C14 UNL     1      10.283  -2.668  46.473  1.00  0.00     0.101 A 
HETATM    6  C24 UNL     1       9.110  -2.384  45.773  1.00  0.00     0.050 A 
ENDROOT
BRANCH   1   7
HETATM    7  C11 UNL     1       6.710  -1.854  46.351  1.00  0.00     0.068 A 
HETATM    8  C2  UNL     1       6.091  -0.790  46.990  1.00  0.00    -0.018 A 
HETATM    9  C1  UNL     1       6.831   0.004  47.982  1.00  0.00     0.052 C 
HETATM   10  C3  UNL     1       4.764  -0.458  46.713  1.00  0.00     0.115 A 
HETATM   11  N1  UNL     1       4.157  -1.230  45.806  1.00  0.00    -0.201 N 
HETATM   12  C4  UNL     1       4.729  -2.265  45.172  1.00  0.00     0.683 A 
ATOM     13  H1  UNL     1       3.186  -1.015  45.578  1.00  0.00     0.183 HD
HETATM   14  N3  UNL     1       6.024  -2.586  45.444  1.00  0.00    -0.190 N 
ATOM     15  H3  UNL     1       6.471  -3.370  44.970  1.00  0.00     0.184 HD
BRANCH  12  16
HETATM   16  N2  UNL     1       4.080  -3.072  44.217  1.00  0.00    -0.192 N 
ATOM     17  H2  UNL     1       3.075  -3.208  44.335  1.00  0.00     0.184 HD
BRANCH  16  18
HETATM   18  C5  UNL     1       4.684  -3.709  43.116  1.00  0.00     0.049 A 
HETATM   19  C6  UNL     1       3.898  -3.894  41.964  1.00  0.00     0.030 A 
HETATM   20  C7  UNL     1       4.450  -4.495  40.866  1.00  0.00     0.002 A 
HETATM   21  C8  UNL     1       5.758  -4.923  40.865  1.00  0.00     0.000 A 
HETATM   22  C9  UNL     1       6.527  -4.745  41.982  1.00  0.00     0.002 A 
HETATM   23  C10 UNL     1       5.985  -4.140  43.098  1.00  0.00     0.030 A 
ENDBRANCH  16  18
ENDBRANCH  12  16
ENDBRANCH   1   7
BRANCH   5  24
HETATM   24  C15 UNL     1      11.576  -2.948  45.862  1.00  0.00     0.268 C 
HETATM   25  O1  UNL     1      12.479  -2.077  45.862  1.00  0.00    -0.266 OA
HETATM   26  N5  UNL     1      11.872  -4.192  45.251  1.00  0.00    -0.345 N 
ATOM     27  H5  UNL     1      11.159  -4.921  45.234  1.00  0.00     0.163 HD
BRANCH  26  28
HETATM   28  C16 UNL     1      13.180  -4.455  44.641  1.00  0.00     0.141 C 
BRANCH  28  29
HETATM   29  C17 UNL     1      12.913  -4.869  43.214  1.00  0.00     0.194 C 
BRANCH  29  30
HETATM   30  O2  UNL     1      13.038  -3.718  42.425  1.00  0.00    -0.399 OA
ATOM     31  H2  UNL     1      13.899  -3.750  42.024  1.00  0.00     0.209 HD
ENDBRANCH  29  30
ENDBRANCH  28  29
BRANCH  28  32
HETATM   32  C18 UNL     1      13.803  -5.565  45.433  1.00  0.00    -0.033 A 
HETATM   33  C19 UNL     1      12.981  -6.474  46.056  1.00  0.00     0.009 A 
HETATM   34  C20 UNL     1      13.477  -7.535  46.813  1.00  0.00     0.001 A 
HETATM   35  C21 UNL     1      14.851  -7.654  46.922  1.00  0.00     0.000 A 
HETATM   36  C22 UNL     1      15.693  -6.752  46.304  1.00  0.00     0.001 A 
HETATM   37  C23 UNL     1      15.159  -5.700  45.554  1.00  0.00     0.009 A 
ENDBRANCH  28  32
ENDBRANCH  26  28
ENDBRANCH   5  24
TORSDOF 8
ENDMDL
