MODEL 5
REMARK VINA RESULT: -9.665293504      2.632     10.584
REMARK  8 active torsions:
REMARK  status: ('A' for Active; 'I' for Inactive)
REMARK    1  A    between atoms: C4_6  and  N2_7 
REMARK    2  A    between atoms: N2_7  and  C5_9 
REMARK    3  A    between atoms: C11_17  and  C12_18 
REMARK    4  A    between atoms: C14_22  and  C15_23 
REMARK       I    between atoms: C15_23  and  N5_25 
REMARK    5  A    between atoms: N5_25  and  C16_27 
REMARK    6  A    between atoms: C16_27  and  C17_28 
REMARK    7  A    between atoms: C16_27  and  C18_31 
REMARK    8  A    between atoms: C17_28  and  O2_29 
ROOT
HETATM    1  C12 UNL     1      12.800  -4.708  44.794  1.00  0.00     0.009 A 
HETATM    2  C13 UNL     1      12.423  -3.396  44.827  1.00  0.00     0.102 A 
HETATM    3  N4  UNL     1      11.113  -3.330  44.430  1.00  0.00    -0.361 N 
ATOM      4  H4  UNL     1      10.570  -2.469  44.360  1.00  0.00     0.165 HD
HETATM    5  C14 UNL     1      10.647  -4.545  44.148  1.00  0.00     0.101 A 
HETATM    6  C24 UNL     1      11.706  -5.423  44.376  1.00  0.00     0.050 A 
ENDROOT
BRANCH   1   7
HETATM    7  C11 UNL     1      14.108  -5.244  45.134  1.00  0.00     0.068 A 
HETATM    8  C2  UNL     1      14.197  -6.359  45.954  1.00  0.00    -0.018 A 
HETATM    9  C1  UNL     1      12.975  -6.990  46.475  1.00  0.00     0.052 C 
HETATM   10  C3  UNL     1      15.437  -6.898  46.304  1.00  0.00     0.115 A 
HETATM   11  N1  UNL     1      16.500  -6.266  45.797  1.00  0.00    -0.201 N 
HETATM   12  C4  UNL     1      16.445  -5.186  45.003  1.00  0.00     0.683 A 
ATOM     13  H1  UNL     1      17.422  -6.633  46.032  1.00  0.00     0.183 HD
HETATM   14  N3  UNL     1      15.235  -4.663  44.663  1.00  0.00    -0.190 N 
ATOM     15  H3  UNL     1      15.179  -3.843  44.059  1.00  0.00     0.184 HD
BRANCH  12  16
HETATM   16  N2  UNL     1      17.573  -4.528  44.474  1.00  0.00    -0.192 N 
ATOM     17  H2  UNL     1      17.902  -3.702  44.974  1.00  0.00     0.184 HD
BRANCH  16  18
HETATM   18  C5  UNL     1      18.292  -4.903  43.322  1.00  0.00     0.049 A 
HETATM   19  C6  UNL     1      18.540  -6.274  43.130  1.00  0.00     0.030 A 
HETATM   20  C7  UNL     1      19.221  -6.683  42.017  1.00  0.00     0.002 A 
HETATM   21  C8  UNL     1      19.670  -5.780  41.079  1.00  0.00     0.000 A 
HETATM   22  C9  UNL     1      19.431  -4.446  41.261  1.00  0.00     0.002 A 
HETATM   23  C10 UNL     1      18.745  -4.017  42.379  1.00  0.00     0.030 A 
ENDBRANCH  16  18
ENDBRANCH  12  16
ENDBRANCH   1   7
BRANCH   5  24
HETATM   24  C15 UNL     1       9.318  -4.934  43.694  1.00  0.00     0.268 C 
HETATM   25  O1  UNL     1       9.135  -6.053  43.158  1.00  0.00    -0.266 OA
HETATM   26  N5  UNL     1       8.191  -4.086  43.833  1.00  0.00    -0.345 N 
ATOM     27  H5  UNL     1       8.307  -3.169  44.265  1.00  0.00     0.163 HD
BRANCH  26  28
HETATM   28  C16 UNL     1       6.861  -4.496  43.368  1.00  0.00     0.141 C 
BRANCH  28  29
HETATM   29  C17 UNL     1       6.862  -4.338  41.868  1.00  0.00     0.194 C 
BRANCH  29  30
HETATM   30  O2  UNL     1       6.728  -5.621  41.322  1.00  0.00    -0.399 OA
ATOM     31  H2  UNL     1       7.574  -6.047  41.402  1.00  0.00     0.209 HD
ENDBRANCH  29  30
ENDBRANCH  28  29
BRANCH  28  32
HETATM   32  C18 UNL     1       5.879  -3.571  44.022  1.00  0.00    -0.033 A 
HETATM   33  C19 UNL     1       6.255  -2.910  45.168  1.00  0.00     0.009 A 
HETATM   34  C20 UNL     1       5.404  -2.033  45.839  1.00  0.00     0.001 A 
HETATM   35  C21 UNL     1       4.140  -1.839  45.310  1.00  0.00     0.000 A 
HETATM   36  C22 UNL     1       3.743  -2.493  44.161  1.00  0.00     0.001 A 
HETATM   37  C23 UNL     1       4.624  -3.366  43.516  1.00  0.00     0.009 A 
ENDBRANCH  28  32
ENDBRANCH  26  28
ENDBRANCH   5  24
TORSDOF 8
ENDMDL
