MODEL 2
REMARK VINA RESULT: -10.036485206      2.364     10.590
REMARK  8 active torsions:
REMARK  status: ('A' for Active; 'I' for Inactive)
REMARK    1  A    between atoms: C4_6  and  N2_7 
REMARK    2  A    between atoms: N2_7  and  C5_9 
REMARK    3  A    between atoms: C11_17  and  C12_18 
REMARK    4  A    between atoms: C14_22  and  C15_23 
REMARK       I    between atoms: C15_23  and  N5_25 
REMARK    5  A    between atoms: N5_25  and  C16_27 
REMARK    6  A    between atoms: C16_27  and  C17_28 
REMARK    7  A    between atoms: C16_27  and  C18_31 
REMARK    8  A    between atoms: C17_28  and  O2_29 
ROOT
HETATM    1  C12 UNL     1      12.556  -4.819  44.954  1.00  0.00     0.009 A 
HETATM    2  C13 UNL     1      11.688  -5.219  43.978  1.00  0.00     0.102 A 
HETATM    3  N4  UNL     1      10.561  -4.448  44.083  1.00  0.00    -0.361 N 
ATOM      4  H4  UNL     1       9.743  -4.530  43.478  1.00  0.00     0.165 HD
HETATM    5  C14 UNL     1      10.679  -3.578  45.084  1.00  0.00     0.101 A 
HETATM    6  C24 UNL     1      11.938  -3.804  45.640  1.00  0.00     0.050 A 
ENDROOT
BRANCH   1   7
HETATM    7  C11 UNL     1      13.878  -5.364  45.216  1.00  0.00     0.068 A 
HETATM    8  C2  UNL     1      14.006  -6.490  46.015  1.00  0.00    -0.018 A 
HETATM    9  C1  UNL     1      12.811  -7.124  46.591  1.00  0.00     0.052 C 
HETATM   10  C3  UNL     1      15.261  -7.038  46.291  1.00  0.00     0.115 A 
HETATM   11  N1  UNL     1      16.298  -6.403  45.737  1.00  0.00    -0.201 N 
HETATM   12  C4  UNL     1      16.205  -5.312  44.962  1.00  0.00     0.683 A 
ATOM     13  H1  UNL     1      17.230  -6.776  45.917  1.00  0.00     0.183 HD
HETATM   14  N3  UNL     1      14.981  -4.780  44.694  1.00  0.00    -0.190 N 
ATOM     15  H3  UNL     1      14.896  -3.951  44.106  1.00  0.00     0.184 HD
BRANCH  12  16
HETATM   16  N2  UNL     1      17.306  -4.650  44.382  1.00  0.00    -0.192 N 
ATOM     17  H2  UNL     1      17.592  -3.768  44.809  1.00  0.00     0.184 HD
BRANCH  16  18
HETATM   18  C5  UNL     1      18.051  -5.089  43.271  1.00  0.00     0.049 A 
HETATM   19  C6  UNL     1      18.725  -4.113  42.516  1.00  0.00     0.030 A 
HETATM   20  C7  UNL     1      19.472  -4.497  41.436  1.00  0.00     0.002 A 
HETATM   21  C8  UNL     1      19.578  -5.821  41.073  1.00  0.00     0.000 A 
HETATM   22  C9  UNL     1      18.925  -6.775  41.803  1.00  0.00     0.002 A 
HETATM   23  C10 UNL     1      18.167  -6.403  42.896  1.00  0.00     0.030 A 
ENDBRANCH  16  18
ENDBRANCH  12  16
ENDBRANCH   1   7
BRANCH   5  24
HETATM   24  C15 UNL     1       9.728  -2.576  45.545  1.00  0.00     0.268 C 
HETATM   25  O1  UNL     1      10.127  -1.446  45.917  1.00  0.00    -0.266 OA
HETATM   26  N5  UNL     1       8.332  -2.822  45.595  1.00  0.00    -0.345 N 
ATOM     27  H5  UNL     1       7.976  -3.730  45.299  1.00  0.00     0.163 HD
BRANCH  26  28
HETATM   28  C16 UNL     1       7.389  -1.799  46.064  1.00  0.00     0.141 C 
BRANCH  28  29
HETATM   29  C17 UNL     1       7.305  -1.949  47.563  1.00  0.00     0.194 C 
BRANCH  29  30
HETATM   30  O2  UNL     1       8.025  -0.884  48.120  1.00  0.00    -0.399 OA
ATOM     31  H2  UNL     1       7.408  -0.367  48.625  1.00  0.00     0.209 HD
ENDBRANCH  29  30
ENDBRANCH  28  29
BRANCH  28  32
HETATM   32  C18 UNL     1       6.078  -2.097  45.402  1.00  0.00    -0.033 A 
HETATM   33  C19 UNL     1       6.025  -3.093  44.456  1.00  0.00     0.009 A 
HETATM   34  C20 UNL     1       4.847  -3.433  43.792  1.00  0.00     0.001 A 
HETATM   35  C21 UNL     1       3.703  -2.726  44.118  1.00  0.00     0.000 A 
HETATM   36  C22 UNL     1       3.735  -1.722  45.066  1.00  0.00     0.001 A 
HETATM   37  C23 UNL     1       4.935  -1.409  45.709  1.00  0.00     0.009 A 
ENDBRANCH  28  32
ENDBRANCH  26  28
ENDBRANCH   5  24
TORSDOF 8
ENDMDL
