MODEL 4
REMARK VINA RESULT: -9.795961483      2.869      4.462
REMARK  8 active torsions:
REMARK  status: ('A' for Active; 'I' for Inactive)
REMARK    1  A    between atoms: C4_6  and  N2_7 
REMARK    2  A    between atoms: N2_7  and  C5_9 
REMARK    3  A    between atoms: C11_17  and  C12_18 
REMARK    4  A    between atoms: C14_22  and  C15_23 
REMARK       I    between atoms: C15_23  and  N5_25 
REMARK    5  A    between atoms: N5_25  and  C16_27 
REMARK    6  A    between atoms: C16_27  and  C17_28 
REMARK    7  A    between atoms: C16_27  and  C18_31 
REMARK    8  A    between atoms: C17_28  and  O2_29 
ROOT
HETATM    1  C12 UNL     1       7.195  -3.557  44.359  1.00  0.00     0.009 A 
HETATM    2  C13 UNL     1       7.286  -4.867  43.984  1.00  0.00     0.102 A 
HETATM    3  N4  UNL     1       8.616  -5.167  43.847  1.00  0.00    -0.361 N 
ATOM      4  H4  UNL     1       8.980  -6.081  43.574  1.00  0.00     0.165 HD
HETATM    5  C14 UNL     1       9.368  -4.103  44.120  1.00  0.00     0.101 A 
HETATM    6  C24 UNL     1       8.478  -3.080  44.445  1.00  0.00     0.050 A 
ENDROOT
BRANCH   1   7
HETATM    7  C11 UNL     1       5.973  -2.811  44.616  1.00  0.00     0.068 A 
HETATM    8  C2  UNL     1       5.893  -1.996  45.735  1.00  0.00    -0.018 A 
HETATM    9  C1  UNL     1       7.037  -1.892  46.654  1.00  0.00     0.052 C 
HETATM   10  C3  UNL     1       4.734  -1.269  46.014  1.00  0.00     0.115 A 
HETATM   11  N1  UNL     1       3.737  -1.421  45.137  1.00  0.00    -0.201 N 
HETATM   12  C4  UNL     1       3.785  -2.202  44.047  1.00  0.00     0.683 A 
ATOM     13  H1  UNL     1       2.874  -0.904  45.309  1.00  0.00     0.183 HD
HETATM   14  N3  UNL     1       4.916  -2.910  43.777  1.00  0.00    -0.190 N 
ATOM     15  H3  UNL     1       4.967  -3.507  42.952  1.00  0.00     0.184 HD
BRANCH  12  16
HETATM   16  N2  UNL     1       2.727  -2.355  43.129  1.00  0.00    -0.192 N 
ATOM     17  H2  UNL     1       2.013  -1.626  43.123  1.00  0.00     0.184 HD
BRANCH  16  18
HETATM   18  C5  UNL     1       2.561  -3.416  42.218  1.00  0.00     0.049 A 
HETATM   19  C6  UNL     1       3.433  -3.466  41.116  1.00  0.00     0.030 A 
HETATM   20  C7  UNL     1       3.316  -4.488  40.215  1.00  0.00     0.002 A 
HETATM   21  C8  UNL     1       2.363  -5.470  40.364  1.00  0.00     0.000 A 
HETATM   22  C9  UNL     1       1.512  -5.426  41.434  1.00  0.00     0.002 A 
HETATM   23  C10 UNL     1       1.617  -4.401  42.353  1.00  0.00     0.030 A 
ENDBRANCH  16  18
ENDBRANCH  12  16
ENDBRANCH   1   7
BRANCH   5  24
HETATM   24  C15 UNL     1      10.819  -3.976  44.100  1.00  0.00     0.268 C 
HETATM   25  O1  UNL     1      11.355  -2.863  43.883  1.00  0.00    -0.266 OA
HETATM   26  N5  UNL     1      11.680  -5.081  44.319  1.00  0.00    -0.345 N 
ATOM     27  H5  UNL     1      11.275  -6.000  44.498  1.00  0.00     0.163 HD
BRANCH  26  28
HETATM   28  C16 UNL     1      13.140  -4.933  44.294  1.00  0.00     0.141 C 
BRANCH  28  29
HETATM   29  C17 UNL     1      13.584  -5.290  42.897  1.00  0.00     0.194 C 
BRANCH  29  30
HETATM   30  O2  UNL     1      13.539  -4.111  42.141  1.00  0.00    -0.399 OA
ATOM     31  H2  UNL     1      14.431  -3.792  42.073  1.00  0.00     0.209 HD
ENDBRANCH  29  30
ENDBRANCH  28  29
BRANCH  28  32
HETATM   32  C18 UNL     1      13.681  -5.894  45.310  1.00  0.00    -0.033 A 
HETATM   33  C19 UNL     1      15.041  -5.956  45.503  1.00  0.00     0.009 A 
HETATM   34  C20 UNL     1      15.628  -6.821  46.425  1.00  0.00     0.001 A 
HETATM   35  C21 UNL     1      14.785  -7.635  47.162  1.00  0.00     0.000 A 
HETATM   36  C22 UNL     1      13.417  -7.588  46.984  1.00  0.00     0.001 A 
HETATM   37  C23 UNL     1      12.866  -6.708  46.048  1.00  0.00     0.009 A 
ENDBRANCH  28  32
ENDBRANCH  26  28
ENDBRANCH   5  24
TORSDOF 8
ENDMDL
