MODEL 3
REMARK VINA RESULT: -9.841780549      2.321      3.440
REMARK  8 active torsions:
REMARK  status: ('A' for Active; 'I' for Inactive)
REMARK    1  A    between atoms: C4_6  and  N2_7 
REMARK    2  A    between atoms: N2_7  and  C5_9 
REMARK    3  A    between atoms: C11_17  and  C12_18 
REMARK    4  A    between atoms: C14_22  and  C15_23 
REMARK       I    between atoms: C15_23  and  N5_25 
REMARK    5  A    between atoms: N5_25  and  C16_27 
REMARK    6  A    between atoms: C16_27  and  C17_28 
REMARK    7  A    between atoms: C16_27  and  C18_31 
REMARK    8  A    between atoms: C17_28  and  O2_29 
ROOT
HETATM    1  C12 UNL     1      10.796  -4.517  43.310  1.00  0.00     0.009 A 
HETATM    2  C13 UNL     1      11.426  -3.310  43.195  1.00  0.00     0.102 A 
HETATM    3  N4  UNL     1      12.693  -3.454  43.695  1.00  0.00    -0.361 N 
ATOM      4  H4  UNL     1      13.390  -2.709  43.735  1.00  0.00     0.165 HD
HETATM    5  C14 UNL     1      12.891  -4.700  44.121  1.00  0.00     0.101 A 
HETATM    6  C24 UNL     1      11.696  -5.379  43.881  1.00  0.00     0.050 A 
ENDROOT
BRANCH   1   7
HETATM    7  C11 UNL     1       9.434  -4.826  42.907  1.00  0.00     0.068 A 
HETATM    8  C2  UNL     1       9.192  -5.304  41.628  1.00  0.00    -0.018 A 
HETATM    9  C1  UNL     1      10.308  -5.494  40.689  1.00  0.00     0.052 C 
HETATM   10  C3  UNL     1       7.896  -5.608  41.206  1.00  0.00     0.115 A 
HETATM   11  N1  UNL     1       6.936  -5.404  42.113  1.00  0.00    -0.201 N 
HETATM   12  C4  UNL     1       7.139  -4.942  43.356  1.00  0.00     0.683 A 
ATOM     13  H1  UNL     1       5.976  -5.616  41.839  1.00  0.00     0.183 HD
HETATM   14  N3  UNL     1       8.403  -4.647  43.765  1.00  0.00    -0.190 N 
ATOM     15  H3  UNL     1       8.572  -4.296  44.707  1.00  0.00     0.184 HD
BRANCH  12  16
HETATM   16  N2  UNL     1       6.118  -4.731  44.304  1.00  0.00    -0.192 N 
ATOM     17  H2  UNL     1       5.771  -5.553  44.799  1.00  0.00     0.184 HD
BRANCH  16  18
HETATM   18  C5  UNL     1       5.531  -3.494  44.634  1.00  0.00     0.049 A 
HETATM   19  C6  UNL     1       4.464  -3.050  43.834  1.00  0.00     0.030 A 
HETATM   20  C7  UNL     1       3.855  -1.861  44.127  1.00  0.00     0.002 A 
HETATM   21  C8  UNL     1       4.265  -1.089  45.192  1.00  0.00     0.000 A 
HETATM   22  C9  UNL     1       5.302  -1.517  45.974  1.00  0.00     0.002 A 
HETATM   23  C10 UNL     1       5.927  -2.715  45.690  1.00  0.00     0.030 A 
ENDBRANCH  16  18
ENDBRANCH  12  16
ENDBRANCH   1   7
BRANCH   5  24
HETATM   24  C15 UNL     1      14.083  -5.286  44.719  1.00  0.00     0.268 C 
HETATM   25  O1  UNL     1      13.979  -6.146  45.627  1.00  0.00    -0.266 OA
HETATM   26  N5  UNL     1      15.392  -4.922  44.314  1.00  0.00    -0.345 N 
ATOM     27  H5  UNL     1      15.510  -4.227  43.578  1.00  0.00     0.163 HD
BRANCH  26  28
HETATM   28  C16 UNL     1      16.580  -5.524  44.929  1.00  0.00     0.141 C 
BRANCH  28  29
HETATM   29  C17 UNL     1      16.989  -4.609  46.057  1.00  0.00     0.194 C 
BRANCH  29  30
HETATM   30  O2  UNL     1      16.571  -5.218  47.248  1.00  0.00    -0.399 OA
ATOM     31  H2  UNL     1      16.019  -4.591  47.701  1.00  0.00     0.209 HD
ENDBRANCH  29  30
ENDBRANCH  28  29
BRANCH  28  32
HETATM   32  C18 UNL     1      17.627  -5.586  43.858  1.00  0.00    -0.033 A 
HETATM   33  C19 UNL     1      18.545  -4.566  43.770  1.00  0.00     0.009 A 
HETATM   34  C20 UNL     1      19.550  -4.544  42.805  1.00  0.00     0.001 A 
HETATM   35  C21 UNL     1      19.604  -5.603  41.916  1.00  0.00     0.000 A 
HETATM   36  C22 UNL     1      18.693  -6.637  41.987  1.00  0.00     0.001 A 
HETATM   37  C23 UNL     1      17.698  -6.623  42.969  1.00  0.00     0.009 A 
ENDBRANCH  28  32
ENDBRANCH  26  28
ENDBRANCH   5  24
TORSDOF 8
ENDMDL
