MODEL 3
REMARK VINA RESULT: -9.856827868      4.235     11.231
REMARK  8 active torsions:
REMARK  status: ('A' for Active; 'I' for Inactive)
REMARK    1  A    between atoms: C4_6  and  N2_7 
REMARK    2  A    between atoms: N2_7  and  C5_9 
REMARK    3  A    between atoms: C11_18  and  C12_19 
REMARK    4  A    between atoms: C14_23  and  C15_24 
REMARK       I    between atoms: C15_24  and  N5_26 
REMARK    5  A    between atoms: N5_26  and  C16_28 
REMARK    6  A    between atoms: C16_28  and  C17_29 
REMARK    7  A    between atoms: C16_28  and  C18_32 
REMARK    8  A    between atoms: C17_29  and  O2_30 
ROOT
HETATM    1  C12 UNL     1       7.619  -2.416  46.088  1.00  0.00     0.009 A 
HETATM    2  C13 UNL     1       8.122  -2.577  47.359  1.00  0.00     0.102 A 
HETATM    3  N4  UNL     1       9.428  -2.917  47.273  1.00  0.00    -0.361 N 
ATOM      4  H4  UNL     1      10.044  -3.097  48.068  1.00  0.00     0.165 HD
HETATM    5  C14 UNL     1       9.788  -2.982  45.988  1.00  0.00     0.101 A 
HETATM    6  C24 UNL     1       8.689  -2.676  45.246  1.00  0.00     0.050 A 
ENDROOT
BRANCH   1   7
HETATM    7  C11 UNL     1       6.280  -2.052  45.636  1.00  0.00     0.068 A 
HETATM    8  C2  UNL     1       5.581  -1.069  46.291  1.00  0.00    -0.018 A 
HETATM    9  C1  UNL     1       6.205  -0.391  47.452  1.00  0.00     0.052 C 
HETATM   10  C3  UNL     1       4.300  -0.715  45.854  1.00  0.00     0.115 A 
HETATM   11  N1  UNL     1       3.811  -1.368  44.794  1.00  0.00    -0.201 N 
HETATM   12  C4  UNL     1       4.451  -2.320  44.133  1.00  0.00     0.683 A 
ATOM     13  H1  UNL     1       2.877  -1.115  44.471  1.00  0.00     0.183 HD
HETATM   14  N3  UNL     1       5.710  -2.669  44.562  1.00  0.00    -0.190 N 
ATOM     15  H3  UNL     1       6.225  -3.399  44.070  1.00  0.00     0.184 HD
BRANCH  12  16
HETATM   16  N2  UNL     1       3.936  -3.005  43.020  1.00  0.00    -0.190 N 
ATOM     17  H2  UNL     1       4.535  -3.077  42.199  1.00  0.00     0.184 HD
BRANCH  16  18
HETATM   18  C5  UNL     1       2.669  -3.597  42.944  1.00  0.00     0.070 A 
HETATM   19  C6  UNL     1       1.791  -3.737  43.970  1.00  0.00     0.032 A 
HETATM   20  C7  UNL     1       0.536  -4.348  43.799  1.00  0.00     0.002 A 
HETATM   21  C8  UNL     1       0.153  -4.829  42.578  1.00  0.00     0.002 A 
HETATM   22  C9  UNL     1       1.024  -4.701  41.519  1.00  0.00     0.026 A 
HETATM   23  C10 UNL     1       2.248  -4.100  41.703  1.00  0.00     0.061 A 
HETATM   24 CL1  UNL     1       3.294  -3.983  40.294  1.00  0.00    -0.082 Cl
ENDBRANCH  16  18
ENDBRANCH  12  16
ENDBRANCH   1   7
BRANCH   5  25
HETATM   25  C15 UNL     1      11.101  -3.313  45.484  1.00  0.00     0.268 C 
HETATM   26  O1  UNL     1      12.074  -2.493  45.553  1.00  0.00    -0.266 OA
HETATM   27  N5  UNL     1      11.409  -4.566  44.875  1.00  0.00    -0.345 N 
ATOM     28  H5  UNL     1      10.671  -5.266  44.790  1.00  0.00     0.163 HD
BRANCH  27  29
HETATM   29  C16 UNL     1      12.714  -4.878  44.379  1.00  0.00     0.141 C 
BRANCH  29  30
HETATM   30  C17 UNL     1      12.639  -5.284  42.924  1.00  0.00     0.194 C 
BRANCH  30  31
HETATM   31  O2  UNL     1      12.516  -4.159  42.111  1.00  0.00    -0.399 OA
ATOM     32  H2  UNL     1      11.634  -3.810  42.159  1.00  0.00     0.209 HD
ENDBRANCH  30  31
ENDBRANCH  29  30
BRANCH  29  33
HETATM   33  C18 UNL     1      13.417  -5.890  45.208  1.00  0.00    -0.033 A 
HETATM   34  C19 UNL     1      14.788  -6.017  45.165  1.00  0.00     0.009 A 
HETATM   35  C20 UNL     1      15.467  -6.943  45.920  1.00  0.00     0.001 A 
HETATM   36  C21 UNL     1      14.751  -7.775  46.751  1.00  0.00     0.000 A 
HETATM   37  C22 UNL     1      13.379  -7.680  46.822  1.00  0.00     0.001 A 
HETATM   38  C23 UNL     1      12.728  -6.738  46.050  1.00  0.00     0.009 A 
ENDBRANCH  29  33
ENDBRANCH  27  29
ENDBRANCH   5  25
TORSDOF 8
ENDMDL
