MODEL 5
REMARK VINA RESULT: -9.776995874      3.915     10.973
REMARK  8 active torsions:
REMARK  status: ('A' for Active; 'I' for Inactive)
REMARK    1  A    between atoms: C4_6  and  N2_7 
REMARK    2  A    between atoms: N2_7  and  C5_9 
REMARK    3  A    between atoms: C11_18  and  C12_19 
REMARK    4  A    between atoms: C14_23  and  C15_24 
REMARK       I    between atoms: C15_24  and  N5_26 
REMARK    5  A    between atoms: N5_26  and  C16_28 
REMARK    6  A    between atoms: C16_28  and  C17_29 
REMARK    7  A    between atoms: C16_28  and  C18_32 
REMARK    8  A    between atoms: C17_29  and  O2_30 
ROOT
HETATM    1  C12 UNL     1      10.348  -4.668  43.170  1.00  0.00     0.009 A 
HETATM    2  C13 UNL     1      11.007  -3.459  43.183  1.00  0.00     0.102 A 
HETATM    3  N4  UNL     1      12.261  -3.647  43.651  1.00  0.00    -0.361 N 
ATOM      4  H4  UNL     1      12.964  -2.916  43.764  1.00  0.00     0.165 HD
HETATM    5  C14 UNL     1      12.438  -4.939  43.943  1.00  0.00     0.101 A 
HETATM    6  C24 UNL     1      11.273  -5.581  43.653  1.00  0.00     0.050 A 
ENDROOT
BRANCH   1   7
HETATM    7  C11 UNL     1       8.990  -5.006  42.756  1.00  0.00     0.068 A 
HETATM    8  C2  UNL     1       8.768  -5.539  41.511  1.00  0.00    -0.018 A 
HETATM    9  C1  UNL     1       9.920  -5.764  40.606  1.00  0.00     0.052 C 
HETATM   10  C3  UNL     1       7.467  -5.869  41.116  1.00  0.00     0.115 A 
HETATM   11  N1  UNL     1       6.483  -5.643  41.995  1.00  0.00    -0.201 N 
HETATM   12  C4  UNL     1       6.654  -5.132  43.204  1.00  0.00     0.683 A 
ATOM     13  H1  UNL     1       5.532  -5.881  41.712  1.00  0.00     0.183 HD
HETATM   14  N3  UNL     1       7.932  -4.807  43.592  1.00  0.00    -0.190 N 
ATOM     15  H3  UNL     1       8.092  -4.412  44.519  1.00  0.00     0.184 HD
BRANCH  12  16
HETATM   16  N2  UNL     1       5.620  -4.894  44.124  1.00  0.00    -0.190 N 
ATOM     17  H2  UNL     1       5.158  -5.709  44.527  1.00  0.00     0.184 HD
BRANCH  16  18
HETATM   18  C5  UNL     1       5.169  -3.634  44.535  1.00  0.00     0.070 A 
HETATM   19  C6  UNL     1       5.768  -2.833  45.453  1.00  0.00     0.032 A 
HETATM   20  C7  UNL     1       5.240  -1.578  45.804  1.00  0.00     0.002 A 
HETATM   21  C8  UNL     1       4.090  -1.116  45.226  1.00  0.00     0.002 A 
HETATM   22  C9  UNL     1       3.461  -1.908  44.291  1.00  0.00     0.026 A 
HETATM   23  C10 UNL     1       3.991  -3.133  43.959  1.00  0.00     0.061 A 
HETATM   24 CL1  UNL     1       3.117  -4.075  42.757  1.00  0.00    -0.082 Cl
ENDBRANCH  16  18
ENDBRANCH  12  16
ENDBRANCH   1   7
BRANCH   5  25
HETATM   25  C15 UNL     1      13.642  -5.540  44.467  1.00  0.00     0.268 C 
HETATM   26  O1  UNL     1      13.626  -6.297  45.492  1.00  0.00    -0.266 OA
HETATM   27  N5  UNL     1      14.930  -5.338  43.886  1.00  0.00    -0.345 N 
ATOM     28  H5  UNL     1      15.010  -4.742  43.063  1.00  0.00     0.163 HD
BRANCH  27  29
HETATM   29  C16 UNL     1      16.114  -5.940  44.418  1.00  0.00     0.141 C 
BRANCH  29  30
HETATM   30  C17 UNL     1      16.769  -5.015  45.420  1.00  0.00     0.194 C 
BRANCH  30  31
HETATM   31  O2  UNL     1      16.392  -5.357  46.717  1.00  0.00    -0.399 OA
ATOM     32  H2  UNL     1      15.640  -4.843  46.990  1.00  0.00     0.209 HD
ENDBRANCH  30  31
ENDBRANCH  29  30
BRANCH  29  33
HETATM   33  C18 UNL     1      17.060  -6.381  43.360  1.00  0.00    -0.033 A 
HETATM   34  C19 UNL     1      16.604  -6.833  42.142  1.00  0.00     0.009 A 
HETATM   35  C20 UNL     1      17.453  -7.248  41.145  1.00  0.00     0.001 A 
HETATM   36  C21 UNL     1      18.811  -7.208  41.370  1.00  0.00     0.000 A 
HETATM   37  C22 UNL     1      19.307  -6.763  42.575  1.00  0.00     0.001 A 
HETATM   38  C23 UNL     1      18.424  -6.354  43.556  1.00  0.00     0.009 A 
ENDBRANCH  29  33
ENDBRANCH  27  29
ENDBRANCH   5  25
TORSDOF 8
ENDMDL
