MODEL 1
REMARK VINA RESULT: -10.065142276      0.000      0.000
REMARK  8 active torsions:
REMARK  status: ('A' for Active; 'I' for Inactive)
REMARK    1  A    between atoms: C4_6  and  N2_7 
REMARK    2  A    between atoms: N2_7  and  C5_9 
REMARK    3  A    between atoms: C11_18  and  C12_19 
REMARK    4  A    between atoms: C14_23  and  C15_24 
REMARK       I    between atoms: C15_24  and  N5_26 
REMARK    5  A    between atoms: N5_26  and  C16_28 
REMARK    6  A    between atoms: C16_28  and  C17_29 
REMARK    7  A    between atoms: C16_28  and  C18_32 
REMARK    8  A    between atoms: C17_29  and  O2_30 
ROOT
HETATM    1  C12 UNL     1      12.221  -5.081  44.672  1.00  0.00     0.009 A 
HETATM    2  C13 UNL     1      11.336  -5.476  43.693  1.00  0.00     0.102 A 
HETATM    3  N4  UNL     1      10.220  -4.719  43.780  1.00  0.00    -0.361 N 
ATOM      4  H4  UNL     1       9.403  -4.801  43.173  1.00  0.00     0.165 HD
HETATM    5  C14 UNL     1      10.351  -3.845  44.782  1.00  0.00     0.101 A 
HETATM    6  C24 UNL     1      11.574  -4.053  45.341  1.00  0.00     0.050 A 
ENDROOT
BRANCH   1   7
HETATM    7  C11 UNL     1      13.555  -5.572  45.000  1.00  0.00     0.068 A 
HETATM    8  C2  UNL     1      13.701  -6.626  45.866  1.00  0.00    -0.018 A 
HETATM    9  C1  UNL     1      12.492  -7.251  46.454  1.00  0.00     0.052 C 
HETATM   10  C3  UNL     1      14.980  -7.102  46.177  1.00  0.00     0.115 A 
HETATM   11  N1  UNL     1      16.019  -6.489  45.598  1.00  0.00    -0.201 N 
HETATM   12  C4  UNL     1      15.923  -5.471  44.758  1.00  0.00     0.683 A 
ATOM     13  H1  UNL     1      16.954  -6.831  45.821  1.00  0.00     0.183 HD
HETATM   14  N3  UNL     1      14.666  -5.003  44.453  1.00  0.00    -0.190 N 
ATOM     15  H3  UNL     1      14.564  -4.220  43.807  1.00  0.00     0.184 HD
BRANCH  12  16
HETATM   16  N2  UNL     1      17.015  -4.829  44.152  1.00  0.00    -0.190 N 
ATOM     17  H2  UNL     1      17.389  -4.004  44.619  1.00  0.00     0.184 HD
BRANCH  16  18
HETATM   18  C5  UNL     1      17.635  -5.227  42.961  1.00  0.00     0.070 A 
HETATM   19  C6  UNL     1      17.086  -6.014  42.001  1.00  0.00     0.032 A 
HETATM   20  C7  UNL     1      17.788  -6.363  40.833  1.00  0.00     0.002 A 
HETATM   21  C8  UNL     1      19.062  -5.916  40.623  1.00  0.00     0.002 A 
HETATM   22  C9  UNL     1      19.644  -5.115  41.580  1.00  0.00     0.026 A 
HETATM   23  C10 UNL     1      18.944  -4.783  42.717  1.00  0.00     0.061 A 
HETATM   24 CL1  UNL     1      19.769  -3.757  43.884  1.00  0.00    -0.082 Cl
ENDBRANCH  16  18
ENDBRANCH  12  16
ENDBRANCH   1   7
BRANCH   5  25
HETATM   25  C15 UNL     1       9.375  -2.863  45.193  1.00  0.00     0.268 C 
HETATM   26  O1  UNL     1       9.713  -1.689  45.556  1.00  0.00    -0.266 OA
HETATM   27  N5  UNL     1       7.972  -3.123  45.226  1.00  0.00    -0.345 N 
ATOM     28  H5  UNL     1       7.637  -4.046  44.946  1.00  0.00     0.163 HD
BRANCH  27  29
HETATM   29  C16 UNL     1       7.018  -2.139  45.636  1.00  0.00     0.141 C 
BRANCH  29  30
HETATM   30  C17 UNL     1       7.012  -2.012  47.144  1.00  0.00     0.194 C 
BRANCH  30  31
HETATM   31  O2  UNL     1       7.573  -0.797  47.531  1.00  0.00    -0.399 OA
ATOM     32  H2  UNL     1       6.898  -0.135  47.628  1.00  0.00     0.209 HD
ENDBRANCH  30  31
ENDBRANCH  29  30
BRANCH  29  33
HETATM   33  C18 UNL     1       5.660  -2.392  45.090  1.00  0.00    -0.033 A 
HETATM   34  C19 UNL     1       4.603  -1.567  45.404  1.00  0.00     0.009 A 
HETATM   35  C20 UNL     1       3.335  -1.775  44.914  1.00  0.00     0.001 A 
HETATM   36  C21 UNL     1       3.114  -2.845  44.077  1.00  0.00     0.000 A 
HETATM   37  C22 UNL     1       4.146  -3.693  43.738  1.00  0.00     0.001 A 
HETATM   38  C23 UNL     1       5.407  -3.455  44.249  1.00  0.00     0.009 A 
ENDBRANCH  29  33
ENDBRANCH  27  29
ENDBRANCH   5  25
TORSDOF 8
ENDMDL
