MODEL 8
REMARK VINA RESULT: -9.596298925      3.929     10.958
REMARK  8 active torsions:
REMARK  status: ('A' for Active; 'I' for Inactive)
REMARK    1  A    between atoms: C4_6  and  N2_7 
REMARK    2  A    between atoms: N2_7  and  C5_9 
REMARK    3  A    between atoms: C11_18  and  C12_19 
REMARK    4  A    between atoms: C14_23  and  C15_24 
REMARK       I    between atoms: C15_24  and  N5_26 
REMARK    5  A    between atoms: N5_26  and  C16_28 
REMARK    6  A    between atoms: C16_28  and  C17_29 
REMARK    7  A    between atoms: C16_28  and  C18_32 
REMARK    8  A    between atoms: C17_29  and  O2_30 
ROOT
HETATM    1  C12 UNL     1      10.420  -4.741  43.158  1.00  0.00     0.009 A 
HETATM    2  C13 UNL     1      11.127  -3.561  43.087  1.00  0.00     0.102 A 
HETATM    3  N4  UNL     1      12.368  -3.763  43.582  1.00  0.00    -0.361 N 
ATOM      4  H4  UNL     1      13.099  -3.054  43.648  1.00  0.00     0.165 HD
HETATM    5  C14 UNL     1      12.491  -5.035  43.972  1.00  0.00     0.101 A 
HETATM    6  C24 UNL     1      11.304  -5.651  43.718  1.00  0.00     0.050 A 
ENDROOT
BRANCH   1   7
HETATM    7  C11 UNL     1       9.053  -5.054  42.756  1.00  0.00     0.068 A 
HETATM    8  C2  UNL     1       8.809  -5.574  41.510  1.00  0.00    -0.018 A 
HETATM    9  C1  UNL     1       9.948  -5.810  40.590  1.00  0.00     0.052 C 
HETATM   10  C3  UNL     1       7.499  -5.882  41.126  1.00  0.00     0.115 A 
HETATM   11  N1  UNL     1       6.529  -5.647  42.017  1.00  0.00    -0.201 N 
HETATM   12  C4  UNL     1       6.720  -5.148  43.228  1.00  0.00     0.683 A 
ATOM     13  H1  UNL     1       5.571  -5.869  41.742  1.00  0.00     0.183 HD
HETATM   14  N3  UNL     1       8.007  -4.846  43.605  1.00  0.00    -0.190 N 
ATOM     15  H3  UNL     1       8.182  -4.461  44.533  1.00  0.00     0.184 HD
BRANCH  12  16
HETATM   16  N2  UNL     1       5.699  -4.903  44.161  1.00  0.00    -0.190 N 
ATOM     17  H2  UNL     1       5.259  -5.714  44.595  1.00  0.00     0.184 HD
BRANCH  16  18
HETATM   18  C5  UNL     1       5.235  -3.639  44.545  1.00  0.00     0.070 A 
HETATM   19  C6  UNL     1       5.816  -2.820  45.458  1.00  0.00     0.032 A 
HETATM   20  C7  UNL     1       5.275  -1.562  45.782  1.00  0.00     0.002 A 
HETATM   21  C8  UNL     1       4.131  -1.118  45.181  1.00  0.00     0.002 A 
HETATM   22  C9  UNL     1       3.519  -1.928  44.251  1.00  0.00     0.026 A 
HETATM   23  C10 UNL     1       4.061  -3.155  43.946  1.00  0.00     0.061 A 
HETATM   24 CL1  UNL     1       3.211  -4.121  42.747  1.00  0.00    -0.082 Cl
ENDBRANCH  16  18
ENDBRANCH  12  16
ENDBRANCH   1   7
BRANCH   5  25
HETATM   25  C15 UNL     1      13.666  -5.643  44.552  1.00  0.00     0.268 C 
HETATM   26  O1  UNL     1      13.585  -6.592  45.398  1.00  0.00    -0.266 OA
HETATM   27  N5  UNL     1      14.995  -5.234  44.230  1.00  0.00    -0.345 N 
ATOM     28  H5  UNL     1      15.127  -4.477  43.558  1.00  0.00     0.163 HD
BRANCH  27  29
HETATM   29  C16 UNL     1      16.149  -5.845  44.814  1.00  0.00     0.141 C 
BRANCH  29  30
HETATM   30  C17 UNL     1      16.183  -5.584  46.303  1.00  0.00     0.194 C 
BRANCH  30  31
HETATM   31  O2  UNL     1      15.861  -6.742  47.008  1.00  0.00    -0.399 OA
ATOM     32  H2  UNL     1      16.059  -7.513  46.489  1.00  0.00     0.209 HD
ENDBRANCH  30  31
ENDBRANCH  29  30
BRANCH  29  33
HETATM   33  C18 UNL     1      17.413  -5.444  44.145  1.00  0.00    -0.033 A 
HETATM   34  C19 UNL     1      18.225  -4.472  44.683  1.00  0.00     0.009 A 
HETATM   35  C20 UNL     1      19.400  -4.079  44.088  1.00  0.00     0.001 A 
HETATM   36  C21 UNL     1      19.781  -4.682  42.910  1.00  0.00     0.000 A 
HETATM   37  C22 UNL     1      18.996  -5.659  42.339  1.00  0.00     0.001 A 
HETATM   38  C23 UNL     1      17.821  -6.029  42.964  1.00  0.00     0.009 A 
ENDBRANCH  29  33
ENDBRANCH  27  29
ENDBRANCH   5  25
TORSDOF 8
ENDMDL
