MODEL 7
REMARK VINA RESULT: -10.224016870      2.383      9.346
REMARK  10 active torsions:
REMARK  status: ('A' for Active; 'I' for Inactive)
REMARK    1  A    between atoms: O1_2  and  C2_3 
REMARK    2  A    between atoms: N1_18  and  C16_19 
REMARK    3  A    between atoms: C16_19  and  C17_20 
REMARK    4  A    between atoms: C17_20  and  O3_21 
REMARK    5  A    between atoms: C17_20  and  C18_23 
REMARK    6  A    between atoms: C18_23  and  C19_24 
REMARK    7  A    between atoms: C18_23  and  N2_31 
REMARK    8  A    between atoms: C19_24  and  C20_25 
REMARK       I    between atoms: N2_31  and  C26_33 
REMARK    9  A    between atoms: C26_33  and  O5_35 
REMARK   10  A    between atoms: O5_35  and  C27_36 
ROOT
HETATM    1  C17 UNL     1      18.604 -19.687  -3.308  1.00  0.00     0.160 C 
ENDROOT
BRANCH   1   2
HETATM    2  C16 UNL     1      18.922 -18.507  -4.170  1.00  0.00     0.174 C 
BRANCH   2   3
HETATM    3  N1  UNL     1      20.289 -18.445  -4.632  1.00  0.00    -0.284 N 
HETATM    4  C15 UNL     1      20.358 -18.579  -6.023  1.00  0.00     0.076 C 
HETATM    5  C14 UNL     1      19.945 -17.384  -6.847  1.00  0.00     0.046 C 
HETATM    6  C13 UNL     1      20.570 -17.555  -8.231  1.00  0.00     0.009 C 
HETATM    7  C12 UNL     1      21.439 -16.403  -8.636  1.00  0.00     0.027 C 
HETATM    8  C11 UNL     1      21.151 -15.146  -7.889  1.00  0.00    -0.031 C 
HETATM    9  C10 UNL     1      21.944 -14.529  -7.056  1.00  0.00    -0.029 C 
HETATM   10  C9  UNL     1      23.303 -14.884  -6.630  1.00  0.00     0.053 C 
HETATM   11  C8  UNL     1      23.544 -16.303  -6.275  1.00  0.00     0.179 C 
HETATM   12  O2  UNL     1      24.145 -16.421  -5.001  1.00  0.00    -0.349 OA
HETATM   13  C6  UNL     1      24.057 -17.430  -4.073  1.00  0.00     0.094 A 
HETATM   14  C5  UNL     1      22.920 -17.945  -3.501  1.00  0.00     0.113 A 
HETATM   15  C7  UNL     1      25.259 -18.018  -3.643  1.00  0.00     0.075 A 
HETATM   16  C4  UNL     1      23.012 -18.990  -2.558  1.00  0.00     0.031 A 
HETATM   17  S1  UNL     1      21.284 -17.383  -3.812  1.00  0.00     0.267 S 
HETATM   18  C3  UNL     1      24.210 -19.534  -2.170  1.00  0.00     0.038 A 
HETATM   19  C2  UNL     1      25.338 -19.031  -2.727  1.00  0.00     0.070 A 
HETATM   20  O8  UNL     1      21.351 -15.982  -4.285  1.00  0.00    -0.200 OA
HETATM   21  O9  UNL     1      20.620 -17.234  -2.420  1.00  0.00    -0.200 OA
BRANCH  19  22
HETATM   22  O1  UNL     1      26.560 -19.581  -2.333  1.00  0.00    -0.356 OA
HETATM   23  C1  UNL     1      27.196 -20.590  -3.049  1.00  0.00     0.210 C 
ENDBRANCH  19  22
ENDBRANCH   2   3
ENDBRANCH   1   2
BRANCH   1  24
HETATM   24  O3  UNL     1      18.360 -19.373  -1.982  1.00  0.00    -0.392 OA
ATOM     25  H3  UNL     1      18.796 -19.942  -1.359  1.00  0.00     0.210 HD
ENDBRANCH   1  24
BRANCH   1  26
HETATM   26  C18 UNL     1      17.420 -20.447  -3.869  1.00  0.00     0.121 C 
BRANCH  26  27
HETATM   27  C19 UNL     1      17.667 -21.929  -3.875  1.00  0.00     0.066 C 
BRANCH  27  28
HETATM   28  C20 UNL     1      16.414 -22.715  -3.836  1.00  0.00    -0.056 A 
HETATM   29  C21 UNL     1      15.988 -23.346  -4.974  1.00  0.00     0.007 A 
HETATM   30  C22 UNL     1      14.825 -24.081  -4.955  1.00  0.00     0.001 A 
HETATM   31  C23 UNL     1      14.065 -24.205  -3.812  1.00  0.00     0.000 A 
HETATM   32  C24 UNL     1      14.528 -23.555  -2.686  1.00  0.00     0.001 A 
HETATM   33  C25 UNL     1      15.694 -22.813  -2.688  1.00  0.00     0.007 A 
ENDBRANCH  27  28
ENDBRANCH  26  27
BRANCH  26  34
HETATM   34  N2  UNL     1      17.029 -19.915  -5.139  1.00  0.00    -0.329 N 
HETATM   35  C26 UNL     1      15.694 -19.690  -5.492  1.00  0.00     0.361 C 
HETATM   36  O4  UNL     1      14.820 -19.976  -4.643  1.00  0.00    -0.238 OA
ATOM     37  H2  UNL     1      17.757 -19.689  -5.817  1.00  0.00     0.165 HD
BRANCH  35  38
HETATM   38  O5  UNL     1      15.269 -19.176  -6.706  1.00  0.00    -0.296 OA
BRANCH  38  39
HETATM   39  C27 UNL     1      15.916 -19.616  -7.913  1.00  0.00     0.166 C 
HETATM   40  C28 UNL     1      16.800 -20.756  -7.565  1.00  0.00     0.204 C 
HETATM   41  O6  UNL     1      16.572 -21.791  -8.460  1.00  0.00    -0.358 OA
HETATM   42  C29 UNL     1      15.273 -21.636  -8.923  1.00  0.00     0.266 C 
HETATM   43  O7  UNL     1      14.429 -22.225  -8.013  1.00  0.00    -0.361 OA
HETATM   44  C32 UNL     1      14.944 -20.188  -8.884  1.00  0.00     0.075 C 
HETATM   45  C30 UNL     1      13.255 -21.517  -7.948  1.00  0.00     0.171 C 
HETATM   46  C31 UNL     1      13.508 -20.124  -8.429  1.00  0.00     0.038 C 
ENDBRANCH  38  39
ENDBRANCH  35  38
ENDBRANCH  26  34
ENDBRANCH   1  26
TORSDOF 10
ENDMDL
