MODEL 3
REMARK VINA RESULT: -10.882167206      1.349      3.770
REMARK  10 active torsions:
REMARK  status: ('A' for Active; 'I' for Inactive)
REMARK    1  A    between atoms: O1_2  and  C2_3 
REMARK    2  A    between atoms: N1_18  and  C16_19 
REMARK    3  A    between atoms: C16_19  and  C17_20 
REMARK    4  A    between atoms: C17_20  and  O3_21 
REMARK    5  A    between atoms: C17_20  and  C18_23 
REMARK    6  A    between atoms: C18_23  and  C19_24 
REMARK    7  A    between atoms: C18_23  and  N2_31 
REMARK    8  A    between atoms: C19_24  and  C20_25 
REMARK       I    between atoms: N2_31  and  C26_33 
REMARK    9  A    between atoms: C26_33  and  O5_35 
REMARK   10  A    between atoms: O5_35  and  C27_36 
ROOT
HETATM    1  C17 UNL     1      17.559 -19.051  -4.119  1.00  0.00     0.160 C 
ENDROOT
BRANCH   1   2
HETATM    2  C16 UNL     1      17.161 -19.585  -5.457  1.00  0.00     0.174 C 
BRANCH   2   3
HETATM    3  N1  UNL     1      15.954 -20.379  -5.459  1.00  0.00    -0.284 N 
HETATM    4  C15 UNL     1      14.921 -19.724  -6.138  1.00  0.00     0.076 C 
HETATM    5  C14 UNL     1      14.999 -19.703  -7.645  1.00  0.00     0.046 C 
HETATM    6  C13 UNL     1      13.589 -19.425  -8.164  1.00  0.00     0.009 C 
HETATM    7  C12 UNL     1      13.084 -20.480  -9.102  1.00  0.00     0.027 C 
HETATM    8  C11 UNL     1      14.166 -21.293  -9.725  1.00  0.00    -0.031 C 
HETATM    9  C10 UNL     1      14.393 -22.566  -9.549  1.00  0.00    -0.029 C 
HETATM   10  C9  UNL     1      13.669 -23.531  -8.714  1.00  0.00     0.053 C 
HETATM   11  C8  UNL     1      13.318 -23.099  -7.340  1.00  0.00     0.179 C 
HETATM   12  O2  UNL     1      13.748 -24.039  -6.376  1.00  0.00    -0.349 OA
HETATM   13  C6  UNL     1      14.132 -23.853  -5.070  1.00  0.00     0.094 A 
HETATM   14  C5  UNL     1      15.122 -23.027  -4.597  1.00  0.00     0.113 A 
HETATM   15  C7  UNL     1      13.444 -24.583  -4.086  1.00  0.00     0.075 A 
HETATM   16  C4  UNL     1      15.385 -22.957  -3.214  1.00  0.00     0.031 A 
HETATM   17  S1  UNL     1      16.172 -22.029  -5.593  1.00  0.00     0.267 S 
HETATM   18  C3  UNL     1      14.685 -23.689  -2.288  1.00  0.00     0.038 A 
HETATM   19  C2  UNL     1      13.707 -24.508  -2.745  1.00  0.00     0.070 A 
HETATM   20  O8  UNL     1      16.232 -22.619  -6.949  1.00  0.00    -0.200 OA
HETATM   21  O9  UNL     1      17.607 -22.270  -5.061  1.00  0.00    -0.200 OA
BRANCH  19  22
HETATM   22  O1  UNL     1      12.993 -25.256  -1.807  1.00  0.00    -0.356 OA
HETATM   23  C1  UNL     1      12.175 -26.323  -2.160  1.00  0.00     0.210 C 
ENDBRANCH  19  22
ENDBRANCH   2   3
ENDBRANCH   1   2
BRANCH   1  24
HETATM   24  O3  UNL     1      17.249 -19.884  -3.058  1.00  0.00    -0.392 OA
ATOM     25  H3  UNL     1      16.346 -19.831  -2.770  1.00  0.00     0.210 HD
ENDBRANCH   1  24
BRANCH   1  26
HETATM   26  C18 UNL     1      19.041 -18.739  -4.094  1.00  0.00     0.121 C 
BRANCH  26  27
HETATM   27  C19 UNL     1      19.575 -18.697  -2.691  1.00  0.00     0.066 C 
BRANCH  27  28
HETATM   28  C20 UNL     1      21.050 -18.794  -2.639  1.00  0.00    -0.056 A 
HETATM   29  C21 UNL     1      21.660 -19.928  -3.107  1.00  0.00     0.007 A 
HETATM   30  C22 UNL     1      23.031 -20.034  -3.066  1.00  0.00     0.001 A 
HETATM   31  C23 UNL     1      23.822 -19.024  -2.563  1.00  0.00     0.000 A 
HETATM   32  C24 UNL     1      23.170 -17.898  -2.101  1.00  0.00     0.001 A 
HETATM   33  C25 UNL     1      21.794 -17.775  -2.135  1.00  0.00     0.007 A 
ENDBRANCH  27  28
ENDBRANCH  26  27
BRANCH  26  34
HETATM   34  N2  UNL     1      19.327 -17.565  -4.863  1.00  0.00    -0.329 N 
HETATM   35  C26 UNL     1      20.210 -17.563  -5.949  1.00  0.00     0.361 C 
HETATM   36  O4  UNL     1      20.763 -18.646  -6.242  1.00  0.00    -0.238 OA
ATOM     37  H2  UNL     1      18.866 -16.691  -4.608  1.00  0.00     0.165 HD
BRANCH  35  38
HETATM   38  O5  UNL     1      20.516 -16.455  -6.721  1.00  0.00    -0.296 OA
BRANCH  38  39
HETATM   39  C27 UNL     1      21.201 -15.347  -6.110  1.00  0.00     0.166 C 
HETATM   40  C28 UNL     1      21.727 -15.807  -4.800  1.00  0.00     0.204 C 
HETATM   41  O6  UNL     1      23.060 -15.435  -4.696  1.00  0.00    -0.358 OA
HETATM   42  C29 UNL     1      23.548 -15.338  -5.992  1.00  0.00     0.266 C 
HETATM   43  O7  UNL     1      23.920 -16.597  -6.397  1.00  0.00    -0.361 OA
HETATM   44  C32 UNL     1      22.416 -14.959  -6.877  1.00  0.00     0.075 C 
HETATM   45  C30 UNL     1      23.671 -16.741  -7.740  1.00  0.00     0.171 C 
HETATM   46  C31 UNL     1      22.626 -15.752  -8.143  1.00  0.00     0.038 C 
ENDBRANCH  38  39
ENDBRANCH  35  38
ENDBRANCH  26  34
ENDBRANCH   1  26
TORSDOF 10
ENDMDL
