MODEL 4
REMARK VINA RESULT: -10.809757437      1.531      4.010
REMARK  10 active torsions:
REMARK  status: ('A' for Active; 'I' for Inactive)
REMARK    1  A    between atoms: O1_2  and  C2_3 
REMARK    2  A    between atoms: N1_18  and  C16_19 
REMARK    3  A    between atoms: C16_19  and  C17_20 
REMARK    4  A    between atoms: C17_20  and  O3_21 
REMARK    5  A    between atoms: C17_20  and  C18_23 
REMARK    6  A    between atoms: C18_23  and  C19_24 
REMARK    7  A    between atoms: C18_23  and  N2_31 
REMARK    8  A    between atoms: C19_24  and  C20_25 
REMARK       I    between atoms: N2_31  and  C26_33 
REMARK    9  A    between atoms: C26_33  and  O5_35 
REMARK   10  A    between atoms: O5_35  and  C27_36 
ROOT
HETATM    1  C17 UNL     1      17.198 -19.460  -4.109  1.00  0.00     0.160 C 
ENDROOT
BRANCH   1   2
HETATM    2  C16 UNL     1      16.808 -19.974  -5.458  1.00  0.00     0.174 C 
BRANCH   2   3
HETATM    3  N1  UNL     1      15.535 -20.653  -5.503  1.00  0.00    -0.284 N 
HETATM    4  C15 UNL     1      14.588 -19.903  -6.209  1.00  0.00     0.076 C 
HETATM    5  C14 UNL     1      14.715 -19.881  -7.713  1.00  0.00     0.046 C 
HETATM    6  C13 UNL     1      13.354 -19.472  -8.273  1.00  0.00     0.009 C 
HETATM    7  C12 UNL     1      12.784 -20.472  -9.235  1.00  0.00     0.027 C 
HETATM    8  C11 UNL     1      13.806 -21.378  -9.830  1.00  0.00    -0.031 C 
HETATM    9  C10 UNL     1      13.909 -22.667  -9.657  1.00  0.00    -0.029 C 
HETATM   10  C9  UNL     1      13.073 -23.566  -8.852  1.00  0.00     0.053 C 
HETATM   11  C8  UNL     1      12.720 -23.109  -7.486  1.00  0.00     0.179 C 
HETATM   12  O2  UNL     1      13.031 -24.089  -6.517  1.00  0.00    -0.349 OA
HETATM   13  C6  UNL     1      13.389 -23.946  -5.198  1.00  0.00     0.094 A 
HETATM   14  C5  UNL     1      14.435 -23.218  -4.688  1.00  0.00     0.113 A 
HETATM   15  C7  UNL     1      12.606 -24.614  -4.241  1.00  0.00     0.075 A 
HETATM   16  C4  UNL     1      14.659 -23.178  -3.297  1.00  0.00     0.031 A 
HETATM   17  S1  UNL     1      15.604 -22.316  -5.643  1.00  0.00     0.267 S 
HETATM   18  C3  UNL     1      13.866 -23.847  -2.399  1.00  0.00     0.038 A 
HETATM   19  C2  UNL     1      12.832 -24.571  -2.892  1.00  0.00     0.070 A 
HETATM   20  O8  UNL     1      15.652 -22.902  -7.001  1.00  0.00    -0.200 OA
HETATM   21  O9  UNL     1      16.993 -22.691  -5.069  1.00  0.00    -0.200 OA
BRANCH  19  22
HETATM   22  O1  UNL     1      12.023 -25.254  -1.982  1.00  0.00    -0.356 OA
HETATM   23  C1  UNL     1      12.252 -26.576  -1.618  1.00  0.00     0.210 C 
ENDBRANCH  19  22
ENDBRANCH   2   3
ENDBRANCH   1   2
BRANCH   1  24
HETATM   24  O3  UNL     1      16.858 -20.297  -3.060  1.00  0.00    -0.392 OA
ATOM     25  H3  UNL     1      17.575 -20.828  -2.735  1.00  0.00     0.210 HD
ENDBRANCH   1  24
BRANCH   1  26
HETATM   26  C18 UNL     1      18.686 -19.177  -4.062  1.00  0.00     0.121 C 
BRANCH  26  27
HETATM   27  C19 UNL     1      19.198 -19.145  -2.650  1.00  0.00     0.066 C 
BRANCH  27  28
HETATM   28  C20 UNL     1      20.661 -18.935  -2.579  1.00  0.00    -0.056 A 
HETATM   29  C21 UNL     1      21.499 -19.953  -2.954  1.00  0.00     0.007 A 
HETATM   30  C22 UNL     1      22.861 -19.774  -2.893  1.00  0.00     0.001 A 
HETATM   31  C23 UNL     1      23.419 -18.589  -2.464  1.00  0.00     0.000 A 
HETATM   32  C24 UNL     1      22.542 -17.589  -2.095  1.00  0.00     0.001 A 
HETATM   33  C25 UNL     1      21.171 -17.752  -2.149  1.00  0.00     0.007 A 
ENDBRANCH  27  28
ENDBRANCH  26  27
BRANCH  26  34
HETATM   34  N2  UNL     1      19.007 -18.010  -4.826  1.00  0.00    -0.329 N 
HETATM   35  C26 UNL     1      19.663 -18.065  -6.061  1.00  0.00     0.361 C 
HETATM   36  O4  UNL     1      19.975 -19.196  -6.495  1.00  0.00    -0.238 OA
ATOM     37  H2  UNL     1      18.745 -17.097  -4.454  1.00  0.00     0.165 HD
BRANCH  35  38
HETATM   38  O5  UNL     1      19.993 -16.965  -6.835  1.00  0.00    -0.296 OA
BRANCH  38  39
HETATM   39  C27 UNL     1      21.019 -17.099  -7.835  1.00  0.00     0.166 C 
HETATM   40  C28 UNL     1      20.884 -15.960  -8.778  1.00  0.00     0.204 C 
HETATM   41  O6  UNL     1      22.131 -15.381  -8.964  1.00  0.00    -0.358 OA
HETATM   42  C29 UNL     1      22.869 -15.652  -7.820  1.00  0.00     0.266 C 
HETATM   43  O7  UNL     1      22.556 -14.698  -6.882  1.00  0.00    -0.361 OA
HETATM   44  C32 UNL     1      22.379 -16.935  -7.254  1.00  0.00     0.075 C 
HETATM   45  C30 UNL     1      22.582 -15.258  -5.629  1.00  0.00     0.171 C 
HETATM   46  C31 UNL     1      22.392 -16.735  -5.760  1.00  0.00     0.038 C 
ENDBRANCH  38  39
ENDBRANCH  35  38
ENDBRANCH  26  34
ENDBRANCH   1  26
TORSDOF 10
ENDMDL
