MODEL 9
REMARK VINA RESULT: -10.143943993      2.486      9.208
REMARK  10 active torsions:
REMARK  status: ('A' for Active; 'I' for Inactive)
REMARK    1  A    between atoms: O1_2  and  C2_3 
REMARK    2  A    between atoms: N1_18  and  C16_19 
REMARK    3  A    between atoms: C16_19  and  C17_20 
REMARK    4  A    between atoms: C17_20  and  O3_21 
REMARK    5  A    between atoms: C17_20  and  C18_23 
REMARK    6  A    between atoms: C18_23  and  C19_24 
REMARK    7  A    between atoms: C18_23  and  N2_31 
REMARK    8  A    between atoms: C19_24  and  C20_25 
REMARK       I    between atoms: N2_31  and  C26_33 
REMARK    9  A    between atoms: C26_33  and  O5_35 
REMARK   10  A    between atoms: O5_35  and  C27_36 
ROOT
HETATM    1  C17 UNL     1      19.122 -20.390  -3.928  1.00  0.00     0.160 C 
ENDROOT
BRANCH   1   2
HETATM    2  C16 UNL     1      19.482 -18.941  -4.024  1.00  0.00     0.174 C 
BRANCH   2   3
HETATM    3  N1  UNL     1      20.789 -18.676  -4.577  1.00  0.00    -0.284 N 
HETATM    4  C15 UNL     1      20.786 -18.812  -5.969  1.00  0.00     0.076 C 
HETATM    5  C14 UNL     1      20.141 -17.702  -6.763  1.00  0.00     0.046 C 
HETATM    6  C13 UNL     1      20.691 -17.790  -8.186  1.00  0.00     0.009 C 
HETATM    7  C12 UNL     1      21.346 -16.523  -8.648  1.00  0.00     0.027 C 
HETATM    8  C11 UNL     1      20.921 -15.317  -7.883  1.00  0.00    -0.031 C 
HETATM    9  C10 UNL     1      21.663 -14.578  -7.105  1.00  0.00    -0.029 C 
HETATM   10  C9  UNL     1      23.086 -14.718  -6.771  1.00  0.00     0.053 C 
HETATM   11  C8  UNL     1      23.564 -16.080  -6.433  1.00  0.00     0.179 C 
HETATM   12  O2  UNL     1      24.259 -16.094  -5.203  1.00  0.00    -0.349 OA
HETATM   13  C6  UNL     1      24.388 -17.095  -4.271  1.00  0.00     0.094 A 
HETATM   14  C5  UNL     1      23.383 -17.772  -3.625  1.00  0.00     0.113 A 
HETATM   15  C7  UNL     1      25.691 -17.489  -3.923  1.00  0.00     0.075 A 
HETATM   16  C4  UNL     1      23.695 -18.781  -2.690  1.00  0.00     0.031 A 
HETATM   17  S1  UNL     1      21.662 -17.468  -3.825  1.00  0.00     0.267 S 
HETATM   18  C3  UNL     1      24.985 -19.133  -2.383  1.00  0.00     0.038 A 
HETATM   19  C2  UNL     1      25.984 -18.470  -3.015  1.00  0.00     0.070 A 
HETATM   20  O8  UNL     1      21.484 -16.078  -4.300  1.00  0.00    -0.200 OA
HETATM   21  O9  UNL     1      21.078 -17.408  -2.392  1.00  0.00    -0.200 OA
BRANCH  19  22
HETATM   22  O1  UNL     1      27.298 -18.824  -2.704  1.00  0.00    -0.356 OA
HETATM   23  C1  UNL     1      27.981 -19.836  -3.369  1.00  0.00     0.210 C 
ENDBRANCH  19  22
ENDBRANCH   2   3
ENDBRANCH   1   2
BRANCH   1  24
HETATM   24  O3  UNL     1      19.000 -20.861  -2.632  1.00  0.00    -0.392 OA
ATOM     25  H3  UNL     1      18.615 -21.727  -2.565  1.00  0.00     0.210 HD
ENDBRANCH   1  24
BRANCH   1  26
HETATM   26  C18 UNL     1      17.839 -20.667  -4.684  1.00  0.00     0.121 C 
BRANCH  26  27
HETATM   27  C19 UNL     1      17.154 -19.395  -5.095  1.00  0.00     0.066 C 
BRANCH  27  28
HETATM   28  C20 UNL     1      16.318 -19.563  -6.304  1.00  0.00    -0.056 A 
HETATM   29  C21 UNL     1      14.965 -19.728  -6.161  1.00  0.00     0.007 A 
HETATM   30  C22 UNL     1      14.173 -19.886  -7.274  1.00  0.00     0.001 A 
HETATM   31  C23 UNL     1      14.703 -19.884  -8.546  1.00  0.00     0.000 A 
HETATM   32  C24 UNL     1      16.069 -19.715  -8.649  1.00  0.00     0.001 A 
HETATM   33  C25 UNL     1      16.879 -19.555  -7.541  1.00  0.00     0.007 A 
ENDBRANCH  27  28
ENDBRANCH  26  27
BRANCH  26  34
HETATM   34  N2  UNL     1      17.003 -21.571  -3.954  1.00  0.00    -0.329 N 
HETATM   35  C26 UNL     1      16.407 -22.696  -4.536  1.00  0.00     0.361 C 
HETATM   36  O4  UNL     1      16.629 -22.899  -5.750  1.00  0.00    -0.238 OA
ATOM     37  H2  UNL     1      16.834 -21.387  -2.965  1.00  0.00     0.165 HD
BRANCH  35  38
HETATM   38  O5  UNL     1      15.593 -23.597  -3.871  1.00  0.00    -0.296 OA
BRANCH  38  39
HETATM   39  C27 UNL     1      14.258 -23.199  -3.514  1.00  0.00     0.166 C 
HETATM   40  C28 UNL     1      13.629 -22.593  -4.715  1.00  0.00     0.204 C 
HETATM   41  O6  UNL     1      12.373 -23.156  -4.896  1.00  0.00    -0.358 OA
HETATM   42  C29 UNL     1      12.415 -24.416  -4.315  1.00  0.00     0.266 C 
HETATM   43  O7  UNL     1      12.948 -25.286  -5.235  1.00  0.00    -0.361 OA
HETATM   44  C32 UNL     1      13.397 -24.372  -3.201  1.00  0.00     0.075 C 
HETATM   45  C30 UNL     1      13.698 -26.237  -4.589  1.00  0.00     0.171 C 
HETATM   46  C31 UNL     1      14.115 -25.697  -3.259  1.00  0.00     0.038 C 
ENDBRANCH  38  39
ENDBRANCH  35  38
ENDBRANCH  26  34
ENDBRANCH   1  26
TORSDOF 10
ENDMDL
