MODEL 5
REMARK VINA RESULT: -10.696787055      1.549      4.384
REMARK  10 active torsions:
REMARK  status: ('A' for Active; 'I' for Inactive)
REMARK    1  A    between atoms: O1_2  and  C2_3 
REMARK    2  A    between atoms: N1_18  and  C16_19 
REMARK    3  A    between atoms: C16_19  and  C17_20 
REMARK    4  A    between atoms: C17_20  and  O3_21 
REMARK    5  A    between atoms: C17_20  and  C18_23 
REMARK    6  A    between atoms: C18_23  and  C19_24 
REMARK    7  A    between atoms: C18_23  and  N2_31 
REMARK    8  A    between atoms: C19_24  and  C20_25 
REMARK       I    between atoms: N2_31  and  C26_33 
REMARK    9  A    between atoms: C26_33  and  O5_35 
REMARK   10  A    between atoms: O5_35  and  C27_36 
ROOT
HETATM    1  C17 UNL     1      17.030 -18.251  -5.401  1.00  0.00     0.160 C 
ENDROOT
BRANCH   1   2
HETATM    2  C16 UNL     1      16.695 -19.158  -6.542  1.00  0.00     0.174 C 
BRANCH   2   3
HETATM    3  N1  UNL     1      15.614 -20.080  -6.286  1.00  0.00    -0.284 N 
HETATM    4  C15 UNL     1      14.432 -19.658  -6.905  1.00  0.00     0.076 C 
HETATM    5  C14 UNL     1      14.339 -19.846  -8.400  1.00  0.00     0.046 C 
HETATM    6  C13 UNL     1      12.856 -19.815  -8.764  1.00  0.00     0.009 C 
HETATM    7  C12 UNL     1      12.397 -21.047  -9.486  1.00  0.00     0.027 C 
HETATM    8  C11 UNL     1      13.504 -21.807 -10.132  1.00  0.00    -0.031 C 
HETATM    9  C10 UNL     1      13.919 -23.006  -9.824  1.00  0.00    -0.029 C 
HETATM   10  C9  UNL     1      13.429 -23.919  -8.785  1.00  0.00     0.053 C 
HETATM   11  C8  UNL     1      13.178 -23.337  -7.445  1.00  0.00     0.179 C 
HETATM   12  O2  UNL     1      13.835 -24.070  -6.431  1.00  0.00    -0.349 OA
HETATM   13  C6  UNL     1      14.333 -23.653  -5.220  1.00  0.00     0.094 A 
HETATM   14  C5  UNL     1      15.249 -22.657  -4.989  1.00  0.00     0.113 A 
HETATM   15  C7  UNL     1      13.864 -24.310  -4.070  1.00  0.00     0.075 A 
HETATM   16  C4  UNL     1      15.651 -22.356  -3.672  1.00  0.00     0.031 A 
HETATM   17  S1  UNL     1      16.037 -21.695  -6.233  1.00  0.00     0.267 S 
HETATM   18  C3  UNL     1      15.164 -23.025  -2.577  1.00  0.00     0.038 A 
HETATM   19  C2  UNL     1      14.261 -24.012  -2.795  1.00  0.00     0.070 A 
HETATM   20  O8  UNL     1      16.025 -22.463  -7.497  1.00  0.00    -0.200 OA
HETATM   21  O9  UNL     1      17.541 -21.685  -5.863  1.00  0.00    -0.200 OA
BRANCH  19  22
HETATM   22  O1  UNL     1      13.764 -24.696  -1.684  1.00  0.00    -0.356 OA
HETATM   23  C1  UNL     1      12.718 -25.608  -1.768  1.00  0.00     0.210 C 
ENDBRANCH  19  22
ENDBRANCH   2   3
ENDBRANCH   1   2
BRANCH   1  24
HETATM   24  O3  UNL     1      16.021 -18.121  -4.462  1.00  0.00    -0.392 OA
ATOM     25  H3  UNL     1      15.681 -17.239  -4.373  1.00  0.00     0.210 HD
ENDBRANCH   1  24
BRANCH   1  26
HETATM   26  C18 UNL     1      18.298 -18.714  -4.713  1.00  0.00     0.121 C 
BRANCH  26  27
HETATM   27  C19 UNL     1      18.159 -18.680  -3.217  1.00  0.00     0.066 C 
BRANCH  27  28
HETATM   28  C20 UNL     1      19.144 -19.547  -2.534  1.00  0.00    -0.056 A 
HETATM   29  C21 UNL     1      19.426 -20.780  -3.062  1.00  0.00     0.007 A 
HETATM   30  C22 UNL     1      20.338 -21.599  -2.439  1.00  0.00     0.001 A 
HETATM   31  C23 UNL     1      20.989 -21.215  -1.286  1.00  0.00     0.000 A 
HETATM   32  C24 UNL     1      20.678 -19.966  -0.786  1.00  0.00     0.001 A 
HETATM   33  C25 UNL     1      19.764 -19.131  -1.399  1.00  0.00     0.007 A 
ENDBRANCH  27  28
ENDBRANCH  26  27
BRANCH  26  34
HETATM   34  N2  UNL     1      19.436 -18.003  -5.211  1.00  0.00    -0.329 N 
HETATM   35  C26 UNL     1      20.288 -18.521  -6.193  1.00  0.00     0.361 C 
HETATM   36  O4  UNL     1      20.023 -19.659  -6.639  1.00  0.00    -0.238 OA
ATOM     37  H2  UNL     1      19.635 -17.076  -4.833  1.00  0.00     0.165 HD
BRANCH  35  38
HETATM   38  O5  UNL     1      21.398 -17.871  -6.705  1.00  0.00    -0.296 OA
BRANCH  38  39
HETATM   39  C27 UNL     1      21.331 -17.319  -8.032  1.00  0.00     0.166 C 
HETATM   40  C28 UNL     1      20.031 -16.614  -8.166  1.00  0.00     0.204 C 
HETATM   41  O6  UNL     1      20.257 -15.354  -8.699  1.00  0.00    -0.358 OA
HETATM   42  C29 UNL     1      21.555 -15.003  -8.354  1.00  0.00     0.266 C 
HETATM   43  O7  UNL     1      21.526 -14.472  -7.088  1.00  0.00    -0.361 OA
HETATM   44  C32 UNL     1      22.349 -16.254  -8.238  1.00  0.00     0.075 C 
HETATM   45  C30 UNL     1      22.676 -14.811  -6.419  1.00  0.00     0.171 C 
HETATM   46  C31 UNL     1      23.258 -16.032  -7.056  1.00  0.00     0.038 C 
ENDBRANCH  38  39
ENDBRANCH  35  38
ENDBRANCH  26  34
ENDBRANCH   1  26
TORSDOF 10
ENDMDL
