MODEL 8
REMARK VINA RESULT: -10.197219051      1.813      9.357
REMARK  10 active torsions:
REMARK  status: ('A' for Active; 'I' for Inactive)
REMARK    1  A    between atoms: O1_2  and  C2_3 
REMARK    2  A    between atoms: N1_18  and  C16_19 
REMARK    3  A    between atoms: C16_19  and  C17_20 
REMARK    4  A    between atoms: C17_20  and  O3_21 
REMARK    5  A    between atoms: C17_20  and  C18_23 
REMARK    6  A    between atoms: C18_23  and  C19_24 
REMARK    7  A    between atoms: C18_23  and  N2_31 
REMARK    8  A    between atoms: C19_24  and  C20_25 
REMARK       I    between atoms: N2_31  and  C26_33 
REMARK    9  A    between atoms: C26_33  and  O5_35 
REMARK   10  A    between atoms: O5_35  and  C27_36 
ROOT
HETATM    1  C17 UNL     1      15.335 -19.807  -6.010  1.00  0.00     0.160 C 
ENDROOT
BRANCH   1   2
HETATM    2  C16 UNL     1      16.349 -20.246  -5.002  1.00  0.00     0.174 C 
BRANCH   2   3
HETATM    3  N1  UNL     1      17.487 -19.367  -4.864  1.00  0.00    -0.284 N 
HETATM    4  C15 UNL     1      17.554 -18.826  -3.576  1.00  0.00     0.076 C 
HETATM    5  C14 UNL     1      18.030 -19.740  -2.474  1.00  0.00     0.046 C 
HETATM    6  C13 UNL     1      18.507 -18.850  -1.327  1.00  0.00     0.009 C 
HETATM    7  C12 UNL     1      19.930 -19.107  -0.929  1.00  0.00     0.027 C 
HETATM    8  C11 UNL     1      20.434 -20.446  -1.345  1.00  0.00    -0.031 C 
HETATM    9  C10 UNL     1      21.378 -20.696  -2.210  1.00  0.00    -0.029 C 
HETATM   10  C9  UNL     1      22.190 -19.759  -2.996  1.00  0.00     0.053 C 
HETATM   11  C8  UNL     1      21.473 -18.639  -3.653  1.00  0.00     0.179 C 
HETATM   12  O2  UNL     1      21.780 -18.565  -5.030  1.00  0.00    -0.349 OA
HETATM   13  C6  UNL     1      21.021 -18.114  -6.082  1.00  0.00     0.094 A 
HETATM   14  C5  UNL     1      19.774 -18.545  -6.461  1.00  0.00     0.113 A 
HETATM   15  C7  UNL     1      21.565 -17.092  -6.878  1.00  0.00     0.075 A 
HETATM   16  C4  UNL     1      19.132 -17.966  -7.575  1.00  0.00     0.031 A 
HETATM   17  S1  UNL     1      18.866 -19.835  -5.682  1.00  0.00     0.267 S 
HETATM   18  C3  UNL     1      19.702 -16.968  -8.322  1.00  0.00     0.038 A 
HETATM   19  C2  UNL     1      20.934 -16.536  -7.958  1.00  0.00     0.070 A 
HETATM   20  O8  UNL     1      19.822 -20.727  -4.989  1.00  0.00    -0.200 OA
HETATM   21  O9  UNL     1      18.345 -20.733  -6.832  1.00  0.00    -0.200 OA
BRANCH  19  22
HETATM   22  O1  UNL     1      21.519 -15.521  -8.717  1.00  0.00    -0.356 OA
HETATM   23  C1  UNL     1      22.861 -15.175  -8.604  1.00  0.00     0.210 C 
ENDBRANCH  19  22
ENDBRANCH   2   3
ENDBRANCH   1   2
BRANCH   1  24
HETATM   24  O3  UNL     1      15.848 -19.020  -7.027  1.00  0.00    -0.392 OA
ATOM     25  H3  UNL     1      15.730 -18.087  -6.896  1.00  0.00     0.210 HD
ENDBRANCH   1  24
BRANCH   1  26
HETATM   26  C18 UNL     1      14.635 -21.008  -6.611  1.00  0.00     0.121 C 
BRANCH  26  27
HETATM   27  C19 UNL     1      13.935 -20.656  -7.893  1.00  0.00     0.066 C 
BRANCH  27  28
HETATM   28  C20 UNL     1      13.381 -21.842  -8.584  1.00  0.00    -0.056 A 
HETATM   29  C21 UNL     1      12.027 -22.051  -8.566  1.00  0.00     0.007 A 
HETATM   30  C22 UNL     1      11.496 -23.149  -9.203  1.00  0.00     0.001 A 
HETATM   31  C23 UNL     1      12.292 -24.056  -9.868  1.00  0.00     0.000 A 
HETATM   32  C24 UNL     1      13.651 -23.810  -9.863  1.00  0.00     0.001 A 
HETATM   33  C25 UNL     1      14.200 -22.713  -9.229  1.00  0.00     0.007 A 
ENDBRANCH  27  28
ENDBRANCH  26  27
BRANCH  26  34
HETATM   34  N2  UNL     1      13.794 -21.644  -5.643  1.00  0.00    -0.329 N 
HETATM   35  C26 UNL     1      13.964 -22.975  -5.243  1.00  0.00     0.361 C 
HETATM   36  O4  UNL     1      14.899 -23.617  -5.771  1.00  0.00    -0.238 OA
ATOM     37  H2  UNL     1      13.037 -21.103  -5.224  1.00  0.00     0.165 HD
BRANCH  35  38
HETATM   38  O5  UNL     1      13.178 -23.631  -4.311  1.00  0.00    -0.296 OA
BRANCH  38  39
HETATM   39  C27 UNL     1      13.780 -24.639  -3.478  1.00  0.00     0.166 C 
HETATM   40  C28 UNL     1      13.474 -24.301  -2.065  1.00  0.00     0.204 C 
HETATM   41  O6  UNL     1      12.996 -25.436  -1.426  1.00  0.00    -0.358 OA
HETATM   42  C29 UNL     1      12.431 -26.238  -2.409  1.00  0.00     0.266 C 
HETATM   43  O7  UNL     1      11.145 -25.803  -2.619  1.00  0.00    -0.361 OA
HETATM   44  C32 UNL     1      13.149 -25.971  -3.682  1.00  0.00     0.075 C 
HETATM   45  C30 UNL     1      10.820 -25.951  -3.945  1.00  0.00     0.171 C 
HETATM   46  C31 UNL     1      12.081 -25.992  -4.746  1.00  0.00     0.038 C 
ENDBRANCH  38  39
ENDBRANCH  35  38
ENDBRANCH  26  34
ENDBRANCH   1  26
TORSDOF 10
ENDMDL
