MODEL 2
REMARK VINA RESULT: -10.894027733      1.398      4.074
REMARK  10 active torsions:
REMARK  status: ('A' for Active; 'I' for Inactive)
REMARK    1  A    between atoms: O1_2  and  C2_3 
REMARK    2  A    between atoms: N1_18  and  C16_19 
REMARK    3  A    between atoms: C16_19  and  C17_20 
REMARK    4  A    between atoms: C17_20  and  O3_21 
REMARK    5  A    between atoms: C17_20  and  C18_23 
REMARK    6  A    between atoms: C18_23  and  C19_24 
REMARK    7  A    between atoms: C18_23  and  N2_31 
REMARK    8  A    between atoms: C19_24  and  C20_25 
REMARK       I    between atoms: N2_31  and  C26_33 
REMARK    9  A    between atoms: C26_33  and  O5_35 
REMARK   10  A    between atoms: O5_35  and  C27_36 
ROOT
HETATM    1  C17 UNL     1      17.872 -19.038  -4.620  1.00  0.00     0.160 C 
ENDROOT
BRANCH   1   2
HETATM    2  C16 UNL     1      17.243 -19.426  -5.921  1.00  0.00     0.174 C 
BRANCH   2   3
HETATM    3  N1  UNL     1      16.049 -20.229  -5.801  1.00  0.00    -0.284 N 
HETATM    4  C15 UNL     1      14.961 -19.613  -6.428  1.00  0.00     0.076 C 
HETATM    5  C14 UNL     1      14.929 -19.653  -7.936  1.00  0.00     0.046 C 
HETATM    6  C13 UNL     1      13.481 -19.409  -8.361  1.00  0.00     0.009 C 
HETATM    7  C12 UNL     1      12.921 -20.506  -9.215  1.00  0.00     0.027 C 
HETATM    8  C11 UNL     1      13.964 -21.335  -9.883  1.00  0.00    -0.031 C 
HETATM    9  C10 UNL     1      14.217 -22.598  -9.672  1.00  0.00    -0.029 C 
HETATM   10  C9  UNL     1      13.568 -23.534  -8.747  1.00  0.00     0.053 C 
HETATM   11  C8  UNL     1      13.314 -23.047  -7.369  1.00  0.00     0.179 C 
HETATM   12  O2  UNL     1      13.824 -23.943  -6.403  1.00  0.00    -0.349 OA
HETATM   13  C6  UNL     1      14.300 -23.700  -5.137  1.00  0.00     0.094 A 
HETATM   14  C5  UNL     1      15.313 -22.847  -4.773  1.00  0.00     0.113 A 
HETATM   15  C7  UNL     1      13.695 -24.394  -4.076  1.00  0.00     0.075 A 
HETATM   16  C4  UNL     1      15.676 -22.716  -3.416  1.00  0.00     0.031 A 
HETATM   17  S1  UNL     1      16.276 -21.882  -5.883  1.00  0.00     0.267 S 
HETATM   18  C3  UNL     1      15.054 -23.415  -2.412  1.00  0.00     0.038 A 
HETATM   19  C2  UNL     1      14.054 -24.261  -2.762  1.00  0.00     0.070 A 
HETATM   20  O8  UNL     1      16.242 -22.527  -7.215  1.00  0.00    -0.200 OA
HETATM   21  O9  UNL     1      17.748 -22.089  -5.449  1.00  0.00    -0.200 OA
BRANCH  19  22
HETATM   22  O1  UNL     1      13.420 -24.976  -1.744  1.00  0.00    -0.356 OA
HETATM   23  C1  UNL     1      12.538 -26.021  -1.995  1.00  0.00     0.210 C 
ENDBRANCH  19  22
ENDBRANCH   2   3
ENDBRANCH   1   2
BRANCH   1  24
HETATM   24  O3  UNL     1      17.193 -19.491  -3.502  1.00  0.00    -0.392 OA
ATOM     25  H3  UNL     1      16.487 -18.924  -3.217  1.00  0.00     0.210 HD
ENDBRANCH   1  24
BRANCH   1  26
HETATM   26  C18 UNL     1      19.308 -19.519  -4.564  1.00  0.00     0.121 C 
BRANCH  26  27
HETATM   27  C19 UNL     1      19.721 -19.863  -3.161  1.00  0.00     0.066 C 
BRANCH  27  28
HETATM   28  C20 UNL     1      21.032 -19.283  -2.795  1.00  0.00    -0.056 A 
HETATM   29  C21 UNL     1      21.075 -18.031  -2.239  1.00  0.00     0.007 A 
HETATM   30  C22 UNL     1      22.286 -17.478  -1.894  1.00  0.00     0.001 A 
HETATM   31  C23 UNL     1      23.473 -18.150  -2.090  1.00  0.00     0.000 A 
HETATM   32  C24 UNL     1      23.388 -19.408  -2.652  1.00  0.00     0.001 A 
HETATM   33  C25 UNL     1      22.180 -19.979  -3.005  1.00  0.00     0.007 A 
ENDBRANCH  27  28
ENDBRANCH  26  27
BRANCH  26  34
HETATM   34  N2  UNL     1      20.181 -18.593  -5.219  1.00  0.00    -0.329 N 
HETATM   35  C26 UNL     1      20.697 -18.811  -6.502  1.00  0.00     0.361 C 
HETATM   36  O4  UNL     1      20.367 -19.869  -7.081  1.00  0.00    -0.238 OA
ATOM     37  H2  UNL     1      20.438 -17.736  -4.729  1.00  0.00     0.165 HD
BRANCH  35  38
HETATM   38  O5  UNL     1      21.542 -17.945  -7.175  1.00  0.00    -0.296 OA
BRANCH  38  39
HETATM   39  C27 UNL     1      21.054 -17.264  -8.345  1.00  0.00     0.166 C 
HETATM   40  C28 UNL     1      19.710 -16.720  -8.026  1.00  0.00     0.204 C 
HETATM   41  O6  UNL     1      19.659 -15.390  -8.418  1.00  0.00    -0.358 OA
HETATM   42  C29 UNL     1      20.964 -14.917  -8.388  1.00  0.00     0.266 C 
HETATM   43  O7  UNL     1      21.244 -14.536  -7.098  1.00  0.00    -0.361 OA
HETATM   44  C32 UNL     1      21.871 -16.062  -8.664  1.00  0.00     0.075 C 
HETATM   45  C30 UNL     1      22.562 -14.797  -6.815  1.00  0.00     0.171 C 
HETATM   46  C31 UNL     1      23.051 -15.857  -7.749  1.00  0.00     0.038 C 
ENDBRANCH  38  39
ENDBRANCH  35  38
ENDBRANCH  26  34
ENDBRANCH   1  26
TORSDOF 10
ENDMDL
