MODEL 1
REMARK VINA RESULT: -7.434483169      0.000      0.000
REMARK  8 active torsions:
REMARK  status: ('A' for Active; 'I' for Inactive)
REMARK    1  A    between atoms: N5_13  and  C6_14 
REMARK    2  A    between atoms: C7_16  and  C8_17 
REMARK    3  A    between atoms: C8_17  and  O2_18 
REMARK    4  A    between atoms: O2_18  and  P1_19 
REMARK    5  A    between atoms: P1_19  and  O5_22 
REMARK    6  A    between atoms: O5_22  and  P2_23 
REMARK    7  A    between atoms: C9_27  and  O9_28 
REMARK    8  A    between atoms: C10_30  and  O10_31 
ROOT
HETATM    1  C6  UNL     1     -53.078  11.729   1.270  1.00  0.00     0.262 C 
HETATM    2  O1  UNL     1     -52.471  11.704   2.526  1.00  0.00    -0.353 OA
HETATM    3  C7  UNL     1     -53.437  12.353   3.293  1.00  0.00     0.180 C 
HETATM    4  C9  UNL     1     -54.759  11.750   2.905  1.00  0.00     0.182 C 
HETATM    5  C10 UNL     1     -54.411  11.083   1.567  1.00  0.00     0.198 C 
ENDROOT
BRANCH   1   6
HETATM    6  N5  UNL     1     -52.323  11.029   0.270  1.00  0.00    -0.297 N 
HETATM    7  C3  UNL     1     -50.986  11.152   0.128  1.00  0.00     0.142 A 
HETATM    8  N3  UNL     1     -50.075  11.888   0.810  1.00  0.00    -0.336 N 
HETATM    9  C4  UNL     1     -50.560  10.356  -0.913  1.00  0.00     0.119 A 
HETATM   10  C2  UNL     1     -48.762  11.874   0.509  1.00  0.00     0.183 A 
ATOM     11  H3  UNL     1     -50.395  12.475   1.580  1.00  0.00     0.168 HD
HETATM   12  N2  UNL     1     -48.355  11.107  -0.496  1.00  0.00    -0.339 N 
HETATM   13  C1  UNL     1     -49.221  10.350  -1.211  1.00  0.00     0.148 A 
ATOM     14  H2  UNL     1     -47.363  11.087  -0.736  1.00  0.00     0.167 HD
HETATM   15  N1  UNL     1     -48.746   9.557  -2.259  1.00  0.00    -0.080 NA
HETATM   16  N4  UNL     1     -51.670   9.761  -1.384  1.00  0.00    -0.346 N 
HETATM   17  C5  UNL     1     -52.728  10.175  -0.661  1.00  0.00     0.188 A 
ATOM     18  H4  UNL     1     -51.705   9.102  -2.162  1.00  0.00     0.167 HD
ENDBRANCH   1   6
BRANCH   5  19
HETATM   19  O10 UNL     1     -55.369  11.339   0.614  1.00  0.00    -0.388 OA
ATOM     20  H10 UNL     1     -56.256  11.187   0.918  1.00  0.00     0.210 HD
ENDBRANCH   5  19
BRANCH   3  21
HETATM   21  C8  UNL     1     -53.158  12.234   4.774  1.00  0.00     0.216 C 
BRANCH  21  22
HETATM   22  O2  UNL     1     -53.169  10.914   5.101  1.00  0.00    -0.287 OA
BRANCH  22  23
HETATM   23  P1  UNL     1     -53.233  10.506   6.684  1.00  0.00     0.418 P 
HETATM   24  O3  UNL     1     -54.615   9.864   6.576  1.00  0.00    -0.624 OA
HETATM   25  O4  UNL     1     -52.616   8.962   7.118  1.00  0.00    -0.624 OA
BRANCH  23  26
HETATM   26  O5  UNL     1     -53.650  11.553   7.831  1.00  0.00    -0.173 OA
BRANCH  26  27
HETATM   27  P2  UNL     1     -55.186  11.535   8.420  1.00  0.00     0.431 P 
HETATM   28  O6  UNL     1     -55.598  10.532   9.619  1.00  0.00    -0.616 OA
HETATM   29  O7  UNL     1     -56.375  12.408   7.594  1.00  0.00    -0.616 OA
HETATM   30  O8  UNL     1     -54.912  12.780   9.266  1.00  0.00    -0.616 OA
ENDBRANCH  26  27
ENDBRANCH  23  26
ENDBRANCH  22  23
ENDBRANCH  21  22
ENDBRANCH   3  21
BRANCH   4  31
HETATM   31  O9  UNL     1     -55.690  12.751   2.596  1.00  0.00    -0.390 OA
ATOM     32  H9  UNL     1     -56.348  12.424   1.994  1.00  0.00     0.210 HD
ENDBRANCH   4  31
TORSDOF 8
ENDMDL
