MODEL 3
REMARK VINA RESULT: -7.207598143     15.314     17.547
REMARK  8 active torsions:
REMARK  status: ('A' for Active; 'I' for Inactive)
REMARK    1  A    between atoms: N5_13  and  C6_14 
REMARK    2  A    between atoms: C7_16  and  C8_17 
REMARK    3  A    between atoms: C8_17  and  O2_18 
REMARK    4  A    between atoms: O2_18  and  P1_19 
REMARK    5  A    between atoms: P1_19  and  O5_22 
REMARK    6  A    between atoms: O5_22  and  P2_23 
REMARK    7  A    between atoms: C9_27  and  O9_28 
REMARK    8  A    between atoms: C10_30  and  O10_31 
ROOT
HETATM    1  C6  UNL     1     -36.776   3.633   1.946  1.00  0.00     0.262 C 
HETATM    2  O1  UNL     1     -36.792   4.996   1.648  1.00  0.00    -0.353 OA
HETATM    3  C7  UNL     1     -36.666   4.960   0.260  1.00  0.00     0.180 C 
HETATM    4  C9  UNL     1     -37.628   3.908  -0.223  1.00  0.00     0.182 C 
HETATM    5  C10 UNL     1     -37.894   3.121   1.068  1.00  0.00     0.198 C 
ENDROOT
BRANCH   1   6
HETATM    6  N5  UNL     1     -36.985   3.362   3.340  1.00  0.00    -0.297 N 
HETATM    7  C3  UNL     1     -36.177   3.829   4.315  1.00  0.00     0.142 A 
HETATM    8  N3  UNL     1     -35.063   4.600   4.266  1.00  0.00    -0.336 N 
HETATM    9  C4  UNL     1     -36.641   3.399   5.539  1.00  0.00     0.119 A 
HETATM   10  C2  UNL     1     -34.387   4.965   5.372  1.00  0.00     0.183 A 
ATOM     11  H3  UNL     1     -34.724   4.916   3.357  1.00  0.00     0.168 HD
HETATM   12  N2  UNL     1     -34.836   4.548   6.551  1.00  0.00    -0.339 N 
HETATM   13  C1  UNL     1     -35.944   3.777   6.659  1.00  0.00     0.148 A 
ATOM     14  H2  UNL     1     -34.333   4.816   7.398  1.00  0.00     0.167 HD
HETATM   15  N1  UNL     1     -36.380   3.364   7.922  1.00  0.00    -0.080 NA
HETATM   16  N4  UNL     1     -37.738   2.670   5.269  1.00  0.00    -0.346 N 
HETATM   17  C5  UNL     1     -37.935   2.655   3.937  1.00  0.00     0.188 A 
ATOM     18  H4  UNL     1     -38.325   2.204   5.961  1.00  0.00     0.167 HD
ENDBRANCH   1   6
BRANCH   5  19
HETATM   19  O10 UNL     1     -37.843   1.765   0.848  1.00  0.00    -0.388 OA
ATOM     20  H10 UNL     1     -37.930   1.248   1.640  1.00  0.00     0.210 HD
ENDBRANCH   5  19
BRANCH   3  21
HETATM   21  C8  UNL     1     -36.922   6.311  -0.367  1.00  0.00     0.216 C 
BRANCH  21  22
HETATM   22  O2  UNL     1     -38.120   6.259  -1.008  1.00  0.00    -0.287 OA
BRANCH  22  23
HETATM   23  P1  UNL     1     -39.080   7.584  -0.971  1.00  0.00     0.418 P 
HETATM   24  O3  UNL     1     -37.937   8.536  -0.623  1.00  0.00    -0.624 OA
HETATM   25  O4  UNL     1     -39.272   8.449  -2.444  1.00  0.00    -0.624 OA
BRANCH  23  26
HETATM   26  O5  UNL     1     -39.979   7.966   0.306  1.00  0.00    -0.173 OA
BRANCH  26  27
HETATM   27  P2  UNL     1     -41.209   6.969   0.754  1.00  0.00     0.431 P 
HETATM   28  O6  UNL     1     -41.798   5.872  -0.277  1.00  0.00    -0.616 OA
HETATM   29  O7  UNL     1     -41.999   7.273   2.217  1.00  0.00    -0.616 OA
HETATM   30  O8  UNL     1     -40.240   6.058   1.508  1.00  0.00    -0.616 OA
ENDBRANCH  26  27
ENDBRANCH  23  26
ENDBRANCH  22  23
ENDBRANCH  21  22
ENDBRANCH   3  21
BRANCH   4  31
HETATM   31  O9  UNL     1     -36.987   3.009  -1.087  1.00  0.00    -0.390 OA
ATOM     32  H9  UNL     1     -37.594   2.344  -1.389  1.00  0.00     0.210 HD
ENDBRANCH   4  31
TORSDOF 8
ENDMDL
