MODEL 2
REMARK VINA RESULT: -7.399018201      1.194      1.803
REMARK  8 active torsions:
REMARK  status: ('A' for Active; 'I' for Inactive)
REMARK    1  A    between atoms: N5_13  and  C6_14 
REMARK    2  A    between atoms: C7_16  and  C8_17 
REMARK    3  A    between atoms: C8_17  and  O2_18 
REMARK    4  A    between atoms: O2_18  and  P1_19 
REMARK    5  A    between atoms: P1_19  and  O5_22 
REMARK    6  A    between atoms: O5_22  and  P2_23 
REMARK    7  A    between atoms: C9_27  and  O9_28 
REMARK    8  A    between atoms: C10_30  and  O10_31 
ROOT
HETATM    1  C6  UNL     1     -53.358  11.767   2.001  1.00  0.00     0.262 C 
HETATM    2  O1  UNL     1     -52.773  11.609   3.258  1.00  0.00    -0.353 OA
HETATM    3  C7  UNL     1     -53.785  12.104   4.079  1.00  0.00     0.180 C 
HETATM    4  C9  UNL     1     -55.066  11.490   3.585  1.00  0.00     0.182 C 
HETATM    5  C10 UNL     1     -54.660  11.021   2.181  1.00  0.00     0.198 C 
ENDROOT
BRANCH   1   6
HETATM    6  N5  UNL     1     -52.550  11.242   0.938  1.00  0.00    -0.297 N 
HETATM    7  C3  UNL     1     -51.228  11.489   0.820  1.00  0.00     0.142 A 
HETATM    8  N3  UNL     1     -50.379  12.220   1.582  1.00  0.00    -0.336 N 
HETATM    9  C4  UNL     1     -50.740  10.846  -0.298  1.00  0.00     0.119 A 
HETATM   10  C2  UNL     1     -49.070  12.346   1.291  1.00  0.00     0.183 A 
ATOM     11  H3  UNL     1     -50.746  12.693   2.409  1.00  0.00     0.168 HD
HETATM   12  N2  UNL     1     -48.603  11.726   0.213  1.00  0.00    -0.339 N 
HETATM   13  C1  UNL     1     -49.405  10.981  -0.584  1.00  0.00     0.148 A 
ATOM     14  H2  UNL     1     -47.613  11.813  -0.021  1.00  0.00     0.167 HD
HETATM   15  N1  UNL     1     -48.868  10.346  -1.708  1.00  0.00    -0.080 NA
HETATM   16  N4  UNL     1     -51.798  10.215  -0.836  1.00  0.00    -0.346 N 
HETATM   17  C5  UNL     1     -52.885  10.461  -0.082  1.00  0.00     0.188 A 
ATOM     18  H4  UNL     1     -51.780   9.642  -1.681  1.00  0.00     0.167 HD
ENDBRANCH   1   6
BRANCH   5  19
HETATM   19  O10 UNL     1     -55.614  11.350   1.246  1.00  0.00    -0.388 OA
ATOM     20  H10 UNL     1     -55.811  12.279   1.216  1.00  0.00     0.210 HD
ENDBRANCH   5  19
BRANCH   3  21
HETATM   21  C8  UNL     1     -53.526  11.807   5.538  1.00  0.00     0.216 C 
BRANCH  21  22
HETATM   22  O2  UNL     1     -54.676  12.036   6.227  1.00  0.00    -0.287 OA
BRANCH  22  23
HETATM   23  P1  UNL     1     -54.768  11.526   7.779  1.00  0.00     0.418 P 
HETATM   24  O3  UNL     1     -53.274  11.227   7.883  1.00  0.00    -0.624 OA
HETATM   25  O4  UNL     1     -54.555  12.713   9.004  1.00  0.00    -0.624 OA
BRANCH  23  26
HETATM   26  O5  UNL     1     -55.240  10.041   8.175  1.00  0.00    -0.173 OA
BRANCH  26  27
HETATM   27  P2  UNL     1     -56.651   9.835   8.995  1.00  0.00     0.431 P 
HETATM   28  O6  UNL     1     -57.505   8.471   8.838  1.00  0.00    -0.616 OA
HETATM   29  O7  UNL     1     -57.307  11.160   9.814  1.00  0.00    -0.616 OA
HETATM   30  O8  UNL     1     -55.894   9.468  10.273  1.00  0.00    -0.616 OA
ENDBRANCH  26  27
ENDBRANCH  23  26
ENDBRANCH  22  23
ENDBRANCH  21  22
ENDBRANCH   3  21
BRANCH   4  31
HETATM   31  O9  UNL     1     -56.044  12.475   3.385  1.00  0.00    -0.390 OA
ATOM     32  H9  UNL     1     -56.648  12.214   2.700  1.00  0.00     0.210 HD
ENDBRANCH   4  31
TORSDOF 8
ENDMDL
