MODEL 17
REMARK VINA RESULT: -8.999405238      2.034      8.621
REMARK  14 active torsions:
REMARK  status: ('A' for Active; 'I' for Inactive)
REMARK    1  A    between atoms: O1_2  and  C2_3 
REMARK    2  A    between atoms: C5_6  and  S1_7 
REMARK    3  A    between atoms: S1_7  and  N1_10 
REMARK    4  A    between atoms: N1_10  and  C6_11 
REMARK    5  A    between atoms: N1_10  and  C10_15 
REMARK    6  A    between atoms: C6_11  and  C7_12 
REMARK    7  A    between atoms: C10_15  and  C11_16 
REMARK    8  A    between atoms: C11_16  and  O4_17 
REMARK    9  A    between atoms: C11_16  and  C12_19 
REMARK   10  A    between atoms: C12_19  and  C13_20 
REMARK   11  A    between atoms: C12_19  and  N2_27 
REMARK   12  A    between atoms: C13_20  and  C14_21 
REMARK       I    between atoms: N2_27  and  C20_29 
REMARK   13  A    between atoms: C20_29  and  O6_31 
REMARK   14  A    between atoms: O6_31  and  C21_32 
ROOT
HETATM    1  C12 UNL     1       5.450   0.311  13.945  1.00  0.00     0.029 C 
ENDROOT
BRANCH   1   2
HETATM    2  C11 UNL     1       4.828  -0.122  15.190  1.00  0.00     0.203 C 
BRANCH   2   3
HETATM    3  C10 UNL     1       5.498  -0.986  16.169  1.00  0.00     0.119 C 
BRANCH   3   4
HETATM    4  N1  UNL     1       5.850  -2.303  15.826  1.00  0.00    -0.262 N 
BRANCH   4   5
HETATM    5  S1  UNL     1       7.456  -2.721  15.640  1.00  0.00     0.267 S 
HETATM    6  O2  UNL     1       7.740  -3.085  14.202  1.00  0.00    -0.200 OA
HETATM    7  O3  UNL     1       8.300  -1.468  15.893  1.00  0.00    -0.200 OA
BRANCH   5   8
HETATM    8  C5  UNL     1       8.083  -3.919  16.727  1.00  0.00     0.080 A 
HETATM    9  C4  UNL     1       9.449  -4.083  16.824  1.00  0.00     0.028 A 
HETATM   10  C3  UNL     1       9.990  -5.033  17.701  1.00  0.00     0.038 A 
HETATM   11  C2  UNL     1       9.182  -5.812  18.472  1.00  0.00     0.068 A 
HETATM   12  C28 UNL     1       7.819  -5.654  18.379  1.00  0.00     0.038 A 
HETATM   13  C27 UNL     1       7.286  -4.716  17.515  1.00  0.00     0.028 A 
BRANCH  11  14
HETATM   14  O1  UNL     1       9.754  -6.753  19.339  1.00  0.00    -0.356 OA
HETATM   15  C1  UNL     1      10.608  -7.766  18.899  1.00  0.00     0.210 C 
ENDBRANCH  11  14
ENDBRANCH   5   8
ENDBRANCH   4   5
BRANCH   4  16
HETATM   16  C6  UNL     1       4.840  -3.172  15.408  1.00  0.00     0.085 C 
BRANCH  16  17
HETATM   17  C7  UNL     1       3.515  -3.146  16.054  1.00  0.00     0.017 C 
HETATM   18  C8  UNL     1       2.324  -2.919  15.202  1.00  0.00     0.015 C 
HETATM   19  C9  UNL     1       3.319  -4.540  16.683  1.00  0.00     0.015 C 
ENDBRANCH  16  17
ENDBRANCH   4  16
ENDBRANCH   3   4
ENDBRANCH   2   3
BRANCH   2  20
HETATM   20  O4  UNL     1       4.423   1.043  15.905  1.00  0.00    -0.385 OA
ATOM     21  H4  UNL     1       3.651   1.371  15.457  1.00  0.00     0.211 HD
ENDBRANCH   2  20
ENDBRANCH   1   2
BRANCH   1  22
HETATM   22  C13 UNL     1       6.877   0.794  14.001  1.00  0.00     0.094 C 
BRANCH  22  23
HETATM   23  C14 UNL     1       7.336   1.240  12.666  1.00  0.00    -0.053 A 
HETATM   24  C15 UNL     1       7.425   2.554  12.280  1.00  0.00     0.007 A 
HETATM   25  C16 UNL     1       7.862   2.913  11.026  1.00  0.00     0.001 A 
HETATM   26  C17 UNL     1       8.229   1.943  10.099  1.00  0.00     0.000 A 
HETATM   27  C18 UNL     1       8.145   0.623  10.472  1.00  0.00     0.001 A 
HETATM   28  C19 UNL     1       7.706   0.283  11.731  1.00  0.00     0.007 A 
ENDBRANCH  22  23
ENDBRANCH   1  22
BRANCH   1  29
HETATM   29  N2  UNL     1       4.697   1.184  13.085  1.00  0.00    -0.307 N 
HETATM   30  C20 UNL     1       3.790   0.695  12.065  1.00  0.00     0.365 C 
HETATM   31  O5  UNL     1       3.655  -0.546  11.928  1.00  0.00    -0.238 OA
ATOM     32  H2  UNL     1       4.806   2.193  13.197  1.00  0.00     0.170 HD
BRANCH  30  33
HETATM   33  O6  UNL     1       3.080   1.534  11.253  1.00  0.00    -0.296 OA
BRANCH  33  34
HETATM   34  C21 UNL     1       1.716   1.402  10.949  1.00  0.00     0.166 C 
HETATM   35  C22 UNL     1       0.831   1.683  12.144  1.00  0.00     0.204 C 
HETATM   36  O7  UNL     1       0.667   3.036  12.247  1.00  0.00    -0.358 OA
HETATM   37  C23 UNL     1       1.165   3.655  11.132  1.00  0.00     0.266 C 
HETATM   38  O8  UNL     1       2.440   4.111  11.408  1.00  0.00    -0.361 OA
HETATM   39  C26 UNL     1       1.356   2.601  10.060  1.00  0.00     0.075 C 
HETATM   40  C24 UNL     1       3.188   4.053  10.263  1.00  0.00     0.171 C 
HETATM   41  C25 UNL     1       2.543   3.104   9.310  1.00  0.00     0.038 C 
ENDBRANCH  33  34
ENDBRANCH  30  33
ENDBRANCH   1  29
TORSDOF 14
ENDMDL
