MODEL 2
REMARK VINA RESULT: -9.460943667      1.848      8.447
REMARK  14 active torsions:
REMARK  status: ('A' for Active; 'I' for Inactive)
REMARK    1  A    between atoms: O1_2  and  C2_3 
REMARK    2  A    between atoms: C5_6  and  S1_7 
REMARK    3  A    between atoms: S1_7  and  N1_10 
REMARK    4  A    between atoms: N1_10  and  C6_11 
REMARK    5  A    between atoms: N1_10  and  C10_15 
REMARK    6  A    between atoms: C6_11  and  C7_12 
REMARK    7  A    between atoms: C10_15  and  C11_16 
REMARK    8  A    between atoms: C11_16  and  O4_17 
REMARK    9  A    between atoms: C11_16  and  C12_19 
REMARK   10  A    between atoms: C12_19  and  C13_20 
REMARK   11  A    between atoms: C12_19  and  N2_27 
REMARK   12  A    between atoms: C13_20  and  C14_21 
REMARK       I    between atoms: N2_27  and  C20_29 
REMARK   13  A    between atoms: C20_29  and  O6_31 
REMARK   14  A    between atoms: O6_31  and  C21_32 
ROOT
HETATM    1  C12 UNL     1       5.563   0.454  14.146  1.00  0.00     0.029 C 
ENDROOT
BRANCH   1   2
HETATM    2  C11 UNL     1       5.070  -0.012  15.437  1.00  0.00     0.203 C 
BRANCH   2   3
HETATM    3  C10 UNL     1       5.598  -1.197  16.122  1.00  0.00     0.119 C 
BRANCH   3   4
HETATM    4  N1  UNL     1       5.340  -2.483  15.613  1.00  0.00    -0.262 N 
BRANCH   4   5
HETATM    5  S1  UNL     1       6.595  -3.428  15.047  1.00  0.00     0.267 S 
HETATM    6  O2  UNL     1       6.078  -4.447  14.059  1.00  0.00    -0.200 OA
HETATM    7  O3  UNL     1       7.524  -2.531  14.224  1.00  0.00    -0.200 OA
BRANCH   5   8
HETATM    8  C5  UNL     1       7.615  -4.169  16.239  1.00  0.00     0.080 A 
HETATM    9  C4  UNL     1       7.033  -4.895  17.257  1.00  0.00     0.028 A 
HETATM   10  C3  UNL     1       7.827  -5.517  18.229  1.00  0.00     0.038 A 
HETATM   11  C2  UNL     1       9.185  -5.419  18.191  1.00  0.00     0.068 A 
HETATM   12  C28 UNL     1       9.771  -4.695  17.178  1.00  0.00     0.038 A 
HETATM   13  C27 UNL     1       8.988  -4.083  16.219  1.00  0.00     0.028 A 
BRANCH  11  14
HETATM   14  O1  UNL     1       9.951  -6.052  19.179  1.00  0.00    -0.356 OA
HETATM   15  C1  UNL     1      10.309  -7.399  19.111  1.00  0.00     0.210 C 
ENDBRANCH  11  14
ENDBRANCH   5   8
ENDBRANCH   4   5
BRANCH   4  16
HETATM   16  C6  UNL     1       4.015  -2.843  15.366  1.00  0.00     0.085 C 
BRANCH  16  17
HETATM   17  C7  UNL     1       3.351  -3.870  16.189  1.00  0.00     0.017 C 
HETATM   18  C8  UNL     1       3.020  -3.536  17.595  1.00  0.00     0.015 C 
HETATM   19  C9  UNL     1       2.003  -4.165  15.501  1.00  0.00     0.015 C 
ENDBRANCH  16  17
ENDBRANCH   4  16
ENDBRANCH   3   4
ENDBRANCH   2   3
BRANCH   2  20
HETATM   20  O4  UNL     1       5.187   1.065  16.364  1.00  0.00    -0.385 OA
ATOM     21  H4  UNL     1       6.116   1.256  16.429  1.00  0.00     0.211 HD
ENDBRANCH   2  20
ENDBRANCH   1   2
BRANCH   1  22
HETATM   22  C13 UNL     1       6.950   1.042  14.093  1.00  0.00     0.094 C 
BRANCH  22  23
HETATM   23  C14 UNL     1       7.362   1.297  12.694  1.00  0.00    -0.053 A 
HETATM   24  C15 UNL     1       7.714   0.316  11.802  1.00  0.00     0.007 A 
HETATM   25  C16 UNL     1       8.088   0.609  10.511  1.00  0.00     0.001 A 
HETATM   26  C17 UNL     1       8.122   1.926  10.065  1.00  0.00     0.000 A 
HETATM   27  C18 UNL     1       7.772   2.920  10.948  1.00  0.00     0.001 A 
HETATM   28  C19 UNL     1       7.401   2.607  12.235  1.00  0.00     0.007 A 
ENDBRANCH  22  23
ENDBRANCH   1  22
BRANCH   1  29
HETATM   29  N2  UNL     1       4.685   1.260  13.341  1.00  0.00    -0.307 N 
HETATM   30  C20 UNL     1       3.826   0.703  12.314  1.00  0.00     0.365 C 
HETATM   31  O5  UNL     1       3.850  -0.537  12.120  1.00  0.00    -0.238 OA
ATOM     32  H2  UNL     1       4.666   2.268  13.499  1.00  0.00     0.170 HD
BRANCH  30  33
HETATM   33  O6  UNL     1       2.997   1.478  11.555  1.00  0.00    -0.296 OA
BRANCH  33  34
HETATM   34  C21 UNL     1       1.717   1.104  11.117  1.00  0.00     0.166 C 
HETATM   35  C22 UNL     1       0.681   1.207  12.214  1.00  0.00     0.204 C 
HETATM   36  O7  UNL     1       0.263   2.506  12.290  1.00  0.00    -0.358 OA
HETATM   37  C23 UNL     1       0.748   3.217  11.226  1.00  0.00     0.266 C 
HETATM   38  O8  UNL     1       1.886   3.894  11.624  1.00  0.00    -0.361 OA
HETATM   39  C26 UNL     1       1.235   2.227  10.187  1.00  0.00     0.075 C 
HETATM   40  C24 UNL     1       2.742   3.985  10.561  1.00  0.00     0.171 C 
HETATM   41  C25 UNL     1       2.378   2.945   9.555  1.00  0.00     0.038 C 
ENDBRANCH  33  34
ENDBRANCH  30  33
ENDBRANCH   1  29
TORSDOF 14
ENDMDL
