MODEL 11
REMARK VINA RESULT: -9.165814525      1.900      8.523
REMARK  14 active torsions:
REMARK  status: ('A' for Active; 'I' for Inactive)
REMARK    1  A    between atoms: O1_2  and  C2_3 
REMARK    2  A    between atoms: C5_6  and  S1_7 
REMARK    3  A    between atoms: S1_7  and  N1_10 
REMARK    4  A    between atoms: N1_10  and  C6_11 
REMARK    5  A    between atoms: N1_10  and  C10_15 
REMARK    6  A    between atoms: C6_11  and  C7_12 
REMARK    7  A    between atoms: C10_15  and  C11_16 
REMARK    8  A    between atoms: C11_16  and  O4_17 
REMARK    9  A    between atoms: C11_16  and  C12_19 
REMARK   10  A    between atoms: C12_19  and  C13_20 
REMARK   11  A    between atoms: C12_19  and  N2_27 
REMARK   12  A    between atoms: C13_20  and  C14_21 
REMARK       I    between atoms: N2_27  and  C20_29 
REMARK   13  A    between atoms: C20_29  and  O6_31 
REMARK   14  A    between atoms: O6_31  and  C21_32 
ROOT
HETATM    1  C12 UNL     1       5.772  -0.216  14.521  1.00  0.00     0.029 C 
ENDROOT
BRANCH   1   2
HETATM    2  C11 UNL     1       5.416  -0.748  15.831  1.00  0.00     0.203 C 
BRANCH   2   3
HETATM    3  C10 UNL     1       6.192  -1.786  16.518  1.00  0.00     0.119 C 
BRANCH   3   4
HETATM    4  N1  UNL     1       6.030  -3.138  16.169  1.00  0.00    -0.262 N 
BRANCH   4   5
HETATM    5  S1  UNL     1       7.329  -4.018  15.596  1.00  0.00     0.267 S 
HETATM    6  O2  UNL     1       6.932  -4.795  14.364  1.00  0.00    -0.200 OA
HETATM    7  O3  UNL     1       8.386  -3.026  15.101  1.00  0.00    -0.200 OA
BRANCH   5   8
HETATM    8  C5  UNL     1       8.154  -5.029  16.739  1.00  0.00     0.080 A 
HETATM    9  C4  UNL     1       9.469  -5.368  16.504  1.00  0.00     0.028 A 
HETATM   10  C3  UNL     1      10.169  -6.173  17.412  1.00  0.00     0.038 A 
HETATM   11  C2  UNL     1       9.568  -6.638  18.542  1.00  0.00     0.068 A 
HETATM   12  C28 UNL     1       8.255  -6.304  18.782  1.00  0.00     0.038 A 
HETATM   13  C27 UNL     1       7.565  -5.509  17.887  1.00  0.00     0.028 A 
BRANCH  11  14
HETATM   14  O1  UNL     1      10.294  -7.442  19.431  1.00  0.00    -0.356 OA
HETATM   15  C1  UNL     1      10.274  -8.836  19.379  1.00  0.00     0.210 C 
ENDBRANCH  11  14
ENDBRANCH   5   8
ENDBRANCH   4   5
BRANCH   4  16
HETATM   16  C6  UNL     1       4.734  -3.648  16.077  1.00  0.00     0.085 C 
BRANCH  16  17
HETATM   17  C7  UNL     1       4.103  -4.308  17.235  1.00  0.00     0.017 C 
HETATM   18  C8  UNL     1       2.772  -3.829  17.675  1.00  0.00     0.015 C 
HETATM   19  C9  UNL     1       3.904  -5.783  16.832  1.00  0.00     0.015 C 
ENDBRANCH  16  17
ENDBRANCH   4  16
ENDBRANCH   3   4
ENDBRANCH   2   3
BRANCH   2  20
HETATM   20  O4  UNL     1       5.331   0.348  16.739  1.00  0.00    -0.385 OA
ATOM     21  H4  UNL     1       4.404   0.497  16.885  1.00  0.00     0.211 HD
ENDBRANCH   2  20
ENDBRANCH   1   2
BRANCH   1  22
HETATM   22  C13 UNL     1       7.227   0.069  14.248  1.00  0.00     0.094 C 
BRANCH  22  23
HETATM   23  C14 UNL     1       7.404   0.683  12.913  1.00  0.00    -0.053 A 
HETATM   24  C15 UNL     1       7.402  -0.020  11.735  1.00  0.00     0.007 A 
HETATM   25  C16 UNL     1       7.569   0.602  10.519  1.00  0.00     0.001 A 
HETATM   26  C17 UNL     1       7.748   1.980  10.447  1.00  0.00     0.000 A 
HETATM   27  C18 UNL     1       7.752   2.697  11.619  1.00  0.00     0.001 A 
HETATM   28  C19 UNL     1       7.583   2.057  12.825  1.00  0.00     0.007 A 
ENDBRANCH  22  23
ENDBRANCH   1  22
BRANCH   1  29
HETATM   29  N2  UNL     1       4.980   0.863  13.994  1.00  0.00    -0.307 N 
HETATM   30  C20 UNL     1       3.841   0.651  13.122  1.00  0.00     0.365 C 
HETATM   31  O5  UNL     1       3.532  -0.527  12.815  1.00  0.00    -0.238 OA
ATOM     32  H2  UNL     1       5.231   1.820  14.244  1.00  0.00     0.170 HD
BRANCH  30  33
HETATM   33  O6  UNL     1       3.096   1.683  12.627  1.00  0.00    -0.296 OA
BRANCH  33  34
HETATM   34  C21 UNL     1       2.099   1.563  11.646  1.00  0.00     0.166 C 
HETATM   35  C22 UNL     1       0.826   2.285  12.029  1.00  0.00     0.204 C 
HETATM   36  O7  UNL     1       0.969   3.606  11.708  1.00  0.00    -0.358 OA
HETATM   37  C23 UNL     1       2.102   3.787  10.963  1.00  0.00     0.266 C 
HETATM   38  O8  UNL     1       3.120   4.211  11.798  1.00  0.00    -0.361 OA
HETATM   39  C26 UNL     1       2.554   2.430  10.463  1.00  0.00     0.075 C 
HETATM   40  C24 UNL     1       4.309   3.726  11.326  1.00  0.00     0.171 C 
HETATM   41  C25 UNL     1       4.038   2.570  10.423  1.00  0.00     0.038 C 
ENDBRANCH  33  34
ENDBRANCH  30  33
ENDBRANCH   1  29
TORSDOF 14
ENDMDL
