MODEL 6
REMARK VINA RESULT: -9.289253698      2.220      6.176
REMARK  14 active torsions:
REMARK  status: ('A' for Active; 'I' for Inactive)
REMARK    1  A    between atoms: O1_2  and  C2_3 
REMARK    2  A    between atoms: C5_6  and  S1_7 
REMARK    3  A    between atoms: S1_7  and  N1_10 
REMARK    4  A    between atoms: N1_10  and  C6_11 
REMARK    5  A    between atoms: N1_10  and  C10_15 
REMARK    6  A    between atoms: C6_11  and  C7_12 
REMARK    7  A    between atoms: C10_15  and  C11_16 
REMARK    8  A    between atoms: C11_16  and  O4_17 
REMARK    9  A    between atoms: C11_16  and  C12_19 
REMARK   10  A    between atoms: C12_19  and  C13_20 
REMARK   11  A    between atoms: C12_19  and  N2_27 
REMARK   12  A    between atoms: C13_20  and  C14_21 
REMARK       I    between atoms: N2_27  and  C20_29 
REMARK   13  A    between atoms: C20_29  and  O6_31 
REMARK   14  A    between atoms: O6_31  and  C21_32 
ROOT
HETATM    1  C12 UNL     1       6.584  -1.361  15.311  1.00  0.00     0.029 C 
ENDROOT
BRANCH   1   2
HETATM    2  C11 UNL     1       5.395  -1.525  16.139  1.00  0.00     0.203 C 
BRANCH   2   3
HETATM    3  C10 UNL     1       4.939  -2.823  16.649  1.00  0.00     0.119 C 
BRANCH   3   4
HETATM    4  N1  UNL     1       3.843  -3.471  16.054  1.00  0.00    -0.262 N 
BRANCH   4   5
HETATM    5  S1  UNL     1       3.621  -3.397  14.401  1.00  0.00     0.267 S 
HETATM    6  O2  UNL     1       4.853  -3.898  13.685  1.00  0.00    -0.200 OA
HETATM    7  O3  UNL     1       2.525  -4.402  14.029  1.00  0.00    -0.200 OA
BRANCH   5   8
HETATM    8  C5  UNL     1       3.088  -1.880  13.750  1.00  0.00     0.080 A 
HETATM    9  C4  UNL     1       2.171  -1.135  14.459  1.00  0.00     0.028 A 
HETATM   10  C3  UNL     1       1.728   0.101  13.969  1.00  0.00     0.038 A 
HETATM   11  C2  UNL     1       2.192   0.590  12.786  1.00  0.00     0.068 A 
HETATM   12  C28 UNL     1       3.107  -0.149  12.073  1.00  0.00     0.038 A 
HETATM   13  C27 UNL     1       3.544  -1.368  12.557  1.00  0.00     0.028 A 
BRANCH  11  14
HETATM   14  O1  UNL     1       1.729   1.829  12.322  1.00  0.00    -0.356 OA
HETATM   15  C1  UNL     1       0.381   2.087  12.070  1.00  0.00     0.210 C 
ENDBRANCH  11  14
ENDBRANCH   5   8
ENDBRANCH   4   5
BRANCH   4  16
HETATM   16  C6  UNL     1       2.830  -3.956  16.883  1.00  0.00     0.085 C 
BRANCH  16  17
HETATM   17  C7  UNL     1       2.829  -5.364  17.321  1.00  0.00     0.017 C 
HETATM   18  C8  UNL     1       3.768  -6.304  16.664  1.00  0.00     0.015 C 
HETATM   19  C9  UNL     1       3.226  -5.350  18.811  1.00  0.00     0.015 C 
ENDBRANCH  16  17
ENDBRANCH   4  16
ENDBRANCH   3   4
ENDBRANCH   2   3
BRANCH   2  20
HETATM   20  O4  UNL     1       5.538  -0.680  17.280  1.00  0.00    -0.385 OA
ATOM     21  H4  UNL     1       6.352  -0.206  17.155  1.00  0.00     0.211 HD
ENDBRANCH   2  20
ENDBRANCH   1   2
BRANCH   1  22
HETATM   22  C13 UNL     1       7.929  -1.544  15.966  1.00  0.00     0.094 C 
BRANCH  22  23
HETATM   23  C14 UNL     1       8.377  -2.951  15.870  1.00  0.00    -0.053 A 
HETATM   24  C15 UNL     1       7.890  -3.856  14.961  1.00  0.00     0.007 A 
HETATM   25  C16 UNL     1       8.344  -5.154  14.913  1.00  0.00     0.001 A 
HETATM   26  C17 UNL     1       9.322  -5.594  15.799  1.00  0.00     0.000 A 
HETATM   27  C18 UNL     1       9.819  -4.699  16.715  1.00  0.00     0.001 A 
HETATM   28  C19 UNL     1       9.353  -3.405  16.747  1.00  0.00     0.007 A 
ENDBRANCH  22  23
ENDBRANCH   1  22
BRANCH   1  29
HETATM   29  N2  UNL     1       6.643  -0.221  14.436  1.00  0.00    -0.307 N 
HETATM   30  C20 UNL     1       6.787  -0.338  12.998  1.00  0.00     0.365 C 
HETATM   31  O5  UNL     1       6.862  -1.486  12.494  1.00  0.00    -0.238 OA
ATOM     32  H2  UNL     1       6.582   0.712  14.845  1.00  0.00     0.170 HD
BRANCH  30  33
HETATM   33  O6  UNL     1       6.843   0.752  12.177  1.00  0.00    -0.296 OA
BRANCH  33  34
HETATM   34  C21 UNL     1       7.978   1.169  11.464  1.00  0.00     0.166 C 
HETATM   35  C22 UNL     1       8.156   0.405  10.170  1.00  0.00     0.204 C 
HETATM   36  O7  UNL     1       7.360   0.979   9.220  1.00  0.00    -0.358 OA
HETATM   37  C23 UNL     1       6.849   2.160   9.687  1.00  0.00     0.266 C 
HETATM   38  O8  UNL     1       5.571   1.935  10.163  1.00  0.00    -0.361 OA
HETATM   39  C26 UNL     1       7.649   2.563  10.909  1.00  0.00     0.075 C 
HETATM   40  C24 UNL     1       5.333   2.783  11.210  1.00  0.00     0.171 C 
HETATM   41  C25 UNL     1       6.638   3.264  11.751  1.00  0.00     0.038 C 
ENDBRANCH  33  34
ENDBRANCH  30  33
ENDBRANCH   1  29
TORSDOF 14
ENDMDL
