MODEL 3
REMARK VINA RESULT: -9.312272831      2.045      8.314
REMARK  14 active torsions:
REMARK  status: ('A' for Active; 'I' for Inactive)
REMARK    1  A    between atoms: O1_2  and  C2_3 
REMARK    2  A    between atoms: C5_6  and  S1_7 
REMARK    3  A    between atoms: S1_7  and  N1_10 
REMARK    4  A    between atoms: N1_10  and  C6_11 
REMARK    5  A    between atoms: N1_10  and  C10_15 
REMARK    6  A    between atoms: C6_11  and  C7_12 
REMARK    7  A    between atoms: C10_15  and  C11_16 
REMARK    8  A    between atoms: C11_16  and  O4_17 
REMARK    9  A    between atoms: C11_16  and  C12_19 
REMARK   10  A    between atoms: C12_19  and  C13_20 
REMARK   11  A    between atoms: C12_19  and  N2_27 
REMARK   12  A    between atoms: C13_20  and  C14_21 
REMARK       I    between atoms: N2_27  and  C20_29 
REMARK   13  A    between atoms: C20_29  and  O6_31 
REMARK   14  A    between atoms: O6_31  and  C21_32 
ROOT
HETATM    1  C12 UNL     1       5.454  -0.287  14.719  1.00  0.00     0.029 C 
ENDROOT
BRANCH   1   2
HETATM    2  C11 UNL     1       5.040  -1.064  15.881  1.00  0.00     0.203 C 
BRANCH   2   3
HETATM    3  C10 UNL     1       5.410  -2.469  16.086  1.00  0.00     0.119 C 
BRANCH   3   4
HETATM    4  N1  UNL     1       4.459  -3.388  16.564  1.00  0.00    -0.262 N 
BRANCH   4   5
HETATM    5  S1  UNL     1       4.917  -4.948  16.946  1.00  0.00     0.267 S 
HETATM    6  O2  UNL     1       4.283  -5.375  18.248  1.00  0.00    -0.200 OA
HETATM    7  O3  UNL     1       4.311  -5.885  15.897  1.00  0.00    -0.200 OA
BRANCH   5   8
HETATM    8  C5  UNL     1       6.618  -5.288  16.933  1.00  0.00     0.080 A 
HETATM    9  C4  UNL     1       7.293  -5.366  18.132  1.00  0.00     0.028 A 
HETATM   10  C3  UNL     1       8.664  -5.651  18.159  1.00  0.00     0.038 A 
HETATM   11  C2  UNL     1       9.358  -5.857  17.006  1.00  0.00     0.068 A 
HETATM   12  C28 UNL     1       8.691  -5.779  15.806  1.00  0.00     0.038 A 
HETATM   13  C27 UNL     1       7.338  -5.499  15.779  1.00  0.00     0.028 A 
BRANCH  11  14
HETATM   14  O1  UNL     1      10.730  -6.139  17.066  1.00  0.00    -0.356 OA
HETATM   15  C1  UNL     1      11.321  -6.789  18.151  1.00  0.00     0.210 C 
ENDBRANCH  11  14
ENDBRANCH   5   8
ENDBRANCH   4   5
BRANCH   4  16
HETATM   16  C6  UNL     1       3.108  -3.049  16.477  1.00  0.00     0.085 C 
BRANCH  16  17
HETATM   17  C7  UNL     1       2.349  -3.303  15.239  1.00  0.00     0.017 C 
HETATM   18  C8  UNL     1       1.198  -4.235  15.301  1.00  0.00     0.015 C 
HETATM   19  C9  UNL     1       1.762  -1.944  14.808  1.00  0.00     0.015 C 
ENDBRANCH  16  17
ENDBRANCH   4  16
ENDBRANCH   3   4
ENDBRANCH   2   3
BRANCH   2  20
HETATM   20  O4  UNL     1       5.473  -0.367  17.048  1.00  0.00    -0.385 OA
ATOM     21  H4  UNL     1       5.390   0.558  16.848  1.00  0.00     0.211 HD
ENDBRANCH   2  20
ENDBRANCH   1   2
BRANCH   1  22
HETATM   22  C13 UNL     1       6.881   0.196  14.666  1.00  0.00     0.094 C 
BRANCH  22  23
HETATM   23  C14 UNL     1       7.237   0.645  13.302  1.00  0.00    -0.053 A 
HETATM   24  C15 UNL     1       7.371  -0.193  12.224  1.00  0.00     0.007 A 
HETATM   25  C16 UNL     1       7.702   0.278  10.974  1.00  0.00     0.001 A 
HETATM   26  C17 UNL     1       7.915   1.636  10.764  1.00  0.00     0.000 A 
HETATM   27  C18 UNL     1       7.784   2.488  11.834  1.00  0.00     0.001 A 
HETATM   28  C19 UNL     1       7.452   1.998  13.076  1.00  0.00     0.007 A 
ENDBRANCH  22  23
ENDBRANCH   1  22
BRANCH   1  29
HETATM   29  N2  UNL     1       4.588   0.771  14.272  1.00  0.00    -0.307 N 
HETATM   30  C20 UNL     1       3.812   0.690  13.050  1.00  0.00     0.365 C 
HETATM   31  O5  UNL     1       3.900  -0.350  12.351  1.00  0.00    -0.238 OA
ATOM     32  H2  UNL     1       4.516   1.615  14.840  1.00  0.00     0.170 HD
BRANCH  30  33
HETATM   33  O6  UNL     1       2.993   1.701  12.635  1.00  0.00    -0.296 OA
BRANCH  33  34
HETATM   34  C21 UNL     1       1.987   1.580  11.664  1.00  0.00     0.166 C 
HETATM   35  C22 UNL     1       0.731   2.335  12.040  1.00  0.00     0.204 C 
HETATM   36  O7  UNL     1       0.898   3.645  11.689  1.00  0.00    -0.358 OA
HETATM   37  C23 UNL     1       2.029   3.788  10.932  1.00  0.00     0.266 C 
HETATM   38  O8  UNL     1       3.061   4.209  11.750  1.00  0.00    -0.361 OA
HETATM   39  C26 UNL     1       2.451   2.412  10.459  1.00  0.00     0.075 C 
HETATM   40  C24 UNL     1       4.237   3.690  11.281  1.00  0.00     0.171 C 
HETATM   41  C25 UNL     1       3.936   2.520  10.405  1.00  0.00     0.038 C 
ENDBRANCH  33  34
ENDBRANCH  30  33
ENDBRANCH   1  29
TORSDOF 14
ENDMDL
