MODEL 7
REMARK VINA RESULT: -9.234249295      1.871      8.400
REMARK  14 active torsions:
REMARK  status: ('A' for Active; 'I' for Inactive)
REMARK    1  A    between atoms: O1_2  and  C2_3 
REMARK    2  A    between atoms: C5_6  and  S1_7 
REMARK    3  A    between atoms: S1_7  and  N1_10 
REMARK    4  A    between atoms: N1_10  and  C6_11 
REMARK    5  A    between atoms: N1_10  and  C10_15 
REMARK    6  A    between atoms: C6_11  and  C7_12 
REMARK    7  A    between atoms: C10_15  and  C11_16 
REMARK    8  A    between atoms: C11_16  and  O4_17 
REMARK    9  A    between atoms: C11_16  and  C12_19 
REMARK   10  A    between atoms: C12_19  and  C13_20 
REMARK   11  A    between atoms: C12_19  and  N2_27 
REMARK   12  A    between atoms: C13_20  and  C14_21 
REMARK       I    between atoms: N2_27  and  C20_29 
REMARK   13  A    between atoms: C20_29  and  O6_31 
REMARK   14  A    between atoms: O6_31  and  C21_32 
ROOT
HETATM    1  C12 UNL     1       5.560   0.402  14.165  1.00  0.00     0.029 C 
ENDROOT
BRANCH   1   2
HETATM    2  C11 UNL     1       5.058  -0.024  15.466  1.00  0.00     0.203 C 
BRANCH   2   3
HETATM    3  C10 UNL     1       5.563  -1.203  16.179  1.00  0.00     0.119 C 
BRANCH   3   4
HETATM    4  N1  UNL     1       5.293  -2.494  15.692  1.00  0.00    -0.262 N 
BRANCH   4   5
HETATM    5  S1  UNL     1       6.533  -3.447  15.108  1.00  0.00     0.267 S 
HETATM    6  O2  UNL     1       5.996  -4.459  14.123  1.00  0.00    -0.200 OA
HETATM    7  O3  UNL     1       7.459  -2.555  14.276  1.00  0.00    -0.200 OA
BRANCH   5   8
HETATM    8  C5  UNL     1       7.562  -4.200  16.284  1.00  0.00     0.080 A 
HETATM    9  C4  UNL     1       6.988  -4.915  17.314  1.00  0.00     0.028 A 
HETATM   10  C3  UNL     1       7.789  -5.546  18.274  1.00  0.00     0.038 A 
HETATM   11  C2  UNL     1       9.147  -5.466  18.213  1.00  0.00     0.068 A 
HETATM   12  C28 UNL     1       9.726  -4.754  17.189  1.00  0.00     0.038 A 
HETATM   13  C27 UNL     1       8.936  -4.132  16.241  1.00  0.00     0.028 A 
BRANCH  11  14
HETATM   14  O1  UNL     1       9.921  -6.108  19.190  1.00  0.00    -0.356 OA
HETATM   15  C1  UNL     1      10.308  -7.445  19.091  1.00  0.00     0.210 C 
ENDBRANCH  11  14
ENDBRANCH   5   8
ENDBRANCH   4   5
BRANCH   4  16
HETATM   16  C6  UNL     1       3.962  -2.857  15.481  1.00  0.00     0.085 C 
BRANCH  16  17
HETATM   17  C7  UNL     1       3.316  -3.870  16.335  1.00  0.00     0.017 C 
HETATM   18  C8  UNL     1       3.002  -3.508  17.738  1.00  0.00     0.015 C 
HETATM   19  C9  UNL     1       1.960  -4.189  15.672  1.00  0.00     0.015 C 
ENDBRANCH  16  17
ENDBRANCH   4  16
ENDBRANCH   3   4
ENDBRANCH   2   3
BRANCH   2  20
HETATM   20  O4  UNL     1       5.195   1.072  16.368  1.00  0.00    -0.385 OA
ATOM     21  H4  UNL     1       6.009   1.504  16.135  1.00  0.00     0.211 HD
ENDBRANCH   2  20
ENDBRANCH   1   2
BRANCH   1  22
HETATM   22  C13 UNL     1       6.950   0.981  14.102  1.00  0.00     0.094 C 
BRANCH  22  23
HETATM   23  C14 UNL     1       7.333   1.285  12.705  1.00  0.00    -0.053 A 
HETATM   24  C15 UNL     1       7.389   2.550  12.178  1.00  0.00     0.007 A 
HETATM   25  C16 UNL     1       7.755   2.776  10.870  1.00  0.00     0.001 A 
HETATM   26  C17 UNL     1       8.081   1.714  10.033  1.00  0.00     0.000 A 
HETATM   27  C18 UNL     1       8.030   0.441  10.548  1.00  0.00     0.001 A 
HETATM   28  C19 UNL     1       7.662   0.235  11.858  1.00  0.00     0.007 A 
ENDBRANCH  22  23
ENDBRANCH   1  22
BRANCH   1  29
HETATM   29  N2  UNL     1       4.690   1.190  13.333  1.00  0.00    -0.307 N 
HETATM   30  C20 UNL     1       3.678   0.605  12.476  1.00  0.00     0.365 C 
HETATM   31  O5  UNL     1       3.554  -0.644  12.461  1.00  0.00    -0.238 OA
ATOM     32  H2  UNL     1       4.791   2.206  13.346  1.00  0.00     0.170 HD
BRANCH  30  33
HETATM   33  O6  UNL     1       2.858   1.363  11.690  1.00  0.00    -0.296 OA
BRANCH  33  34
HETATM   34  C21 UNL     1       2.864   2.766  11.632  1.00  0.00     0.166 C 
HETATM   35  C22 UNL     1       3.420   3.285  10.324  1.00  0.00     0.204 C 
HETATM   36  O7  UNL     1       2.419   3.261   9.394  1.00  0.00    -0.358 OA
HETATM   37  C23 UNL     1       1.222   2.991   9.998  1.00  0.00     0.266 C 
HETATM   38  O8  UNL     1       0.947   1.643   9.860  1.00  0.00    -0.361 OA
HETATM   39  C26 UNL     1       1.396   3.196  11.490  1.00  0.00     0.075 C 
HETATM   40  C24 UNL     1       0.253   1.217  10.960  1.00  0.00     0.171 C 
HETATM   41  C25 UNL     1       0.468   2.186  12.074  1.00  0.00     0.038 C 
ENDBRANCH  33  34
ENDBRANCH  30  33
ENDBRANCH   1  29
TORSDOF 14
ENDMDL
