MODEL 1
REMARK VINA RESULT: -9.480289029      0.000      0.000
REMARK  14 active torsions:
REMARK  status: ('A' for Active; 'I' for Inactive)
REMARK    1  A    between atoms: O1_2  and  C2_3 
REMARK    2  A    between atoms: C5_6  and  S1_7 
REMARK    3  A    between atoms: S1_7  and  N1_10 
REMARK    4  A    between atoms: N1_10  and  C6_11 
REMARK    5  A    between atoms: N1_10  and  C10_15 
REMARK    6  A    between atoms: C6_11  and  C7_12 
REMARK    7  A    between atoms: C10_15  and  C11_16 
REMARK    8  A    between atoms: C11_16  and  O4_17 
REMARK    9  A    between atoms: C11_16  and  C12_19 
REMARK   10  A    between atoms: C12_19  and  C13_20 
REMARK   11  A    between atoms: C12_19  and  N2_27 
REMARK   12  A    between atoms: C13_20  and  C14_21 
REMARK       I    between atoms: N2_27  and  C20_29 
REMARK   13  A    between atoms: C20_29  and  O6_31 
REMARK   14  A    between atoms: O6_31  and  C21_32 
ROOT
HETATM    1  C12 UNL     1       6.899  -1.571  15.676  1.00  0.00     0.029 C 
ENDROOT
BRANCH   1   2
HETATM    2  C11 UNL     1       5.465  -1.349  15.818  1.00  0.00     0.203 C 
BRANCH   2   3
HETATM    3  C10 UNL     1       4.588  -2.222  16.607  1.00  0.00     0.119 C 
BRANCH   3   4
HETATM    4  N1  UNL     1       3.849  -3.239  15.977  1.00  0.00    -0.262 N 
BRANCH   4   5
HETATM    5  S1  UNL     1       3.546  -3.161  14.337  1.00  0.00     0.267 S 
HETATM    6  O2  UNL     1       4.736  -3.674  13.560  1.00  0.00    -0.200 OA
HETATM    7  O3  UNL     1       2.423  -4.154  14.019  1.00  0.00    -0.200 OA
BRANCH   5   8
HETATM    8  C5  UNL     1       2.997  -1.638  13.713  1.00  0.00     0.080 A 
HETATM    9  C4  UNL     1       3.598  -1.123  12.585  1.00  0.00     0.028 A 
HETATM   10  C3  UNL     1       3.172   0.098  12.047  1.00  0.00     0.038 A 
HETATM   11  C2  UNL     1       2.160   0.801  12.626  1.00  0.00     0.068 A 
HETATM   12  C28 UNL     1       1.557   0.294  13.753  1.00  0.00     0.038 A 
HETATM   13  C27 UNL     1       1.977  -0.912  14.282  1.00  0.00     0.028 A 
BRANCH  11  14
HETATM   14  O1  UNL     1       1.757   2.021  12.065  1.00  0.00    -0.356 OA
HETATM   15  C1  UNL     1       0.416   2.372  11.900  1.00  0.00     0.210 C 
ENDBRANCH  11  14
ENDBRANCH   5   8
ENDBRANCH   4   5
BRANCH   4  16
HETATM   16  C6  UNL     1       3.177  -4.163  16.778  1.00  0.00     0.085 C 
BRANCH  16  17
HETATM   17  C7  UNL     1       3.924  -5.186  17.532  1.00  0.00     0.017 C 
HETATM   18  C8  UNL     1       3.343  -5.687  18.800  1.00  0.00     0.015 C 
HETATM   19  C9  UNL     1       4.025  -6.414  16.604  1.00  0.00     0.015 C 
ENDBRANCH  16  17
ENDBRANCH   4  16
ENDBRANCH   3   4
ENDBRANCH   2   3
BRANCH   2  20
HETATM   20  O4  UNL     1       5.276  -0.032  16.331  1.00  0.00    -0.385 OA
ATOM     21  H4  UNL     1       5.234   0.541  15.574  1.00  0.00     0.211 HD
ENDBRANCH   2  20
ENDBRANCH   1   2
BRANCH   1  22
HETATM   22  C13 UNL     1       7.448  -1.760  14.285  1.00  0.00     0.094 C 
BRANCH  22  23
HETATM   23  C14 UNL     1       7.439  -0.484  13.535  1.00  0.00    -0.053 A 
HETATM   24  C15 UNL     1       7.734   0.737  14.086  1.00  0.00     0.007 A 
HETATM   25  C16 UNL     1       7.713   1.893  13.340  1.00  0.00     0.001 A 
HETATM   26  C17 UNL     1       7.385   1.859  11.989  1.00  0.00     0.000 A 
HETATM   27  C18 UNL     1       7.086   0.642  11.424  1.00  0.00     0.001 A 
HETATM   28  C19 UNL     1       7.114  -0.503  12.185  1.00  0.00     0.007 A 
ENDBRANCH  22  23
ENDBRANCH   1  22
BRANCH   1  29
HETATM   29  N2  UNL     1       7.524  -2.522  16.556  1.00  0.00    -0.307 N 
HETATM   30  C20 UNL     1       7.560  -3.945  16.281  1.00  0.00     0.365 C 
HETATM   31  O5  UNL     1       7.021  -4.366  15.228  1.00  0.00    -0.238 OA
ATOM     32  H2  UNL     1       7.962  -2.179  17.412  1.00  0.00     0.170 HD
BRANCH  30  33
HETATM   33  O6  UNL     1       8.156  -4.838  17.125  1.00  0.00    -0.296 OA
BRANCH  33  34
HETATM   34  C21 UNL     1       9.412  -5.429  16.919  1.00  0.00     0.166 C 
HETATM   35  C22 UNL     1      10.440  -4.959  17.925  1.00  0.00     0.204 C 
HETATM   36  O7  UNL     1      10.292  -5.695  19.067  1.00  0.00    -0.358 OA
HETATM   37  C23 UNL     1       9.431  -6.735  18.845  1.00  0.00     0.266 C 
HETATM   38  O8  UNL     1       8.174  -6.377  19.294  1.00  0.00    -0.361 OA
HETATM   39  C26 UNL     1       9.272  -6.898  17.346  1.00  0.00     0.075 C 
HETATM   40  C24 UNL     1       7.233  -6.979  18.504  1.00  0.00     0.171 C 
HETATM   41  C25 UNL     1       7.866  -7.376  17.213  1.00  0.00     0.038 C 
ENDBRANCH  33  34
ENDBRANCH  30  33
ENDBRANCH   1  29
TORSDOF 14
ENDMDL
