MODEL 4
REMARK VINA RESULT: -9.308719877      2.023      5.611
REMARK  14 active torsions:
REMARK  status: ('A' for Active; 'I' for Inactive)
REMARK    1  A    between atoms: O1_2  and  C2_3 
REMARK    2  A    between atoms: C5_6  and  S1_7 
REMARK    3  A    between atoms: S1_7  and  N1_10 
REMARK    4  A    between atoms: N1_10  and  C6_11 
REMARK    5  A    between atoms: N1_10  and  C10_15 
REMARK    6  A    between atoms: C6_11  and  C7_12 
REMARK    7  A    between atoms: C10_15  and  C11_16 
REMARK    8  A    between atoms: C11_16  and  O4_17 
REMARK    9  A    between atoms: C11_16  and  C12_19 
REMARK   10  A    between atoms: C12_19  and  C13_20 
REMARK   11  A    between atoms: C12_19  and  N2_27 
REMARK   12  A    between atoms: C13_20  and  C14_21 
REMARK       I    between atoms: N2_27  and  C20_29 
REMARK   13  A    between atoms: C20_29  and  O6_31 
REMARK   14  A    between atoms: O6_31  and  C21_32 
ROOT
HETATM    1  C12 UNL     1       8.093  -2.930  15.230  1.00  0.00     0.029 C 
ENDROOT
BRANCH   1   2
HETATM    2  C11 UNL     1       7.828  -1.820  14.322  1.00  0.00     0.203 C 
BRANCH   2   3
HETATM    3  C10 UNL     1       6.722  -1.812  13.359  1.00  0.00     0.119 C 
BRANCH   3   4
HETATM    4  N1  UNL     1       6.019  -0.622  13.099  1.00  0.00    -0.262 N 
BRANCH   4   5
HETATM    5  S1  UNL     1       4.646  -0.251  13.973  1.00  0.00     0.267 S 
HETATM    6  O2  UNL     1       4.056  -1.503  14.577  1.00  0.00    -0.200 OA
HETATM    7  O3  UNL     1       5.070   0.594  15.178  1.00  0.00    -0.200 OA
BRANCH   5   8
HETATM    8  C5  UNL     1       3.432   0.687  13.163  1.00  0.00     0.080 A 
HETATM    9  C4  UNL     1       2.129   0.238  13.164  1.00  0.00     0.028 A 
HETATM   10  C3  UNL     1       1.122   0.977  12.530  1.00  0.00     0.038 A 
HETATM   11  C2  UNL     1       1.407   2.150  11.900  1.00  0.00     0.068 A 
HETATM   12  C28 UNL     1       2.705   2.603  11.894  1.00  0.00     0.038 A 
HETATM   13  C27 UNL     1       3.698   1.875  12.520  1.00  0.00     0.028 A 
BRANCH  11  14
HETATM   14  O1  UNL     1       0.377   2.865  11.274  1.00  0.00    -0.356 OA
HETATM   15  C1  UNL     1      -0.455   2.302  10.305  1.00  0.00     0.210 C 
ENDBRANCH  11  14
ENDBRANCH   5   8
ENDBRANCH   4   5
BRANCH   4  16
HETATM   16  C6  UNL     1       6.345   0.103  11.951  1.00  0.00     0.085 C 
BRANCH  16  17
HETATM   17  C7  UNL     1       7.635   0.809  11.851  1.00  0.00     0.017 C 
HETATM   18  C8  UNL     1       8.079   1.273  10.515  1.00  0.00     0.015 C 
HETATM   19  C9  UNL     1       7.494   2.082  12.710  1.00  0.00     0.015 C 
ENDBRANCH  16  17
ENDBRANCH   4  16
ENDBRANCH   3   4
ENDBRANCH   2   3
BRANCH   2  20
HETATM   20  O4  UNL     1       7.676  -0.640  15.109  1.00  0.00    -0.385 OA
ATOM     21  H4  UNL     1       7.537  -0.935  16.002  1.00  0.00     0.211 HD
ENDBRANCH   2  20
ENDBRANCH   1   2
BRANCH   1  22
HETATM   22  C13 UNL     1       9.299  -3.791  14.957  1.00  0.00     0.094 C 
BRANCH  22  23
HETATM   23  C14 UNL     1       9.524  -4.750  16.062  1.00  0.00    -0.053 A 
HETATM   24  C15 UNL     1      10.154  -4.436  17.240  1.00  0.00     0.007 A 
HETATM   25  C16 UNL     1      10.336  -5.367  18.237  1.00  0.00     0.001 A 
HETATM   26  C17 UNL     1       9.882  -6.672  18.078  1.00  0.00     0.000 A 
HETATM   27  C18 UNL     1       9.249  -7.001  16.903  1.00  0.00     0.001 A 
HETATM   28  C19 UNL     1       9.077  -6.056  15.918  1.00  0.00     0.007 A 
ENDBRANCH  22  23
ENDBRANCH   1  22
BRANCH   1  29
HETATM   29  N2  UNL     1       6.990  -3.777  15.597  1.00  0.00    -0.307 N 
HETATM   30  C20 UNL     1       6.028  -3.419  16.621  1.00  0.00     0.365 C 
HETATM   31  O5  UNL     1       6.164  -2.320  17.214  1.00  0.00    -0.238 OA
ATOM     32  H2  UNL     1       6.879  -4.670  15.115  1.00  0.00     0.170 HD
BRANCH  30  33
HETATM   33  O6  UNL     1       4.985  -4.232  16.962  1.00  0.00    -0.296 OA
BRANCH  33  34
HETATM   34  C21 UNL     1       4.799  -5.544  16.500  1.00  0.00     0.166 C 
HETATM   35  C22 UNL     1       5.342  -6.575  17.465  1.00  0.00     0.204 C 
HETATM   36  O7  UNL     1       4.402  -6.794  18.433  1.00  0.00    -0.358 OA
HETATM   37  C23 UNL     1       3.226  -6.185  18.090  1.00  0.00     0.266 C 
HETATM   38  O8  UNL     1       3.148  -4.967  18.740  1.00  0.00    -0.361 OA
HETATM   39  C26 UNL     1       3.295  -5.832  16.618  1.00  0.00     0.075 C 
HETATM   40  C24 UNL     1       2.465  -4.086  17.946  1.00  0.00     0.171 C 
HETATM   41  C25 UNL     1       2.488  -4.581  16.540  1.00  0.00     0.038 C 
ENDBRANCH  33  34
ENDBRANCH  30  33
ENDBRANCH   1  29
TORSDOF 14
ENDMDL
