MODEL 7
REMARK VINA RESULT: -4.120022444      6.175      7.168
REMARK  1 active torsions:
REMARK  status: ('A' for Active; 'I' for Inactive)
REMARK    1  A    between atoms: C2_2  and  C3_4 
ROOT
HETATM    1  C1  UNL     1       2.558  32.477 -10.922  1.00  0.00     0.103 C 
HETATM    2  C2  UNL     1       2.831  33.418 -12.033  1.00  0.00     0.221 C 
HETATM    3  O1  UNL     1       3.838  33.238 -12.761  1.00  0.00    -0.286 OA
ENDROOT
BRANCH   2   4
HETATM    4  C3  UNL     1       1.931  34.530 -12.264  1.00  0.00     0.246 C 
HETATM    5  O2  UNL     1       1.574  34.763 -13.443  1.00  0.00    -0.642 OA
HETATM    6  O3  UNL     1       1.474  35.320 -11.192  1.00  0.00    -0.642 OA
ENDBRANCH   2   4
TORSDOF 1
ENDMDL
