MODEL 6
REMARK VINA RESULT: -4.132929825      6.180      7.218
REMARK  1 active torsions:
REMARK  status: ('A' for Active; 'I' for Inactive)
REMARK    1  A    between atoms: C2_2  and  C3_4 
ROOT
HETATM    1  C1  UNL     1       2.624  32.482 -10.944  1.00  0.00     0.103 C 
HETATM    2  C2  UNL     1       2.852  33.449 -12.044  1.00  0.00     0.221 C 
HETATM    3  O1  UNL     1       3.854  33.316 -12.786  1.00  0.00    -0.286 OA
ENDROOT
BRANCH   2   4
HETATM    4  C3  UNL     1       1.911  34.533 -12.244  1.00  0.00     0.246 C 
HETATM    5  O2  UNL     1       1.568  35.207 -11.244  1.00  0.00    -0.642 OA
HETATM    6  O3  UNL     1       1.403  34.818 -13.526  1.00  0.00    -0.642 OA
ENDBRANCH   2   4
TORSDOF 1
ENDMDL
