MODEL 3
REMARK VINA RESULT: -4.378756145      0.124      1.343
REMARK  1 active torsions:
REMARK  status: ('A' for Active; 'I' for Inactive)
REMARK    1  A    between atoms: C2_2  and  C3_4 
ROOT
HETATM    1  C1  UNL     1      -1.708  38.139  -8.473  1.00  0.00     0.103 C 
HETATM    2  C2  UNL     1      -1.646  39.263  -9.437  1.00  0.00     0.221 C 
HETATM    3  O1  UNL     1      -2.681  39.931  -9.673  1.00  0.00    -0.286 OA
ENDROOT
BRANCH   2   4
HETATM    4  C3  UNL     1      -0.390  39.573 -10.090  1.00  0.00     0.246 C 
HETATM    5  O2  UNL     1      -0.092  40.781 -10.247  1.00  0.00    -0.642 OA
HETATM    6  O3  UNL     1       0.465  38.546 -10.532  1.00  0.00    -0.642 OA
ENDBRANCH   2   4
TORSDOF 1
ENDMDL
