MODEL 1
REMARK VINA RESULT: -4.421881665      0.000      0.000
REMARK  1 active torsions:
REMARK  status: ('A' for Active; 'I' for Inactive)
REMARK    1  A    between atoms: C2_2  and  C3_4 
ROOT
HETATM    1  C1  UNL     1      -1.673  38.069  -8.513  1.00  0.00     0.103 C 
HETATM    2  C2  UNL     1      -1.645  39.229  -9.434  1.00  0.00     0.221 C 
HETATM    3  O1  UNL     1      -2.699  39.876  -9.646  1.00  0.00    -0.286 OA
ENDROOT
BRANCH   2   4
HETATM    4  C3  UNL     1      -0.399  39.600 -10.075  1.00  0.00     0.246 C 
HETATM    5  O2  UNL     1       0.323  38.682 -10.532  1.00  0.00    -0.642 OA
HETATM    6  O3  UNL     1      -0.017  40.951 -10.179  1.00  0.00    -0.642 OA
ENDBRANCH   2   4
TORSDOF 1
ENDMDL
