MODEL 2
REMARK VINA RESULT: -4.411182740      0.786      2.077
REMARK  1 active torsions:
REMARK  status: ('A' for Active; 'I' for Inactive)
REMARK    1  A    between atoms: C2_2  and  C3_4 
ROOT
HETATM    1  C1  UNL     1      -1.548  37.957  -9.134  1.00  0.00     0.103 C 
HETATM    2  C2  UNL     1      -0.617  38.827  -9.890  1.00  0.00     0.221 C 
HETATM    3  O1  UNL     1       0.408  38.327 -10.414  1.00  0.00    -0.286 OA
ENDROOT
BRANCH   2   4
HETATM    4  C3  UNL     1      -0.905  40.242 -10.013  1.00  0.00     0.246 C 
HETATM    5  O2  UNL     1       0.063  41.030 -10.144  1.00  0.00    -0.642 OA
HETATM    6  O3  UNL     1      -2.231  40.712  -9.986  1.00  0.00    -0.642 OA
ENDBRANCH   2   4
TORSDOF 1
ENDMDL
