MODEL 15
REMARK VINA RESULT: -3.959853331      6.602      7.653
REMARK  1 active torsions:
REMARK  status: ('A' for Active; 'I' for Inactive)
REMARK    1  A    between atoms: C2_2  and  C3_4 
ROOT
HETATM    1  C1  UNL     1       4.046  32.464 -11.672  1.00  0.00     0.103 C 
HETATM    2  C2  UNL     1       3.716  33.729 -12.370  1.00  0.00     0.221 C 
HETATM    3  O1  UNL     1       4.596  34.303 -13.056  1.00  0.00    -0.286 OA
ENDROOT
BRANCH   2   4
HETATM    4  C3  UNL     1       2.382  34.283 -12.250  1.00  0.00     0.246 C 
HETATM    5  O2  UNL     1       1.852  34.298 -11.113  1.00  0.00    -0.642 OA
HETATM    6  O3  UNL     1       1.708  34.787 -13.378  1.00  0.00    -0.642 OA
ENDBRANCH   2   4
TORSDOF 1
ENDMDL
