MODEL 16
REMARK VINA RESULT: -3.910088544      5.461      6.389
REMARK  1 active torsions:
REMARK  status: ('A' for Active; 'I' for Inactive)
REMARK    1  A    between atoms: C2_2  and  C3_4 
ROOT
HETATM    1  C1  UNL     1       3.358  33.760 -12.239  1.00  0.00     0.103 C 
HETATM    2  C2  UNL     1       2.029  34.400 -12.391  1.00  0.00     0.221 C 
HETATM    3  O1  UNL     1       1.636  34.744 -13.532  1.00  0.00    -0.286 OA
ENDROOT
BRANCH   2   4
HETATM    4  C3  UNL     1       1.205  34.616 -11.219  1.00  0.00     0.246 C 
HETATM    5  O2  UNL     1       1.019  33.647 -10.444  1.00  0.00    -0.642 OA
HETATM    6  O3  UNL     1       0.633  35.877 -10.963  1.00  0.00    -0.642 OA
ENDBRANCH   2   4
TORSDOF 1
ENDMDL
