MODEL 1
REMARK VINA RESULT: -5.719695778      0.000      0.000
REMARK  12 active torsions:
REMARK  status: ('A' for Active; 'I' for Inactive)
REMARK    1  A    between atoms: O1_1  and  C1_3 
REMARK    2  A    between atoms: C1_3  and  C2_4 
REMARK    3  A    between atoms: C3_6  and  O3_7 
REMARK    4  A    between atoms: O3_7  and  C4_8 
REMARK    5  A    between atoms: C5_9  and  C6_10 
REMARK    6  A    between atoms: C6_10  and  O4_11 
REMARK    7  A    between atoms: C7_14  and  O6_15 
REMARK    8  A    between atoms: C8_17  and  O7_18 
REMARK    9  A    between atoms: C9_20  and  O8_21 
REMARK   10  A    between atoms: C10_23  and  O9_24 
REMARK   11  A    between atoms: C11_26  and  O10_27 
REMARK   12  A    between atoms: C12_29  and  O11_30 
ROOT
HETATM    1  O3  UNL     1       1.040  76.705  15.002  1.00  0.00    -0.348 OA
ENDROOT
BRANCH   1   2
HETATM    2  C3  UNL     1       1.921  76.201  15.955  1.00  0.00     0.292 C 
HETATM    3  O2  UNL     1       1.360  76.117  17.209  1.00  0.00    -0.348 OA
HETATM    4  C2  UNL     1       2.012  75.095  17.895  1.00  0.00     0.179 C 
HETATM    5  C12 UNL     1       3.515  75.248  17.840  1.00  0.00     0.180 C 
HETATM    6  C11 UNL     1       3.921  76.602  17.298  1.00  0.00     0.183 C 
HETATM    7  C10 UNL     1       3.202  76.962  16.027  1.00  0.00     0.204 C 
BRANCH   4   8
HETATM    8  C1  UNL     1       1.509  74.958  19.313  1.00  0.00     0.198 C 
BRANCH   8   9
HETATM    9  O1  UNL     1       1.465  73.639  19.742  1.00  0.00    -0.398 OA
ATOM     10  H1  UNL     1       0.660  73.427  20.196  1.00  0.00     0.209 HD
ENDBRANCH   8   9
ENDBRANCH   4   8
BRANCH   5  11
HETATM   11  O11 UNL     1       3.980  75.195  19.161  1.00  0.00    -0.390 OA
ATOM     12  H11 UNL     1       4.930  75.203  19.122  1.00  0.00     0.210 HD
ENDBRANCH   5  11
BRANCH   6  13
HETATM   13  O10 UNL     1       5.303  76.514  17.016  1.00  0.00    -0.390 OA
ATOM     14  H10 UNL     1       5.769  77.063  17.635  1.00  0.00     0.210 HD
ENDBRANCH   6  13
BRANCH   7  15
HETATM   15  O9  UNL     1       2.991  78.353  16.048  1.00  0.00    -0.388 OA
ATOM     16  H9  UNL     1       2.721  78.687  15.200  1.00  0.00     0.210 HD
ENDBRANCH   7  15
ENDBRANCH   1   2
BRANCH   1  17
HETATM   17  C4  UNL     1       0.086  75.792  14.601  1.00  0.00     0.187 C 
HETATM   18  C5  UNL     1       0.617  75.015  13.422  1.00  0.00     0.180 C 
HETATM   19  O5  UNL     1      -0.336  74.197  12.838  1.00  0.00    -0.349 OA
HETATM   20  C7  UNL     1      -1.477  74.875  12.447  1.00  0.00     0.288 C 
HETATM   21  C8  UNL     1      -2.122  75.627  13.588  1.00  0.00     0.204 C 
HETATM   22  C9  UNL     1      -1.172  76.560  14.266  1.00  0.00     0.183 C 
BRANCH  18  23
HETATM   23  C6  UNL     1       1.278  75.935  12.409  1.00  0.00     0.198 C 
BRANCH  23  24
HETATM   24  O4  UNL     1       1.947  75.142  11.477  1.00  0.00    -0.398 OA
ATOM     25  H4  UNL     1       1.430  75.124  10.681  1.00  0.00     0.209 HD
ENDBRANCH  23  24
ENDBRANCH  18  23
BRANCH  20  26
HETATM   26  O6  UNL     1      -2.401  73.930  12.001  1.00  0.00    -0.369 OA
ATOM     27  H6  UNL     1      -2.394  73.944  11.051  1.00  0.00     0.212 HD
ENDBRANCH  20  26
BRANCH  21  28
HETATM   28  O7  UNL     1      -3.210  76.324  13.069  1.00  0.00    -0.388 OA
ATOM     29  H7  UNL     1      -2.870  76.982  12.475  1.00  0.00     0.210 HD
ENDBRANCH  21  28
BRANCH  22  30
HETATM   30  O8  UNL     1      -0.921  77.717  13.562  1.00  0.00    -0.390 OA
ATOM     31  H8  UNL     1      -0.093  77.694  13.098  1.00  0.00     0.210 HD
ENDBRANCH  22  30
ENDBRANCH   1  17
TORSDOF 12
ENDMDL
