MODEL 3
REMARK VINA RESULT: -5.679869304      1.325      6.695
REMARK  12 active torsions:
REMARK  status: ('A' for Active; 'I' for Inactive)
REMARK    1  A    between atoms: O1_1  and  C1_3 
REMARK    2  A    between atoms: C1_3  and  C2_4 
REMARK    3  A    between atoms: C3_6  and  O3_7 
REMARK    4  A    between atoms: O3_7  and  C4_8 
REMARK    5  A    between atoms: C5_9  and  C6_10 
REMARK    6  A    between atoms: C6_10  and  O4_11 
REMARK    7  A    between atoms: C7_14  and  O6_15 
REMARK    8  A    between atoms: C8_17  and  O7_18 
REMARK    9  A    between atoms: C9_20  and  O8_21 
REMARK   10  A    between atoms: C10_23  and  O9_24 
REMARK   11  A    between atoms: C11_26  and  O10_27 
REMARK   12  A    between atoms: C12_29  and  O11_30 
ROOT
HETATM    1  O3  UNL     1       1.534  76.442  16.585  1.00  0.00    -0.348 OA
ENDROOT
BRANCH   1   2
HETATM    2  C3  UNL     1       0.775  76.090  15.473  1.00  0.00     0.292 C 
HETATM    3  O2  UNL     1       1.311  76.553  14.292  1.00  0.00    -0.348 OA
HETATM    4  C2  UNL     1       0.904  75.691  13.277  1.00  0.00     0.179 C 
HETATM    5  C12 UNL     1      -0.592  75.467  13.294  1.00  0.00     0.180 C 
HETATM    6  C11 UNL     1      -1.293  76.437  14.220  1.00  0.00     0.183 C 
HETATM    7  C10 UNL     1      -0.651  76.516  15.578  1.00  0.00     0.204 C 
BRANCH   4   8
HETATM    8  C1  UNL     1       1.393  76.146  11.922  1.00  0.00     0.198 C 
BRANCH   8   9
HETATM    9  O1  UNL     1       1.899  75.105  11.157  1.00  0.00    -0.398 OA
ATOM     10  H1  UNL     1       2.674  75.352  10.668  1.00  0.00     0.209 HD
ENDBRANCH   8   9
ENDBRANCH   4   8
BRANCH   5  11
HETATM   11  O11 UNL     1      -1.061  75.744  12.002  1.00  0.00    -0.390 OA
ATOM     12  H11 UNL     1      -1.685  76.457  12.081  1.00  0.00     0.210 HD
ENDBRANCH   5  11
BRANCH   6  13
HETATM   13  O10 UNL     1      -2.608  75.945  14.380  1.00  0.00    -0.390 OA
ATOM     14  H10 UNL     1      -2.818  75.405  13.627  1.00  0.00     0.210 HD
ENDBRANCH   6  13
BRANCH   7  15
HETATM   15  O9  UNL     1      -0.775  77.846  16.021  1.00  0.00    -0.388 OA
ATOM     16  H9  UNL     1      -0.219  78.027  16.770  1.00  0.00     0.210 HD
ENDBRANCH   7  15
ENDBRANCH   1   2
BRANCH   1  17
HETATM   17  C4  UNL     1       2.871  76.131  16.457  1.00  0.00     0.187 C 
HETATM   18  C5  UNL     1       3.216  75.033  17.433  1.00  0.00     0.180 C 
HETATM   19  O5  UNL     1       4.575  74.775  17.502  1.00  0.00    -0.349 OA
HETATM   20  C7  UNL     1       5.332  75.892  17.805  1.00  0.00     0.288 C 
HETATM   21  C8  UNL     1       5.105  77.026  16.830  1.00  0.00     0.204 C 
HETATM   22  C9  UNL     1       3.663  77.394  16.709  1.00  0.00     0.183 C 
BRANCH  18  23
HETATM   23  C6  UNL     1       2.615  75.306  18.802  1.00  0.00     0.198 C 
BRANCH  23  24
HETATM   24  O4  UNL     1       2.145  74.098  19.315  1.00  0.00    -0.398 OA
ATOM     25  H4  UNL     1       2.725  73.407  19.020  1.00  0.00     0.209 HD
ENDBRANCH  23  24
ENDBRANCH  18  23
BRANCH  20  26
HETATM   26  O6  UNL     1       6.676  75.533  17.715  1.00  0.00    -0.369 OA
ATOM     27  H6  UNL     1       6.862  75.334  16.805  1.00  0.00     0.212 HD
ENDBRANCH  20  26
BRANCH  21  28
HETATM   28  O7  UNL     1       5.856  78.112  17.270  1.00  0.00    -0.388 OA
ATOM     29  H7  UNL     1       5.344  78.566  17.928  1.00  0.00     0.210 HD
ENDBRANCH  21  28
BRANCH  22  30
HETATM   30  O8  UNL     1       3.178  78.127  17.770  1.00  0.00    -0.390 OA
ATOM     31  H8  UNL     1       2.623  77.616  18.347  1.00  0.00     0.210 HD
ENDBRANCH  22  30
ENDBRANCH   1  17
TORSDOF 12
ENDMDL
