MODEL 4
REMARK VINA RESULT: -7.600713883      0.818      1.191
REMARK  19 active torsions:
REMARK  status: ('A' for Active; 'I' for Inactive)
REMARK    1  A    between atoms: C2_2  and  C3_3 
REMARK    2  A    between atoms: C3_3  and  C4_4 
REMARK    3  A    between atoms: C4_4  and  C5_5 
REMARK    4  A    between atoms: C5_5  and  C6_6 
REMARK    5  A    between atoms: C6_6  and  C7_7 
REMARK    6  A    between atoms: C7_7  and  C8_8 
REMARK    7  A    between atoms: C8_8  and  C9_9 
REMARK    8  A    between atoms: C9_9  and  C10_10 
REMARK    9  A    between atoms: C10_10  and  C11_11 
REMARK   10  A    between atoms: C11_11  and  C12_12 
REMARK   11  A    between atoms: C12_12  and  C13_13 
REMARK   12  A    between atoms: C13_13  and  C14_14 
REMARK   13  A    between atoms: C15_15  and  C16_16 
REMARK   14  A    between atoms: C16_16  and  O1_17 
REMARK   15  A    between atoms: C16_16  and  C17_19 
REMARK   16  A    between atoms: C17_19  and  N1_20 
REMARK   17  A    between atoms: C17_19  and  C18_24 
REMARK   18  A    between atoms: C18_24  and  O2_25 
REMARK   19  A    between atoms: O2_25  and  P1_26 
ROOT
HETATM    1  C14 UNL     1       0.647  15.191  33.018  1.00  0.00    -0.028 C 
HETATM    2  C15 UNL     1       1.377  15.197  34.124  1.00  0.00     0.003 C 
ENDROOT
BRANCH   2   3
HETATM    3  C16 UNL     1       0.746  15.090  35.487  1.00  0.00     0.173 C 
BRANCH   3   4
HETATM    4  O1  UNL     1      -0.232  14.100  35.432  1.00  0.00    -0.390 OA
ATOM      5  H1  UNL     1      -1.078  14.526  35.367  1.00  0.00     0.210 HD
ENDBRANCH   3   4
BRANCH   3   6
HETATM    6  C17 UNL     1       1.851  14.691  36.435  1.00  0.00     0.239 C 
BRANCH   6   7
HETATM    7  N1  UNL     1       2.519  13.514  35.856  1.00  0.00    -0.070 N 
ATOM      8  H13 UNL     1       2.875  13.681  34.915  1.00  0.00     0.274 HD
ATOM      9  H12 UNL     1       3.412  13.304  36.300  1.00  0.00     0.274 HD
ATOM     10  H11 UNL     1       1.857  12.739  35.902  1.00  0.00     0.274 HD
ENDBRANCH   6   7
BRANCH   6  11
HETATM   11  C18 UNL     1       2.925  15.760  36.532  1.00  0.00     0.218 C 
BRANCH  11  12
HETATM   12  O2  UNL     1       3.186  15.970  37.849  1.00  0.00    -0.281 OA
BRANCH  12  13
HETATM   13  P1  UNL     1       4.116  14.974  38.683  1.00  0.00     0.422 P 
HETATM   14  O3  UNL     1       5.063  14.614  37.532  1.00  0.00    -0.617 OA
HETATM   15  O4  UNL     1       3.751  13.367  38.898  1.00  0.00    -0.617 OA
HETATM   16  O5  UNL     1       5.470  15.536  39.547  1.00  0.00    -0.617 OA
ENDBRANCH  12  13
ENDBRANCH  11  12
ENDBRANCH   6  11
ENDBRANCH   3   6
ENDBRANCH   2   3
BRANCH   1  17
HETATM   17  C13 UNL     1       1.191  15.291  31.649  1.00  0.00     0.027 C 
BRANCH  17  18
HETATM   18  C12 UNL     1       1.081  16.702  31.173  1.00  0.00     0.004 C 
BRANCH  18  19
HETATM   19  C11 UNL     1       0.052  17.517  31.895  1.00  0.00     0.000 C 
BRANCH  19  20
HETATM   20  C10 UNL     1      -0.819  18.263  30.899  1.00  0.00     0.000 C 
BRANCH  20  21
HETATM   21  C9  UNL     1      -0.755  17.650  29.539  1.00  0.00     0.000 C 
BRANCH  21  22
HETATM   22  C8  UNL     1      -2.142  17.212  29.059  1.00  0.00     0.000 C 
BRANCH  22  23
HETATM   23  C7  UNL     1      -3.115  18.301  29.331  1.00  0.00     0.000 C 
BRANCH  23  24
HETATM   24  C6  UNL     1      -3.277  19.151  28.075  1.00  0.00     0.000 C 
BRANCH  24  25
HETATM   25  C5  UNL     1      -2.788  20.537  28.315  1.00  0.00     0.000 C 
BRANCH  25  26
HETATM   26  C4  UNL     1      -2.999  20.917  29.758  1.00  0.00     0.000 C 
BRANCH  26  27
HETATM   27  C3  UNL     1      -2.567  22.332  29.979  1.00  0.00    -0.000 C 
BRANCH  27  28
HETATM   28  C2  UNL     1      -2.400  23.034  28.624  1.00  0.00    -0.005 C 
HETATM   29  C1  UNL     1      -3.114  24.366  28.684  1.00  0.00     0.005 C 
ENDBRANCH  27  28
ENDBRANCH  26  27
ENDBRANCH  25  26
ENDBRANCH  24  25
ENDBRANCH  23  24
ENDBRANCH  22  23
ENDBRANCH  21  22
ENDBRANCH  20  21
ENDBRANCH  19  20
ENDBRANCH  18  19
ENDBRANCH  17  18
ENDBRANCH   1  17
TORSDOF 19
ENDMDL
