MODEL 7
REMARK VINA RESULT: -7.514164229      1.129      1.651
REMARK  19 active torsions:
REMARK  status: ('A' for Active; 'I' for Inactive)
REMARK    1  A    between atoms: C2_2  and  C3_3 
REMARK    2  A    between atoms: C3_3  and  C4_4 
REMARK    3  A    between atoms: C4_4  and  C5_5 
REMARK    4  A    between atoms: C5_5  and  C6_6 
REMARK    5  A    between atoms: C6_6  and  C7_7 
REMARK    6  A    between atoms: C7_7  and  C8_8 
REMARK    7  A    between atoms: C8_8  and  C9_9 
REMARK    8  A    between atoms: C9_9  and  C10_10 
REMARK    9  A    between atoms: C10_10  and  C11_11 
REMARK   10  A    between atoms: C11_11  and  C12_12 
REMARK   11  A    between atoms: C12_12  and  C13_13 
REMARK   12  A    between atoms: C13_13  and  C14_14 
REMARK   13  A    between atoms: C15_15  and  C16_16 
REMARK   14  A    between atoms: C16_16  and  O1_17 
REMARK   15  A    between atoms: C16_16  and  C17_19 
REMARK   16  A    between atoms: C17_19  and  N1_20 
REMARK   17  A    between atoms: C17_19  and  C18_24 
REMARK   18  A    between atoms: C18_24  and  O2_25 
REMARK   19  A    between atoms: O2_25  and  P1_26 
ROOT
HETATM    1  C14 UNL     1       1.446  15.190  32.709  1.00  0.00    -0.028 C 
HETATM    2  C15 UNL     1       0.399  15.355  33.506  1.00  0.00     0.003 C 
ENDROOT
BRANCH   2   3
HETATM    3  C16 UNL     1       0.515  15.221  35.000  1.00  0.00     0.173 C 
BRANCH   3   4
HETATM    4  O1  UNL     1      -0.121  14.039  35.377  1.00  0.00    -0.390 OA
ATOM      5  H1  UNL     1      -0.012  13.933  36.314  1.00  0.00     0.210 HD
ENDBRANCH   3   4
BRANCH   3   6
HETATM    6  C17 UNL     1       1.990  15.148  35.307  1.00  0.00     0.239 C 
BRANCH   6   7
HETATM    7  N1  UNL     1       2.353  16.395  36.000  1.00  0.00    -0.070 N 
ATOM      8  H13 UNL     1       1.542  16.942  36.288  1.00  0.00     0.274 HD
ATOM      9  H12 UNL     1       2.742  16.236  36.929  1.00  0.00     0.274 HD
ATOM     10  H11 UNL     1       2.984  16.910  35.385  1.00  0.00     0.274 HD
ENDBRANCH   6   7
BRANCH   6  11
HETATM   11  C18 UNL     1       2.310  14.032  36.285  1.00  0.00     0.218 C 
BRANCH  11  12
HETATM   12  O2  UNL     1       1.634  14.282  37.438  1.00  0.00    -0.281 OA
BRANCH  12  13
HETATM   13  P1  UNL     1       2.315  14.061  38.866  1.00  0.00     0.422 P 
HETATM   14  O3  UNL     1       2.988  15.435  38.955  1.00  0.00    -0.617 OA
HETATM   15  O4  UNL     1       3.788  13.315  39.058  1.00  0.00    -0.617 OA
HETATM   16  O5  UNL     1       1.493  14.433  40.309  1.00  0.00    -0.617 OA
ENDBRANCH  12  13
ENDBRANCH  11  12
ENDBRANCH   6  11
ENDBRANCH   3   6
ENDBRANCH   2   3
BRANCH   1  17
HETATM   17  C13 UNL     1       1.413  15.305  31.239  1.00  0.00     0.027 C 
BRANCH  17  18
HETATM   18  C12 UNL     1       0.159  16.003  30.823  1.00  0.00     0.004 C 
BRANCH  18  19
HETATM   19  C11 UNL     1       0.351  17.442  30.454  1.00  0.00     0.000 C 
BRANCH  19  20
HETATM   20  C10 UNL     1      -0.990  18.085  30.138  1.00  0.00     0.000 C 
BRANCH  20  21
HETATM   21  C9  UNL     1      -1.898  17.145  29.417  1.00  0.00     0.000 C 
BRANCH  21  22
HETATM   22  C8  UNL     1      -2.441  17.772  28.130  1.00  0.00     0.000 C 
BRANCH  22  23
HETATM   23  C7  UNL     1      -3.508  18.745  28.478  1.00  0.00     0.000 C 
BRANCH  23  24
HETATM   24  C6  UNL     1      -3.355  19.987  27.607  1.00  0.00     0.000 C 
BRANCH  24  25
HETATM   25  C5  UNL     1      -2.429  20.963  28.245  1.00  0.00     0.000 C 
BRANCH  25  26
HETATM   26  C4  UNL     1      -2.864  21.241  29.660  1.00  0.00     0.000 C 
BRANCH  26  27
HETATM   27  C3  UNL     1      -2.515  22.647  30.031  1.00  0.00    -0.000 C 
BRANCH  27  28
HETATM   28  C2  UNL     1      -3.259  23.621  29.106  1.00  0.00    -0.005 C 
HETATM   29  C1  UNL     1      -2.391  24.843  28.900  1.00  0.00     0.005 C 
ENDBRANCH  27  28
ENDBRANCH  26  27
ENDBRANCH  25  26
ENDBRANCH  24  25
ENDBRANCH  23  24
ENDBRANCH  22  23
ENDBRANCH  21  22
ENDBRANCH  20  21
ENDBRANCH  19  20
ENDBRANCH  18  19
ENDBRANCH  17  18
ENDBRANCH   1  17
TORSDOF 19
ENDMDL
