MODEL 10
REMARK VINA RESULT: -7.336205054      1.273      1.855
REMARK  19 active torsions:
REMARK  status: ('A' for Active; 'I' for Inactive)
REMARK    1  A    between atoms: C2_2  and  C3_3 
REMARK    2  A    between atoms: C3_3  and  C4_4 
REMARK    3  A    between atoms: C4_4  and  C5_5 
REMARK    4  A    between atoms: C5_5  and  C6_6 
REMARK    5  A    between atoms: C6_6  and  C7_7 
REMARK    6  A    between atoms: C7_7  and  C8_8 
REMARK    7  A    between atoms: C8_8  and  C9_9 
REMARK    8  A    between atoms: C9_9  and  C10_10 
REMARK    9  A    between atoms: C10_10  and  C11_11 
REMARK   10  A    between atoms: C11_11  and  C12_12 
REMARK   11  A    between atoms: C12_12  and  C13_13 
REMARK   12  A    between atoms: C13_13  and  C14_14 
REMARK   13  A    between atoms: C15_15  and  C16_16 
REMARK   14  A    between atoms: C16_16  and  O1_17 
REMARK   15  A    between atoms: C16_16  and  C17_19 
REMARK   16  A    between atoms: C17_19  and  N1_20 
REMARK   17  A    between atoms: C17_19  and  C18_24 
REMARK   18  A    between atoms: C18_24  and  O2_25 
REMARK   19  A    between atoms: O2_25  and  P1_26 
ROOT
HETATM    1  C14 UNL     1       0.666  16.258  32.957  1.00  0.00    -0.028 C 
HETATM    2  C15 UNL     1       1.352  16.390  34.083  1.00  0.00     0.003 C 
ENDROOT
BRANCH   2   3
HETATM    3  C16 UNL     1       1.795  15.194  34.883  1.00  0.00     0.173 C 
BRANCH   3   4
HETATM    4  O1  UNL     1       3.175  15.279  35.055  1.00  0.00    -0.390 OA
ATOM      5  H1  UNL     1       3.589  14.809  34.341  1.00  0.00     0.210 HD
ENDBRANCH   3   4
BRANCH   3   6
HETATM    6  C17 UNL     1       1.089  15.289  36.213  1.00  0.00     0.239 C 
BRANCH   6   7
HETATM    7  N1  UNL     1       0.453  13.985  36.463  1.00  0.00    -0.070 N 
ATOM      8  H13 UNL     1       0.574  13.328  35.692  1.00  0.00     0.274 HD
ATOM      9  H12 UNL     1       0.932  13.437  37.178  1.00  0.00     0.274 HD
ATOM     10  H11 UNL     1      -0.526  14.164  36.686  1.00  0.00     0.274 HD
ENDBRANCH   6   7
BRANCH   6  11
HETATM   11  C18 UNL     1       2.066  15.489  37.358  1.00  0.00     0.218 C 
BRANCH  11  12
HETATM   12  O2  UNL     1       2.704  14.308  37.573  1.00  0.00    -0.281 OA
BRANCH  12  13
HETATM   13  P1  UNL     1       3.322  13.944  39.001  1.00  0.00     0.422 P 
HETATM   14  O3  UNL     1       3.504  15.386  39.487  1.00  0.00    -0.617 OA
HETATM   15  O4  UNL     1       4.942  13.651  39.235  1.00  0.00    -0.617 OA
HETATM   16  O5  UNL     1       2.329  13.671  40.355  1.00  0.00    -0.617 OA
ENDBRANCH  12  13
ENDBRANCH  11  12
ENDBRANCH   6  11
ENDBRANCH   3   6
ENDBRANCH   2   3
BRANCH   1  17
HETATM   17  C13 UNL     1       0.197  17.379  32.119  1.00  0.00     0.027 C 
BRANCH  17  18
HETATM   18  C12 UNL     1       0.528  17.103  30.689  1.00  0.00     0.004 C 
BRANCH  18  19
HETATM   19  C11 UNL     1      -0.230  17.946  29.710  1.00  0.00     0.000 C 
BRANCH  19  20
HETATM   20  C10 UNL     1      -1.503  18.476  30.349  1.00  0.00     0.000 C 
BRANCH  20  21
HETATM   21  C9  UNL     1      -2.696  18.242  29.482  1.00  0.00     0.000 C 
BRANCH  21  22
HETATM   22  C8  UNL     1      -2.311  17.518  28.188  1.00  0.00     0.000 C 
BRANCH  22  23
HETATM   23  C7  UNL     1      -2.494  18.444  27.042  1.00  0.00     0.000 C 
BRANCH  23  24
HETATM   24  C6  UNL     1      -3.475  19.543  27.440  1.00  0.00     0.000 C 
BRANCH  24  25
HETATM   25  C5  UNL     1      -3.691  20.485  26.307  1.00  0.00     0.000 C 
BRANCH  25  26
HETATM   26  C4  UNL     1      -3.806  21.897  26.822  1.00  0.00     0.000 C 
BRANCH  26  27
HETATM   27  C3  UNL     1      -2.689  22.181  27.776  1.00  0.00    -0.000 C 
BRANCH  27  28
HETATM   28  C2  UNL     1      -3.263  22.749  29.082  1.00  0.00    -0.005 C 
HETATM   29  C1  UNL     1      -2.554  22.088  30.244  1.00  0.00     0.005 C 
ENDBRANCH  27  28
ENDBRANCH  26  27
ENDBRANCH  25  26
ENDBRANCH  24  25
ENDBRANCH  23  24
ENDBRANCH  22  23
ENDBRANCH  21  22
ENDBRANCH  20  21
ENDBRANCH  19  20
ENDBRANCH  18  19
ENDBRANCH  17  18
ENDBRANCH   1  17
TORSDOF 19
ENDMDL
