MODEL 1
REMARK VINA RESULT: -7.717115440      0.000      0.000
REMARK  19 active torsions:
REMARK  status: ('A' for Active; 'I' for Inactive)
REMARK    1  A    between atoms: C2_2  and  C3_3 
REMARK    2  A    between atoms: C3_3  and  C4_4 
REMARK    3  A    between atoms: C4_4  and  C5_5 
REMARK    4  A    between atoms: C5_5  and  C6_6 
REMARK    5  A    between atoms: C6_6  and  C7_7 
REMARK    6  A    between atoms: C7_7  and  C8_8 
REMARK    7  A    between atoms: C8_8  and  C9_9 
REMARK    8  A    between atoms: C9_9  and  C10_10 
REMARK    9  A    between atoms: C10_10  and  C11_11 
REMARK   10  A    between atoms: C11_11  and  C12_12 
REMARK   11  A    between atoms: C12_12  and  C13_13 
REMARK   12  A    between atoms: C13_13  and  C14_14 
REMARK   13  A    between atoms: C15_15  and  C16_16 
REMARK   14  A    between atoms: C16_16  and  O1_17 
REMARK   15  A    between atoms: C16_16  and  C17_19 
REMARK   16  A    between atoms: C17_19  and  N1_20 
REMARK   17  A    between atoms: C17_19  and  C18_24 
REMARK   18  A    between atoms: C18_24  and  O2_25 
REMARK   19  A    between atoms: O2_25  and  P1_26 
ROOT
HETATM    1  C14 UNL     1       0.807  15.359  33.063  1.00  0.00    -0.028 C 
HETATM    2  C15 UNL     1       1.430  14.998  34.177  1.00  0.00     0.003 C 
ENDROOT
BRANCH   2   3
HETATM    3  C16 UNL     1       0.715  14.944  35.500  1.00  0.00     0.173 C 
BRANCH   3   4
HETATM    4  O1  UNL     1      -0.346  14.049  35.379  1.00  0.00    -0.390 OA
ATOM      5  H1  UNL     1      -0.071  13.217  35.747  1.00  0.00     0.210 HD
ENDBRANCH   3   4
BRANCH   3   6
HETATM    6  C17 UNL     1       1.721  14.441  36.505  1.00  0.00     0.239 C 
BRANCH   6   7
HETATM    7  N1  UNL     1       2.796  13.775  35.751  1.00  0.00    -0.070 N 
ATOM      8  H13 UNL     1       3.543  13.422  36.348  1.00  0.00     0.274 HD
ATOM      9  H12 UNL     1       2.510  12.880  35.355  1.00  0.00     0.274 HD
ATOM     10  H11 UNL     1       3.125  14.436  35.047  1.00  0.00     0.274 HD
ENDBRANCH   6   7
BRANCH   6  11
HETATM   11  C18 UNL     1       2.395  15.580  37.250  1.00  0.00     0.218 C 
BRANCH  11  12
HETATM   12  O2  UNL     1       3.416  15.056  37.978  1.00  0.00    -0.281 OA
BRANCH  12  13
HETATM   13  P1  UNL     1       3.170  14.432  39.428  1.00  0.00     0.422 P 
HETATM   14  O3  UNL     1       4.035  13.182  39.229  1.00  0.00    -0.617 OA
HETATM   15  O4  UNL     1       1.858  13.478  39.788  1.00  0.00    -0.617 OA
HETATM   16  O5  UNL     1       4.161  14.839  40.750  1.00  0.00    -0.617 OA
ENDBRANCH  12  13
ENDBRANCH  11  12
ENDBRANCH   6  11
ENDBRANCH   3   6
ENDBRANCH   2   3
BRANCH   1  17
HETATM   17  C13 UNL     1       1.438  15.436  31.732  1.00  0.00     0.027 C 
BRANCH  17  18
HETATM   18  C12 UNL     1       1.103  16.747  31.098  1.00  0.00     0.004 C 
BRANCH  18  19
HETATM   19  C11 UNL     1       0.073  17.542  31.839  1.00  0.00     0.000 C 
BRANCH  19  20
HETATM   20  C10 UNL     1      -0.832  18.270  30.858  1.00  0.00     0.000 C 
BRANCH  20  21
HETATM   21  C9  UNL     1      -0.760  17.673  29.492  1.00  0.00     0.000 C 
BRANCH  21  22
HETATM   22  C8  UNL     1      -2.132  17.171  29.031  1.00  0.00     0.000 C 
BRANCH  22  23
HETATM   23  C7  UNL     1      -2.199  17.238  27.548  1.00  0.00     0.000 C 
BRANCH  23  24
HETATM   24  C6  UNL     1      -2.463  18.680  27.125  1.00  0.00     0.000 C 
BRANCH  24  25
HETATM   25  C5  UNL     1      -3.510  19.295  27.986  1.00  0.00     0.000 C 
BRANCH  25  26
HETATM   26  C4  UNL     1      -3.176  20.739  28.255  1.00  0.00     0.000 C 
BRANCH  26  27
HETATM   27  C3  UNL     1      -2.930  20.940  29.717  1.00  0.00    -0.000 C 
BRANCH  27  28
HETATM   28  C2  UNL     1      -2.663  22.426  29.992  1.00  0.00    -0.005 C 
HETATM   29  C1  UNL     1      -2.709  23.173  28.677  1.00  0.00     0.005 C 
ENDBRANCH  27  28
ENDBRANCH  26  27
ENDBRANCH  25  26
ENDBRANCH  24  25
ENDBRANCH  23  24
ENDBRANCH  22  23
ENDBRANCH  21  22
ENDBRANCH  20  21
ENDBRANCH  19  20
ENDBRANCH  18  19
ENDBRANCH  17  18
ENDBRANCH   1  17
TORSDOF 19
ENDMDL
