MODEL 3
REMARK VINA RESULT: -7.602975970      1.386      1.976
REMARK  19 active torsions:
REMARK  status: ('A' for Active; 'I' for Inactive)
REMARK    1  A    between atoms: C2_2  and  C3_3 
REMARK    2  A    between atoms: C3_3  and  C4_4 
REMARK    3  A    between atoms: C4_4  and  C5_5 
REMARK    4  A    between atoms: C5_5  and  C6_6 
REMARK    5  A    between atoms: C6_6  and  C7_7 
REMARK    6  A    between atoms: C7_7  and  C8_8 
REMARK    7  A    between atoms: C8_8  and  C9_9 
REMARK    8  A    between atoms: C9_9  and  C10_10 
REMARK    9  A    between atoms: C10_10  and  C11_11 
REMARK   10  A    between atoms: C11_11  and  C12_12 
REMARK   11  A    between atoms: C12_12  and  C13_13 
REMARK   12  A    between atoms: C13_13  and  C14_14 
REMARK   13  A    between atoms: C15_15  and  C16_16 
REMARK   14  A    between atoms: C16_16  and  O1_17 
REMARK   15  A    between atoms: C16_16  and  C17_19 
REMARK   16  A    between atoms: C17_19  and  N1_20 
REMARK   17  A    between atoms: C17_19  and  C18_24 
REMARK   18  A    between atoms: C18_24  and  O2_25 
REMARK   19  A    between atoms: O2_25  and  P1_26 
ROOT
HETATM    1  C14 UNL     1       0.200  16.672  32.270  1.00  0.00    -0.028 C 
HETATM    2  C15 UNL     1       0.498  15.850  33.267  1.00  0.00     0.003 C 
ENDROOT
BRANCH   2   3
HETATM    3  C16 UNL     1       0.665  16.349  34.678  1.00  0.00     0.173 C 
BRANCH   3   4
HETATM    4  O1  UNL     1      -0.550  16.893  35.089  1.00  0.00    -0.390 OA
ATOM      5  H1  UNL     1      -0.899  17.408  34.370  1.00  0.00     0.210 HD
ENDBRANCH   3   4
BRANCH   3   6
HETATM    6  C17 UNL     1       1.015  15.143  35.515  1.00  0.00     0.239 C 
BRANCH   6   7
HETATM    7  N1  UNL     1       2.229  14.547  34.934  1.00  0.00    -0.070 N 
ATOM      8  H13 UNL     1       2.109  14.265  33.961  1.00  0.00     0.274 HD
ATOM      9  H12 UNL     1       2.975  15.226  34.783  1.00  0.00     0.274 HD
ATOM     10  H11 UNL     1       2.507  13.776  35.542  1.00  0.00     0.274 HD
ENDBRANCH   6   7
BRANCH   6  11
HETATM   11  C18 UNL     1       1.393  15.531  36.933  1.00  0.00     0.218 C 
BRANCH  11  12
HETATM   12  O2  UNL     1       1.866  14.420  37.557  1.00  0.00    -0.281 OA
BRANCH  12  13
HETATM   13  P1  UNL     1       3.172  14.474  38.476  1.00  0.00     0.422 P 
HETATM   14  O3  UNL     1       4.193  14.422  37.333  1.00  0.00    -0.617 OA
HETATM   15  O4  UNL     1       3.853  13.119  39.157  1.00  0.00    -0.617 OA
HETATM   16  O5  UNL     1       3.863  15.954  38.951  1.00  0.00    -0.617 OA
ENDBRANCH  12  13
ENDBRANCH  11  12
ENDBRANCH   6  11
ENDBRANCH   3   6
ENDBRANCH   2   3
BRANCH   1  17
HETATM   17  C13 UNL     1       0.020  16.260  30.864  1.00  0.00     0.027 C 
BRANCH  17  18
HETATM   18  C12 UNL     1      -0.411  17.437  30.053  1.00  0.00     0.004 C 
BRANCH  18  19
HETATM   19  C11 UNL     1      -0.986  18.561  30.858  1.00  0.00     0.000 C 
BRANCH  19  20
HETATM   20  C10 UNL     1      -2.211  19.131  30.163  1.00  0.00     0.000 C 
BRANCH  20  21
HETATM   21  C9  UNL     1      -2.929  18.091  29.367  1.00  0.00     0.000 C 
BRANCH  21  22
HETATM   22  C8  UNL     1      -3.817  18.726  28.292  1.00  0.00     0.000 C 
BRANCH  22  23
HETATM   23  C7  UNL     1      -2.956  19.429  27.307  1.00  0.00     0.000 C 
BRANCH  23  24
HETATM   24  C6  UNL     1      -3.715  20.627  26.745  1.00  0.00     0.000 C 
BRANCH  24  25
HETATM   25  C5  UNL     1      -3.046  21.899  27.135  1.00  0.00     0.000 C 
BRANCH  25  26
HETATM   26  C4  UNL     1      -3.574  22.376  28.463  1.00  0.00     0.000 C 
BRANCH  26  27
HETATM   27  C3  UNL     1      -2.440  22.823  29.330  1.00  0.00    -0.000 C 
BRANCH  27  28
HETATM   28  C2  UNL     1      -1.955  24.204  28.866  1.00  0.00    -0.005 C 
HETATM   29  C1  UNL     1      -3.130  25.157  28.889  1.00  0.00     0.005 C 
ENDBRANCH  27  28
ENDBRANCH  26  27
ENDBRANCH  25  26
ENDBRANCH  24  25
ENDBRANCH  23  24
ENDBRANCH  22  23
ENDBRANCH  21  22
ENDBRANCH  20  21
ENDBRANCH  19  20
ENDBRANCH  18  19
ENDBRANCH  17  18
ENDBRANCH   1  17
TORSDOF 19
ENDMDL
