MODEL 3
REMARK VINA RESULT: -8.146908711      3.066      4.163
REMARK  14 active torsions:
REMARK  status: ('A' for Active; 'I' for Inactive)
REMARK    1  A    between atoms: O1_2  and  P1_3 
REMARK    2  A    between atoms: P1_3  and  C2_6 
REMARK    3  A    between atoms: C2_6  and  O4_7 
REMARK    4  A    between atoms: C2_6  and  C3_9 
REMARK    5  A    between atoms: C2_6  and  C9_15 
REMARK    6  A    between atoms: C10_17  and  C11_18 
REMARK    7  A    between atoms: C11_18  and  C12_19 
REMARK    8  A    between atoms: C12_19  and  O5_20 
REMARK    9  A    between atoms: O5_20  and  P2_21 
REMARK   10  A    between atoms: P2_21  and  O8_24 
REMARK   11  A    between atoms: O8_24  and  P3_25 
REMARK   12  A    between atoms: N1_31  and  C15_32 
REMARK   13  A    between atoms: C15_32  and  C16_33 
REMARK   14  A    between atoms: C20_42  and  N4_43 
ROOT
HETATM    1  C9  UNL     1      -2.055 -41.839 -22.435  1.00  0.00     0.172 C 
HETATM    2  S1  UNL     1      -1.830 -42.354 -24.180  1.00  0.00    -0.138 SA
HETATM    3  C10 UNL     1      -1.230 -44.009 -23.796  1.00  0.00     0.069 C 
HETATM    4  C13 UNL     1      -0.692 -43.765 -22.378  1.00  0.00     0.073 C 
HETATM    5  C14 UNL     1      -0.453 -45.074 -21.720  1.00  0.00     0.028 C 
HETATM    6  N1  UNL     1      -1.528 -42.922 -21.668  1.00  0.00    -0.270 NA
ENDROOT
BRANCH   6   7
HETATM    7  C15 UNL     1      -2.660 -43.615 -21.098  1.00  0.00     0.074 C 
BRANCH   7   8
HETATM    8  C16 UNL     1      -2.965 -43.368 -19.717  1.00  0.00     0.025 C 
HETATM    9  C17 UNL     1      -3.971 -42.713 -19.220  1.00  0.00     0.096 C 
HETATM   10  N2  UNL     1      -4.093 -42.561 -17.829  1.00  0.00    -0.372 N 
HETATM   11  C18 UNL     1      -3.637 -43.635 -16.969  1.00  0.00     0.282 C 
ATOM     12  H2  UNL     1      -4.494 -41.712 -17.432  1.00  0.00     0.161 HD
HETATM   13  C19 UNL     1      -3.131 -43.034 -15.677  1.00  0.00     0.063 C 
HETATM   14  N3  UNL     1      -2.684 -44.520 -17.575  1.00  0.00    -0.022 N 
HETATM   15  C20 UNL     1      -1.988 -43.924 -18.709  1.00  0.00     0.418 C 
ATOM     16  H32 UNL     1      -2.020 -44.867 -16.884  1.00  0.00     0.282 HD
ATOM     17  H31 UNL     1      -3.125 -45.401 -17.842  1.00  0.00     0.282 HD
BRANCH  15  18
HETATM   18  N4  UNL     1      -1.156 -42.821 -18.307  1.00  0.00    -0.046 N 
ATOM     19  H43 UNL     1      -0.360 -42.667 -18.926  1.00  0.00     0.277 HD
ATOM     20  H42 UNL     1      -1.596 -41.911 -18.439  1.00  0.00     0.277 HD
ATOM     21  H41 UNL     1      -0.888 -43.006 -17.340  1.00  0.00     0.277 HD
ENDBRANCH  15  18
ENDBRANCH   7   8
ENDBRANCH   6   7
BRANCH   1  22
HETATM   22  C2  UNL     1      -1.441 -40.520 -22.129  1.00  0.00     0.192 C 
BRANCH  22  23
HETATM   23  P1  UNL     1      -1.780 -39.199 -23.202  1.00  0.00     0.287 P 
HETATM   24  O2  UNL     1      -0.478 -38.999 -23.930  1.00  0.00    -0.644 OA
HETATM   25  O3  UNL     1      -1.607 -37.661 -22.499  1.00  0.00    -0.644 OA
BRANCH  23  26
HETATM   26  O1  UNL     1      -2.571 -39.389 -24.633  1.00  0.00    -0.315 OA
HETATM   27  C1  UNL     1      -3.844 -38.955 -24.691  1.00  0.00     0.213 C 
ENDBRANCH  23  26
ENDBRANCH  22  23
BRANCH  22  28
HETATM   28  O4  UNL     1      -0.024 -40.856 -22.543  1.00  0.00    -0.375 OA
ATOM     29  H4  UNL     1       0.029 -41.761 -22.260  1.00  0.00     0.211 HD
ENDBRANCH  22  28
BRANCH  22  30
HETATM   30  C3  UNL     1      -1.089 -40.224 -20.724  1.00  0.00     0.036 C 
HETATM   31  C4  UNL     1      -2.059 -39.611 -19.783  1.00  0.00     0.008 C 
HETATM   32  C5  UNL     1      -1.293 -38.624 -18.858  1.00  0.00     0.001 C 
HETATM   33  C6  UNL     1      -0.289 -37.757 -19.536  1.00  0.00     0.000 C 
HETATM   34  C7  UNL     1       0.698 -38.523 -20.361  1.00  0.00     0.001 C 
HETATM   35  C8  UNL     1       0.317 -39.955 -20.324  1.00  0.00     0.008 C 
ENDBRANCH  22  30
ENDBRANCH   1  22
BRANCH   3  36
HETATM   36  C11 UNL     1      -0.078 -44.433 -24.568  1.00  0.00     0.043 C 
BRANCH  36  37
HETATM   37  C12 UNL     1       0.908 -43.618 -25.258  1.00  0.00     0.182 C 
BRANCH  37  38
HETATM   38  O5  UNL     1       2.195 -43.815 -24.674  1.00  0.00    -0.289 OA
BRANCH  38  39
HETATM   39  P2  UNL     1       3.190 -43.280 -25.949  1.00  0.00     0.418 P 
HETATM   40  O6  UNL     1       4.255 -42.008 -25.383  1.00  0.00    -0.624 OA
HETATM   41  O7  UNL     1       2.260 -42.275 -26.457  1.00  0.00    -0.624 OA
BRANCH  39  42
HETATM   42  O8  UNL     1       3.562 -44.114 -27.195  1.00  0.00    -0.173 OA
BRANCH  42  43
HETATM   43  P3  UNL     1       3.819 -45.757 -26.978  1.00  0.00     0.431 P 
HETATM   44  O9  UNL     1       4.283 -46.637 -28.312  1.00  0.00    -0.616 OA
HETATM   45  O10 UNL     1       2.342 -46.008 -27.326  1.00  0.00    -0.616 OA
HETATM   46  O11 UNL     1       3.789 -46.441 -25.523  1.00  0.00    -0.616 OA
ENDBRANCH  42  43
ENDBRANCH  39  42
ENDBRANCH  38  39
ENDBRANCH  37  38
ENDBRANCH  36  37
ENDBRANCH   3  36
TORSDOF 14
ENDMDL
