MODEL 1
REMARK VINA RESULT: -8.703146742      0.000      0.000
REMARK  14 active torsions:
REMARK  status: ('A' for Active; 'I' for Inactive)
REMARK    1  A    between atoms: O1_2  and  P1_3 
REMARK    2  A    between atoms: P1_3  and  C2_6 
REMARK    3  A    between atoms: C2_6  and  O4_7 
REMARK    4  A    between atoms: C2_6  and  C3_9 
REMARK    5  A    between atoms: C2_6  and  C9_15 
REMARK    6  A    between atoms: C10_17  and  C11_18 
REMARK    7  A    between atoms: C11_18  and  C12_19 
REMARK    8  A    between atoms: C12_19  and  O5_20 
REMARK    9  A    between atoms: O5_20  and  P2_21 
REMARK   10  A    between atoms: P2_21  and  O8_24 
REMARK   11  A    between atoms: O8_24  and  P3_25 
REMARK   12  A    between atoms: N1_31  and  C15_32 
REMARK   13  A    between atoms: C15_32  and  C16_33 
REMARK   14  A    between atoms: C20_42  and  N4_43 
ROOT
HETATM    1  C9  UNL     1      -1.075 -41.977 -23.848  1.00  0.00     0.172 C 
HETATM    2  S1  UNL     1      -0.766 -42.620 -25.536  1.00  0.00    -0.138 SA
HETATM    3  C10 UNL     1      -0.721 -44.356 -25.055  1.00  0.00     0.069 C 
HETATM    4  C13 UNL     1      -0.337 -44.203 -23.576  1.00  0.00     0.073 C 
HETATM    5  C14 UNL     1      -0.573 -45.493 -22.879  1.00  0.00     0.028 C 
HETATM    6  N1  UNL     1      -0.989 -43.126 -23.002  1.00  0.00    -0.270 NA
ENDROOT
BRANCH   6   7
HETATM    7  C15 UNL     1      -2.339 -43.445 -22.599  1.00  0.00     0.074 C 
BRANCH   7   8
HETATM    8  C16 UNL     1      -2.763 -43.015 -21.297  1.00  0.00     0.025 C 
HETATM    9  C17 UNL     1      -3.732 -42.205 -20.993  1.00  0.00     0.096 C 
HETATM   10  N2  UNL     1      -3.989 -41.888 -19.650  1.00  0.00    -0.372 N 
HETATM   11  C18 UNL     1      -3.765 -42.903 -18.640  1.00  0.00     0.282 C 
ATOM     12  H2  UNL     1      -4.326 -40.961 -19.389  1.00  0.00     0.161 HD
HETATM   13  C19 UNL     1      -3.337 -42.221 -17.360  1.00  0.00     0.063 C 
HETATM   14  N3  UNL     1      -2.864 -43.948 -19.036  1.00  0.00    -0.022 N 
HETATM   15  C20 UNL     1      -1.979 -43.559 -20.127  1.00  0.00     0.418 C 
ATOM     16  H32 UNL     1      -2.328 -44.286 -18.237  1.00  0.00     0.282 HD
ATOM     17  H31 UNL     1      -3.375 -44.799 -19.268  1.00  0.00     0.282 HD
BRANCH  15  18
HETATM   18  N4  UNL     1      -1.070 -42.516 -19.734  1.00  0.00    -0.046 N 
ATOM     19  H43 UNL     1      -1.207 -41.644 -20.246  1.00  0.00     0.277 HD
ATOM     20  H42 UNL     1      -1.256 -42.144 -18.803  1.00  0.00     0.277 HD
ATOM     21  H41 UNL     1      -0.132 -42.903 -19.837  1.00  0.00     0.277 HD
ENDBRANCH  15  18
ENDBRANCH   7   8
ENDBRANCH   6   7
BRANCH   1  22
HETATM   22  C2  UNL     1      -0.161 -40.869 -23.465  1.00  0.00     0.192 C 
BRANCH  22  23
HETATM   23  P1  UNL     1       1.547 -41.139 -23.615  1.00  0.00     0.287 P 
HETATM   24  O2  UNL     1       1.946 -41.609 -22.242  1.00  0.00    -0.644 OA
HETATM   25  O3  UNL     1       2.499 -39.747 -23.400  1.00  0.00    -0.644 OA
BRANCH  23  26
HETATM   26  O1  UNL     1       2.182 -42.501 -24.285  1.00  0.00    -0.315 OA
HETATM   27  C1  UNL     1       2.921 -42.348 -25.400  1.00  0.00     0.213 C 
ENDBRANCH  23  26
ENDBRANCH  22  23
BRANCH  22  28
HETATM   28  O4  UNL     1      -0.328 -40.980 -21.964  1.00  0.00    -0.375 OA
ATOM     29  H4  UNL     1       0.178 -41.765 -21.790  1.00  0.00     0.211 HD
ENDBRANCH  22  28
BRANCH  22  30
HETATM   30  C3  UNL     1      -0.673 -39.484 -23.542  1.00  0.00     0.036 C 
HETATM   31  C4  UNL     1      -0.391 -38.484 -22.484  1.00  0.00     0.008 C 
HETATM   32  C5  UNL     1      -1.654 -37.596 -22.295  1.00  0.00     0.001 C 
HETATM   33  C6  UNL     1      -2.954 -38.323 -22.284  1.00  0.00     0.000 C 
HETATM   34  C7  UNL     1      -3.150 -39.210 -23.473  1.00  0.00     0.001 C 
HETATM   35  C8  UNL     1      -1.915 -39.165 -24.291  1.00  0.00     0.008 C 
ENDBRANCH  22  30
ENDBRANCH   1  22
BRANCH   3  36
HETATM   36  C11 UNL     1       0.358 -45.124 -25.647  1.00  0.00     0.043 C 
BRANCH  36  37
HETATM   37  C12 UNL     1       0.430 -45.728 -26.967  1.00  0.00     0.182 C 
BRANCH  37  38
HETATM   38  O5  UNL     1      -0.562 -46.746 -27.090  1.00  0.00    -0.289 OA
BRANCH  38  39
HETATM   39  P2  UNL     1      -0.910 -46.628 -28.753  1.00  0.00     0.418 P 
HETATM   40  O6  UNL     1       0.470 -45.968 -29.608  1.00  0.00    -0.624 OA
HETATM   41  O7  UNL     1      -1.508 -45.297 -28.690  1.00  0.00    -0.624 OA
BRANCH  39  42
HETATM   42  O8  UNL     1      -1.961 -47.478 -29.502  1.00  0.00    -0.173 OA
BRANCH  42  43
HETATM   43  P3  UNL     1      -2.124 -49.084 -29.049  1.00  0.00     0.431 P 
HETATM   44  O9  UNL     1      -0.776 -50.051 -29.174  1.00  0.00    -0.616 OA
HETATM   45  O10 UNL     1      -2.505 -49.428 -30.500  1.00  0.00    -0.616 OA
HETATM   46  O11 UNL     1      -3.467 -49.646 -28.365  1.00  0.00    -0.616 OA
ENDBRANCH  42  43
ENDBRANCH  39  42
ENDBRANCH  38  39
ENDBRANCH  37  38
ENDBRANCH  36  37
ENDBRANCH   3  36
TORSDOF 14
ENDMDL
