MODEL 2
REMARK VINA RESULT: -8.573001565      1.199      1.682
REMARK  14 active torsions:
REMARK  status: ('A' for Active; 'I' for Inactive)
REMARK    1  A    between atoms: O1_2  and  P1_3 
REMARK    2  A    between atoms: P1_3  and  C2_6 
REMARK    3  A    between atoms: C2_6  and  O4_7 
REMARK    4  A    between atoms: C2_6  and  C3_9 
REMARK    5  A    between atoms: C2_6  and  C9_15 
REMARK    6  A    between atoms: C10_17  and  C11_18 
REMARK    7  A    between atoms: C11_18  and  C12_19 
REMARK    8  A    between atoms: C12_19  and  O5_20 
REMARK    9  A    between atoms: O5_20  and  P2_21 
REMARK   10  A    between atoms: P2_21  and  O8_24 
REMARK   11  A    between atoms: O8_24  and  P3_25 
REMARK   12  A    between atoms: N1_31  and  C15_32 
REMARK   13  A    between atoms: C15_32  and  C16_33 
REMARK   14  A    between atoms: C20_42  and  N4_43 
ROOT
HETATM    1  C9  UNL     1      -1.572 -42.074 -22.784  1.00  0.00     0.172 C 
HETATM    2  S1  UNL     1      -1.350 -42.549 -24.540  1.00  0.00    -0.138 SA
HETATM    3  C10 UNL     1      -0.892 -44.259 -24.201  1.00  0.00     0.069 C 
HETATM    4  C13 UNL     1      -0.367 -44.105 -22.765  1.00  0.00     0.073 C 
HETATM    5  C14 UNL     1      -0.247 -45.449 -22.147  1.00  0.00     0.028 C 
HETATM    6  N1  UNL     1      -1.149 -43.220 -22.043  1.00  0.00    -0.270 NA
ENDROOT
BRANCH   6   7
HETATM    7  C15 UNL     1      -2.345 -43.838 -21.519  1.00  0.00     0.074 C 
BRANCH   7   8
HETATM    8  C16 UNL     1      -2.790 -43.426 -20.218  1.00  0.00     0.025 C 
HETATM    9  C17 UNL     1      -3.840 -42.724 -19.912  1.00  0.00     0.096 C 
HETATM   10  N2  UNL     1      -4.104 -42.404 -18.570  1.00  0.00    -0.372 N 
HETATM   11  C18 UNL     1      -3.746 -43.361 -17.543  1.00  0.00     0.282 C 
ATOM     12  H2  UNL     1      -4.540 -41.515 -18.324  1.00  0.00     0.161 HD
HETATM   13  C19 UNL     1      -3.375 -42.602 -16.289  1.00  0.00     0.063 C 
HETATM   14  N3  UNL     1      -2.740 -44.306 -17.934  1.00  0.00    -0.022 N 
HETATM   15  C20 UNL     1      -1.926 -43.847 -19.053  1.00  0.00     0.418 C 
ATOM     16  H32 UNL     1      -2.153 -44.561 -17.140  1.00  0.00     0.282 HD
ATOM     17  H31 UNL     1      -3.155 -45.216 -18.135  1.00  0.00     0.282 HD
BRANCH  15  18
HETATM   18  N4  UNL     1      -1.135 -42.697 -18.705  1.00  0.00    -0.046 N 
ATOM     19  H43 UNL     1      -0.681 -42.778 -17.795  1.00  0.00     0.277 HD
ATOM     20  H42 UNL     1      -0.285 -42.606 -19.261  1.00  0.00     0.277 HD
ATOM     21  H41 UNL     1      -1.757 -41.892 -18.779  1.00  0.00     0.277 HD
ENDBRANCH  15  18
ENDBRANCH   7   8
ENDBRANCH   6   7
BRANCH   1  22
HETATM   22  C2  UNL     1      -0.862 -40.819 -22.422  1.00  0.00     0.192 C 
BRANCH  22  23
HETATM   23  P1  UNL     1       0.742 -40.586 -23.042  1.00  0.00     0.287 P 
HETATM   24  O2  UNL     1       1.532 -40.191 -21.824  1.00  0.00    -0.644 OA
HETATM   25  O3  UNL     1       1.021 -39.045 -23.705  1.00  0.00    -0.644 OA
BRANCH  23  26
HETATM   26  O1  UNL     1       1.778 -41.831 -23.333  1.00  0.00    -0.315 OA
HETATM   27  C1  UNL     1       2.378 -41.860 -24.537  1.00  0.00     0.213 C 
ENDBRANCH  23  26
ENDBRANCH  22  23
BRANCH  22  28
HETATM   28  O4  UNL     1      -0.554 -41.171 -20.982  1.00  0.00    -0.375 OA
ATOM     29  H4  UNL     1      -0.498 -42.117 -21.042  1.00  0.00     0.211 HD
ENDBRANCH  22  28
BRANCH  22  30
HETATM   30  C3  UNL     1      -1.675 -39.631 -22.084  1.00  0.00     0.036 C 
HETATM   31  C4  UNL     1      -2.221 -38.730 -23.128  1.00  0.00     0.008 C 
HETATM   32  C5  UNL     1      -2.156 -37.268 -22.602  1.00  0.00     0.001 C 
HETATM   33  C6  UNL     1      -0.896 -36.894 -21.901  1.00  0.00     0.000 C 
HETATM   34  C7  UNL     1      -0.530 -37.831 -20.793  1.00  0.00     0.001 C 
HETATM   35  C8  UNL     1      -1.516 -38.937 -20.780  1.00  0.00     0.008 C 
ENDBRANCH  22  30
ENDBRANCH   1  22
BRANCH   3  36
HETATM   36  C11 UNL     1       0.239 -44.749 -24.965  1.00  0.00     0.043 C 
BRANCH  36  37
HETATM   37  C12 UNL     1       0.242 -45.523 -26.195  1.00  0.00     0.182 C 
BRANCH  37  38
HETATM   38  O5  UNL     1      -0.618 -44.912 -27.156  1.00  0.00    -0.289 OA
BRANCH  38  39
HETATM   39  P2  UNL     1      -0.689 -46.147 -28.326  1.00  0.00     0.418 P 
HETATM   40  O6  UNL     1       0.517 -45.866 -29.566  1.00  0.00    -0.624 OA
HETATM   41  O7  UNL     1      -1.699 -45.507 -29.163  1.00  0.00    -0.624 OA
BRANCH  39  42
HETATM   42  O8  UNL     1      -1.245 -47.568 -28.085  1.00  0.00    -0.173 OA
BRANCH  42  43
HETATM   43  P3  UNL     1      -2.570 -48.047 -28.996  1.00  0.00     0.431 P 
HETATM   44  O9  UNL     1      -4.072 -47.576 -28.460  1.00  0.00    -0.616 OA
HETATM   45  O10 UNL     1      -2.664 -49.322 -28.141  1.00  0.00    -0.616 OA
HETATM   46  O11 UNL     1      -2.407 -48.785 -30.416  1.00  0.00    -0.616 OA
ENDBRANCH  42  43
ENDBRANCH  39  42
ENDBRANCH  38  39
ENDBRANCH  37  38
ENDBRANCH  36  37
ENDBRANCH   3  36
TORSDOF 14
ENDMDL
