MODEL 2
REMARK VINA RESULT: -6.491582503      4.344      6.865
REMARK  4 active torsions:
REMARK  status: ('A' for Active; 'I' for Inactive)
REMARK    1  A    between atoms: O1_2  and  C2_3 
REMARK    2  A    between atoms: C8_9  and  C9_10 
REMARK    3  A    between atoms: C9_10  and  C10_11 
REMARK       I    between atoms: N1_16  and  C13_17 
REMARK    4  A    between atoms: C13_17  and  C14_19 
ROOT
HETATM    1  C2  UNL     1      10.911  14.932  16.181  1.00  0.00     0.069 A 
HETATM    2  C3  UNL     1      11.008  16.187  16.717  1.00  0.00     0.039 A 
HETATM    3  C4  UNL     1      12.228  16.849  16.811  1.00  0.00     0.034 A 
HETATM    4  C5  UNL     1      13.397  16.260  16.363  1.00  0.00     0.054 A 
HETATM    5  C6  UNL     1      13.320  15.006  15.824  1.00  0.00     0.006 A 
HETATM    6  C7  UNL     1      12.078  14.359  15.740  1.00  0.00     0.051 A 
HETATM    7  C8  UNL     1      14.617  14.597  15.447  1.00  0.00     0.006 A 
HETATM    8  C11 UNL     1      15.423  15.651  15.786  1.00  0.00     0.028 A 
HETATM    9  C12 UNL     1      16.912  15.639  15.568  1.00  0.00     0.070 C 
HETATM   10  N1  UNL     1      14.702  16.660  16.339  1.00  0.00    -0.281 N 
HETATM   11  C13 UNL     1      15.179  17.871  16.832  1.00  0.00     0.263 C 
HETATM   12  O4  UNL     1      16.451  18.084  16.800  1.00  0.00    -0.267 OA
ENDROOT
BRANCH  11  13
HETATM   13  C14 UNL     1      14.459  18.968  17.395  1.00  0.00     0.033 A 
HETATM   14  C15 UNL     1      13.889  19.949  16.635  1.00  0.00     0.018 A 
HETATM   15  C16 UNL     1      13.240  20.985  17.265  1.00  0.00     0.025 A 
HETATM   16  C17 UNL     1      13.152  21.053  18.633  1.00  0.00     0.034 A 
HETATM   17 CL1  UNL     1      12.318  22.396  19.400  1.00  0.00    -0.084 Cl
HETATM   18  C18 UNL     1      13.716  20.076  19.434  1.00  0.00     0.025 A 
HETATM   19  C19 UNL     1      14.363  19.048  18.785  1.00  0.00     0.018 A 
ENDBRANCH  11  13
BRANCH   7  20
HETATM   20  C9  UNL     1      14.799  13.268  14.883  1.00  0.00     0.098 C 
BRANCH  20  21
HETATM   21  C10 UNL     1      14.856  13.044  13.472  1.00  0.00     0.199 C 
HETATM   22  O2  UNL     1      15.249  11.984  12.956  1.00  0.00    -0.644 OA
HETATM   23  O3  UNL     1      14.453  14.065  12.597  1.00  0.00    -0.644 OA
ENDBRANCH  20  21
ENDBRANCH   7  20
BRANCH   1  24
HETATM   24  O1  UNL     1       9.689  14.344  16.119  1.00  0.00    -0.356 OA
HETATM   25  C1  UNL     1       9.357  13.065  15.681  1.00  0.00     0.210 C 
ENDBRANCH   1  24
TORSDOF 4
ENDMDL
