MODEL 1
REMARK VINA RESULT: -6.521766049      0.000      0.000
REMARK  4 active torsions:
REMARK  status: ('A' for Active; 'I' for Inactive)
REMARK    1  A    between atoms: O1_2  and  C2_3 
REMARK    2  A    between atoms: C8_9  and  C9_10 
REMARK    3  A    between atoms: C9_10  and  C10_11 
REMARK       I    between atoms: N1_16  and  C13_17 
REMARK    4  A    between atoms: C13_17  and  C14_19 
ROOT
HETATM    1  C2  UNL     1      14.603  17.849  10.674  1.00  0.00     0.069 A 
HETATM    2  C3  UNL     1      13.757  16.832  11.026  1.00  0.00     0.039 A 
HETATM    3  C4  UNL     1      13.881  16.168  12.242  1.00  0.00     0.034 A 
HETATM    4  C5  UNL     1      14.869  16.511  13.148  1.00  0.00     0.054 A 
HETATM    5  C6  UNL     1      15.724  17.524  12.814  1.00  0.00     0.006 A 
HETATM    6  C7  UNL     1      15.579  18.179  11.582  1.00  0.00     0.051 A 
HETATM    7  C8  UNL     1      16.649  17.699  13.865  1.00  0.00     0.006 A 
HETATM    8  C11 UNL     1      16.294  16.760  14.796  1.00  0.00     0.028 A 
HETATM    9  C12 UNL     1      17.034  16.581  16.095  1.00  0.00     0.070 C 
HETATM   10  N1  UNL     1      15.222  16.037  14.377  1.00  0.00    -0.281 N 
HETATM   11  C13 UNL     1      14.602  14.981  15.039  1.00  0.00     0.263 C 
HETATM   12  O4  UNL     1      15.089  14.600  16.171  1.00  0.00    -0.267 OA
ENDROOT
BRANCH  11  13
HETATM   13  C14 UNL     1      13.462  14.213  14.653  1.00  0.00     0.033 A 
HETATM   14  C15 UNL     1      12.196  14.497  15.079  1.00  0.00     0.018 A 
HETATM   15  C16 UNL     1      11.163  13.683  14.680  1.00  0.00     0.025 A 
HETATM   16  C17 UNL     1      11.373  12.599  13.866  1.00  0.00     0.034 A 
HETATM   17 CL1  UNL     1      10.025  11.582  13.382  1.00  0.00    -0.084 Cl
HETATM   18  C18 UNL     1      12.641  12.282  13.412  1.00  0.00     0.025 A 
HETATM   19  C19 UNL     1      13.665  13.108  13.825  1.00  0.00     0.018 A 
ENDBRANCH  11  13
BRANCH   7  20
HETATM   20  C9  UNL     1      17.695  18.700  13.722  1.00  0.00     0.098 C 
BRANCH  20  21
HETATM   21  C10 UNL     1      19.075  18.343  13.607  1.00  0.00     0.199 C 
HETATM   22  O2  UNL     1      20.013  19.129  13.830  1.00  0.00    -0.644 OA
HETATM   23  O3  UNL     1      19.419  17.039  13.219  1.00  0.00    -0.644 OA
ENDBRANCH  20  21
ENDBRANCH   7  20
BRANCH   1  24
HETATM   24  O1  UNL     1      14.427  18.456   9.473  1.00  0.00    -0.356 OA
HETATM   25  C1  UNL     1      14.840  18.034   8.213  1.00  0.00     0.210 C 
ENDBRANCH   1  24
TORSDOF 4
ENDMDL
