MODEL 3
REMARK VINA RESULT: -6.460494459      4.454      6.590
REMARK  4 active torsions:
REMARK  status: ('A' for Active; 'I' for Inactive)
REMARK    1  A    between atoms: O1_2  and  C2_3 
REMARK    2  A    between atoms: C8_9  and  C9_10 
REMARK    3  A    between atoms: C9_10  and  C10_11 
REMARK       I    between atoms: N1_16  and  C13_17 
REMARK    4  A    between atoms: C13_17  and  C14_19 
ROOT
HETATM    1  C2  UNL     1      13.147  16.631  16.769  1.00  0.00     0.069 A 
HETATM    2  C3  UNL     1      11.815  16.948  16.792  1.00  0.00     0.039 A 
HETATM    3  C4  UNL     1      10.864  16.150  16.164  1.00  0.00     0.034 A 
HETATM    4  C5  UNL     1      11.229  15.000  15.488  1.00  0.00     0.054 A 
HETATM    5  C6  UNL     1      12.554  14.667  15.453  1.00  0.00     0.006 A 
HETATM    6  C7  UNL     1      13.495  15.487  16.094  1.00  0.00     0.051 A 
HETATM    7  C8  UNL     1      12.702  13.477  14.710  1.00  0.00     0.006 A 
HETATM    8  C11 UNL     1      11.428  13.149  14.328  1.00  0.00     0.028 A 
HETATM    9  C12 UNL     1      11.115  11.936  13.494  1.00  0.00     0.070 C 
HETATM   10  N1  UNL     1      10.530  14.058  14.790  1.00  0.00    -0.281 N 
HETATM   11  C13 UNL     1       9.155  14.073  14.578  1.00  0.00     0.263 C 
HETATM   12  O4  UNL     1       8.641  13.148  13.841  1.00  0.00    -0.267 OA
ENDROOT
BRANCH  11  13
HETATM   13  C14 UNL     1       8.172  14.988  15.063  1.00  0.00     0.033 A 
HETATM   14  C15 UNL     1       7.787  16.100  14.370  1.00  0.00     0.018 A 
HETATM   15  C16 UNL     1       6.854  16.941  14.929  1.00  0.00     0.025 A 
HETATM   16  C17 UNL     1       6.302  16.689  16.160  1.00  0.00     0.034 A 
HETATM   17 CL1  UNL     1       5.116  17.791  16.841  1.00  0.00    -0.084 Cl
HETATM   18  C18 UNL     1       6.666  15.570  16.889  1.00  0.00     0.025 A 
HETATM   19  C19 UNL     1       7.603  14.741  16.314  1.00  0.00     0.018 A 
ENDBRANCH  11  13
BRANCH   7  20
HETATM   20  C9  UNL     1      14.038  12.942  14.495  1.00  0.00     0.098 C 
BRANCH  20  21
HETATM   21  C10 UNL     1      14.669  12.973  13.213  1.00  0.00     0.199 C 
HETATM   22  O2  UNL     1      15.350  12.038  12.756  1.00  0.00    -0.644 OA
HETATM   23  O3  UNL     1      14.533  14.113  12.406  1.00  0.00    -0.644 OA
ENDBRANCH  20  21
ENDBRANCH   7  20
BRANCH   1  24
HETATM   24  O1  UNL     1      14.022  17.453  17.402  1.00  0.00    -0.356 OA
HETATM   25  C1  UNL     1      15.348  17.214  17.750  1.00  0.00     0.210 C 
ENDBRANCH   1  24
TORSDOF 4
ENDMDL
