MODEL 1
REMARK VINA RESULT: -5.490059292      0.000      0.000
REMARK  9 active torsions:
REMARK  status: ('A' for Active; 'I' for Inactive)
REMARK    1  A    between atoms: C2_2  and  C3_3 
REMARK    2  A    between atoms: C3_3  and  C4_4 
REMARK    3  A    between atoms: C4_4  and  C5_5 
REMARK    4  A    between atoms: C5_5  and  C6_6 
REMARK    5  A    between atoms: C6_6  and  C7_7 
REMARK    6  A    between atoms: C7_7  and  C8_8 
REMARK    7  A    between atoms: C8_8  and  O1_9 
REMARK    8  A    between atoms: O1_9  and  S1_10 
REMARK    9  A    between atoms: S1_10  and  N1_11 
ROOT
HETATM    1  C8  UNL     1      -4.325   1.527  13.445  1.00  0.00     0.192 C 
ENDROOT
BRANCH   1   2
HETATM    2  C7  UNL     1      -4.796   2.292  12.226  1.00  0.00     0.028 C 
BRANCH   2   3
HETATM    3  C6  UNL     1      -4.957   1.330  11.043  1.00  0.00     0.002 C 
BRANCH   3   4
HETATM    4  C5  UNL     1      -4.158   0.118  11.356  1.00  0.00     0.000 C 
BRANCH   4   5
HETATM    5  C4  UNL     1      -3.039  -0.186  10.427  1.00  0.00     0.000 C 
BRANCH   5   6
HETATM    6  C3  UNL     1      -1.746   0.329  11.017  1.00  0.00    -0.000 C 
BRANCH   6   7
HETATM    7  C2  UNL     1      -1.391   1.587  10.229  1.00  0.00    -0.005 C 
HETATM    8  C1  UNL     1      -1.186   2.691  11.227  1.00  0.00     0.005 C 
ENDBRANCH   6   7
ENDBRANCH   5   6
ENDBRANCH   4   5
ENDBRANCH   3   4
ENDBRANCH   2   3
ENDBRANCH   1   2
BRANCH   1   9
HETATM    9  O1  UNL     1      -5.088   2.003  14.528  1.00  0.00    -0.260 OA
BRANCH   9  10
HETATM   10  S1  UNL     1      -4.693   1.039  15.856  1.00  0.00     0.355 S 
HETATM   11  O2  UNL     1      -4.847  -0.406  15.471  1.00  0.00    -0.176 OA
HETATM   12  O3  UNL     1      -3.264   1.252  16.279  1.00  0.00    -0.176 OA
BRANCH  10  13
HETATM   13  N1  UNL     1      -5.755   1.452  17.174  1.00  0.00    -0.306 N 
ATOM     14  H12 UNL     1      -6.738   1.189  17.238  1.00  0.00     0.171 HD
ATOM     15  H11 UNL     1      -5.227   1.994  17.857  1.00  0.00     0.171 HD
ENDBRANCH  10  13
ENDBRANCH   9  10
ENDBRANCH   1   9
TORSDOF 9
ENDMDL
