MODEL 13
REMARK VINA RESULT: -5.169828285      3.937      4.734
REMARK  9 active torsions:
REMARK  status: ('A' for Active; 'I' for Inactive)
REMARK    1  A    between atoms: C2_2  and  C3_3 
REMARK    2  A    between atoms: C3_3  and  C4_4 
REMARK    3  A    between atoms: C4_4  and  C5_5 
REMARK    4  A    between atoms: C5_5  and  C6_6 
REMARK    5  A    between atoms: C6_6  and  C7_7 
REMARK    6  A    between atoms: C7_7  and  C8_8 
REMARK    7  A    between atoms: C8_8  and  O1_9 
REMARK    8  A    between atoms: O1_9  and  S1_10 
REMARK    9  A    between atoms: S1_10  and  N1_11 
ROOT
HETATM    1  C8  UNL     1      -5.897   3.066  15.142  1.00  0.00     0.192 C 
ENDROOT
BRANCH   1   2
HETATM    2  C7  UNL     1      -6.134   4.071  14.033  1.00  0.00     0.028 C 
BRANCH   2   3
HETATM    3  C6  UNL     1      -5.881   5.489  14.559  1.00  0.00     0.002 C 
BRANCH   3   4
HETATM    4  C5  UNL     1      -4.415   5.623  14.759  1.00  0.00     0.000 C 
BRANCH   4   5
HETATM    5  C4  UNL     1      -3.631   6.065  13.576  1.00  0.00     0.000 C 
BRANCH   5   6
HETATM    6  C3  UNL     1      -2.244   6.470  14.019  1.00  0.00    -0.000 C 
BRANCH   6   7
HETATM    7  C2  UNL     1      -2.203   7.994  13.951  1.00  0.00    -0.005 C 
HETATM    8  C1  UNL     1      -1.891   8.492  15.333  1.00  0.00     0.005 C 
ENDBRANCH   6   7
ENDBRANCH   5   6
ENDBRANCH   4   5
ENDBRANCH   3   4
ENDBRANCH   2   3
ENDBRANCH   1   2
BRANCH   1   9
HETATM    9  O1  UNL     1      -5.147   2.020  14.572  1.00  0.00    -0.260 OA
BRANCH   9  10
HETATM   10  S1  UNL     1      -4.730   0.982  15.835  1.00  0.00     0.355 S 
HETATM   11  O2  UNL     1      -4.807  -0.437  15.344  1.00  0.00    -0.176 OA
HETATM   12  O3  UNL     1      -3.320   1.231  16.302  1.00  0.00    -0.176 OA
BRANCH  10  13
HETATM   13  N1  UNL     1      -5.833   1.248  17.156  1.00  0.00    -0.306 N 
ATOM     14  H12 UNL     1      -5.920   2.120  17.679  1.00  0.00     0.171 HD
ATOM     15  H11 UNL     1      -6.366   0.393  17.311  1.00  0.00     0.171 HD
ENDBRANCH  10  13
ENDBRANCH   9  10
ENDBRANCH   1   9
TORSDOF 9
ENDMDL
