MODEL 15
REMARK VINA RESULT: -5.011489402      3.690      4.756
REMARK  9 active torsions:
REMARK  status: ('A' for Active; 'I' for Inactive)
REMARK    1  A    between atoms: C2_2  and  C3_3 
REMARK    2  A    between atoms: C3_3  and  C4_4 
REMARK    3  A    between atoms: C4_4  and  C5_5 
REMARK    4  A    between atoms: C5_5  and  C6_6 
REMARK    5  A    between atoms: C6_6  and  C7_7 
REMARK    6  A    between atoms: C7_7  and  C8_8 
REMARK    7  A    between atoms: C8_8  and  O1_9 
REMARK    8  A    between atoms: O1_9  and  S1_10 
REMARK    9  A    between atoms: S1_10  and  N1_11 
ROOT
HETATM    1  C8  UNL     1      -4.795   2.616  13.535  1.00  0.00     0.192 C 
ENDROOT
BRANCH   1   2
HETATM    2  C7  UNL     1      -3.686   3.482  12.975  1.00  0.00     0.028 C 
BRANCH   2   3
HETATM    3  C6  UNL     1      -3.052   4.304  14.104  1.00  0.00     0.002 C 
BRANCH   3   4
HETATM    4  C5  UNL     1      -3.967   5.442  14.380  1.00  0.00     0.000 C 
BRANCH   4   5
HETATM    5  C4  UNL     1      -3.337   6.785  14.453  1.00  0.00     0.000 C 
BRANCH   5   6
HETATM    6  C3  UNL     1      -1.876   6.672  14.080  1.00  0.00    -0.000 C 
BRANCH   6   7
HETATM    7  C2  UNL     1      -1.311   8.089  14.145  1.00  0.00    -0.005 C 
HETATM    8  C1  UNL     1      -1.828   8.715  15.408  1.00  0.00     0.005 C 
ENDBRANCH   6   7
ENDBRANCH   5   6
ENDBRANCH   4   5
ENDBRANCH   3   4
ENDBRANCH   2   3
ENDBRANCH   1   2
BRANCH   1   9
HETATM    9  O1  UNL     1      -4.218   1.361  13.803  1.00  0.00    -0.260 OA
BRANCH   9  10
HETATM   10  S1  UNL     1      -4.526   1.026  15.428  1.00  0.00     0.355 S 
HETATM   11  O2  UNL     1      -4.853  -0.435  15.570  1.00  0.00    -0.176 OA
HETATM   12  O3  UNL     1      -3.319   1.311  16.282  1.00  0.00    -0.176 OA
BRANCH  10  13
HETATM   13  N1  UNL     1      -5.856   2.019  15.954  1.00  0.00    -0.306 N 
ATOM     14  H12 UNL     1      -6.665   2.265  15.383  1.00  0.00     0.171 HD
ATOM     15  H11 UNL     1      -5.684   2.307  16.917  1.00  0.00     0.171 HD
ENDBRANCH  10  13
ENDBRANCH   9  10
ENDBRANCH   1   9
TORSDOF 9
ENDMDL
