MODEL 3
REMARK VINA RESULT: -6.033723402      1.246      1.695
REMARK  13 active torsions:
REMARK  status: ('A' for Active; 'I' for Inactive)
REMARK    1  A    between atoms: N1_1  and  S1_4 
REMARK    2  A    between atoms: S1_4  and  O3_7 
REMARK    3  A    between atoms: O3_7  and  C1_8 
REMARK    4  A    between atoms: C1_8  and  C2_9 
REMARK    5  A    between atoms: C2_9  and  C3_10 
REMARK    6  A    between atoms: C3_10  and  C4_11 
REMARK    7  A    between atoms: C4_11  and  C5_12 
REMARK    8  A    between atoms: C5_12  and  C6_13 
REMARK    9  A    between atoms: C6_13  and  C7_14 
REMARK   10  A    between atoms: C7_14  and  C8_15 
REMARK   11  A    between atoms: C8_15  and  O4_16 
REMARK   12  A    between atoms: O4_16  and  S2_17 
REMARK   13  A    between atoms: S2_17  and  N2_18 
ROOT
HETATM    1  C4  UNL     1      -5.716   5.540  13.590  1.00  0.00     0.000 C 
ENDROOT
BRANCH   1   2
HETATM    2  C3  UNL     1      -6.507   4.308  14.063  1.00  0.00     0.002 C 
BRANCH   2   3
HETATM    3  C2  UNL     1      -6.154   4.195  15.481  1.00  0.00     0.028 C 
BRANCH   3   4
HETATM    4  C1  UNL     1      -6.370   2.789  16.095  1.00  0.00     0.192 C 
BRANCH   4   5
HETATM    5  O3  UNL     1      -5.600   2.042  15.186  1.00  0.00    -0.260 OA
BRANCH   5   6
HETATM    6  S1  UNL     1      -4.901   0.748  15.930  1.00  0.00     0.355 S 
HETATM    7  O1  UNL     1      -4.737  -0.438  15.137  1.00  0.00    -0.176 OA
HETATM    8  O2  UNL     1      -3.488   1.232  16.360  1.00  0.00    -0.176 OA
BRANCH   6   9
HETATM    9  N1  UNL     1      -5.814   0.540  17.410  1.00  0.00    -0.306 N 
ATOM     10  H12 UNL     1      -5.361   0.261  18.280  1.00  0.00     0.171 HD
ATOM     11  H11 UNL     1      -6.816   0.717  17.335  1.00  0.00     0.171 HD
ENDBRANCH   6   9
ENDBRANCH   5   6
ENDBRANCH   4   5
ENDBRANCH   3   4
ENDBRANCH   2   3
ENDBRANCH   1   2
BRANCH   1  12
HETATM   12  C5  UNL     1      -4.580   5.687  14.528  1.00  0.00     0.000 C 
BRANCH  12  13
HETATM   13  C6  UNL     1      -3.273   5.737  13.709  1.00  0.00     0.002 C 
BRANCH  13  14
HETATM   14  C7  UNL     1      -2.812   4.335  13.724  1.00  0.00     0.028 C 
BRANCH  14  15
HETATM   15  C8  UNL     1      -2.833   3.680  12.383  1.00  0.00     0.192 C 
BRANCH  15  16
HETATM   16  O4  UNL     1      -3.547   2.475  12.588  1.00  0.00    -0.260 OA
BRANCH  16  17
HETATM   17  S2  UNL     1      -4.233   2.201  11.043  1.00  0.00     0.355 S 
HETATM   18  O5  UNL     1      -5.678   1.764  11.164  1.00  0.00    -0.176 OA
HETATM   19  O6  UNL     1      -3.475   1.273  10.246  1.00  0.00    -0.176 OA
BRANCH  17  20
HETATM   20  N2  UNL     1      -4.267   3.793  10.285  1.00  0.00    -0.306 N 
ATOM     21  H22 UNL     1      -3.506   4.250   9.781  1.00  0.00     0.171 HD
ATOM     22  H21 UNL     1      -5.208   4.143  10.466  1.00  0.00     0.171 HD
ENDBRANCH  17  20
ENDBRANCH  16  17
ENDBRANCH  15  16
ENDBRANCH  14  15
ENDBRANCH  13  14
ENDBRANCH  12  13
ENDBRANCH   1  12
TORSDOF 13
ENDMDL
