MODEL 1
REMARK VINA RESULT: -6.356431778      0.000      0.000
REMARK  13 active torsions:
REMARK  status: ('A' for Active; 'I' for Inactive)
REMARK    1  A    between atoms: N1_1  and  S1_4 
REMARK    2  A    between atoms: S1_4  and  O3_7 
REMARK    3  A    between atoms: O3_7  and  C1_8 
REMARK    4  A    between atoms: C1_8  and  C2_9 
REMARK    5  A    between atoms: C2_9  and  C3_10 
REMARK    6  A    between atoms: C3_10  and  C4_11 
REMARK    7  A    between atoms: C4_11  and  C5_12 
REMARK    8  A    between atoms: C5_12  and  C6_13 
REMARK    9  A    between atoms: C6_13  and  C7_14 
REMARK   10  A    between atoms: C7_14  and  C8_15 
REMARK   11  A    between atoms: C8_15  and  O4_16 
REMARK   12  A    between atoms: O4_16  and  S2_17 
REMARK   13  A    between atoms: S2_17  and  N2_18 
ROOT
HETATM    1  C4  UNL     1      -4.476   5.529  14.615  1.00  0.00     0.000 C 
ENDROOT
BRANCH   1   2
HETATM    2  C3  UNL     1      -5.940   5.436  14.149  1.00  0.00     0.002 C 
BRANCH   2   3
HETATM    3  C2  UNL     1      -6.194   3.993  14.098  1.00  0.00     0.028 C 
BRANCH   3   4
HETATM    4  C1  UNL     1      -5.752   3.210  15.359  1.00  0.00     0.192 C 
BRANCH   4   5
HETATM    5  O3  UNL     1      -5.285   2.044  14.729  1.00  0.00    -0.260 OA
BRANCH   5   6
HETATM    6  S1  UNL     1      -4.872   0.898  15.841  1.00  0.00     0.355 S 
HETATM    7  O1  UNL     1      -4.810  -0.458  15.374  1.00  0.00    -0.176 OA
HETATM    8  O2  UNL     1      -3.453   1.296  16.335  1.00  0.00    -0.176 OA
BRANCH   6   9
HETATM    9  N1  UNL     1      -5.952   1.180  17.190  1.00  0.00    -0.306 N 
ATOM     10  H12 UNL     1      -6.950   0.985  17.122  1.00  0.00     0.171 HD
ATOM     11  H11 UNL     1      -5.511   1.547  18.034  1.00  0.00     0.171 HD
ENDBRANCH   6   9
ENDBRANCH   5   6
ENDBRANCH   4   5
ENDBRANCH   3   4
ENDBRANCH   2   3
ENDBRANCH   1   2
BRANCH   1  12
HETATM   12  C5  UNL     1      -3.671   5.782  13.398  1.00  0.00     0.000 C 
BRANCH  12  13
HETATM   13  C6  UNL     1      -2.688   4.607  13.210  1.00  0.00     0.002 C 
BRANCH  13  14
HETATM   14  C7  UNL     1      -3.102   4.025  11.918  1.00  0.00     0.028 C 
BRANCH  14  15
HETATM   15  C8  UNL     1      -2.932   2.544  11.842  1.00  0.00     0.192 C 
BRANCH  15  16
HETATM   16  O4  UNL     1      -3.368   2.204  10.538  1.00  0.00    -0.260 OA
BRANCH  16  17
HETATM   17  S2  UNL     1      -4.672   1.144  10.866  1.00  0.00     0.355 S 
HETATM   18  O5  UNL     1      -4.799   0.093   9.783  1.00  0.00    -0.176 OA
HETATM   19  O6  UNL     1      -5.920   1.830  11.071  1.00  0.00    -0.176 OA
BRANCH  17  20
HETATM   20  N2  UNL     1      -4.185   0.281  12.326  1.00  0.00    -0.306 N 
ATOM     21  H22 UNL     1      -3.343  -0.280  12.456  1.00  0.00     0.171 HD
ATOM     22  H21 UNL     1      -4.930   0.472  12.997  1.00  0.00     0.171 HD
ENDBRANCH  17  20
ENDBRANCH  16  17
ENDBRANCH  15  16
ENDBRANCH  14  15
ENDBRANCH  13  14
ENDBRANCH  12  13
ENDBRANCH   1  12
TORSDOF 13
ENDMDL
