MODEL 2
REMARK VINA RESULT: -6.491512735      0.745      4.795
REMARK  15 active torsions:
REMARK  status: ('A' for Active; 'I' for Inactive)
REMARK    1  A    between atoms: N1_1  and  S1_4 
REMARK    2  A    between atoms: S1_4  and  O3_7 
REMARK    3  A    between atoms: O3_7  and  C1_8 
REMARK    4  A    between atoms: C1_8  and  C2_9 
REMARK    5  A    between atoms: C2_9  and  C3_10 
REMARK    6  A    between atoms: C3_10  and  C4_11 
REMARK    7  A    between atoms: C4_11  and  C5_12 
REMARK    8  A    between atoms: C5_12  and  C6_13 
REMARK    9  A    between atoms: C6_13  and  C7_14 
REMARK   10  A    between atoms: C7_14  and  C8_15 
REMARK   11  A    between atoms: C8_15  and  C9_16 
REMARK   12  A    between atoms: C9_16  and  C10_17 
REMARK   13  A    between atoms: C10_17  and  O4_18 
REMARK   14  A    between atoms: O4_18  and  S2_19 
REMARK   15  A    between atoms: S2_19  and  N2_20 
ROOT
HETATM    1  C5  UNL     1      -2.225   6.259  13.981  1.00  0.00     0.000 C 
ENDROOT
BRANCH   1   2
HETATM    2  C4  UNL     1      -1.712   4.843  13.821  1.00  0.00     0.000 C 
BRANCH   2   3
HETATM    3  C3  UNL     1      -1.834   4.484  12.351  1.00  0.00     0.002 C 
BRANCH   3   4
HETATM    4  C2  UNL     1      -2.772   3.327  12.196  1.00  0.00     0.028 C 
BRANCH   4   5
HETATM    5  C1  UNL     1      -3.421   3.267  10.852  1.00  0.00     0.192 C 
BRANCH   5   6
HETATM    6  O3  UNL     1      -3.349   1.999  10.298  1.00  0.00    -0.260 OA
BRANCH   6   7
HETATM    7  S1  UNL     1      -4.604   1.026  10.780  1.00  0.00     0.355 S 
HETATM    8  O1  UNL     1      -5.790   1.847  11.169  1.00  0.00    -0.176 OA
HETATM    9  O2  UNL     1      -4.969   0.032   9.686  1.00  0.00    -0.176 OA
BRANCH   7  10
HETATM   10  N1  UNL     1      -4.139   0.087  12.151  1.00  0.00    -0.306 N 
ATOM     11  H12 UNL     1      -4.687  -0.023  13.004  1.00  0.00     0.171 HD
ATOM     12  H11 UNL     1      -3.229  -0.330  11.950  1.00  0.00     0.171 HD
ENDBRANCH   7  10
ENDBRANCH   6   7
ENDBRANCH   5   6
ENDBRANCH   4   5
ENDBRANCH   3   4
ENDBRANCH   2   3
ENDBRANCH   1   2
BRANCH   1  13
HETATM   13  C6  UNL     1      -3.559   6.293  14.695  1.00  0.00     0.000 C 
BRANCH  13  14
HETATM   14  C7  UNL     1      -4.720   6.079  13.766  1.00  0.00     0.000 C 
BRANCH  14  15
HETATM   15  C8  UNL     1      -5.812   5.388  14.546  1.00  0.00     0.002 C 
BRANCH  15  16
HETATM   16  C9  UNL     1      -6.132   4.020  13.987  1.00  0.00     0.028 C 
BRANCH  16  17
HETATM   17  C10 UNL     1      -5.731   3.007  15.047  1.00  0.00     0.192 C 
BRANCH  17  18
HETATM   18  O4  UNL     1      -5.165   1.872  14.492  1.00  0.00    -0.260 OA
BRANCH  18  19
HETATM   19  S2  UNL     1      -4.731   0.859  15.762  1.00  0.00     0.355 S 
HETATM   20  O5  UNL     1      -4.676  -0.550  15.197  1.00  0.00    -0.176 OA
HETATM   21  O6  UNL     1      -3.376   1.267  16.278  1.00  0.00    -0.176 OA
BRANCH  19  22
HETATM   22  N2  UNL     1      -5.925   0.991  16.994  1.00  0.00    -0.306 N 
ATOM     23  H22 UNL     1      -6.717   1.632  16.975  1.00  0.00     0.171 HD
ATOM     24  H21 UNL     1      -5.700   0.325  17.733  1.00  0.00     0.171 HD
ENDBRANCH  19  22
ENDBRANCH  18  19
ENDBRANCH  17  18
ENDBRANCH  16  17
ENDBRANCH  15  16
ENDBRANCH  14  15
ENDBRANCH  13  14
ENDBRANCH   1  13
TORSDOF 15
ENDMDL
