MODEL 3
REMARK VINA RESULT: -5.306037331      1.228      1.689
REMARK  11 active torsions:
REMARK  status: ('A' for Active; 'I' for Inactive)
REMARK    1  A    between atoms: C2_2  and  C3_3 
REMARK    2  A    between atoms: C3_3  and  C4_4 
REMARK    3  A    between atoms: C4_4  and  C5_5 
REMARK    4  A    between atoms: C5_5  and  C6_6 
REMARK    5  A    between atoms: C6_6  and  C7_7 
REMARK    6  A    between atoms: C7_7  and  C8_8 
REMARK    7  A    between atoms: C8_8  and  C9_9 
REMARK    8  A    between atoms: C9_9  and  C10_10 
REMARK    9  A    between atoms: C10_10  and  O1_11 
REMARK   10  A    between atoms: O1_11  and  S1_12 
REMARK   11  A    between atoms: S1_12  and  N1_13 
ROOT
HETATM    1  C9  UNL     1      -4.694   1.432  11.637  1.00  0.00     0.028 C 
ENDROOT
BRANCH   1   2
HETATM    2  C8  UNL     1      -4.089   0.082  11.587  1.00  0.00     0.002 C 
BRANCH   2   3
HETATM    3  C7  UNL     1      -2.940  -0.058  10.642  1.00  0.00     0.000 C 
BRANCH   3   4
HETATM    4  C6  UNL     1      -1.777   0.806  11.076  1.00  0.00     0.000 C 
BRANCH   4   5
HETATM    5  C5  UNL     1      -1.235   1.669   9.959  1.00  0.00     0.000 C 
BRANCH   5   6
HETATM    6  C4  UNL     1      -1.578   3.100  10.298  1.00  0.00     0.000 C 
BRANCH   6   7
HETATM    7  C3  UNL     1      -1.350   3.399  11.761  1.00  0.00    -0.000 C 
BRANCH   7   8
HETATM    8  C2  UNL     1      -2.248   4.536  12.236  1.00  0.00    -0.005 C 
HETATM    9  C1  UNL     1      -2.111   4.727  13.714  1.00  0.00     0.005 C 
ENDBRANCH   7   8
ENDBRANCH   6   7
ENDBRANCH   5   6
ENDBRANCH   4   5
ENDBRANCH   3   4
ENDBRANCH   2   3
ENDBRANCH   1   2
BRANCH   1  10
HETATM   10  C10 UNL     1      -4.862   2.007  12.997  1.00  0.00     0.192 C 
BRANCH  10  11
HETATM   11  O1  UNL     1      -3.835   1.573  13.838  1.00  0.00    -0.260 OA
BRANCH  11  12
HETATM   12  S1  UNL     1      -4.473   1.105  15.303  1.00  0.00     0.355 S 
HETATM   13  O2  UNL     1      -3.406   1.289  16.366  1.00  0.00    -0.176 OA
HETATM   14  O3  UNL     1      -4.889  -0.341  15.223  1.00  0.00    -0.176 OA
BRANCH  12  15
HETATM   15  N1  UNL     1      -5.839   2.017  15.773  1.00  0.00    -0.306 N 
ATOM     16  H12 UNL     1      -5.827   3.036  15.817  1.00  0.00     0.171 HD
ATOM     17  H11 UNL     1      -6.652   1.444  16.001  1.00  0.00     0.171 HD
ENDBRANCH  12  15
ENDBRANCH  11  12
ENDBRANCH  10  11
ENDBRANCH   1  10
TORSDOF 11
ENDMDL
