MODEL 1
REMARK VINA RESULT: -5.418732212      0.000      0.000
REMARK  11 active torsions:
REMARK  status: ('A' for Active; 'I' for Inactive)
REMARK    1  A    between atoms: C2_2  and  C3_3 
REMARK    2  A    between atoms: C3_3  and  C4_4 
REMARK    3  A    between atoms: C4_4  and  C5_5 
REMARK    4  A    between atoms: C5_5  and  C6_6 
REMARK    5  A    between atoms: C6_6  and  C7_7 
REMARK    6  A    between atoms: C7_7  and  C8_8 
REMARK    7  A    between atoms: C8_8  and  C9_9 
REMARK    8  A    between atoms: C9_9  and  C10_10 
REMARK    9  A    between atoms: C10_10  and  O1_11 
REMARK   10  A    between atoms: O1_11  and  S1_12 
REMARK   11  A    between atoms: S1_12  and  N1_13 
ROOT
HETATM    1  C9  UNL     1      -4.826   2.005  12.736  1.00  0.00     0.028 C 
ENDROOT
BRANCH   1   2
HETATM    2  C8  UNL     1      -4.173   0.738  12.338  1.00  0.00     0.002 C 
BRANCH   2   3
HETATM    3  C7  UNL     1      -4.407   0.325  10.922  1.00  0.00     0.000 C 
BRANCH   3   4
HETATM    4  C6  UNL     1      -3.131  -0.189  10.292  1.00  0.00     0.000 C 
BRANCH   4   5
HETATM    5  C5  UNL     1      -1.888   0.300  10.998  1.00  0.00     0.000 C 
BRANCH   5   6
HETATM    6  C4  UNL     1      -1.369   1.482  10.215  1.00  0.00     0.000 C 
BRANCH   6   7
HETATM    7  C3  UNL     1      -0.861   2.577  11.123  1.00  0.00    -0.000 C 
BRANCH   7   8
HETATM    8  C2  UNL     1      -1.929   3.641  11.352  1.00  0.00    -0.005 C 
HETATM    9  C1  UNL     1      -2.768   3.812  10.124  1.00  0.00     0.005 C 
ENDBRANCH   7   8
ENDBRANCH   6   7
ENDBRANCH   5   6
ENDBRANCH   4   5
ENDBRANCH   3   4
ENDBRANCH   2   3
ENDBRANCH   1   2
BRANCH   1  10
HETATM   10  C10 UNL     1      -4.504   2.489  14.103  1.00  0.00     0.192 C 
BRANCH  10  11
HETATM   11  O1  UNL     1      -5.483   2.076  15.008  1.00  0.00    -0.260 OA
BRANCH  11  12
HETATM   12  S1  UNL     1      -4.830   0.977  16.075  1.00  0.00     0.355 S 
HETATM   13  O2  UNL     1      -3.399   1.388  16.363  1.00  0.00    -0.176 OA
HETATM   14  O3  UNL     1      -4.867  -0.397  15.457  1.00  0.00    -0.176 OA
BRANCH  12  15
HETATM   15  N1  UNL     1      -5.660   0.902  17.567  1.00  0.00    -0.306 N 
ATOM     16  H12 UNL     1      -5.577   1.630  18.276  1.00  0.00     0.171 HD
ATOM     17  H11 UNL     1      -6.236   0.066  17.670  1.00  0.00     0.171 HD
ENDBRANCH  12  15
ENDBRANCH  11  12
ENDBRANCH  10  11
ENDBRANCH   1  10
TORSDOF 11
ENDMDL
