MODEL 1
REMARK VINA RESULT: -12.254748325      0.000      0.000
REMARK  11 active torsions:
REMARK  status: ('A' for Active; 'I' for Inactive)
REMARK    1  A    between atoms: N5_13  and  C6_14 
REMARK    2  A    between atoms: C7_16  and  C8_17 
REMARK    3  A    between atoms: C8_17  and  O2_18 
REMARK    4  A    between atoms: O2_18  and  P1_19 
REMARK    5  A    between atoms: P1_19  and  O5_22 
REMARK    6  A    between atoms: O5_22  and  C9_23 
REMARK    7  A    between atoms: C9_23  and  C10_25 
REMARK    8  A    between atoms: C14_29  and  C15_30 
REMARK    9  A    between atoms: C16_34  and  C17_35 
REMARK   10  A    between atoms: C24_45  and  O8_46 
REMARK   11  A    between atoms: C25_48  and  O9_49 
ROOT
HETATM    1  P1  UNL     1     -28.547   7.173  -8.522  1.00  0.00     0.416 P 
HETATM    2  O3  UNL     1     -28.562   6.657  -6.879  1.00  0.00    -0.624 OA
HETATM    3  O4  UNL     1     -27.376   6.441  -9.458  1.00  0.00    -0.624 OA
ENDROOT
BRANCH   1   4
HETATM    4  O2  UNL     1     -29.285   8.521  -8.768  1.00  0.00    -0.287 OA
BRANCH   4   5
HETATM    5  C8  UNL     1     -29.674   9.287  -7.685  1.00  0.00     0.216 C 
BRANCH   5   6
HETATM    6  C7  UNL     1     -30.020  10.613  -8.327  1.00  0.00     0.180 C 
HETATM    7  O1  UNL     1     -30.379  11.634  -7.376  1.00  0.00    -0.353 OA
HETATM    8  C6  UNL     1     -31.014  12.434  -8.271  1.00  0.00     0.262 C 
HETATM    9  C25 UNL     1     -29.808  12.738  -9.211  1.00  0.00     0.198 C 
HETATM   10  C24 UNL     1     -29.128  11.352  -9.182  1.00  0.00     0.182 C 
BRANCH   8  11
HETATM   11  N5  UNL     1     -31.803  13.542  -8.038  1.00  0.00    -0.297 N 
HETATM   12  C3  UNL     1     -32.856  13.974  -8.729  1.00  0.00     0.142 A 
HETATM   13  N3  UNL     1     -33.296  13.562  -9.922  1.00  0.00    -0.336 N 
HETATM   14  C4  UNL     1     -33.497  14.960  -8.000  1.00  0.00     0.119 A 
HETATM   15  C2  UNL     1     -34.403  14.155 -10.394  1.00  0.00     0.183 A 
ATOM     16  H3  UNL     1     -32.814  12.832 -10.448  1.00  0.00     0.168 HD
HETATM   17  N2  UNL     1     -35.061  15.113  -9.722  1.00  0.00    -0.339 N 
HETATM   18  C1  UNL     1     -34.656  15.549  -8.525  1.00  0.00     0.148 A 
ATOM     19  H2  UNL     1     -35.897  15.521 -10.139  1.00  0.00     0.167 HD
HETATM   20  N1  UNL     1     -35.339  16.450  -7.693  1.00  0.00    -0.080 NA
HETATM   21  N4  UNL     1     -32.810  15.119  -6.887  1.00  0.00    -0.346 N 
HETATM   22  C5  UNL     1     -31.772  14.274  -6.876  1.00  0.00     0.188 A 
ATOM     23  H4  UNL     1     -33.034  15.784  -6.146  1.00  0.00     0.167 HD
ENDBRANCH   8  11
BRANCH   9  24
HETATM   24  O9  UNL     1     -30.317  13.031 -10.430  1.00  0.00    -0.388 OA
ATOM     25  H9  UNL     1     -30.313  13.977 -10.514  1.00  0.00     0.210 HD
ENDBRANCH   9  24
BRANCH  10  26
HETATM   26  O8  UNL     1     -29.062  10.854 -10.476  1.00  0.00    -0.390 OA
ATOM     27  H8  UNL     1     -29.346  11.475 -11.136  1.00  0.00     0.210 HD
ENDBRANCH  10  26
ENDBRANCH   5   6
ENDBRANCH   4   5
ENDBRANCH   1   4
BRANCH   1  28
HETATM   28  O5  UNL     1     -29.572   6.170  -9.017  1.00  0.00    -0.209 OA
BRANCH  28  29
HETATM   29  C9  UNL     1     -29.289   4.980  -9.690  1.00  0.00     0.302 C 
HETATM   30  O6  UNL     1     -29.466   5.022 -10.972  1.00  0.00    -0.259 OA
BRANCH  29  31
HETATM   31  C10 UNL     1     -28.842   3.797  -9.060  1.00  0.00     0.041 A 
HETATM   32  C11 UNL     1     -29.057   3.505  -7.706  1.00  0.00     0.017 A 
HETATM   33  C12 UNL     1     -28.661   2.286  -7.193  1.00  0.00     0.002 A 
HETATM   34  C13 UNL     1     -28.069   1.400  -8.016  1.00  0.00     0.015 A 
HETATM   35  C14 UNL     1     -27.840   1.642  -9.367  1.00  0.00     0.011 A 
HETATM   36  C23 UNL     1     -28.230   2.825  -9.850  1.00  0.00     0.033 A 
BRANCH  35  37
HETATM   37  C15 UNL     1     -27.363   0.495 -10.205  1.00  0.00     0.138 A 
HETATM   38  N6  UNL     1     -27.021   0.177 -11.327  1.00  0.00    -0.242 N 
HETATM   39  O7  UNL     1     -26.794  -1.135 -11.518  1.00  0.00    -0.217 OA
ATOM     40  H6  UNL     1     -26.915   0.861 -12.076  1.00  0.00     0.196 HD
HETATM   41  C16 UNL     1     -26.992  -1.731 -10.425  1.00  0.00     0.185 A 
HETATM   42  N7  UNL     1     -27.376  -0.755  -9.472  1.00  0.00    -0.318 N 
ATOM     43  H7  UNL     1     -27.610  -0.899  -8.490  1.00  0.00     0.169 HD
BRANCH  41  44
HETATM   44  C17 UNL     1     -26.928  -3.087  -9.883  1.00  0.00     0.056 A 
HETATM   45  C18 UNL     1     -28.165  -3.675  -9.574  1.00  0.00     0.019 A 
HETATM   46  C19 UNL     1     -28.265  -4.843  -8.848  1.00  0.00     0.001 A 
HETATM   47  C20 UNL     1     -27.121  -5.462  -8.398  1.00  0.00     0.003 A 
HETATM   48  C21 UNL     1     -25.906  -4.887  -8.700  1.00  0.00     0.043 A 
HETATM   49  C22 UNL     1     -25.805  -3.723  -9.431  1.00  0.00     0.131 A 
HETATM   50  F1  UNL     1     -24.601  -3.187  -9.698  1.00  0.00    -0.205 F 
ENDBRANCH  41  44
ENDBRANCH  35  37
ENDBRANCH  29  31
ENDBRANCH  28  29
ENDBRANCH   1  28
TORSDOF 11
ENDMDL
