MODEL 2
REMARK VINA RESULT: -11.969279445      4.485     13.221
REMARK  11 active torsions:
REMARK  status: ('A' for Active; 'I' for Inactive)
REMARK    1  A    between atoms: N5_13  and  C6_14 
REMARK    2  A    between atoms: C7_16  and  C8_17 
REMARK    3  A    between atoms: C8_17  and  O2_18 
REMARK    4  A    between atoms: O2_18  and  P1_19 
REMARK    5  A    between atoms: P1_19  and  O5_22 
REMARK    6  A    between atoms: O5_22  and  C9_23 
REMARK    7  A    between atoms: C9_23  and  C10_25 
REMARK    8  A    between atoms: C14_29  and  C15_30 
REMARK    9  A    between atoms: C16_34  and  C17_35 
REMARK   10  A    between atoms: C24_45  and  O8_46 
REMARK   11  A    between atoms: C25_48  and  O9_49 
ROOT
HETATM    1  P1  UNL     1     -29.184   5.132  -9.530  1.00  0.00     0.416 P 
HETATM    2  O3  UNL     1     -30.332   5.325  -8.261  1.00  0.00    -0.624 OA
HETATM    3  O4  UNL     1     -29.702   5.696 -11.012  1.00  0.00    -0.624 OA
ENDROOT
BRANCH   1   4
HETATM    4  O2  UNL     1     -28.071   4.088  -9.223  1.00  0.00    -0.287 OA
BRANCH   4   5
HETATM    5  C8  UNL     1     -27.879   3.028 -10.089  1.00  0.00     0.216 C 
BRANCH   5   6
HETATM    6  C7  UNL     1     -28.191   1.831  -9.218  1.00  0.00     0.180 C 
HETATM    7  O1  UNL     1     -27.378   0.679  -9.514  1.00  0.00    -0.353 OA
HETATM    8  C6  UNL     1     -28.200  -0.223  -8.920  1.00  0.00     0.262 C 
HETATM    9  C25 UNL     1     -28.139   0.329  -7.462  1.00  0.00     0.198 C 
HETATM   10  C24 UNL     1     -28.121   1.840  -7.780  1.00  0.00     0.182 C 
BRANCH   8  11
HETATM   11  N5  UNL     1     -28.158  -1.601  -8.970  1.00  0.00    -0.297 N 
HETATM   12  C3  UNL     1     -27.095  -2.401  -9.010  1.00  0.00     0.142 A 
HETATM   13  N3  UNL     1     -25.813  -2.075  -9.206  1.00  0.00    -0.336 N 
HETATM   14  C4  UNL     1     -27.504  -3.704  -8.789  1.00  0.00     0.119 A 
HETATM   15  C2  UNL     1     -24.925  -3.080  -9.181  1.00  0.00     0.183 A 
ATOM     16  H3  UNL     1     -25.525  -1.109  -9.367  1.00  0.00     0.168 HD
HETATM   17  N2  UNL     1     -25.274  -4.358  -8.967  1.00  0.00    -0.339 N 
HETATM   18  C1  UNL     1     -26.543  -4.724  -8.762  1.00  0.00     0.148 A 
ATOM     19  H2  UNL     1     -24.546  -5.072  -8.960  1.00  0.00     0.167 HD
HETATM   20  N1  UNL     1     -26.993  -6.006  -8.408  1.00  0.00    -0.080 NA
HETATM   21  N4  UNL     1     -28.813  -3.672  -8.635  1.00  0.00    -0.346 N 
HETATM   22  C5  UNL     1     -29.245  -2.409  -8.739  1.00  0.00     0.188 A 
ATOM     23  H4  UNL     1     -29.406  -4.484  -8.462  1.00  0.00     0.167 HD
ENDBRANCH   8  11
BRANCH   9  24
HETATM   24  O9  UNL     1     -29.281  -0.049  -6.845  1.00  0.00    -0.388 OA
ATOM     25  H9  UNL     1     -29.681   0.736  -6.491  1.00  0.00     0.210 HD
ENDBRANCH   9  24
BRANCH  10  26
HETATM   26  O8  UNL     1     -29.217   2.441  -7.176  1.00  0.00    -0.390 OA
ATOM     27  H8  UNL     1     -29.343   2.178  -6.272  1.00  0.00     0.210 HD
ENDBRANCH  10  26
ENDBRANCH   5   6
ENDBRANCH   4   5
ENDBRANCH   1   4
BRANCH   1  28
HETATM   28  O5  UNL     1     -28.452   6.439  -9.287  1.00  0.00    -0.209 OA
BRANCH  28  29
HETATM   29  C9  UNL     1     -28.785   7.393  -8.324  1.00  0.00     0.302 C 
HETATM   30  O6  UNL     1     -28.543   7.042  -7.102  1.00  0.00    -0.259 OA
BRANCH  29  31
HETATM   31  C10 UNL     1     -29.346   8.656  -8.617  1.00  0.00     0.041 A 
HETATM   32  C11 UNL     1     -29.548   9.661  -7.662  1.00  0.00     0.017 A 
HETATM   33  C12 UNL     1     -30.024  10.897  -8.052  1.00  0.00     0.002 A 
HETATM   34  C13 UNL     1     -30.288  11.106  -9.356  1.00  0.00     0.015 A 
HETATM   35  C14 UNL     1     -30.099  10.141 -10.341  1.00  0.00     0.011 A 
HETATM   36  C23 UNL     1     -29.636   8.951  -9.949  1.00  0.00     0.033 A 
BRANCH  35  37
HETATM   37  C15 UNL     1     -30.237  10.574 -11.769  1.00  0.00     0.138 A 
HETATM   38  N6  UNL     1     -30.255  11.545 -12.501  1.00  0.00    -0.242 N 
HETATM   39  O7  UNL     1     -30.556  11.298 -13.789  1.00  0.00    -0.217 OA
ATOM     40  H6  UNL     1     -30.055  12.485 -12.159  1.00  0.00     0.196 HD
HETATM   41  C16 UNL     1     -30.741  10.058 -13.918  1.00  0.00     0.185 A 
HETATM   42  N7  UNL     1     -30.558   9.465 -12.644  1.00  0.00    -0.318 N 
ATOM     43  H7  UNL     1     -30.635   8.478 -12.398  1.00  0.00     0.169 HD
BRANCH  41  44
HETATM   44  C17 UNL     1     -31.067   9.098 -14.971  1.00  0.00     0.056 A 
HETATM   45  C18 UNL     1     -30.716   7.764 -14.706  1.00  0.00     0.019 A 
HETATM   46  C19 UNL     1     -30.743   6.788 -15.678  1.00  0.00     0.001 A 
HETATM   47  C20 UNL     1     -31.118   7.118 -16.961  1.00  0.00     0.003 A 
HETATM   48  C21 UNL     1     -31.463   8.426 -17.224  1.00  0.00     0.043 A 
HETATM   49  C22 UNL     1     -31.442   9.402 -16.251  1.00  0.00     0.131 A 
HETATM   50  F1  UNL     1     -31.775  10.669 -16.548  1.00  0.00    -0.205 F 
ENDBRANCH  41  44
ENDBRANCH  35  37
ENDBRANCH  29  31
ENDBRANCH  28  29
ENDBRANCH   1  28
TORSDOF 11
ENDMDL
