MODEL 7
REMARK VINA RESULT: -11.774981477      3.924      5.747
REMARK  11 active torsions:
REMARK  status: ('A' for Active; 'I' for Inactive)
REMARK    1  A    between atoms: N5_13  and  C6_14 
REMARK    2  A    between atoms: C7_16  and  C8_17 
REMARK    3  A    between atoms: C8_17  and  O2_18 
REMARK    4  A    between atoms: O2_18  and  P1_19 
REMARK    5  A    between atoms: P1_19  and  O5_22 
REMARK    6  A    between atoms: O5_22  and  C9_23 
REMARK    7  A    between atoms: C9_23  and  C10_25 
REMARK    8  A    between atoms: C14_29  and  C15_30 
REMARK    9  A    between atoms: C16_34  and  C17_35 
REMARK   10  A    between atoms: C24_45  and  O8_46 
REMARK   11  A    between atoms: C25_48  and  O9_49 
ROOT
HETATM    1  P1  UNL     1     -29.511  10.960  -8.639  1.00  0.00     0.416 P 
HETATM    2  O3  UNL     1     -29.293  11.775  -7.138  1.00  0.00    -0.624 OA
HETATM    3  O4  UNL     1     -28.120  10.821  -9.550  1.00  0.00    -0.624 OA
ENDROOT
BRANCH   1   4
HETATM    4  O2  UNL     1     -30.993  10.888  -9.110  1.00  0.00    -0.287 OA
BRANCH   4   5
HETATM    5  C8  UNL     1     -31.697  12.060  -9.310  1.00  0.00     0.216 C 
BRANCH   5   6
HETATM    6  C7  UNL     1     -31.969  12.031 -10.798  1.00  0.00     0.180 C 
HETATM    7  O1  UNL     1     -31.877  10.713 -11.372  1.00  0.00    -0.353 OA
HETATM    8  C6  UNL     1     -31.726  11.134 -12.653  1.00  0.00     0.262 C 
HETATM    9  C25 UNL     1     -33.085  11.882 -12.816  1.00  0.00     0.198 C 
HETATM   10  C24 UNL     1     -33.189  12.498 -11.404  1.00  0.00     0.182 C 
BRANCH   8  11
HETATM   11  N5  UNL     1     -31.381  10.404 -13.773  1.00  0.00    -0.297 N 
HETATM   12  C3  UNL     1     -31.074   9.112 -13.861  1.00  0.00     0.142 A 
HETATM   13  N3  UNL     1     -30.830   8.243 -12.874  1.00  0.00    -0.336 N 
HETATM   14  C4  UNL     1     -31.052   8.745 -15.195  1.00  0.00     0.119 A 
HETATM   15  C2  UNL     1     -30.557   6.981 -13.236  1.00  0.00     0.183 A 
ATOM     16  H3  UNL     1     -30.850   8.527 -11.894  1.00  0.00     0.168 HD
HETATM   17  N2  UNL     1     -30.529   6.578 -14.516  1.00  0.00    -0.339 N 
HETATM   18  C1  UNL     1     -30.771   7.414 -15.531  1.00  0.00     0.148 A 
ATOM     19  H2  UNL     1     -30.316   5.602 -14.720  1.00  0.00     0.167 HD
HETATM   20  N1  UNL     1     -30.887   7.066 -16.886  1.00  0.00    -0.080 NA
HETATM   21  N4  UNL     1     -31.332   9.828 -15.893  1.00  0.00    -0.346 N 
HETATM   22  C5  UNL     1     -31.538  10.856 -15.060  1.00  0.00     0.188 A 
ATOM     23  H4  UNL     1     -31.384   9.876 -16.910  1.00  0.00     0.167 HD
ENDBRANCH   8  11
BRANCH   9  24
HETATM   24  O9  UNL     1     -32.910  12.823 -13.772  1.00  0.00    -0.388 OA
ATOM     25  H9  UNL     1     -32.151  13.338 -13.521  1.00  0.00     0.210 HD
ENDBRANCH   9  24
BRANCH  10  26
HETATM   26  O8  UNL     1     -33.257  13.879 -11.518  1.00  0.00    -0.390 OA
ATOM     27  H8  UNL     1     -33.457  14.178 -12.398  1.00  0.00     0.210 HD
ENDBRANCH  10  26
ENDBRANCH   5   6
ENDBRANCH   4   5
ENDBRANCH   1   4
BRANCH   1  28
HETATM   28  O5  UNL     1     -29.296   9.559  -8.096  1.00  0.00    -0.209 OA
BRANCH  28  29
HETATM   29  C9  UNL     1     -29.281   8.385  -8.850  1.00  0.00     0.302 C 
HETATM   30  O6  UNL     1     -29.348   8.559 -10.132  1.00  0.00    -0.259 OA
BRANCH  29  31
HETATM   31  C10 UNL     1     -29.203   7.086  -8.300  1.00  0.00     0.041 A 
HETATM   32  C11 UNL     1     -29.764   6.726  -7.067  1.00  0.00     0.017 A 
HETATM   33  C12 UNL     1     -29.714   5.413  -6.645  1.00  0.00     0.002 A 
HETATM   34  C13 UNL     1     -29.117   4.501  -7.437  1.00  0.00     0.015 A 
HETATM   35  C14 UNL     1     -28.551   4.810  -8.670  1.00  0.00     0.011 A 
HETATM   36  C23 UNL     1     -28.608   6.084  -9.066  1.00  0.00     0.033 A 
BRANCH  35  37
HETATM   37  C15 UNL     1     -28.106   3.668  -9.532  1.00  0.00     0.138 A 
HETATM   38  N6  UNL     1     -27.643   3.385 -10.620  1.00  0.00    -0.242 N 
HETATM   39  O7  UNL     1     -27.562   2.070 -10.895  1.00  0.00    -0.217 OA
ATOM     40  H6  UNL     1     -27.335   4.098 -11.281  1.00  0.00     0.196 HD
HETATM   41  C16 UNL     1     -28.000   1.433  -9.899  1.00  0.00     0.185 A 
HETATM   42  N7  UNL     1     -28.394   2.385  -8.925  1.00  0.00    -0.318 N 
ATOM     43  H7  UNL     1     -28.791   2.206  -8.002  1.00  0.00     0.169 HD
BRANCH  41  44
HETATM   44  C17 UNL     1     -28.197   0.048  -9.479  1.00  0.00     0.056 A 
HETATM   45  C18 UNL     1     -28.540  -0.134  -8.129  1.00  0.00     0.019 A 
HETATM   46  C19 UNL     1     -28.533  -1.374  -7.527  1.00  0.00     0.001 A 
HETATM   47  C20 UNL     1     -28.171  -2.482  -8.261  1.00  0.00     0.003 A 
HETATM   48  C21 UNL     1     -27.834  -2.307  -9.585  1.00  0.00     0.043 A 
HETATM   49  C22 UNL     1     -27.847  -1.068 -10.189  1.00  0.00     0.131 A 
HETATM   50  F1  UNL     1     -27.502  -0.935 -11.481  1.00  0.00    -0.205 F 
ENDBRANCH  41  44
ENDBRANCH  35  37
ENDBRANCH  29  31
ENDBRANCH  28  29
ENDBRANCH   1  28
TORSDOF 11
ENDMDL
