MODEL 9
REMARK VINA RESULT: -11.748018488      4.019      5.834
REMARK  11 active torsions:
REMARK  status: ('A' for Active; 'I' for Inactive)
REMARK    1  A    between atoms: N5_13  and  C6_14 
REMARK    2  A    between atoms: C7_16  and  C8_17 
REMARK    3  A    between atoms: C8_17  and  O2_18 
REMARK    4  A    between atoms: O2_18  and  P1_19 
REMARK    5  A    between atoms: P1_19  and  O5_22 
REMARK    6  A    between atoms: O5_22  and  C9_23 
REMARK    7  A    between atoms: C9_23  and  C10_25 
REMARK    8  A    between atoms: C14_29  and  C15_30 
REMARK    9  A    between atoms: C16_34  and  C17_35 
REMARK   10  A    between atoms: C24_45  and  O8_46 
REMARK   11  A    between atoms: C25_48  and  O9_49 
ROOT
HETATM    1  P1  UNL     1     -29.500  10.953  -8.657  1.00  0.00     0.416 P 
HETATM    2  O3  UNL     1     -29.305  11.826  -7.185  1.00  0.00    -0.624 OA
HETATM    3  O4  UNL     1     -28.087  10.739  -9.517  1.00  0.00    -0.624 OA
ENDROOT
BRANCH   1   4
HETATM    4  O2  UNL     1     -30.968  10.900  -9.170  1.00  0.00    -0.287 OA
BRANCH   4   5
HETATM    5  C8  UNL     1     -31.657  12.081  -9.376  1.00  0.00     0.216 C 
BRANCH   5   6
HETATM    6  C7  UNL     1     -31.943  12.041 -10.861  1.00  0.00     0.180 C 
HETATM    7  O1  UNL     1     -31.859  10.718 -11.425  1.00  0.00    -0.353 OA
HETATM    8  C6  UNL     1     -31.720  11.129 -12.712  1.00  0.00     0.262 C 
HETATM    9  C25 UNL     1     -33.079  11.878 -12.867  1.00  0.00     0.198 C 
HETATM   10  C24 UNL     1     -33.168  12.505 -11.459  1.00  0.00     0.182 C 
BRANCH   8  11
HETATM   11  N5  UNL     1     -31.388  10.390 -13.829  1.00  0.00    -0.297 N 
HETATM   12  C3  UNL     1     -31.069   9.100 -13.908  1.00  0.00     0.142 A 
HETATM   13  N3  UNL     1     -30.799   8.245 -12.916  1.00  0.00    -0.336 N 
HETATM   14  C4  UNL     1     -31.066   8.719 -15.238  1.00  0.00     0.119 A 
HETATM   15  C2  UNL     1     -30.520   6.981 -13.268  1.00  0.00     0.183 A 
ATOM     16  H3  UNL     1     -30.805   8.539 -11.939  1.00  0.00     0.168 HD
HETATM   17  N2  UNL     1     -30.510   6.564 -14.544  1.00  0.00    -0.339 N 
HETATM   18  C1  UNL     1     -30.778   7.387 -15.564  1.00  0.00     0.148 A 
ATOM     19  H2  UNL     1     -30.290   5.588 -14.741  1.00  0.00     0.167 HD
HETATM   20  N1  UNL     1     -30.914   7.022 -16.913  1.00  0.00    -0.080 NA
HETATM   21  N4  UNL     1     -31.370   9.791 -15.943  1.00  0.00    -0.346 N 
HETATM   22  C5  UNL     1     -31.572  10.826 -15.118  1.00  0.00     0.188 A 
ATOM     23  H4  UNL     1     -31.440   9.826 -16.960  1.00  0.00     0.167 HD
ENDBRANCH   8  11
BRANCH   9  24
HETATM   24  O9  UNL     1     -32.912  12.811 -13.831  1.00  0.00    -0.388 OA
ATOM     25  H9  UNL     1     -33.097  13.656 -13.438  1.00  0.00     0.210 HD
ENDBRANCH   9  24
BRANCH  10  26
HETATM   26  O8  UNL     1     -33.236  13.886 -11.583  1.00  0.00    -0.390 OA
ATOM     27  H8  UNL     1     -32.404  14.288 -11.804  1.00  0.00     0.210 HD
ENDBRANCH  10  26
ENDBRANCH   5   6
ENDBRANCH   4   5
ENDBRANCH   1   4
BRANCH   1  28
HETATM   28  O5  UNL     1     -29.340   9.572  -8.048  1.00  0.00    -0.209 OA
BRANCH  28  29
HETATM   29  C9  UNL     1     -29.297   8.369  -8.755  1.00  0.00     0.302 C 
HETATM   30  O6  UNL     1     -29.303   8.493 -10.043  1.00  0.00    -0.259 OA
BRANCH  29  31
HETATM   31  C10 UNL     1     -29.251   7.093  -8.151  1.00  0.00     0.041 A 
HETATM   32  C11 UNL     1     -29.751   6.817  -6.871  1.00  0.00     0.017 A 
HETATM   33  C12 UNL     1     -29.741   5.522  -6.393  1.00  0.00     0.002 A 
HETATM   34  C13 UNL     1     -29.244   4.546  -7.177  1.00  0.00     0.015 A 
HETATM   35  C14 UNL     1     -28.742   4.771  -8.455  1.00  0.00     0.011 A 
HETATM   36  C23 UNL     1     -28.758   6.028  -8.906  1.00  0.00     0.033 A 
BRANCH  35  37
HETATM   37  C15 UNL     1     -28.412   3.571  -9.290  1.00  0.00     0.138 A 
HETATM   38  N6  UNL     1     -28.350   3.160 -10.433  1.00  0.00    -0.242 N 
HETATM   39  O7  UNL     1     -28.081   1.849 -10.566  1.00  0.00    -0.217 OA
ATOM     40  H6  UNL     1     -28.492   3.770 -11.237  1.00  0.00     0.196 HD
HETATM   41  C16 UNL     1     -27.944   1.356  -9.414  1.00  0.00     0.185 A 
HETATM   42  N7  UNL     1     -28.142   2.403  -8.478  1.00  0.00    -0.318 N 
ATOM     43  H7  UNL     1     -28.103   2.345  -7.460  1.00  0.00     0.169 HD
BRANCH  41  44
HETATM   44  C17 UNL     1     -27.642   0.067  -8.797  1.00  0.00     0.056 A 
HETATM   45  C18 UNL     1     -26.493  -0.582  -9.279  1.00  0.00     0.019 A 
HETATM   46  C19 UNL     1     -26.202  -1.893  -8.971  1.00  0.00     0.001 A 
HETATM   47  C20 UNL     1     -27.064  -2.609  -8.169  1.00  0.00     0.003 A 
HETATM   48  C21 UNL     1     -28.192  -1.975  -7.695  1.00  0.00     0.043 A 
HETATM   49  C22 UNL     1     -28.479  -0.662  -7.997  1.00  0.00     0.131 A 
HETATM   50  F1  UNL     1     -29.595  -0.080  -7.524  1.00  0.00    -0.205 F 
ENDBRANCH  41  44
ENDBRANCH  35  37
ENDBRANCH  29  31
ENDBRANCH  28  29
ENDBRANCH   1  28
TORSDOF 11
ENDMDL
