MODEL 6
REMARK VINA RESULT: -11.786940539      1.287      1.876
REMARK  11 active torsions:
REMARK  status: ('A' for Active; 'I' for Inactive)
REMARK    1  A    between atoms: N5_13  and  C6_14 
REMARK    2  A    between atoms: C7_16  and  C8_17 
REMARK    3  A    between atoms: C8_17  and  O2_18 
REMARK    4  A    between atoms: O2_18  and  P1_19 
REMARK    5  A    between atoms: P1_19  and  O5_22 
REMARK    6  A    between atoms: O5_22  and  C9_23 
REMARK    7  A    between atoms: C9_23  and  C10_25 
REMARK    8  A    between atoms: C14_29  and  C15_30 
REMARK    9  A    between atoms: C16_34  and  C17_35 
REMARK   10  A    between atoms: C24_45  and  O8_46 
REMARK   11  A    between atoms: C25_48  and  O9_49 
ROOT
HETATM    1  P1  UNL     1     -28.631   7.441  -8.423  1.00  0.00     0.416 P 
HETATM    2  O3  UNL     1     -28.756   7.009  -6.761  1.00  0.00    -0.624 OA
HETATM    3  O4  UNL     1     -27.408   6.657  -9.244  1.00  0.00    -0.624 OA
ENDROOT
BRANCH   1   4
HETATM    4  O2  UNL     1     -29.342   8.777  -8.784  1.00  0.00    -0.287 OA
BRANCH   4   5
HETATM    5  C8  UNL     1     -28.868   9.533  -9.840  1.00  0.00     0.216 C 
BRANCH   5   6
HETATM    6  C7  UNL     1     -30.126  10.185 -10.369  1.00  0.00     0.180 C 
HETATM    7  O1  UNL     1     -30.264  11.566  -9.981  1.00  0.00    -0.353 OA
HETATM    8  C6  UNL     1     -31.598  11.641 -10.219  1.00  0.00     0.262 C 
HETATM    9  C25 UNL     1     -31.581  11.336 -11.748  1.00  0.00     0.198 C 
HETATM   10  C24 UNL     1     -30.464  10.270 -11.767  1.00  0.00     0.182 C 
BRANCH   8  11
HETATM   11  N5  UNL     1     -32.485  12.643  -9.884  1.00  0.00    -0.297 N 
HETATM   12  C3  UNL     1     -32.501  13.412  -8.798  1.00  0.00     0.142 A 
HETATM   13  N3  UNL     1     -31.788  13.282  -7.674  1.00  0.00    -0.336 N 
HETATM   14  C4  UNL     1     -33.397  14.449  -8.994  1.00  0.00     0.119 A 
HETATM   15  C2  UNL     1     -31.981  14.212  -6.727  1.00  0.00     0.183 A 
ATOM     16  H3  UNL     1     -31.130  12.513  -7.543  1.00  0.00     0.168 HD
HETATM   17  N2  UNL     1     -32.835  15.237  -6.873  1.00  0.00    -0.339 N 
HETATM   18  C1  UNL     1     -33.562  15.405  -7.983  1.00  0.00     0.148 A 
ATOM     19  H2  UNL     1     -32.932  15.909  -6.112  1.00  0.00     0.167 HD
HETATM   20  N1  UNL     1     -34.384  16.504  -8.281  1.00  0.00    -0.080 NA
HETATM   21  N4  UNL     1     -33.920  14.279 -10.192  1.00  0.00    -0.346 N 
HETATM   22  C5  UNL     1     -33.389  13.191 -10.762  1.00  0.00     0.188 A 
ATOM     23  H4  UNL     1     -34.621  14.885 -10.619  1.00  0.00     0.167 HD
ENDBRANCH   8  11
BRANCH   9  24
HETATM   24  O9  UNL     1     -32.788  10.815 -12.064  1.00  0.00    -0.388 OA
ATOM     25  H9  UNL     1     -32.674  10.305 -12.858  1.00  0.00     0.210 HD
ENDBRANCH   9  24
BRANCH  10  26
HETATM   26  O8  UNL     1     -30.975   9.089 -12.286  1.00  0.00    -0.390 OA
ATOM     27  H8  UNL     1     -31.493   9.213 -13.073  1.00  0.00     0.210 HD
ENDBRANCH  10  26
ENDBRANCH   5   6
ENDBRANCH   4   5
ENDBRANCH   1   4
BRANCH   1  28
HETATM   28  O5  UNL     1     -29.630   6.417  -8.932  1.00  0.00    -0.209 OA
BRANCH  28  29
HETATM   29  C9  UNL     1     -29.315   5.230  -9.595  1.00  0.00     0.302 C 
HETATM   30  O6  UNL     1     -29.452   5.271 -10.881  1.00  0.00    -0.259 OA
BRANCH  29  31
HETATM   31  C10 UNL     1     -28.878   4.052  -8.950  1.00  0.00     0.041 A 
HETATM   32  C11 UNL     1     -29.086   3.782  -7.591  1.00  0.00     0.017 A 
HETATM   33  C12 UNL     1     -28.701   2.566  -7.063  1.00  0.00     0.002 A 
HETATM   34  C13 UNL     1     -28.125   1.661  -7.877  1.00  0.00     0.015 A 
HETATM   35  C14 UNL     1     -27.902   1.881  -9.233  1.00  0.00     0.011 A 
HETATM   36  C23 UNL     1     -28.282   3.061  -9.730  1.00  0.00     0.033 A 
BRANCH  35  37
HETATM   37  C15 UNL     1     -27.445   0.716 -10.057  1.00  0.00     0.138 A 
HETATM   38  N6  UNL     1     -27.165   0.365 -11.187  1.00  0.00    -0.242 N 
HETATM   39  O7  UNL     1     -26.910  -0.947 -11.343  1.00  0.00    -0.217 OA
ATOM     40  H6  UNL     1     -27.126   1.023 -11.965  1.00  0.00     0.196 HD
HETATM   41  C16 UNL     1     -27.022  -1.506 -10.219  1.00  0.00     0.185 A 
HETATM   42  N7  UNL     1     -27.375  -0.504  -9.279  1.00  0.00    -0.318 N 
ATOM     43  H7  UNL     1     -27.543  -0.618  -8.280  1.00  0.00     0.169 HD
BRANCH  41  44
HETATM   44  C17 UNL     1     -26.884  -2.837  -9.633  1.00  0.00     0.056 A 
HETATM   45  C18 UNL     1     -28.027  -3.650  -9.698  1.00  0.00     0.019 A 
HETATM   46  C19 UNL     1     -28.133  -4.831  -8.996  1.00  0.00     0.001 A 
HETATM   47  C20 UNL     1     -27.093  -5.238  -8.191  1.00  0.00     0.003 A 
HETATM   48  C21 UNL     1     -25.969  -4.442  -8.126  1.00  0.00     0.043 A 
HETATM   49  C22 UNL     1     -25.860  -3.265  -8.833  1.00  0.00     0.131 A 
HETATM   50  F1  UNL     1     -24.752  -2.510  -8.735  1.00  0.00    -0.205 F 
ENDBRANCH  41  44
ENDBRANCH  35  37
ENDBRANCH  29  31
ENDBRANCH  28  29
ENDBRANCH   1  28
TORSDOF 11
ENDMDL
