MODEL 5
REMARK VINA RESULT: -6.298005153      1.787      2.332
REMARK  4 active torsions:
REMARK  status: ('A' for Active; 'I' for Inactive)
REMARK    1  A    between atoms: O1_2  and  C2_3 
REMARK    2  A    between atoms: C7_8  and  O2_9 
REMARK    3  A    between atoms: N1_12  and  S1_13 
REMARK    4  A    between atoms: S1_13  and  N2_14 
ROOT
HETATM    1  C2  UNL     1      -3.739   4.542  11.522  1.00  0.00     0.102 A 
HETATM    2  C3  UNL     1      -4.770   4.804  12.371  1.00  0.00     0.047 A 
HETATM    3  C4  UNL     1      -5.088   3.912  13.356  1.00  0.00    -0.046 A 
HETATM    4  C5  UNL     1      -4.385   2.740  13.514  1.00  0.00    -0.030 A 
HETATM    5  C6  UNL     1      -3.342   2.516  12.625  1.00  0.00     0.049 A 
HETATM    6  C7  UNL     1      -2.981   3.378  11.618  1.00  0.00     0.102 A 
HETATM    7  C9  UNL     1      -4.692   1.734  14.571  1.00  0.00     0.176 C 
HETATM    8  N1  UNL     1      -5.705   2.206  15.439  1.00  0.00    -0.290 N 
HETATM    9  C10 UNL     1      -5.776   3.617  15.636  1.00  0.00     0.142 C 
HETATM   10  C11 UNL     1      -6.222   4.200  14.289  1.00  0.00     0.060 C 
ENDROOT
BRANCH   8  11
HETATM   11  S1  UNL     1      -5.893   1.311  16.879  1.00  0.00     0.315 S 
HETATM   12  O3  UNL     1      -4.696   0.475  17.123  1.00  0.00    -0.183 OA
HETATM   13  O4  UNL     1      -7.085   0.395  16.712  1.00  0.00    -0.183 OA
BRANCH  11  14
HETATM   14  N2  UNL     1      -6.213   2.303  18.246  1.00  0.00    -0.311 N 
ATOM     15  H22 UNL     1      -7.135   2.693  18.440  1.00  0.00     0.170 HD
ATOM     16  H21 UNL     1      -5.389   2.453  18.829  1.00  0.00     0.170 HD
ENDBRANCH  11  14
ENDBRANCH   8  11
BRANCH   6  17
HETATM   17  O2  UNL     1      -1.962   3.199  10.721  1.00  0.00    -0.353 OA
HETATM   18  C8  UNL     1      -0.990   2.204  10.775  1.00  0.00     0.210 C 
ENDBRANCH   6  17
BRANCH   1  19
HETATM   19  O1  UNL     1      -3.438   5.457  10.538  1.00  0.00    -0.353 OA
HETATM   20  C1  UNL     1      -4.391   5.899   9.610  1.00  0.00     0.210 C 
ENDBRANCH   1  19
TORSDOF 4
ENDMDL
