MODEL 2
REMARK VINA RESULT: -6.607925626      2.279      2.457
REMARK  4 active torsions:
REMARK  status: ('A' for Active; 'I' for Inactive)
REMARK    1  A    between atoms: O1_2  and  C2_3 
REMARK    2  A    between atoms: C7_8  and  O2_9 
REMARK    3  A    between atoms: N1_12  and  S1_13 
REMARK    4  A    between atoms: S1_13  and  N2_14 
ROOT
HETATM    1  C2  UNL     1      -3.655   6.075  13.204  1.00  0.00     0.102 A 
HETATM    2  C3  UNL     1      -4.924   5.632  13.411  1.00  0.00     0.047 A 
HETATM    3  C4  UNL     1      -5.149   4.564  14.234  1.00  0.00    -0.046 A 
HETATM    4  C5  UNL     1      -4.112   3.917  14.866  1.00  0.00    -0.030 A 
HETATM    5  C6  UNL     1      -2.835   4.405  14.624  1.00  0.00     0.049 A 
HETATM    6  C7  UNL     1      -2.554   5.473  13.807  1.00  0.00     0.102 A 
HETATM    7  C9  UNL     1      -4.304   2.748  15.772  1.00  0.00     0.176 C 
HETATM    8  N1  UNL     1      -5.680   2.487  15.977  1.00  0.00    -0.290 N 
HETATM    9  C10 UNL     1      -6.560   3.609  15.924  1.00  0.00     0.142 C 
HETATM   10  C11 UNL     1      -6.546   4.076  14.463  1.00  0.00     0.060 C 
ENDROOT
BRANCH   8  11
HETATM   11  S1  UNL     1      -6.025   1.415  17.257  1.00  0.00     0.315 S 
HETATM   12  O3  UNL     1      -4.965   0.387  17.367  1.00  0.00    -0.183 OA
HETATM   13  O4  UNL     1      -7.331   0.717  16.948  1.00  0.00    -0.183 OA
BRANCH  11  14
HETATM   14  N2  UNL     1      -6.231   2.217  18.764  1.00  0.00    -0.311 N 
ATOM     15  H22 UNL     1      -5.445   2.517  19.340  1.00  0.00     0.170 HD
ATOM     16  H21 UNL     1      -7.212   2.355  19.009  1.00  0.00     0.170 HD
ENDBRANCH  11  14
ENDBRANCH   8  11
BRANCH   6  17
HETATM   17  O2  UNL     1      -1.313   5.988  13.539  1.00  0.00    -0.353 OA
HETATM   18  C8  UNL     1      -0.393   5.474  12.630  1.00  0.00     0.210 C 
ENDBRANCH   6  17
BRANCH   1  19
HETATM   19  O1  UNL     1      -3.455   7.153  12.370  1.00  0.00    -0.353 OA
HETATM   20  C1  UNL     1      -4.398   7.541  11.408  1.00  0.00     0.210 C 
ENDBRANCH   1  19
TORSDOF 4
ENDMDL
