MODEL 13
REMARK VINA RESULT: -5.791377647      1.406      1.632
REMARK  4 active torsions:
REMARK  status: ('A' for Active; 'I' for Inactive)
REMARK    1  A    between atoms: O1_2  and  C2_3 
REMARK    2  A    between atoms: C7_8  and  O2_9 
REMARK    3  A    between atoms: N1_12  and  S1_13 
REMARK    4  A    between atoms: S1_13  and  N2_14 
ROOT
HETATM    1  C2  UNL     1      -3.825   6.067  11.644  1.00  0.00     0.102 A 
HETATM    2  C3  UNL     1      -4.740   5.840  12.625  1.00  0.00     0.047 A 
HETATM    3  C4  UNL     1      -4.789   4.624  13.246  1.00  0.00    -0.046 A 
HETATM    4  C5  UNL     1      -3.927   3.609  12.899  1.00  0.00    -0.030 A 
HETATM    5  C6  UNL     1      -3.011   3.887  11.894  1.00  0.00     0.049 A 
HETATM    6  C7  UNL     1      -2.919   5.090  11.238  1.00  0.00     0.102 A 
HETATM    7  C9  UNL     1      -3.940   2.264  13.545  1.00  0.00     0.176 C 
HETATM    8  N1  UNL     1      -4.861   2.227  14.619  1.00  0.00    -0.290 N 
HETATM    9  C10 UNL     1      -5.079   3.451  15.320  1.00  0.00     0.142 C 
HETATM   10  C11 UNL     1      -5.796   4.374  14.325  1.00  0.00     0.060 C 
ENDROOT
BRANCH   8  11
HETATM   11  S1  UNL     1      -4.713   0.875  15.647  1.00  0.00     0.315 S 
HETATM   12  O3  UNL     1      -3.398   0.887  16.325  1.00  0.00    -0.183 OA
HETATM   13  O4  UNL     1      -4.797  -0.374  14.797  1.00  0.00    -0.183 OA
BRANCH  11  14
HETATM   14  N2  UNL     1      -5.977   0.775  16.807  1.00  0.00    -0.311 N 
ATOM     15  H22 UNL     1      -6.940   1.039  16.597  1.00  0.00     0.170 HD
ATOM     16  H21 UNL     1      -5.659   0.428  17.712  1.00  0.00     0.170 HD
ENDBRANCH  11  14
ENDBRANCH   8  11
BRANCH   6  17
HETATM   17  O2  UNL     1      -2.034   5.409  10.243  1.00  0.00    -0.353 OA
HETATM   18  C8  UNL     1      -0.673   5.118  10.235  1.00  0.00     0.210 C 
ENDBRANCH   6  17
BRANCH   1  19
HETATM   19  O1  UNL     1      -3.795   7.302  11.035  1.00  0.00    -0.353 OA
HETATM   20  C1  UNL     1      -3.172   8.412  11.622  1.00  0.00     0.210 C 
ENDBRANCH   1  19
TORSDOF 4
ENDMDL
