MODEL 14
REMARK VINA RESULT: -5.698881527      3.668      6.462
REMARK  4 active torsions:
REMARK  status: ('A' for Active; 'I' for Inactive)
REMARK    1  A    between atoms: O1_2  and  C2_3 
REMARK    2  A    between atoms: C7_8  and  O2_9 
REMARK    3  A    between atoms: N1_12  and  S1_13 
REMARK    4  A    between atoms: S1_13  and  N2_14 
ROOT
HETATM    1  C2  UNL     1      -4.201   0.817  13.207  1.00  0.00     0.102 A 
HETATM    2  C3  UNL     1      -3.628   1.587  12.242  1.00  0.00     0.047 A 
HETATM    3  C4  UNL     1      -3.333   2.896  12.498  1.00  0.00    -0.046 A 
HETATM    4  C5  UNL     1      -3.605   3.464  13.721  1.00  0.00    -0.030 A 
HETATM    5  C6  UNL     1      -4.189   2.641  14.673  1.00  0.00     0.049 A 
HETATM    6  C7  UNL     1      -4.507   1.320  14.469  1.00  0.00     0.102 A 
HETATM    7  C9  UNL     1      -3.303   4.888  14.050  1.00  0.00     0.176 C 
HETATM    8  N1  UNL     1      -2.604   5.515  12.991  1.00  0.00    -0.290 N 
HETATM    9  C10 UNL     1      -1.759   4.683  12.198  1.00  0.00     0.142 C 
HETATM   10  C11 UNL     1      -2.702   3.742  11.437  1.00  0.00     0.060 C 
ENDROOT
BRANCH   8  11
HETATM   11  S1  UNL     1      -1.900   7.017  13.385  1.00  0.00     0.315 S 
HETATM   12  O3  UNL     1      -2.057   7.296  14.830  1.00  0.00    -0.183 OA
HETATM   13  O4  UNL     1      -2.627   8.095  12.613  1.00  0.00    -0.183 OA
BRANCH  11  14
HETATM   14  N2  UNL     1      -0.243   7.116  12.939  1.00  0.00    -0.311 N 
ATOM     15  H22 UNL     1       0.253   8.003  12.854  1.00  0.00     0.170 HD
ATOM     16  H21 UNL     1       0.179   6.202  12.774  1.00  0.00     0.170 HD
ENDBRANCH  11  14
ENDBRANCH   8  11
BRANCH   6  17
HETATM   17  O2  UNL     1      -5.083   0.472  15.376  1.00  0.00    -0.353 OA
HETATM   18  C8  UNL     1      -5.553   0.822  16.639  1.00  0.00     0.210 C 
ENDBRANCH   6  17
BRANCH   1  19
HETATM   19  O1  UNL     1      -4.489  -0.500  12.924  1.00  0.00    -0.353 OA
HETATM   20  C1  UNL     1      -4.124  -1.102  11.712  1.00  0.00     0.210 C 
ENDBRANCH   1  19
TORSDOF 4
ENDMDL
