MODEL 12
REMARK VINA RESULT: -5.830578250      3.517      6.144
REMARK  4 active torsions:
REMARK  status: ('A' for Active; 'I' for Inactive)
REMARK    1  A    between atoms: O1_2  and  C2_3 
REMARK    2  A    between atoms: C7_8  and  O2_9 
REMARK    3  A    between atoms: N1_12  and  S1_13 
REMARK    4  A    between atoms: S1_13  and  N2_14 
ROOT
HETATM    1  C2  UNL     1      -4.542   1.217  14.817  1.00  0.00     0.102 A 
HETATM    2  C3  UNL     1      -4.327   2.474  15.291  1.00  0.00     0.047 A 
HETATM    3  C4  UNL     1      -3.824   3.439  14.465  1.00  0.00    -0.046 A 
HETATM    4  C5  UNL     1      -3.524   3.169  13.150  1.00  0.00    -0.030 A 
HETATM    5  C6  UNL     1      -3.759   1.873  12.711  1.00  0.00     0.049 A 
HETATM    6  C7  UNL     1      -4.263   0.866  13.499  1.00  0.00     0.102 A 
HETATM    7  C9  UNL     1      -2.972   4.186  12.208  1.00  0.00     0.176 C 
HETATM    8  N1  UNL     1      -2.920   5.463  12.816  1.00  0.00    -0.290 N 
HETATM    9  C10 UNL     1      -3.911   5.745  13.803  1.00  0.00     0.142 C 
HETATM   10  C11 UNL     1      -3.588   4.822  14.986  1.00  0.00     0.060 C 
ENDROOT
BRANCH   8  11
HETATM   11  S1  UNL     1      -2.646   6.759  11.742  1.00  0.00     0.315 S 
HETATM   12  O3  UNL     1      -1.803   6.318  10.608  1.00  0.00    -0.183 OA
HETATM   13  O4  UNL     1      -1.903   7.842  12.492  1.00  0.00    -0.183 OA
BRANCH  11  14
HETATM   14  N2  UNL     1      -4.102   7.464  11.160  1.00  0.00    -0.311 N 
ATOM     15  H22 UNL     1      -4.581   8.221  11.647  1.00  0.00     0.170 HD
ATOM     16  H21 UNL     1      -4.424   7.045  10.287  1.00  0.00     0.170 HD
ENDBRANCH  11  14
ENDBRANCH   8  11
BRANCH   6  17
HETATM   17  O2  UNL     1      -4.511  -0.423  13.110  1.00  0.00    -0.353 OA
HETATM   18  C8  UNL     1      -4.247  -0.965  11.855  1.00  0.00     0.210 C 
ENDBRANCH   6  17
BRANCH   1  19
HETATM   19  O1  UNL     1      -5.051   0.262  15.669  1.00  0.00    -0.353 OA
HETATM   20  C1  UNL     1      -5.750   0.598  16.837  1.00  0.00     0.210 C 
ENDBRANCH   1  19
TORSDOF 4
ENDMDL
