MODEL 11
REMARK VINA RESULT: -5.844846456      3.403      6.142
REMARK  4 active torsions:
REMARK  status: ('A' for Active; 'I' for Inactive)
REMARK    1  A    between atoms: O1_2  and  C2_3 
REMARK    2  A    between atoms: C7_8  and  O2_9 
REMARK    3  A    between atoms: N1_12  and  S1_13 
REMARK    4  A    between atoms: S1_13  and  N2_14 
ROOT
HETATM    1  C2  UNL     1      -4.539   1.211  14.835  1.00  0.00     0.102 A 
HETATM    2  C3  UNL     1      -4.327   2.468  15.310  1.00  0.00     0.047 A 
HETATM    3  C4  UNL     1      -3.825   3.435  14.485  1.00  0.00    -0.046 A 
HETATM    4  C5  UNL     1      -3.524   3.166  13.169  1.00  0.00    -0.030 A 
HETATM    5  C6  UNL     1      -3.757   1.871  12.730  1.00  0.00     0.049 A 
HETATM    6  C7  UNL     1      -4.259   0.862  13.516  1.00  0.00     0.102 A 
HETATM    7  C9  UNL     1      -2.975   4.185  12.228  1.00  0.00     0.176 C 
HETATM    8  N1  UNL     1      -2.926   5.462  12.837  1.00  0.00    -0.290 N 
HETATM    9  C10 UNL     1      -3.917   5.741  13.825  1.00  0.00     0.142 C 
HETATM   10  C11 UNL     1      -3.592   4.818  15.007  1.00  0.00     0.060 C 
ENDROOT
BRANCH   8  11
HETATM   11  S1  UNL     1      -2.654   6.759  11.765  1.00  0.00     0.315 S 
HETATM   12  O3  UNL     1      -3.901   7.532  11.566  1.00  0.00    -0.183 OA
HETATM   13  O4  UNL     1      -2.234   6.187  10.429  1.00  0.00    -0.183 OA
BRANCH  11  14
HETATM   14  N2  UNL     1      -1.388   7.800  12.282  1.00  0.00    -0.311 N 
ATOM     15  H22 UNL     1      -0.496   7.451  12.633  1.00  0.00     0.170 HD
ATOM     16  H21 UNL     1      -1.627   8.789  12.198  1.00  0.00     0.170 HD
ENDBRANCH  11  14
ENDBRANCH   8  11
BRANCH   6  17
HETATM   17  O2  UNL     1      -4.505  -0.428  13.127  1.00  0.00    -0.353 OA
HETATM   18  C8  UNL     1      -4.206  -0.977  11.883  1.00  0.00     0.210 C 
ENDBRANCH   6  17
BRANCH   1  19
HETATM   19  O1  UNL     1      -5.046   0.254  15.687  1.00  0.00    -0.353 OA
HETATM   20  C1  UNL     1      -5.778   0.587  16.835  1.00  0.00     0.210 C 
ENDBRANCH   1  19
TORSDOF 4
ENDMDL
