MODEL 10
REMARK VINA RESULT: -5.863330074      2.084      2.819
REMARK  4 active torsions:
REMARK  status: ('A' for Active; 'I' for Inactive)
REMARK    1  A    between atoms: O1_2  and  C2_3 
REMARK    2  A    between atoms: C7_8  and  O2_9 
REMARK    3  A    between atoms: N1_12  and  S1_13 
REMARK    4  A    between atoms: S1_13  and  N2_14 
ROOT
HETATM    1  C2  UNL     1      -3.653   4.382  11.951  1.00  0.00     0.102 A 
HETATM    2  C3  UNL     1      -4.751   4.721  12.681  1.00  0.00     0.047 A 
HETATM    3  C4  UNL     1      -5.222   3.871  13.641  1.00  0.00    -0.046 A 
HETATM    4  C5  UNL     1      -4.608   2.665  13.892  1.00  0.00    -0.030 A 
HETATM    5  C6  UNL     1      -3.493   2.363  13.123  1.00  0.00     0.049 A 
HETATM    6  C7  UNL     1      -2.979   3.180  12.146  1.00  0.00     0.102 A 
HETATM    7  C9  UNL     1      -5.083   1.702  14.928  1.00  0.00     0.176 C 
HETATM    8  N1  UNL     1      -6.152   2.250  15.676  1.00  0.00    -0.290 N 
HETATM    9  C10 UNL     1      -6.160   3.667  15.841  1.00  0.00     0.142 C 
HETATM   10  C11 UNL     1      -6.428   4.243  14.445  1.00  0.00     0.060 C 
ENDROOT
BRANCH   8  11
HETATM   11  S1  UNL     1      -6.540   1.400  17.102  1.00  0.00     0.315 S 
HETATM   12  O3  UNL     1      -7.942   0.925  17.052  1.00  0.00    -0.183 OA
HETATM   13  O4  UNL     1      -6.405   2.352  18.270  1.00  0.00    -0.183 OA
BRANCH  11  14
HETATM   14  N2  UNL     1      -5.479   0.083  17.405  1.00  0.00    -0.311 N 
ATOM     15  H22 UNL     1      -4.708   0.138  18.071  1.00  0.00     0.170 HD
ATOM     16  H21 UNL     1      -5.705  -0.745  16.853  1.00  0.00     0.170 HD
ENDBRANCH  11  14
ENDBRANCH   8  11
BRANCH   6  17
HETATM   17  O2  UNL     1      -1.884   2.924  11.364  1.00  0.00    -0.353 OA
HETATM   18  C8  UNL     1      -1.395   1.664  11.028  1.00  0.00     0.210 C 
ENDBRANCH   6  17
BRANCH   1  19
HETATM   19  O1  UNL     1      -3.198   5.256  10.989  1.00  0.00    -0.353 OA
HETATM   20  C1  UNL     1      -3.799   5.358   9.726  1.00  0.00     0.210 C 
ENDBRANCH   1  19
TORSDOF 4
ENDMDL
