MODEL 4
REMARK VINA RESULT: -5.909190422      1.807      4.262
REMARK  11 active torsions:
REMARK  status: ('A' for Active; 'I' for Inactive)
REMARK    1  A    between atoms: C2_2  and  C3_3 
REMARK    2  A    between atoms: C3_3  and  O1_4 
REMARK    3  A    between atoms: O1_4  and  C4_5 
REMARK    4  A    between atoms: C4_5  and  C5_6 
REMARK    5  A    between atoms: C6_10  and  C7_11 
REMARK    6  A    between atoms: C7_11  and  O5_12 
REMARK    7  A    between atoms: C7_11  and  C8_14 
REMARK    8  A    between atoms: C8_14  and  O6_15 
REMARK    9  A    between atoms: C9_17  and  O7_18 
REMARK   10  A    between atoms: C10_20  and  O8_21 
REMARK   11  A    between atoms: C11_23  and  O9_24 
ROOT
HETATM    1  C4  UNL     1     -10.439  -0.857  -2.850  1.00  0.00     0.285 C 
HETATM    2  O4  UNL     1      -9.265  -0.784  -3.700  1.00  0.00    -0.334 OA
HETATM    3  C6  UNL     1      -8.149  -0.858  -2.880  1.00  0.00     0.188 C 
HETATM    4  C9  UNL     1      -7.962  -2.335  -2.593  1.00  0.00     0.181 C 
HETATM    5  C10 UNL     1      -9.127  -2.666  -1.673  1.00  0.00     0.184 C 
HETATM    6  C11 UNL     1     -10.446  -2.250  -2.272  1.00  0.00     0.223 C 
ENDROOT
BRANCH   1   7
HETATM    7  O1  UNL     1     -10.288   0.143  -2.020  1.00  0.00    -0.344 OA
BRANCH   7   8
HETATM    8  C3  UNL     1     -10.750   0.387  -0.828  1.00  0.00     0.172 C 
BRANCH   8   9
HETATM    9  C2  UNL     1     -12.165   0.668  -0.505  1.00  0.00     0.022 C 
HETATM   10  C1  UNL     1     -12.951  -0.540  -0.021  1.00  0.00     0.007 C 
ENDBRANCH   8   9
ENDBRANCH   7   8
ENDBRANCH   1   7
BRANCH   1  11
HETATM   11  C5  UNL     1     -11.502  -0.820  -3.875  1.00  0.00     0.241 C 
HETATM   12  O2  UNL     1     -12.699  -0.605  -3.599  1.00  0.00    -0.644 OA
HETATM   13  O3  UNL     1     -11.211  -1.028  -5.232  1.00  0.00    -0.644 OA
ENDBRANCH   1  11
BRANCH   6  14
HETATM   14  O9  UNL     1     -10.733  -3.156  -3.290  1.00  0.00    -0.387 OA
ATOM     15  H9  UNL     1     -10.563  -4.036  -2.973  1.00  0.00     0.210 HD
ENDBRANCH   6  14
BRANCH   3  16
HETATM   16  C7  UNL     1      -6.941  -0.153  -3.368  1.00  0.00     0.173 C 
BRANCH  16  17
HETATM   17  O5  UNL     1      -5.902  -1.120  -3.384  1.00  0.00    -0.391 OA
ATOM     18  H5  UNL     1      -5.299  -0.847  -4.065  1.00  0.00     0.210 HD
ENDBRANCH  16  17
BRANCH  16  19
HETATM   19  C8  UNL     1      -6.450   0.980  -2.537  1.00  0.00     0.198 C 
BRANCH  19  20
HETATM   20  O6  UNL     1      -7.360   1.269  -1.543  1.00  0.00    -0.398 OA
ATOM     21  H6  UNL     1      -6.917   1.652  -0.794  1.00  0.00     0.209 HD
ENDBRANCH  19  20
ENDBRANCH  16  19
ENDBRANCH   3  16
BRANCH   5  22
HETATM   22  O8  UNL     1      -9.141  -4.045  -1.480  1.00  0.00    -0.390 OA
ATOM     23  H8  UNL     1      -9.737  -4.423  -2.116  1.00  0.00     0.210 HD
ENDBRANCH   5  22
BRANCH   4  24
HETATM   24  O7  UNL     1      -8.200  -3.017  -3.786  1.00  0.00    -0.390 OA
ATOM     25  H7  UNL     1      -7.408  -2.953  -4.307  1.00  0.00     0.210 HD
ENDBRANCH   4  24
TORSDOF 11
ENDMDL
