MODEL 2
REMARK VINA RESULT: -6.139834370      0.842      1.105
REMARK  11 active torsions:
REMARK  status: ('A' for Active; 'I' for Inactive)
REMARK    1  A    between atoms: C2_2  and  C3_3 
REMARK    2  A    between atoms: C3_3  and  O1_4 
REMARK    3  A    between atoms: O1_4  and  C4_5 
REMARK    4  A    between atoms: C4_5  and  C5_6 
REMARK    5  A    between atoms: C6_10  and  C7_11 
REMARK    6  A    between atoms: C7_11  and  O5_12 
REMARK    7  A    between atoms: C7_11  and  C8_14 
REMARK    8  A    between atoms: C8_14  and  O6_15 
REMARK    9  A    between atoms: C9_17  and  O7_18 
REMARK   10  A    between atoms: C10_20  and  O8_21 
REMARK   11  A    between atoms: C11_23  and  O9_24 
ROOT
HETATM    1  C4  UNL     1      -9.597  -0.529  -1.291  1.00  0.00     0.285 C 
HETATM    2  O4  UNL     1     -10.935  -0.639  -1.844  1.00  0.00    -0.334 OA
HETATM    3  C6  UNL     1     -10.822  -1.207  -3.105  1.00  0.00     0.188 C 
HETATM    4  C9  UNL     1     -10.699  -2.698  -2.862  1.00  0.00     0.181 C 
HETATM    5  C10 UNL     1      -9.312  -2.845  -2.257  1.00  0.00     0.184 C 
HETATM    6  C11 UNL     1      -9.125  -1.943  -1.064  1.00  0.00     0.223 C 
ENDROOT
BRANCH   1   7
HETATM    7  O1  UNL     1      -8.953   0.192  -2.172  1.00  0.00    -0.344 OA
BRANCH   7   8
HETATM    8  C3  UNL     1      -7.848   0.876  -2.124  1.00  0.00     0.172 C 
BRANCH   8   9
HETATM    9  C2  UNL     1      -6.487   0.298  -2.138  1.00  0.00     0.022 C 
HETATM   10  C1  UNL     1      -6.237  -0.694  -3.262  1.00  0.00     0.007 C 
ENDBRANCH   8   9
ENDBRANCH   7   8
ENDBRANCH   1   7
BRANCH   1  11
HETATM   11  C5  UNL     1      -9.915   0.030   0.039  1.00  0.00     0.241 C 
HETATM   12  O2  UNL     1      -9.037   0.349   0.864  1.00  0.00    -0.644 OA
HETATM   13  O3  UNL     1     -11.243   0.233   0.445  1.00  0.00    -0.644 OA
ENDBRANCH   1  11
BRANCH   6  14
HETATM   14  O9  UNL     1      -9.858  -2.497  -0.017  1.00  0.00    -0.387 OA
ATOM     15  H9  UNL     1      -9.692  -3.432   0.010  1.00  0.00     0.210 HD
ENDBRANCH   6  14
BRANCH   3  16
HETATM   16  C7  UNL     1     -11.857  -0.811  -4.087  1.00  0.00     0.173 C 
BRANCH  16  17
HETATM   17  O5  UNL     1     -11.239   0.132  -4.950  1.00  0.00    -0.391 OA
ATOM     18  H5  UNL     1     -11.539   0.986  -4.664  1.00  0.00     0.210 HD
ENDBRANCH  16  17
BRANCH  16  19
HETATM   19  C8  UNL     1     -13.074  -0.149  -3.541  1.00  0.00     0.198 C 
BRANCH  19  20
HETATM   20  O6  UNL     1     -13.678  -0.962  -2.606  1.00  0.00    -0.398 OA
ATOM     21  H6  UNL     1     -14.587  -0.711  -2.491  1.00  0.00     0.209 HD
ENDBRANCH  19  20
ENDBRANCH  16  19
ENDBRANCH   3  16
BRANCH   5  22
HETATM   22  O8  UNL     1      -9.163  -4.166  -1.843  1.00  0.00    -0.390 OA
ATOM     23  H8  UNL     1      -8.502  -4.186  -1.161  1.00  0.00     0.210 HD
ENDBRANCH   5  22
BRANCH   4  24
HETATM   24  O7  UNL     1     -11.603  -3.023  -1.850  1.00  0.00    -0.390 OA
ATOM     25  H7  UNL     1     -12.375  -3.382  -2.271  1.00  0.00     0.210 HD
ENDBRANCH   4  24
TORSDOF 11
ENDMDL
