MODEL 3
REMARK VINA RESULT: -5.974840729      1.687      4.309
REMARK  11 active torsions:
REMARK  status: ('A' for Active; 'I' for Inactive)
REMARK    1  A    between atoms: C2_2  and  C3_3 
REMARK    2  A    between atoms: C3_3  and  O1_4 
REMARK    3  A    between atoms: O1_4  and  C4_5 
REMARK    4  A    between atoms: C4_5  and  C5_6 
REMARK    5  A    between atoms: C6_10  and  C7_11 
REMARK    6  A    between atoms: C7_11  and  O5_12 
REMARK    7  A    between atoms: C7_11  and  C8_14 
REMARK    8  A    between atoms: C8_14  and  O6_15 
REMARK    9  A    between atoms: C9_17  and  O7_18 
REMARK   10  A    between atoms: C10_20  and  O8_21 
REMARK   11  A    between atoms: C11_23  and  O9_24 
ROOT
HETATM    1  C4  UNL     1      -9.612  -1.416  -3.217  1.00  0.00     0.285 C 
HETATM    2  O4  UNL     1      -8.872  -1.030  -2.030  1.00  0.00    -0.334 OA
HETATM    3  C6  UNL     1      -9.790  -0.577  -1.094  1.00  0.00     0.188 C 
HETATM    4  C9  UNL     1     -10.354  -1.827  -0.448  1.00  0.00     0.181 C 
HETATM    5  C10 UNL     1     -11.208  -2.438  -1.548  1.00  0.00     0.184 C 
HETATM    6  C11 UNL     1     -10.427  -2.623  -2.823  1.00  0.00     0.223 C 
ENDROOT
BRANCH   1   7
HETATM    7  O1  UNL     1     -10.259  -0.329  -3.550  1.00  0.00    -0.344 OA
BRANCH   7   8
HETATM    8  C3  UNL     1     -11.345  -0.116  -4.234  1.00  0.00     0.172 C 
BRANCH   8   9
HETATM    9  C2  UNL     1     -12.395   0.864  -3.881  1.00  0.00     0.022 C 
HETATM   10  C1  UNL     1     -12.982   0.682  -2.491  1.00  0.00     0.007 C 
ENDBRANCH   8   9
ENDBRANCH   7   8
ENDBRANCH   1   7
BRANCH   1  11
HETATM   11  C5  UNL     1      -8.505  -1.912  -4.060  1.00  0.00     0.241 C 
HETATM   12  O2  UNL     1      -8.630  -2.129  -5.281  1.00  0.00    -0.644 OA
HETATM   13  O3  UNL     1      -7.235  -2.165  -3.517  1.00  0.00    -0.644 OA
ENDBRANCH   1  11
BRANCH   6  14
HETATM   14  O9  UNL     1      -9.566  -3.699  -2.620  1.00  0.00    -0.387 OA
ATOM     15  H9  UNL     1      -9.563  -3.917  -1.696  1.00  0.00     0.210 HD
ENDBRANCH   6  14
BRANCH   3  16
HETATM   16  C7  UNL     1      -9.295   0.452  -0.150  1.00  0.00     0.173 C 
BRANCH  16  17
HETATM   17  O5  UNL     1      -9.818   0.100   1.123  1.00  0.00    -0.391 OA
ATOM     18  H5  UNL     1     -10.255   0.877   1.451  1.00  0.00     0.210 HD
ENDBRANCH  16  17
BRANCH  16  19
HETATM   19  C8  UNL     1      -9.722   1.855  -0.408  1.00  0.00     0.198 C 
BRANCH  19  20
HETATM   20  O6  UNL     1      -9.789   2.087  -1.766  1.00  0.00    -0.398 OA
ATOM     21  H6  UNL     1      -9.694   3.016  -1.943  1.00  0.00     0.209 HD
ENDBRANCH  19  20
ENDBRANCH  16  19
ENDBRANCH   3  16
BRANCH   5  22
HETATM   22  O8  UNL     1     -11.643  -3.685  -1.108  1.00  0.00    -0.390 OA
ATOM     23  H8  UNL     1     -10.991  -4.028  -0.509  1.00  0.00     0.210 HD
ENDBRANCH   5  22
BRANCH   4  24
HETATM   24  O7  UNL     1      -9.286  -2.703  -0.252  1.00  0.00    -0.390 OA
ATOM     25  H7  UNL     1      -9.638  -3.584  -0.284  1.00  0.00     0.210 HD
ENDBRANCH   4  24
TORSDOF 11
ENDMDL
