MODEL 6
REMARK VINA RESULT: -5.766221135      2.019      4.403
REMARK  11 active torsions:
REMARK  status: ('A' for Active; 'I' for Inactive)
REMARK    1  A    between atoms: C2_2  and  C3_3 
REMARK    2  A    between atoms: C3_3  and  O1_4 
REMARK    3  A    between atoms: O1_4  and  C4_5 
REMARK    4  A    between atoms: C4_5  and  C5_6 
REMARK    5  A    between atoms: C6_10  and  C7_11 
REMARK    6  A    between atoms: C7_11  and  O5_12 
REMARK    7  A    between atoms: C7_11  and  C8_14 
REMARK    8  A    between atoms: C8_14  and  O6_15 
REMARK    9  A    between atoms: C9_17  and  O7_18 
REMARK   10  A    between atoms: C10_20  and  O8_21 
REMARK   11  A    between atoms: C11_23  and  O9_24 
ROOT
HETATM    1  C4  UNL     1     -11.151  -0.724  -1.343  1.00  0.00     0.285 C 
HETATM    2  O4  UNL     1     -10.038  -1.583  -1.704  1.00  0.00    -0.334 OA
HETATM    3  C6  UNL     1      -9.153  -0.826  -2.458  1.00  0.00     0.188 C 
HETATM    4  C9  UNL     1      -8.339  -0.041  -1.449  1.00  0.00     0.181 C 
HETATM    5  C10 UNL     1      -9.333   0.973  -0.906  1.00  0.00     0.184 C 
HETATM    6  C11 UNL     1     -10.587   0.310  -0.400  1.00  0.00     0.223 C 
ENDROOT
BRANCH   1   7
HETATM    7  O1  UNL     1     -11.612  -0.307  -2.494  1.00  0.00    -0.344 OA
BRANCH   7   8
HETATM    8  C3  UNL     1     -12.627   0.435  -2.829  1.00  0.00     0.172 C 
BRANCH   8   9
HETATM    9  C2  UNL     1     -13.817  -0.035  -3.571  1.00  0.00     0.022 C 
HETATM   10  C1  UNL     1     -15.006  -0.387  -2.692  1.00  0.00     0.007 C 
ENDBRANCH   8   9
ENDBRANCH   7   8
ENDBRANCH   1   7
BRANCH   1  11
HETATM   11  C5  UNL     1     -11.942  -1.661  -0.519  1.00  0.00     0.241 C 
HETATM   12  O2  UNL     1     -12.999  -1.331   0.053  1.00  0.00    -0.644 OA
HETATM   13  O3  UNL     1     -11.534  -2.992  -0.337  1.00  0.00    -0.644 OA
ENDBRANCH   1  11
BRANCH   6  14
HETATM   14  O9  UNL     1     -10.260  -0.312   0.803  1.00  0.00    -0.387 OA
ATOM     15  H9  UNL     1      -9.315  -0.342   0.884  1.00  0.00     0.210 HD
ENDBRANCH   6  14
BRANCH   3  16
HETATM   16  C7  UNL     1      -8.362  -1.571  -3.464  1.00  0.00     0.173 C 
BRANCH  16  17
HETATM   17  O5  UNL     1      -7.943  -2.768  -2.826  1.00  0.00    -0.391 OA
ATOM     18  H5  UNL     1      -7.377  -3.213  -3.446  1.00  0.00     0.210 HD
ENDBRANCH  16  17
BRANCH  16  19
HETATM   19  C8  UNL     1      -7.127  -0.906  -3.966  1.00  0.00     0.198 C 
BRANCH  19  20
HETATM   20  O6  UNL     1      -6.752  -1.454  -5.174  1.00  0.00    -0.398 OA
ATOM     21  H6  UNL     1      -6.312  -0.801  -5.707  1.00  0.00     0.209 HD
ENDBRANCH  19  20
ENDBRANCH  16  19
ENDBRANCH   3  16
BRANCH   5  22
HETATM   22  O8  UNL     1      -8.725   1.643   0.153  1.00  0.00    -0.390 OA
ATOM     23  H8  UNL     1      -8.770   2.575  -0.026  1.00  0.00     0.210 HD
ENDBRANCH   5  22
BRANCH   4  24
HETATM   24  O7  UNL     1      -8.049  -0.907  -0.395  1.00  0.00    -0.390 OA
ATOM     25  H7  UNL     1      -8.579  -0.633   0.345  1.00  0.00     0.210 HD
ENDBRANCH   4  24
TORSDOF 11
ENDMDL
