MODEL 1
REMARK VINA RESULT: -6.505018243      0.000      0.000
REMARK  11 active torsions:
REMARK  status: ('A' for Active; 'I' for Inactive)
REMARK    1  A    between atoms: C2_2  and  C3_3 
REMARK    2  A    between atoms: C3_3  and  O1_4 
REMARK    3  A    between atoms: O1_4  and  C4_5 
REMARK    4  A    between atoms: C4_5  and  C5_6 
REMARK    5  A    between atoms: C6_10  and  C7_11 
REMARK    6  A    between atoms: C7_11  and  O5_12 
REMARK    7  A    between atoms: C7_11  and  C8_14 
REMARK    8  A    between atoms: C8_14  and  O6_15 
REMARK    9  A    between atoms: C9_17  and  O7_18 
REMARK   10  A    between atoms: C10_20  and  O8_21 
REMARK   11  A    between atoms: C11_23  and  O9_24 
ROOT
HETATM    1  C4  UNL     1      -9.506  -0.597  -1.291  1.00  0.00     0.285 C 
HETATM    2  O4  UNL     1     -10.840  -0.856  -1.803  1.00  0.00    -0.334 OA
HETATM    3  C6  UNL     1     -10.703  -1.556  -2.993  1.00  0.00     0.188 C 
HETATM    4  C9  UNL     1     -10.480  -2.999  -2.583  1.00  0.00     0.181 C 
HETATM    5  C10 UNL     1      -9.079  -2.985  -1.991  1.00  0.00     0.184 C 
HETATM    6  C11 UNL     1      -8.939  -1.942  -0.913  1.00  0.00     0.223 C 
ENDROOT
BRANCH   1   7
HETATM    7  O1  UNL     1      -8.921   0.058  -2.261  1.00  0.00    -0.344 OA
BRANCH   7   8
HETATM    8  C3  UNL     1      -7.841   0.782  -2.320  1.00  0.00     0.172 C 
BRANCH   8   9
HETATM    9  C2  UNL     1      -6.460   0.260  -2.231  1.00  0.00     0.022 C 
HETATM   10  C1  UNL     1      -6.079  -0.702  -3.344  1.00  0.00     0.007 C 
ENDBRANCH   8   9
ENDBRANCH   7   8
ENDBRANCH   1   7
BRANCH   1  11
HETATM   11  C5  UNL     1      -9.845   0.090  -0.028  1.00  0.00     0.241 C 
HETATM   12  O2  UNL     1      -8.984   0.598   0.716  1.00  0.00    -0.644 OA
HETATM   13  O3  UNL     1     -11.176   0.206   0.402  1.00  0.00    -0.644 OA
ENDBRANCH   1  11
BRANCH   6  14
HETATM   14  O9  UNL     1      -9.622  -2.418   0.204  1.00  0.00    -0.387 OA
ATOM     15  H9  UNL     1      -9.999  -3.264  -0.007  1.00  0.00     0.210 HD
ENDBRANCH   6  14
BRANCH   3  16
HETATM   16  C7  UNL     1     -11.773  -1.344  -3.994  1.00  0.00     0.173 C 
BRANCH  16  17
HETATM   17  O5  UNL     1     -11.497  -2.239  -5.060  1.00  0.00    -0.391 OA
ATOM     18  H5  UNL     1     -11.542  -1.722  -5.856  1.00  0.00     0.210 HD
ENDBRANCH  16  17
BRANCH  16  19
HETATM   19  C8  UNL     1     -11.862   0.015  -4.596  1.00  0.00     0.198 C 
BRANCH  19  20
HETATM   20  O6  UNL     1     -10.741   0.750  -4.275  1.00  0.00    -0.398 OA
ATOM     21  H6  UNL     1     -10.963   1.671  -4.205  1.00  0.00     0.209 HD
ENDBRANCH  19  20
ENDBRANCH  16  19
ENDBRANCH   3  16
BRANCH   5  22
HETATM   22  O8  UNL     1      -8.839  -4.238  -1.432  1.00  0.00    -0.390 OA
ATOM     23  H8  UNL     1      -7.917  -4.437  -1.548  1.00  0.00     0.210 HD
ENDBRANCH   5  22
BRANCH   4  24
HETATM   24  O7  UNL     1     -11.349  -3.262  -1.524  1.00  0.00    -0.390 OA
ATOM     25  H7  UNL     1     -10.845  -3.713  -0.856  1.00  0.00     0.210 HD
ENDBRANCH   4  24
TORSDOF 11
ENDMDL
