MODEL 6
REMARK VINA RESULT: -6.948472381      1.764      2.089
REMARK  7 active torsions:
REMARK  status: ('A' for Active; 'I' for Inactive)
REMARK       I    between atoms: C1_2  and  N1_3 
REMARK    1  A    between atoms: C1_2  and  C11_19 
REMARK    2  A    between atoms: N1_3  and  C2_5 
REMARK    3  A    between atoms: C2_5  and  C3_6 
REMARK    4  A    between atoms: C2_5  and  C4_12 
REMARK    5  A    between atoms: C3_6  and  O2_7 
REMARK    6  A    between atoms: O2_7  and  P1_8 
REMARK    7  A    between atoms: C4_12  and  C5_13 
ROOT
HETATM    1  C2  UNL     1      13.954   3.559   2.353  1.00  0.00     0.113 C 
ENDROOT
BRANCH   1   2
HETATM    2  N1  UNL     1      12.775   3.615   1.523  1.00  0.00    -0.349 N 
HETATM    3  C1  UNL     1      11.568   4.117   2.061  1.00  0.00     0.259 C 
HETATM    4  O1  UNL     1      11.482   4.522   3.248  1.00  0.00    -0.267 OA
ATOM      5  H1  UNL     1      12.811   3.293   0.555  1.00  0.00     0.163 HD
BRANCH   3   6
HETATM    6  C11 UNL     1      10.367   4.175   1.216  1.00  0.00     0.074 A 
HETATM    7  C12 UNL     1      10.208   3.764  -0.079  1.00  0.00     0.037 A 
HETATM    8  C13 UNL     1       8.991   3.927  -0.636  1.00  0.00    -0.018 A 
HETATM    9  C14 UNL     1       8.618   3.574  -1.952  1.00  0.00     0.013 A 
HETATM   10  C18 UNL     1       8.017   4.490   0.140  1.00  0.00     0.016 A 
HETATM   11  C15 UNL     1       7.333   3.805  -2.370  1.00  0.00     0.001 A 
HETATM   12  C16 UNL     1       6.341   4.370  -1.605  1.00  0.00     0.001 A 
HETATM   13  C17 UNL     1       6.706   4.716  -0.317  1.00  0.00     0.019 A 
HETATM   14  S1  UNL     1       8.828   4.773   1.624  1.00  0.00    -0.084 SA
ENDBRANCH   3   6
ENDBRANCH   1   2
BRANCH   1  15
HETATM   15  C3  UNL     1      14.535   2.170   2.423  1.00  0.00     0.208 C 
BRANCH  15  16
HETATM   16  O2  UNL     1      15.773   2.305   3.059  1.00  0.00    -0.281 OA
BRANCH  16  17
HETATM   17  P1  UNL     1      16.617   1.024   3.130  1.00  0.00     0.422 P 
HETATM   18  O3  UNL     1      17.575  -0.178   2.969  1.00  0.00    -0.617 OA
HETATM   19  O4  UNL     1      15.991   0.662   1.617  1.00  0.00    -0.617 OA
HETATM   20  O5  UNL     1      15.844   0.507   4.451  1.00  0.00    -0.617 OA
ENDBRANCH  16  17
ENDBRANCH  15  16
ENDBRANCH   1  15
BRANCH   1  21
HETATM   21  C4  UNL     1      14.947   4.538   1.745  1.00  0.00     0.065 C 
BRANCH  21  22
HETATM   22  C5  UNL     1      14.617   5.930   2.135  1.00  0.00    -0.056 A 
HETATM   23  C6  UNL     1      14.934   6.379   3.400  1.00  0.00     0.007 A 
HETATM   24  C7  UNL     1      14.648   7.671   3.813  1.00  0.00     0.001 A 
HETATM   25  C8  UNL     1      14.025   8.531   2.926  1.00  0.00     0.000 A 
HETATM   26  C9  UNL     1      13.719   8.059   1.667  1.00  0.00     0.001 A 
HETATM   27  C10 UNL     1      13.997   6.793   1.257  1.00  0.00     0.007 A 
ENDBRANCH  21  22
ENDBRANCH   1  21
TORSDOF 7
ENDMDL
