MODEL 4
REMARK VINA RESULT: -6.956286868      1.876      2.432
REMARK  7 active torsions:
REMARK  status: ('A' for Active; 'I' for Inactive)
REMARK       I    between atoms: C1_2  and  N1_3 
REMARK    1  A    between atoms: C1_2  and  C11_19 
REMARK    2  A    between atoms: N1_3  and  C2_5 
REMARK    3  A    between atoms: C2_5  and  C3_6 
REMARK    4  A    between atoms: C2_5  and  C4_12 
REMARK    5  A    between atoms: C3_6  and  O2_7 
REMARK    6  A    between atoms: O2_7  and  P1_8 
REMARK    7  A    between atoms: C4_12  and  C5_13 
ROOT
HETATM    1  C2  UNL     1      13.621   3.576   2.052  1.00  0.00     0.113 C 
ENDROOT
BRANCH   1   2
HETATM    2  N1  UNL     1      12.433   3.638   1.234  1.00  0.00    -0.349 N 
HETATM    3  C1  UNL     1      11.232   4.136   1.788  1.00  0.00     0.259 C 
HETATM    4  O1  UNL     1      11.157   4.531   2.979  1.00  0.00    -0.267 OA
ATOM      5  H1  UNL     1      12.460   3.325   0.264  1.00  0.00     0.163 HD
BRANCH   3   6
HETATM    6  C11 UNL     1      10.022   4.201   0.956  1.00  0.00     0.074 A 
HETATM    7  C12 UNL     1       9.849   3.795  -0.339  1.00  0.00     0.037 A 
HETATM    8  C13 UNL     1       8.627   3.964  -0.882  1.00  0.00    -0.018 A 
HETATM    9  C14 UNL     1       8.239   3.616  -2.195  1.00  0.00     0.013 A 
HETATM   10  C18 UNL     1       7.662   4.527  -0.095  1.00  0.00     0.016 A 
HETATM   11  C15 UNL     1       6.950   3.853  -2.599  1.00  0.00     0.001 A 
HETATM   12  C16 UNL     1       5.968   4.418  -1.823  1.00  0.00     0.001 A 
HETATM   13  C17 UNL     1       6.348   4.760  -0.537  1.00  0.00     0.019 A 
HETATM   14  S1  UNL     1       8.490   4.803   1.381  1.00  0.00    -0.084 SA
ENDBRANCH   3   6
ENDBRANCH   1   2
BRANCH   1  15
HETATM   15  C3  UNL     1      14.181   2.179   2.136  1.00  0.00     0.208 C 
BRANCH  15  16
HETATM   16  O2  UNL     1      15.568   2.329   2.232  1.00  0.00    -0.281 OA
BRANCH  16  17
HETATM   17  P1  UNL     1      16.327   1.091   2.734  1.00  0.00     0.422 P 
HETATM   18  O3  UNL     1      17.238  -0.126   3.012  1.00  0.00    -0.617 OA
HETATM   19  O4  UNL     1      15.922   0.387   1.267  1.00  0.00    -0.617 OA
HETATM   20  O5  UNL     1      15.337   0.912   3.998  1.00  0.00    -0.617 OA
ENDBRANCH  16  17
ENDBRANCH  15  16
ENDBRANCH   1  15
BRANCH   1  21
HETATM   21  C4  UNL     1      14.622   4.530   1.419  1.00  0.00     0.065 C 
BRANCH  21  22
HETATM   22  C5  UNL     1      14.477   5.894   1.984  1.00  0.00    -0.056 A 
HETATM   23  C6  UNL     1      13.736   6.839   1.307  1.00  0.00     0.007 A 
HETATM   24  C7  UNL     1      13.570   8.127   1.792  1.00  0.00     0.001 A 
HETATM   25  C8  UNL     1      14.168   8.468   2.993  1.00  0.00     0.000 A 
HETATM   26  C9  UNL     1      14.904   7.505   3.651  1.00  0.00     0.001 A 
HETATM   27  C10 UNL     1      15.070   6.242   3.179  1.00  0.00     0.007 A 
ENDBRANCH  21  22
ENDBRANCH   1  21
TORSDOF 7
ENDMDL
