MODEL 3
REMARK VINA RESULT: -7.079255211      1.228      1.470
REMARK  7 active torsions:
REMARK  status: ('A' for Active; 'I' for Inactive)
REMARK       I    between atoms: C1_2  and  N1_3 
REMARK    1  A    between atoms: C1_2  and  C11_19 
REMARK    2  A    between atoms: N1_3  and  C2_5 
REMARK    3  A    between atoms: C2_5  and  C3_6 
REMARK    4  A    between atoms: C2_5  and  C4_12 
REMARK    5  A    between atoms: C3_6  and  O2_7 
REMARK    6  A    between atoms: O2_7  and  P1_8 
REMARK    7  A    between atoms: C4_12  and  C5_13 
ROOT
HETATM    1  C2  UNL     1      14.984   4.115   1.952  1.00  0.00     0.113 C 
ENDROOT
BRANCH   1   2
HETATM    2  N1  UNL     1      13.715   3.929   1.290  1.00  0.00    -0.349 N 
HETATM    3  C1  UNL     1      12.524   3.956   2.050  1.00  0.00     0.259 C 
HETATM    4  O1  UNL     1      12.526   4.138   3.294  1.00  0.00    -0.267 OA
ATOM      5  H1  UNL     1      13.678   3.779   0.282  1.00  0.00     0.163 HD
BRANCH   3   6
HETATM    6  C11 UNL     1      11.230   3.768   1.377  1.00  0.00     0.074 A 
HETATM    7  C12 UNL     1      10.173   4.632   1.293  1.00  0.00     0.037 A 
HETATM    8  C13 UNL     1       9.088   4.217   0.609  1.00  0.00    -0.018 A 
HETATM    9  C14 UNL     1       7.897   4.949   0.404  1.00  0.00     0.013 A 
HETATM   10  C18 UNL     1       9.133   2.968   0.057  1.00  0.00     0.016 A 
HETATM   11  C15 UNL     1       6.878   4.385  -0.318  1.00  0.00     0.001 A 
HETATM   12  C16 UNL     1       6.905   3.131  -0.880  1.00  0.00     0.001 A 
HETATM   13  C17 UNL     1       8.071   2.414  -0.679  1.00  0.00     0.019 A 
HETATM   14  S1  UNL     1      10.690   2.410   0.508  1.00  0.00    -0.084 SA
ENDBRANCH   3   6
ENDBRANCH   1   2
BRANCH   1  15
HETATM   15  C3  UNL     1      15.915   2.950   1.734  1.00  0.00     0.208 C 
BRANCH  15  16
HETATM   16  O2  UNL     1      16.198   2.444   3.006  1.00  0.00    -0.281 OA
BRANCH  16  17
HETATM   17  P1  UNL     1      16.719   0.998   3.036  1.00  0.00     0.422 P 
HETATM   18  O3  UNL     1      17.393  -0.380   2.854  1.00  0.00    -0.617 OA
HETATM   19  O4  UNL     1      16.206   0.900   1.442  1.00  0.00    -0.617 OA
HETATM   20  O5  UNL     1      15.701   0.585   4.221  1.00  0.00    -0.617 OA
ENDBRANCH  16  17
ENDBRANCH  15  16
ENDBRANCH   1  15
BRANCH   1  21
HETATM   21  C4  UNL     1      15.573   5.399   1.388  1.00  0.00     0.065 C 
BRANCH  21  22
HETATM   22  C5  UNL     1      14.993   6.584   2.065  1.00  0.00    -0.056 A 
HETATM   23  C6  UNL     1      15.433   6.937   3.323  1.00  0.00     0.007 A 
HETATM   24  C7  UNL     1      14.925   8.035   3.998  1.00  0.00     0.001 A 
HETATM   25  C8  UNL     1      13.944   8.797   3.387  1.00  0.00     0.000 A 
HETATM   26  C9  UNL     1      13.521   8.424   2.128  1.00  0.00     0.001 A 
HETATM   27  C10 UNL     1      14.016   7.348   1.462  1.00  0.00     0.007 A 
ENDBRANCH  21  22
ENDBRANCH   1  21
TORSDOF 7
ENDMDL
