MODEL 5
REMARK VINA RESULT: -6.953720591      1.240      1.453
REMARK  7 active torsions:
REMARK  status: ('A' for Active; 'I' for Inactive)
REMARK       I    between atoms: C1_2  and  N1_3 
REMARK    1  A    between atoms: C1_2  and  C11_19 
REMARK    2  A    between atoms: N1_3  and  C2_5 
REMARK    3  A    between atoms: C2_5  and  C3_6 
REMARK    4  A    between atoms: C2_5  and  C4_12 
REMARK    5  A    between atoms: C3_6  and  O2_7 
REMARK    6  A    between atoms: O2_7  and  P1_8 
REMARK    7  A    between atoms: C4_12  and  C5_13 
ROOT
HETATM    1  C2  UNL     1      14.866   3.842   1.612  1.00  0.00     0.113 C 
ENDROOT
BRANCH   1   2
HETATM    2  N1  UNL     1      13.539   4.003   1.067  1.00  0.00    -0.349 N 
HETATM    3  C1  UNL     1      12.423   3.976   1.933  1.00  0.00     0.259 C 
HETATM    4  O1  UNL     1      12.541   3.815   3.174  1.00  0.00    -0.267 OA
ATOM      5  H1  UNL     1      13.408   4.135   0.064  1.00  0.00     0.163 HD
BRANCH   3   6
HETATM    6  C11 UNL     1      11.071   4.140   1.378  1.00  0.00     0.074 A 
HETATM    7  C12 UNL     1      10.532   3.580   0.253  1.00  0.00     0.037 A 
HETATM    8  C13 UNL     1       9.254   3.892  -0.043  1.00  0.00    -0.018 A 
HETATM    9  C14 UNL     1       8.513   3.426  -1.151  1.00  0.00     0.013 A 
HETATM   10  C18 UNL     1       8.604   4.743   0.806  1.00  0.00     0.016 A 
HETATM   11  C15 UNL     1       7.216   3.839  -1.313  1.00  0.00     0.001 A 
HETATM   12  C16 UNL     1       6.546   4.693  -0.472  1.00  0.00     0.001 A 
HETATM   13  C17 UNL     1       7.272   5.150   0.614  1.00  0.00     0.019 A 
HETATM   14  S1  UNL     1       9.795   5.081   1.992  1.00  0.00    -0.084 SA
ENDBRANCH   3   6
ENDBRANCH   1   2
BRANCH   1  15
HETATM   15  C3  UNL     1      15.549   2.604   1.090  1.00  0.00     0.208 C 
BRANCH  15  16
HETATM   16  O2  UNL     1      16.660   2.404   1.916  1.00  0.00    -0.281 OA
BRANCH  16  17
HETATM   17  P1  UNL     1      16.551   1.216   2.884  1.00  0.00     0.422 P 
HETATM   18  O3  UNL     1      16.566   0.185   4.034  1.00  0.00    -0.617 OA
HETATM   19  O4  UNL     1      18.217   1.331   3.034  1.00  0.00    -0.617 OA
HETATM   20  O5  UNL     1      15.924   0.258   1.744  1.00  0.00    -0.617 OA
ENDBRANCH  16  17
ENDBRANCH  15  16
ENDBRANCH   1  15
BRANCH   1  21
HETATM   21  C4  UNL     1      15.637   5.096   1.229  1.00  0.00     0.065 C 
BRANCH  21  22
HETATM   22  C5  UNL     1      15.086   6.284   1.926  1.00  0.00    -0.056 A 
HETATM   23  C6  UNL     1      15.477   6.561   3.219  1.00  0.00     0.007 A 
HETATM   24  C7  UNL     1      14.993   7.658   3.914  1.00  0.00     0.001 A 
HETATM   25  C8  UNL     1      14.089   8.497   3.286  1.00  0.00     0.000 A 
HETATM   26  C9  UNL     1      13.714   8.200   1.992  1.00  0.00     0.001 A 
HETATM   27  C10 UNL     1      14.186   7.125   1.307  1.00  0.00     0.007 A 
ENDBRANCH  21  22
ENDBRANCH   1  21
TORSDOF 7
ENDMDL
