MODEL 16
REMARK VINA RESULT: -6.504618562      4.013      6.024
REMARK  7 active torsions:
REMARK  status: ('A' for Active; 'I' for Inactive)
REMARK       I    between atoms: C1_2  and  N1_3 
REMARK    1  A    between atoms: C1_2  and  C11_19 
REMARK    2  A    between atoms: N1_3  and  C2_5 
REMARK    3  A    between atoms: C2_5  and  C3_6 
REMARK    4  A    between atoms: C2_5  and  C4_12 
REMARK    5  A    between atoms: C3_6  and  O2_7 
REMARK    6  A    between atoms: O2_7  and  P1_8 
REMARK    7  A    between atoms: C4_12  and  C5_13 
ROOT
HETATM    1  C2  UNL     1      13.236   3.553   3.336  1.00  0.00     0.113 C 
ENDROOT
BRANCH   1   2
HETATM    2  N1  UNL     1      13.606   2.415   2.528  1.00  0.00    -0.349 N 
HETATM    3  C1  UNL     1      12.879   2.133   1.349  1.00  0.00     0.259 C 
HETATM    4  O1  UNL     1      11.912   2.843   0.972  1.00  0.00    -0.267 OA
ATOM      5  H1  UNL     1      14.385   1.819   2.806  1.00  0.00     0.163 HD
BRANCH   3   6
HETATM    6  C11 UNL     1      13.255   0.975   0.525  1.00  0.00     0.074 A 
HETATM    7  C12 UNL     1      12.536  -0.158   0.258  1.00  0.00     0.037 A 
HETATM    8  C13 UNL     1      13.111  -1.082  -0.537  1.00  0.00    -0.018 A 
HETATM    9  C14 UNL     1      12.544  -2.314  -0.933  1.00  0.00     0.013 A 
HETATM   10  C18 UNL     1      14.364  -0.812  -1.009  1.00  0.00     0.016 A 
HETATM   11  C15 UNL     1      13.260  -3.151  -1.750  1.00  0.00     0.001 A 
HETATM   12  C16 UNL     1      14.520  -2.897  -2.234  1.00  0.00     0.001 A 
HETATM   13  C17 UNL     1      15.075  -1.691  -1.846  1.00  0.00     0.019 A 
HETATM   14  S1  UNL     1      14.703   0.725  -0.331  1.00  0.00    -0.084 SA
ENDBRANCH   3   6
ENDBRANCH   1   2
BRANCH   1  15
HETATM   15  C3  UNL     1      12.771   3.147   4.710  1.00  0.00     0.208 C 
BRANCH  15  16
HETATM   16  O2  UNL     1      12.639   4.335   5.435  1.00  0.00    -0.281 OA
BRANCH  16  17
HETATM   17  P1  UNL     1      12.798   4.197   6.957  1.00  0.00     0.422 P 
HETATM   18  O3  UNL     1      12.948   4.328   8.489  1.00  0.00    -0.617 OA
HETATM   19  O4  UNL     1      14.146   5.180   6.792  1.00  0.00    -0.617 OA
HETATM   20  O5  UNL     1      12.972   2.593   6.861  1.00  0.00    -0.617 OA
ENDBRANCH  16  17
ENDBRANCH  15  16
ENDBRANCH   1  15
BRANCH   1  21
HETATM   21  C4  UNL     1      14.472   4.437   3.414  1.00  0.00     0.065 C 
BRANCH  21  22
HETATM   22  C5  UNL     1      14.176   5.798   2.906  1.00  0.00    -0.056 A 
HETATM   23  C6  UNL     1      14.555   6.901   3.643  1.00  0.00     0.007 A 
HETATM   24  C7  UNL     1      14.303   8.193   3.213  1.00  0.00     0.001 A 
HETATM   25  C8  UNL     1      13.651   8.378   2.006  1.00  0.00     0.000 A 
HETATM   26  C9  UNL     1      13.282   7.260   1.287  1.00  0.00     0.001 A 
HETATM   27  C10 UNL     1      13.527   5.991   1.705  1.00  0.00     0.007 A 
ENDBRANCH  21  22
ENDBRANCH   1  21
TORSDOF 7
ENDMDL
