MODEL 2
REMARK VINA RESULT: -7.089866417      3.870      5.421
REMARK  7 active torsions:
REMARK  status: ('A' for Active; 'I' for Inactive)
REMARK       I    between atoms: C1_2  and  N1_3 
REMARK    1  A    between atoms: C1_2  and  C11_19 
REMARK    2  A    between atoms: N1_3  and  C2_5 
REMARK    3  A    between atoms: C2_5  and  C3_6 
REMARK    4  A    between atoms: C2_5  and  C4_12 
REMARK    5  A    between atoms: C3_6  and  O2_7 
REMARK    6  A    between atoms: O2_7  and  P1_8 
REMARK    7  A    between atoms: C4_12  and  C5_13 
ROOT
HETATM    1  C2  UNL     1      14.007   3.295   1.878  1.00  0.00     0.113 C 
ENDROOT
BRANCH   1   2
HETATM    2  N1  UNL     1      13.907   2.136   1.024  1.00  0.00    -0.349 N 
HETATM    3  C1  UNL     1      12.899   1.176   1.269  1.00  0.00     0.259 C 
HETATM    4  O1  UNL     1      12.078   1.293   2.213  1.00  0.00    -0.267 OA
ATOM      5  H1  UNL     1      14.559   2.011   0.249  1.00  0.00     0.163 HD
BRANCH   3   6
HETATM    6  C11 UNL     1      12.796  -0.005   0.399  1.00  0.00     0.074 A 
HETATM    7  C12 UNL     1      13.649  -0.421  -0.587  1.00  0.00     0.037 A 
HETATM    8  C13 UNL     1      13.326  -1.551  -1.247  1.00  0.00    -0.018 A 
HETATM    9  C14 UNL     1      14.064  -2.150  -2.292  1.00  0.00     0.013 A 
HETATM   10  C18 UNL     1      12.175  -2.187  -0.878  1.00  0.00     0.016 A 
HETATM   11  C15 UNL     1      13.601  -3.306  -2.865  1.00  0.00     0.001 A 
HETATM   12  C16 UNL     1      12.446  -3.959  -2.508  1.00  0.00     0.001 A 
HETATM   13  C17 UNL     1      11.723  -3.372  -1.484  1.00  0.00     0.019 A 
HETATM   14  S1  UNL     1      11.576  -1.189   0.381  1.00  0.00    -0.084 SA
ENDBRANCH   3   6
ENDBRANCH   1   2
BRANCH   1  15
HETATM   15  C3  UNL     1      14.681   2.979   3.188  1.00  0.00     0.208 C 
BRANCH  15  16
HETATM   16  O2  UNL     1      16.021   2.732   2.879  1.00  0.00    -0.281 OA
BRANCH  16  17
HETATM   17  P1  UNL     1      16.482   1.279   3.074  1.00  0.00     0.422 P 
HETATM   18  O3  UNL     1      17.158  -0.109   3.119  1.00  0.00    -0.617 OA
HETATM   19  O4  UNL     1      16.516   1.184   1.400  1.00  0.00    -0.617 OA
HETATM   20  O5  UNL     1      15.128   0.884   3.861  1.00  0.00    -0.617 OA
ENDBRANCH  16  17
ENDBRANCH  15  16
ENDBRANCH   1  15
BRANCH   1  21
HETATM   21  C4  UNL     1      14.795   4.334   1.093  1.00  0.00     0.065 C 
BRANCH  21  22
HETATM   22  C5  UNL     1      14.534   5.697   1.617  1.00  0.00    -0.056 A 
HETATM   23  C6  UNL     1      13.452   6.413   1.149  1.00  0.00     0.007 A 
HETATM   24  C7  UNL     1      13.165   7.689   1.606  1.00  0.00     0.001 A 
HETATM   25  C8  UNL     1      13.991   8.257   2.561  1.00  0.00     0.000 A 
HETATM   26  C9  UNL     1      15.066   7.520   3.013  1.00  0.00     0.001 A 
HETATM   27  C10 UNL     1      15.352   6.269   2.567  1.00  0.00     0.007 A 
ENDBRANCH  21  22
ENDBRANCH   1  21
TORSDOF 7
ENDMDL
