MODEL 1
REMARK VINA RESULT: -7.133525376      0.000      0.000
REMARK  7 active torsions:
REMARK  status: ('A' for Active; 'I' for Inactive)
REMARK       I    between atoms: C1_2  and  N1_3 
REMARK    1  A    between atoms: C1_2  and  C11_19 
REMARK    2  A    between atoms: N1_3  and  C2_5 
REMARK    3  A    between atoms: C2_5  and  C3_6 
REMARK    4  A    between atoms: C2_5  and  C4_12 
REMARK    5  A    between atoms: C3_6  and  O2_7 
REMARK    6  A    between atoms: O2_7  and  P1_8 
REMARK    7  A    between atoms: C4_12  and  C5_13 
ROOT
HETATM    1  C2  UNL     1      15.101   3.916   1.809  1.00  0.00     0.113 C 
ENDROOT
BRANCH   1   2
HETATM    2  N1  UNL     1      13.693   4.064   1.529  1.00  0.00    -0.349 N 
HETATM    3  C1  UNL     1      12.766   4.043   2.595  1.00  0.00     0.259 C 
HETATM    4  O1  UNL     1      13.123   3.899   3.791  1.00  0.00    -0.267 OA
ATOM      5  H1  UNL     1      13.370   4.182   0.568  1.00  0.00     0.163 HD
BRANCH   3   6
HETATM    6  C11 UNL     1      11.331   4.194   2.311  1.00  0.00     0.074 A 
HETATM    7  C12 UNL     1      10.616   5.340   2.094  1.00  0.00     0.037 A 
HETATM    8  C13 UNL     1       9.296   5.209   1.851  1.00  0.00    -0.018 A 
HETATM    9  C14 UNL     1       8.382   6.257   1.604  1.00  0.00     0.013 A 
HETATM   10  C18 UNL     1       8.783   3.943   1.840  1.00  0.00     0.016 A 
HETATM   11  C15 UNL     1       7.065   5.958   1.371  1.00  0.00     0.001 A 
HETATM   12  C16 UNL     1       6.530   4.693   1.358  1.00  0.00     0.001 A 
HETATM   13  C17 UNL     1       7.426   3.666   1.600  1.00  0.00     0.019 A 
HETATM   14  S1  UNL     1      10.158   2.973   2.170  1.00  0.00    -0.084 SA
ENDBRANCH   3   6
ENDBRANCH   1   2
BRANCH   1  15
HETATM   15  C3  UNL     1      15.698   2.720   1.112  1.00  0.00     0.208 C 
BRANCH  15  16
HETATM   16  O2  UNL     1      16.821   2.361   1.863  1.00  0.00    -0.281 OA
BRANCH  16  17
HETATM   17  P1  UNL     1      16.604   1.211   2.858  1.00  0.00     0.422 P 
HETATM   18  O3  UNL     1      16.510   0.217   4.037  1.00  0.00    -0.617 OA
HETATM   19  O4  UNL     1      18.265   1.249   3.091  1.00  0.00    -0.617 OA
HETATM   20  O5  UNL     1      15.987   0.249   1.716  1.00  0.00    -0.617 OA
ENDBRANCH  16  17
ENDBRANCH  15  16
ENDBRANCH   1  15
BRANCH   1  21
HETATM   21  C4  UNL     1      15.763   5.206   1.347  1.00  0.00     0.065 C 
BRANCH  21  22
HETATM   22  C5  UNL     1      15.114   6.383   1.974  1.00  0.00    -0.056 A 
HETATM   23  C6  UNL     1      15.398   6.704   3.284  1.00  0.00     0.007 A 
HETATM   24  C7  UNL     1      14.819   7.793   3.916  1.00  0.00     0.001 A 
HETATM   25  C8  UNL     1      13.929   8.579   3.205  1.00  0.00     0.000 A 
HETATM   26  C9  UNL     1      13.661   8.238   1.895  1.00  0.00     0.001 A 
HETATM   27  C10 UNL     1      14.226   7.170   1.272  1.00  0.00     0.007 A 
ENDBRANCH  21  22
ENDBRANCH   1  21
TORSDOF 7
ENDMDL
