MODEL 19
REMARK VINA RESULT: -6.416116124      3.993      6.051
REMARK  7 active torsions:
REMARK  status: ('A' for Active; 'I' for Inactive)
REMARK       I    between atoms: C1_2  and  N1_3 
REMARK    1  A    between atoms: C1_2  and  C11_19 
REMARK    2  A    between atoms: N1_3  and  C2_5 
REMARK    3  A    between atoms: C2_5  and  C3_6 
REMARK    4  A    between atoms: C2_5  and  C4_12 
REMARK    5  A    between atoms: C3_6  and  O2_7 
REMARK    6  A    between atoms: O2_7  and  P1_8 
REMARK    7  A    between atoms: C4_12  and  C5_13 
ROOT
HETATM    1  C2  UNL     1      14.363   3.518   2.015  1.00  0.00     0.113 C 
ENDROOT
BRANCH   1   2
HETATM    2  N1  UNL     1      14.471   2.333   1.198  1.00  0.00    -0.349 N 
HETATM    3  C1  UNL     1      13.338   1.506   1.020  1.00  0.00     0.259 C 
HETATM    4  O1  UNL     1      12.229   1.765   1.550  1.00  0.00    -0.267 OA
ATOM      5  H1  UNL     1      15.357   2.094   0.754  1.00  0.00     0.163 HD
BRANCH   3   6
HETATM    6  C11 UNL     1      13.447   0.299   0.188  1.00  0.00     0.074 A 
HETATM    7  C12 UNL     1      12.533  -0.702   0.004  1.00  0.00     0.037 A 
HETATM    8  C13 UNL     1      12.877  -1.712  -0.820  1.00  0.00    -0.018 A 
HETATM    9  C14 UNL     1      12.085  -2.836  -1.143  1.00  0.00     0.013 A 
HETATM   10  C18 UNL     1      14.111  -1.652  -1.404  1.00  0.00     0.016 A 
HETATM   11  C15 UNL     1      12.581  -3.781  -2.004  1.00  0.00     0.001 A 
HETATM   12  C16 UNL     1      13.817  -3.739  -2.600  1.00  0.00     0.001 A 
HETATM   13  C17 UNL     1      14.593  -2.638  -2.283  1.00  0.00     0.019 A 
HETATM   14  S1  UNL     1      14.754  -0.188  -0.786  1.00  0.00    -0.084 SA
ENDBRANCH   3   6
ENDBRANCH   1   2
BRANCH   1  15
HETATM   15  C3  UNL     1      14.902   3.302   3.406  1.00  0.00     0.208 C 
BRANCH  15  16
HETATM   16  O2  UNL     1      13.786   3.063   4.215  1.00  0.00    -0.281 OA
BRANCH  16  17
HETATM   17  P1  UNL     1      12.926   4.298   4.527  1.00  0.00     0.422 P 
HETATM   18  O3  UNL     1      12.273   5.680   4.747  1.00  0.00    -0.617 OA
HETATM   19  O4  UNL     1      14.206   4.808   5.483  1.00  0.00    -0.617 OA
HETATM   20  O5  UNL     1      11.756   3.399   5.184  1.00  0.00    -0.617 OA
ENDBRANCH  16  17
ENDBRANCH  15  16
ENDBRANCH   1  15
BRANCH   1  21
HETATM   21  C4  UNL     1      15.141   4.605   1.289  1.00  0.00     0.065 C 
BRANCH  21  22
HETATM   22  C5  UNL     1      14.730   5.950   1.763  1.00  0.00    -0.056 A 
HETATM   23  C6  UNL     1      13.609   6.550   1.229  1.00  0.00     0.007 A 
HETATM   24  C7  UNL     1      13.183   7.804   1.636  1.00  0.00     0.001 A 
HETATM   25  C8  UNL     1      13.909   8.470   2.609  1.00  0.00     0.000 A 
HETATM   26  C9  UNL     1      15.026   7.849   3.128  1.00  0.00     0.001 A 
HETATM   27  C10 UNL     1      15.448   6.619   2.731  1.00  0.00     0.007 A 
ENDBRANCH  21  22
ENDBRANCH   1  21
TORSDOF 7
ENDMDL
