MODEL 7
REMARK VINA RESULT: -7.178345474      4.102      4.993
REMARK  7 active torsions:
REMARK  status: ('A' for Active; 'I' for Inactive)
REMARK    1  A    between atoms: C6_6  and  C7_7 
REMARK    2  A    between atoms: C7_7  and  C8_8 
REMARK    3  A    between atoms: C8_8  and  C9_9 
REMARK    4  A    between atoms: C8_8  and  N1_15 
REMARK    5  A    between atoms: C9_9  and  O1_10 
REMARK    6  A    between atoms: O1_10  and  P1_11 
REMARK       I    between atoms: N1_15  and  C10_17 
REMARK    7  A    between atoms: C10_17  and  C11_19 
ROOT
HETATM    1  C8  UNL     1      14.598   3.613   2.252  1.00  0.00     0.113 C 
ENDROOT
BRANCH   1   2
HETATM    2  C7  UNL     1      15.385   4.874   2.034  1.00  0.00     0.065 C 
BRANCH   2   3
HETATM    3  C6  UNL     1      14.981   5.905   3.009  1.00  0.00    -0.056 A 
HETATM    4  C5  UNL     1      15.096   7.233   2.655  1.00  0.00     0.007 A 
HETATM    5  C4  UNL     1      14.710   8.171   3.589  1.00  0.00     0.001 A 
HETATM    6  C3  UNL     1      14.226   7.824   4.830  1.00  0.00     0.007 A 
HETATM    7  C2  UNL     1      14.107   6.500   5.190  1.00  0.00    -0.061 A 
HETATM    8  C1  UNL     1      13.586   6.088   6.526  1.00  0.00     0.048 C 
HETATM    9  C19 UNL     1      14.497   5.553   4.250  1.00  0.00     0.013 A 
ENDBRANCH   2   3
ENDBRANCH   1   2
BRANCH   1  10
HETATM   10  C9  UNL     1      15.501   2.433   2.088  1.00  0.00     0.208 C 
BRANCH  10  11
HETATM   11  O1  UNL     1      16.081   2.157   3.297  1.00  0.00    -0.281 OA
BRANCH  11  12
HETATM   12  P1  UNL     1      16.603   0.589   3.264  1.00  0.00     0.422 P 
HETATM   13  O2  UNL     1      16.557  -0.293   4.694  1.00  0.00    -0.617 OA
HETATM   14  O3  UNL     1      16.914  -0.184   1.873  1.00  0.00    -0.617 OA
HETATM   15  O4  UNL     1      18.029   1.026   3.589  1.00  0.00    -0.617 OA
ENDBRANCH  11  12
ENDBRANCH  10  11
ENDBRANCH   1  10
BRANCH   1  16
HETATM   16  N1  UNL     1      13.408   3.538   1.437  1.00  0.00    -0.349 N 
HETATM   17  C10 UNL     1      12.102   3.533   1.927  1.00  0.00     0.259 C 
HETATM   18  O5  UNL     1      11.894   3.597   3.148  1.00  0.00    -0.267 OA
ATOM     19  H1  UNL     1      13.532   3.483   0.426  1.00  0.00     0.163 HD
BRANCH  17  20
HETATM   20  C11 UNL     1      10.944   3.452   1.007  1.00  0.00     0.074 A 
HETATM   21  C12 UNL     1       9.912   4.344   0.878  1.00  0.00     0.037 A 
HETATM   22  C13 UNL     1       8.961   4.059  -0.035  1.00  0.00    -0.018 A 
HETATM   23  C14 UNL     1       7.822   4.822  -0.337  1.00  0.00     0.013 A 
HETATM   24  C18 UNL     1       9.108   2.910  -0.752  1.00  0.00     0.016 A 
HETATM   25  C15 UNL     1       6.940   4.419  -1.283  1.00  0.00     0.001 A 
HETATM   26  C16 UNL     1       7.076   3.259  -2.015  1.00  0.00     0.001 A 
HETATM   27  C17 UNL     1       8.191   2.502  -1.728  1.00  0.00     0.019 A 
HETATM   28  S1  UNL     1      10.558   2.253  -0.143  1.00  0.00    -0.084 SA
ENDBRANCH  17  20
ENDBRANCH   1  16
TORSDOF 7
ENDMDL
