MODEL 6
REMARK VINA RESULT: -7.210737393      4.181      5.314
REMARK  7 active torsions:
REMARK  status: ('A' for Active; 'I' for Inactive)
REMARK    1  A    between atoms: C6_6  and  C7_7 
REMARK    2  A    between atoms: C7_7  and  C8_8 
REMARK    3  A    between atoms: C8_8  and  C9_9 
REMARK    4  A    between atoms: C8_8  and  N1_15 
REMARK    5  A    between atoms: C9_9  and  O1_10 
REMARK    6  A    between atoms: O1_10  and  P1_11 
REMARK       I    between atoms: N1_15  and  C10_17 
REMARK    7  A    between atoms: C10_17  and  C11_19 
ROOT
HETATM    1  C8  UNL     1      14.765   3.706   1.890  1.00  0.00     0.113 C 
ENDROOT
BRANCH   1   2
HETATM    2  C7  UNL     1      15.639   4.927   1.924  1.00  0.00     0.065 C 
BRANCH   2   3
HETATM    3  C6  UNL     1      15.112   5.907   2.892  1.00  0.00    -0.056 A 
HETATM    4  C5  UNL     1      15.075   7.239   2.535  1.00  0.00     0.007 A 
HETATM    5  C4  UNL     1      14.577   8.129   3.462  1.00  0.00     0.001 A 
HETATM    6  C3  UNL     1      14.127   7.732   4.701  1.00  0.00     0.007 A 
HETATM    7  C2  UNL     1      14.160   6.404   5.066  1.00  0.00    -0.061 A 
HETATM    8  C1  UNL     1      13.681   5.939   6.399  1.00  0.00     0.048 C 
HETATM    9  C19 UNL     1      14.663   5.505   4.132  1.00  0.00     0.013 A 
ENDBRANCH   2   3
ENDBRANCH   1   2
BRANCH   1  10
HETATM   10  C9  UNL     1      15.506   2.586   1.232  1.00  0.00     0.208 C 
BRANCH  10  11
HETATM   11  O1  UNL     1      16.629   2.316   1.966  1.00  0.00    -0.281 OA
BRANCH  11  12
HETATM   12  P1  UNL     1      16.399   0.870   2.733  1.00  0.00     0.422 P 
HETATM   13  O2  UNL     1      15.117   0.739   3.812  1.00  0.00    -0.617 OA
HETATM   14  O3  UNL     1      17.201  -0.470   2.297  1.00  0.00    -0.617 OA
HETATM   15  O4  UNL     1      17.309   1.301   3.880  1.00  0.00    -0.617 OA
ENDBRANCH  11  12
ENDBRANCH  10  11
ENDBRANCH   1  10
BRANCH   1  16
HETATM   16  N1  UNL     1      13.467   3.952   1.306  1.00  0.00    -0.349 N 
HETATM   17  C10 UNL     1      12.257   3.486   1.821  1.00  0.00     0.259 C 
HETATM   18  O5  UNL     1      12.241   2.805   2.857  1.00  0.00    -0.267 OA
ATOM     19  H1  UNL     1      13.433   4.508   0.452  1.00  0.00     0.163 HD
BRANCH  17  20
HETATM   20  C11 UNL     1      10.975   3.794   1.145  1.00  0.00     0.074 A 
HETATM   21  C12 UNL     1      10.543   3.348  -0.076  1.00  0.00     0.037 A 
HETATM   22  C13 UNL     1       9.329   3.764  -0.490  1.00  0.00    -0.018 A 
HETATM   23  C14 UNL     1       8.689   3.438  -1.697  1.00  0.00     0.013 A 
HETATM   24  C18 UNL     1       8.635   4.592   0.340  1.00  0.00     0.016 A 
HETATM   25  C15 UNL     1       7.460   3.927  -1.992  1.00  0.00     0.001 A 
HETATM   26  C16 UNL     1       6.748   4.765  -1.161  1.00  0.00     0.001 A 
HETATM   27  C17 UNL     1       7.366   5.093   0.026  1.00  0.00     0.019 A 
HETATM   28  S1  UNL     1       9.681   4.773   1.673  1.00  0.00    -0.084 SA
ENDBRANCH  17  20
ENDBRANCH   1  16
TORSDOF 7
ENDMDL
