MODEL 13
REMARK VINA RESULT: -6.909616596      4.756      7.651
REMARK  7 active torsions:
REMARK  status: ('A' for Active; 'I' for Inactive)
REMARK    1  A    between atoms: C6_6  and  C7_7 
REMARK    2  A    between atoms: C7_7  and  C8_8 
REMARK    3  A    between atoms: C8_8  and  C9_9 
REMARK    4  A    between atoms: C8_8  and  N1_15 
REMARK    5  A    between atoms: C9_9  and  O1_10 
REMARK    6  A    between atoms: O1_10  and  P1_11 
REMARK       I    between atoms: N1_15  and  C10_17 
REMARK    7  A    between atoms: C10_17  and  C11_19 
ROOT
HETATM    1  C8  UNL     1      14.328   3.333   3.476  1.00  0.00     0.113 C 
ENDROOT
BRANCH   1   2
HETATM    2  C7  UNL     1      14.274   3.912   2.091  1.00  0.00     0.065 C 
BRANCH   2   3
HETATM    3  C6  UNL     1      14.369   5.383   2.147  1.00  0.00    -0.056 A 
HETATM    4  C5  UNL     1      13.619   6.130   1.263  1.00  0.00     0.007 A 
HETATM    5  C4  UNL     1      13.730   7.502   1.342  1.00  0.00     0.001 A 
HETATM    6  C3  UNL     1      14.547   8.127   2.257  1.00  0.00     0.007 A 
HETATM    7  C2  UNL     1      15.298   7.388   3.144  1.00  0.00    -0.061 A 
HETATM    8  C1  UNL     1      16.193   8.032   4.149  1.00  0.00     0.048 C 
HETATM    9  C19 UNL     1      15.188   6.004   3.065  1.00  0.00     0.013 A 
ENDBRANCH   2   3
ENDBRANCH   1   2
BRANCH   1  10
HETATM   10  C9  UNL     1      14.672   1.880   3.391  1.00  0.00     0.208 C 
BRANCH  10  11
HETATM   11  O1  UNL     1      16.011   1.736   3.632  1.00  0.00    -0.281 OA
BRANCH  11  12
HETATM   12  P1  UNL     1      16.632   0.737   2.471  1.00  0.00     0.422 P 
HETATM   13  O2  UNL     1      16.486   1.203   0.863  1.00  0.00    -0.617 OA
HETATM   14  O3  UNL     1      17.578  -0.527   2.841  1.00  0.00    -0.617 OA
HETATM   15  O4  UNL     1      15.306  -0.012   2.365  1.00  0.00    -0.617 OA
ENDBRANCH  11  12
ENDBRANCH  10  11
ENDBRANCH   1  10
BRANCH   1  16
HETATM   16  N1  UNL     1      13.133   3.591   4.246  1.00  0.00    -0.349 N 
HETATM   17  C10 UNL     1      13.106   4.206   5.498  1.00  0.00     0.259 C 
HETATM   18  O5  UNL     1      14.161   4.578   6.033  1.00  0.00    -0.267 OA
ATOM     19  H1  UNL     1      12.241   3.301   3.844  1.00  0.00     0.163 HD
BRANCH  17  20
HETATM   20  C11 UNL     1      11.825   4.426   6.210  1.00  0.00     0.074 A 
HETATM   21  C12 UNL     1      10.768   5.201   5.812  1.00  0.00     0.037 A 
HETATM   22  C13 UNL     1       9.697   5.251   6.630  1.00  0.00    -0.018 A 
HETATM   23  C14 UNL     1       8.511   5.974   6.428  1.00  0.00     0.013 A 
HETATM   24  C18 UNL     1       9.758   4.527   7.782  1.00  0.00     0.016 A 
HETATM   25  C15 UNL     1       7.505   5.937   7.335  1.00  0.00     0.001 A 
HETATM   26  C16 UNL     1       7.553   5.209   8.505  1.00  0.00     0.001 A 
HETATM   27  C17 UNL     1       8.713   4.495   8.714  1.00  0.00     0.019 A 
HETATM   28  S1  UNL     1      11.295   3.796   7.703  1.00  0.00    -0.084 SA
ENDBRANCH  17  20
ENDBRANCH   1  16
TORSDOF 7
ENDMDL
