MODEL 5
REMARK VINA RESULT: -7.234576397      4.117      5.080
REMARK  7 active torsions:
REMARK  status: ('A' for Active; 'I' for Inactive)
REMARK    1  A    between atoms: C6_6  and  C7_7 
REMARK    2  A    between atoms: C7_7  and  C8_8 
REMARK    3  A    between atoms: C8_8  and  C9_9 
REMARK    4  A    between atoms: C8_8  and  N1_15 
REMARK    5  A    between atoms: C9_9  and  O1_10 
REMARK    6  A    between atoms: O1_10  and  P1_11 
REMARK       I    between atoms: N1_15  and  C10_17 
REMARK    7  A    between atoms: C10_17  and  C11_19 
ROOT
HETATM    1  C8  UNL     1      14.031   3.149   2.510  1.00  0.00     0.113 C 
ENDROOT
BRANCH   1   2
HETATM    2  C7  UNL     1      15.231   3.914   2.026  1.00  0.00     0.065 C 
BRANCH   2   3
HETATM    3  C6  UNL     1      15.010   5.364   2.182  1.00  0.00    -0.056 A 
HETATM    4  C5  UNL     1      14.242   6.022   1.244  1.00  0.00     0.007 A 
HETATM    5  C4  UNL     1      14.054   7.377   1.419  1.00  0.00     0.001 A 
HETATM    6  C3  UNL     1      14.600   8.069   2.476  1.00  0.00     0.007 A 
HETATM    7  C2  UNL     1      15.368   7.419   3.417  1.00  0.00    -0.061 A 
HETATM    8  C1  UNL     1      15.973   8.137   4.576  1.00  0.00     0.048 C 
HETATM    9  C19 UNL     1      15.558   6.053   3.242  1.00  0.00     0.013 A 
ENDBRANCH   2   3
ENDBRANCH   1   2
BRANCH   1  10
HETATM   10  C9  UNL     1      14.408   1.717   2.715  1.00  0.00     0.208 C 
BRANCH  10  11
HETATM   11  O1  UNL     1      15.432   1.662   3.621  1.00  0.00    -0.281 OA
BRANCH  11  12
HETATM   12  P1  UNL     1      16.348   0.330   3.272  1.00  0.00     0.422 P 
HETATM   13  O2  UNL     1      16.515  -0.850   4.457  1.00  0.00    -0.617 OA
HETATM   14  O3  UNL     1      16.871   0.017   1.770  1.00  0.00    -0.617 OA
HETATM   15  O4  UNL     1      17.604   1.022   3.796  1.00  0.00    -0.617 OA
ENDBRANCH  11  12
ENDBRANCH  10  11
ENDBRANCH   1  10
BRANCH   1  16
HETATM   16  N1  UNL     1      12.871   3.318   1.665  1.00  0.00    -0.349 N 
HETATM   17  C10 UNL     1      11.617   3.741   2.106  1.00  0.00     0.259 C 
HETATM   18  O5  UNL     1      11.432   4.005   3.303  1.00  0.00    -0.267 OA
ATOM     19  H1  UNL     1      12.977   3.112   0.672  1.00  0.00     0.163 HD
BRANCH  17  20
HETATM   20  C11 UNL     1      10.487   3.884   1.158  1.00  0.00     0.074 A 
HETATM   21  C12 UNL     1      10.348   3.300  -0.074  1.00  0.00     0.037 A 
HETATM   22  C13 UNL     1       9.223   3.578  -0.764  1.00  0.00    -0.018 A 
HETATM   23  C14 UNL     1       8.870   3.098  -2.035  1.00  0.00     0.013 A 
HETATM   24  C18 UNL     1       8.321   4.415  -0.179  1.00  0.00     0.016 A 
HETATM   25  C15 UNL     1       7.702   3.458  -2.620  1.00  0.00     0.001 A 
HETATM   26  C16 UNL     1       6.781   4.304  -2.039  1.00  0.00     0.001 A 
HETATM   27  C17 UNL     1       7.117   4.782  -0.791  1.00  0.00     0.019 A 
HETATM   28  S1  UNL     1       9.054   4.796   1.312  1.00  0.00    -0.084 SA
ENDBRANCH  17  20
ENDBRANCH   1  16
TORSDOF 7
ENDMDL
