MODEL 4
REMARK VINA RESULT: -7.240791111      3.836      4.476
REMARK  7 active torsions:
REMARK  status: ('A' for Active; 'I' for Inactive)
REMARK    1  A    between atoms: C6_6  and  C7_7 
REMARK    2  A    between atoms: C7_7  and  C8_8 
REMARK    3  A    between atoms: C8_8  and  C9_9 
REMARK    4  A    between atoms: C8_8  and  N1_15 
REMARK    5  A    between atoms: C9_9  and  O1_10 
REMARK    6  A    between atoms: O1_10  and  P1_11 
REMARK       I    between atoms: N1_15  and  C10_17 
REMARK    7  A    between atoms: C10_17  and  C11_19 
ROOT
HETATM    1  C8  UNL     1      14.136   2.937   2.142  1.00  0.00     0.113 C 
ENDROOT
BRANCH   1   2
HETATM    2  C7  UNL     1      15.175   3.801   1.484  1.00  0.00     0.065 C 
BRANCH   2   3
HETATM    3  C6  UNL     1      14.928   5.222   1.792  1.00  0.00    -0.056 A 
HETATM    4  C5  UNL     1      13.992   5.909   1.047  1.00  0.00     0.007 A 
HETATM    5  C4  UNL     1      13.785   7.235   1.360  1.00  0.00     0.001 A 
HETATM    6  C3  UNL     1      14.470   7.873   2.369  1.00  0.00     0.007 A 
HETATM    7  C2  UNL     1      15.406   7.194   3.118  1.00  0.00    -0.061 A 
HETATM    8  C1  UNL     1      16.167   7.853   4.219  1.00  0.00     0.048 C 
HETATM    9  C19 UNL     1      15.617   5.856   2.803  1.00  0.00     0.013 A 
ENDBRANCH   2   3
ENDBRANCH   1   2
BRANCH   1  10
HETATM   10  C9  UNL     1      14.782   1.689   2.653  1.00  0.00     0.208 C 
BRANCH  10  11
HETATM   11  O1  UNL     1      16.033   2.003   3.109  1.00  0.00    -0.281 OA
BRANCH  11  12
HETATM   12  P1  UNL     1      16.888   0.595   3.257  1.00  0.00     0.422 P 
HETATM   13  O2  UNL     1      18.562   0.666   3.128  1.00  0.00    -0.617 OA
HETATM   14  O3  UNL     1      16.195  -0.781   3.761  1.00  0.00    -0.617 OA
HETATM   15  O4  UNL     1      16.791   0.345   1.754  1.00  0.00    -0.617 OA
ENDBRANCH  11  12
ENDBRANCH  10  11
ENDBRANCH   1  10
BRANCH   1  16
HETATM   16  N1  UNL     1      12.992   2.682   1.297  1.00  0.00    -0.349 N 
HETATM   17  C10 UNL     1      11.699   3.147   1.539  1.00  0.00     0.259 C 
HETATM   18  O5  UNL     1      11.462   3.837   2.542  1.00  0.00    -0.267 OA
ATOM     19  H1  UNL     1      13.140   2.118   0.460  1.00  0.00     0.163 HD
BRANCH  17  20
HETATM   20  C11 UNL     1      10.590   2.830   0.610  1.00  0.00     0.074 A 
HETATM   21  C12 UNL     1      10.047   3.638  -0.354  1.00  0.00     0.037 A 
HETATM   22  C13 UNL     1       9.035   3.130  -1.086  1.00  0.00    -0.018 A 
HETATM   23  C14 UNL     1       8.332   3.771  -2.119  1.00  0.00     0.013 A 
HETATM   24  C18 UNL     1       8.639   1.856  -0.806  1.00  0.00     0.016 A 
HETATM   25  C15 UNL     1       7.330   3.143  -2.780  1.00  0.00     0.001 A 
HETATM   26  C16 UNL     1       6.920   1.855  -2.506  1.00  0.00     0.001 A 
HETATM   27  C17 UNL     1       7.602   1.215  -1.494  1.00  0.00     0.019 A 
HETATM   28  S1  UNL     1       9.678   1.396   0.463  1.00  0.00    -0.084 SA
ENDBRANCH  17  20
ENDBRANCH   1  16
TORSDOF 7
ENDMDL
