MODEL 2
REMARK VINA RESULT: -7.336593179      3.970      4.965
REMARK  7 active torsions:
REMARK  status: ('A' for Active; 'I' for Inactive)
REMARK    1  A    between atoms: C6_6  and  C7_7 
REMARK    2  A    between atoms: C7_7  and  C8_8 
REMARK    3  A    between atoms: C8_8  and  C9_9 
REMARK    4  A    between atoms: C8_8  and  N1_15 
REMARK    5  A    between atoms: C9_9  and  O1_10 
REMARK    6  A    between atoms: O1_10  and  P1_11 
REMARK       I    between atoms: N1_15  and  C10_17 
REMARK    7  A    between atoms: C10_17  and  C11_19 
ROOT
HETATM    1  C8  UNL     1      14.319   3.163   2.411  1.00  0.00     0.113 C 
ENDROOT
BRANCH   1   2
HETATM    2  C7  UNL     1      15.435   4.019   1.882  1.00  0.00     0.065 C 
BRANCH   2   3
HETATM    3  C6  UNL     1      15.136   5.446   2.105  1.00  0.00    -0.056 A 
HETATM    4  C5  UNL     1      14.285   6.089   1.231  1.00  0.00     0.007 A 
HETATM    5  C4  UNL     1      14.025   7.422   1.468  1.00  0.00     0.001 A 
HETATM    6  C3  UNL     1      14.579   8.107   2.526  1.00  0.00     0.007 A 
HETATM    7  C2  UNL     1      15.429   7.471   3.404  1.00  0.00    -0.061 A 
HETATM    8  C1  UNL     1      16.046   8.182   4.561  1.00  0.00     0.048 C 
HETATM    9  C19 UNL     1      15.692   6.127   3.166  1.00  0.00     0.013 A 
ENDBRANCH   2   3
ENDBRANCH   1   2
BRANCH   1  10
HETATM   10  C9  UNL     1      14.837   1.786   2.679  1.00  0.00     0.208 C 
BRANCH  10  11
HETATM   11  O1  UNL     1      15.987   1.889   3.413  1.00  0.00    -0.281 OA
BRANCH  11  12
HETATM   12  P1  UNL     1      16.685   0.392   3.477  1.00  0.00     0.422 P 
HETATM   13  O2  UNL     1      16.658  -0.435   4.939  1.00  0.00    -0.617 OA
HETATM   14  O3  UNL     1      17.162  -0.391   2.139  1.00  0.00    -0.617 OA
HETATM   15  O4  UNL     1      18.031   1.003   3.857  1.00  0.00    -0.617 OA
ENDBRANCH  11  12
ENDBRANCH  10  11
ENDBRANCH   1  10
BRANCH   1  16
HETATM   16  N1  UNL     1      13.145   3.176   1.569  1.00  0.00    -0.349 N 
HETATM   17  C10 UNL     1      11.869   3.560   1.983  1.00  0.00     0.259 C 
HETATM   18  O5  UNL     1      11.676   3.926   3.153  1.00  0.00    -0.267 OA
ATOM     19  H1  UNL     1      13.257   2.882   0.599  1.00  0.00     0.163 HD
BRANCH  17  20
HETATM   20  C11 UNL     1      10.726   3.539   1.042  1.00  0.00     0.074 A 
HETATM   21  C12 UNL     1       9.706   4.449   0.940  1.00  0.00     0.037 A 
HETATM   22  C13 UNL     1       8.767   4.221  -0.001  1.00  0.00    -0.018 A 
HETATM   23  C14 UNL     1       7.642   5.011  -0.282  1.00  0.00     0.013 A 
HETATM   24  C18 UNL     1       8.912   3.106  -0.770  1.00  0.00     0.016 A 
HETATM   25  C15 UNL     1       6.771   4.667  -1.261  1.00  0.00     0.001 A 
HETATM   26  C16 UNL     1       6.906   3.542  -2.047  1.00  0.00     0.001 A 
HETATM   27  C17 UNL     1       8.007   2.758  -1.780  1.00  0.00     0.019 A 
HETATM   28  S1  UNL     1      10.344   2.402  -0.172  1.00  0.00    -0.084 SA
ENDBRANCH  17  20
ENDBRANCH   1  16
TORSDOF 7
ENDMDL
