MODEL 1
REMARK VINA RESULT: -7.505918603      0.000      0.000
REMARK  7 active torsions:
REMARK  status: ('A' for Active; 'I' for Inactive)
REMARK    1  A    between atoms: C6_6  and  C7_7 
REMARK    2  A    between atoms: C7_7  and  C8_8 
REMARK    3  A    between atoms: C8_8  and  C9_9 
REMARK    4  A    between atoms: C8_8  and  N1_15 
REMARK    5  A    between atoms: C9_9  and  O1_10 
REMARK    6  A    between atoms: O1_10  and  P1_11 
REMARK       I    between atoms: N1_15  and  C10_17 
REMARK    7  A    between atoms: C10_17  and  C11_19 
ROOT
HETATM    1  C8  UNL     1      14.561   2.802   1.670  1.00  0.00     0.113 C 
ENDROOT
BRANCH   1   2
HETATM    2  C7  UNL     1      15.572   3.828   1.243  1.00  0.00     0.065 C 
BRANCH   2   3
HETATM    3  C6  UNL     1      15.125   5.179   1.630  1.00  0.00    -0.056 A 
HETATM    4  C5  UNL     1      14.039   5.729   0.982  1.00  0.00     0.007 A 
HETATM    5  C4  UNL     1      13.646   6.993   1.368  1.00  0.00     0.001 A 
HETATM    6  C3  UNL     1      14.293   7.699   2.356  1.00  0.00     0.007 A 
HETATM    7  C2  UNL     1      15.379   7.158   3.008  1.00  0.00    -0.061 A 
HETATM    8  C1  UNL     1      16.104   7.895   4.083  1.00  0.00     0.048 C 
HETATM    9  C19 UNL     1      15.777   5.883   2.620  1.00  0.00     0.013 A 
ENDBRANCH   2   3
ENDBRANCH   1   2
BRANCH   1  10
HETATM   10  C9  UNL     1      14.762   2.482   3.116  1.00  0.00     0.208 C 
BRANCH  10  11
HETATM   11  O1  UNL     1      16.103   2.336   3.348  1.00  0.00    -0.281 OA
BRANCH  11  12
HETATM   12  P1  UNL     1      16.445   0.718   3.344  1.00  0.00     0.422 P 
HETATM   13  O2  UNL     1      16.162  -0.156   4.751  1.00  0.00    -0.617 OA
HETATM   14  O3  UNL     1      16.800  -0.081   1.979  1.00  0.00    -0.617 OA
HETATM   15  O4  UNL     1      17.873   0.990   3.810  1.00  0.00    -0.617 OA
ENDBRANCH  11  12
ENDBRANCH  10  11
ENDBRANCH   1  10
BRANCH   1  16
HETATM   16  N1  UNL     1      14.549   1.631   0.824  1.00  0.00    -0.349 N 
HETATM   17  C10 UNL     1      13.475   0.749   0.694  1.00  0.00     0.259 C 
HETATM   18  O5  UNL     1      12.429   0.942   1.333  1.00  0.00    -0.267 OA
ATOM     19  H1  UNL     1      15.388   1.433   0.280  1.00  0.00     0.163 HD
BRANCH  17  20
HETATM   20  C11 UNL     1      13.560  -0.426  -0.203  1.00  0.00     0.074 A 
HETATM   21  C12 UNL     1      12.711  -1.500  -0.261  1.00  0.00     0.037 A 
HETATM   22  C13 UNL     1      12.992  -2.460  -1.165  1.00  0.00    -0.018 A 
HETATM   23  C14 UNL     1      12.267  -3.640  -1.400  1.00  0.00     0.013 A 
HETATM   24  C18 UNL     1      14.095  -2.281  -1.944  1.00  0.00     0.016 A 
HETATM   25  C15 UNL     1      12.660  -4.527  -2.345  1.00  0.00     0.001 A 
HETATM   26  C16 UNL     1      13.774  -4.358  -3.140  1.00  0.00     0.001 A 
HETATM   27  C17 UNL     1      14.494  -3.204  -2.919  1.00  0.00     0.019 A 
HETATM   28  S1  UNL     1      14.716  -0.789  -1.404  1.00  0.00    -0.084 SA
ENDBRANCH  17  20
ENDBRANCH   1  16
TORSDOF 7
ENDMDL
