MODEL 15
REMARK VINA RESULT: -6.847414375      4.069      5.296
REMARK  7 active torsions:
REMARK  status: ('A' for Active; 'I' for Inactive)
REMARK    1  A    between atoms: C6_6  and  C7_7 
REMARK    2  A    between atoms: C7_7  and  C8_8 
REMARK    3  A    between atoms: C8_8  and  C9_9 
REMARK    4  A    between atoms: C8_8  and  N1_15 
REMARK    5  A    between atoms: C9_9  and  O1_10 
REMARK    6  A    between atoms: O1_10  and  P1_11 
REMARK       I    between atoms: N1_15  and  C10_17 
REMARK    7  A    between atoms: C10_17  and  C11_19 
ROOT
HETATM    1  C8  UNL     1      14.910   2.836   2.590  1.00  0.00     0.113 C 
ENDROOT
BRANCH   1   2
HETATM    2  C7  UNL     1      13.644   3.645   2.602  1.00  0.00     0.065 C 
BRANCH   2   3
HETATM    3  C6  UNL     1      13.949   5.075   2.410  1.00  0.00    -0.056 A 
HETATM    4  C5  UNL     1      13.355   5.745   1.361  1.00  0.00     0.007 A 
HETATM    5  C4  UNL     1      13.660   7.081   1.210  1.00  0.00     0.001 A 
HETATM    6  C3  UNL     1      14.519   7.744   2.057  1.00  0.00     0.007 A 
HETATM    7  C2  UNL     1      15.116   7.083   3.107  1.00  0.00    -0.061 A 
HETATM    8  C1  UNL     1      16.051   7.770   4.044  1.00  0.00     0.048 C 
HETATM    9  C19 UNL     1      14.809   5.735   3.261  1.00  0.00     0.013 A 
ENDBRANCH   2   3
ENDBRANCH   1   2
BRANCH   1  10
HETATM   10  C9  UNL     1      15.378   2.672   1.179  1.00  0.00     0.208 C 
BRANCH  10  11
HETATM   11  O1  UNL     1      14.378   2.084   0.454  1.00  0.00    -0.281 OA
BRANCH  11  12
HETATM   12  P1  UNL     1      14.955   0.654  -0.141  1.00  0.00     0.422 P 
HETATM   13  O2  UNL     1      14.123  -0.071  -1.409  1.00  0.00    -0.617 OA
HETATM   14  O3  UNL     1      16.407   0.070   0.283  1.00  0.00    -0.617 OA
HETATM   15  O4  UNL     1      14.108  -0.135   0.854  1.00  0.00    -0.617 OA
ENDBRANCH  11  12
ENDBRANCH  10  11
ENDBRANCH   1  10
BRANCH   1  16
HETATM   16  N1  UNL     1      14.791   1.583   3.300  1.00  0.00    -0.349 N 
HETATM   17  C10 UNL     1      15.863   0.826   3.772  1.00  0.00     0.259 C 
HETATM   18  O5  UNL     1      17.027   1.215   3.594  1.00  0.00    -0.267 OA
ATOM     19  H1  UNL     1      13.851   1.225   3.468  1.00  0.00     0.163 HD
BRANCH  17  20
HETATM   20  C11 UNL     1      15.636  -0.449   4.490  1.00  0.00     0.074 A 
HETATM   21  C12 UNL     1      16.470  -1.069   5.383  1.00  0.00     0.037 A 
HETATM   22  C13 UNL     1      16.048  -2.234   5.916  1.00  0.00    -0.018 A 
HETATM   23  C14 UNL     1      16.731  -3.037   6.843  1.00  0.00     0.013 A 
HETATM   24  C18 UNL     1      14.828  -2.695   5.522  1.00  0.00     0.016 A 
HETATM   25  C15 UNL     1      16.190  -4.192   7.301  1.00  0.00     0.001 A 
HETATM   26  C16 UNL     1      14.957  -4.670   6.911  1.00  0.00     0.001 A 
HETATM   27  C17 UNL     1      14.277  -3.890   6.000  1.00  0.00     0.019 A 
HETATM   28  S1  UNL     1      14.297  -1.505   4.424  1.00  0.00    -0.084 SA
ENDBRANCH  17  20
ENDBRANCH   1  16
TORSDOF 7
ENDMDL
