MODEL 9
REMARK VINA RESULT: -5.095739211      2.349      3.159
REMARK  1 active torsions:
REMARK  status: ('A' for Active; 'I' for Inactive)
REMARK    1  A    between atoms: O1_2  and  C2_3 
ROOT
HETATM    1  C2  UNL     1      14.324  10.179   1.370  1.00  0.00     0.069 A 
HETATM    2  C3  UNL     1      15.668  10.187   1.064  1.00  0.00     0.039 A 
HETATM    3  C4  UNL     1      16.015  10.168  -0.276  1.00  0.00     0.033 A 
HETATM    4  C5  UNL     1      15.093  10.143  -1.296  1.00  0.00     0.042 A 
HETATM    5  N1  UNL     1      15.224  10.122  -2.647  1.00  0.00    -0.365 N 
ATOM      6  H1  UNL     1      16.095  10.121  -3.177  1.00  0.00     0.165 HD
HETATM    7  C6  UNL     1      13.973  10.103  -3.148  1.00  0.00     0.089 A 
HETATM    8  C7  UNL     1      13.046  10.111  -2.137  1.00  0.00     0.030 A 
HETATM    9  C8  UNL     1      13.738  10.136  -0.959  1.00  0.00    -0.005 A 
HETATM   10  C9  UNL     1      13.376  10.155   0.375  1.00  0.00     0.050 A 
ENDROOT
BRANCH   1  11
HETATM   11  O1  UNL     1      13.980  10.199   2.714  1.00  0.00    -0.356 OA
HETATM   12  C1  UNL     1      14.396  11.235   3.588  1.00  0.00     0.210 C 
ENDBRANCH   1  11
TORSDOF 1
ENDMDL
