MODEL 3
REMARK VINA RESULT: -5.920514630      0.974      1.164
REMARK  1 active torsions:
REMARK  status: ('A' for Active; 'I' for Inactive)
REMARK    1  A    between atoms: O1_2  and  C2_3 
ROOT
HETATM    1  C2  UNL     1      14.935  10.665  -0.618  1.00  0.00     0.069 A 
HETATM    2  C3  UNL     1      13.559  10.611  -0.574  1.00  0.00     0.039 A 
HETATM    3  C4  UNL     1      12.899  10.268  -1.741  1.00  0.00     0.033 A 
HETATM    4  C5  UNL     1      13.545   9.983  -2.920  1.00  0.00     0.042 A 
HETATM    5  N1  UNL     1      13.092   9.632  -4.150  1.00  0.00    -0.365 N 
ATOM      6  H1  UNL     1      12.120   9.510  -4.432  1.00  0.00     0.165 HD
HETATM    7  C6  UNL     1      14.184   9.476  -4.926  1.00  0.00     0.089 A 
HETATM    8  C7  UNL     1      15.326   9.722  -4.208  1.00  0.00     0.030 A 
HETATM    9  C8  UNL     1      14.940  10.044  -2.937  1.00  0.00    -0.005 A 
HETATM   10  C9  UNL     1      15.614  10.386  -1.779  1.00  0.00     0.050 A 
ENDROOT
BRANCH   1  11
HETATM   11  O1  UNL     1      15.593  11.010   0.554  1.00  0.00    -0.356 OA
HETATM   12  C1  UNL     1      17.007  11.093   0.632  1.00  0.00     0.210 C 
ENDBRANCH   1  11
TORSDOF 1
ENDMDL
