MODEL 1
REMARK VINA RESULT: -6.147359225      0.000      0.000
REMARK  1 active torsions:
REMARK  status: ('A' for Active; 'I' for Inactive)
REMARK    1  A    between atoms: O1_2  and  C2_3 
ROOT
HETATM    1  C2  UNL     1      15.569  10.485  -1.467  1.00  0.00     0.069 A 
HETATM    2  C3  UNL     1      14.427  10.844  -0.785  1.00  0.00     0.039 A 
HETATM    3  C4  UNL     1      13.214  10.627  -1.416  1.00  0.00     0.033 A 
HETATM    4  C5  UNL     1      13.103  10.078  -2.672  1.00  0.00     0.042 A 
HETATM    5  N1  UNL     1      12.030   9.789  -3.452  1.00  0.00    -0.365 N 
ATOM      6  H1  UNL     1      11.048   9.940  -3.222  1.00  0.00     0.165 HD
HETATM    7  C6  UNL     1      12.522   9.261  -4.590  1.00  0.00     0.089 A 
HETATM    8  C7  UNL     1      13.891   9.209  -4.549  1.00  0.00     0.030 A 
HETATM    9  C8  UNL     1      14.275   9.723  -3.341  1.00  0.00    -0.005 A 
HETATM   10  C9  UNL     1      15.494   9.933  -2.724  1.00  0.00     0.050 A 
ENDROOT
BRANCH   1  11
HETATM   11  O1  UNL     1      16.783  10.702  -0.831  1.00  0.00    -0.356 OA
HETATM   12  C1  UNL     1      16.873  10.962   0.561  1.00  0.00     0.210 C 
ENDBRANCH   1  11
TORSDOF 1
ENDMDL
