MODEL 2
REMARK VINA RESULT: -5.990141754      2.539      4.533
REMARK  1 active torsions:
REMARK  status: ('A' for Active; 'I' for Inactive)
REMARK    1  A    between atoms: O1_2  and  C2_3 
ROOT
HETATM    1  C2  UNL     1      13.262   9.722  -4.110  1.00  0.00     0.069 A 
HETATM    2  C3  UNL     1      14.602   9.720  -4.430  1.00  0.00     0.039 A 
HETATM    3  C4  UNL     1      15.502   9.916  -3.397  1.00  0.00     0.033 A 
HETATM    4  C5  UNL     1      15.123  10.109  -2.089  1.00  0.00     0.042 A 
HETATM    5  N1  UNL     1      15.834  10.316  -0.951  1.00  0.00    -0.365 N 
ATOM      6  H1  UNL     1      16.848  10.366  -0.865  1.00  0.00     0.165 HD
HETATM    7  C6  UNL     1      14.930  10.440   0.042  1.00  0.00     0.089 A 
HETATM    8  C7  UNL     1      13.655  10.316  -0.446  1.00  0.00     0.030 A 
HETATM    9  C8  UNL     1      13.759  10.107  -1.792  1.00  0.00    -0.005 A 
HETATM   10  C9  UNL     1      12.848   9.911  -2.813  1.00  0.00     0.050 A 
ENDROOT
BRANCH   1  11
HETATM   11  O1  UNL     1      12.363   9.525  -5.148  1.00  0.00    -0.356 OA
HETATM   12  C1  UNL     1      10.959   9.516  -4.943  1.00  0.00     0.210 C 
ENDBRANCH   1  11
TORSDOF 1
ENDMDL
