MODEL 15
REMARK VINA RESULT: -5.732402169      6.718      8.056
REMARK  1 active torsions:
REMARK  status: ('A' for Active; 'I' for Inactive)
REMARK    1  A    between atoms: C1_2  and  C2_4 
ROOT
HETATM    1  C2  UNL     1      14.581   9.577   4.482  1.00  0.00     0.153 A 
HETATM    2  C3  UNL     1      14.646  10.654   5.339  1.00  0.00     0.058 A 
HETATM    3  C4  UNL     1      14.228  10.252   6.590  1.00  0.00     0.001 A 
HETATM    4  C5  UNL     1      14.078  10.856   7.819  1.00  0.00     0.014 A 
HETATM    5  C6  UNL     1      13.627  10.205   8.944  1.00  0.00     0.001 A 
HETATM    6  C7  UNL     1      13.319   8.857   8.777  1.00  0.00     0.003 A 
HETATM    7  C8  UNL     1      13.458   8.224   7.566  1.00  0.00     0.038 A 
HETATM    8  C9  UNL     1      13.919   8.919   6.446  1.00  0.00     0.086 A 
HETATM    9  O3  UNL     1      14.137   8.561   5.202  1.00  0.00    -0.303 OA
ENDROOT
BRANCH   1  10
HETATM   10  C1  UNL     1      14.936   9.588   3.070  1.00  0.00     0.234 C 
HETATM   11  O1  UNL     1      15.307   8.526   2.522  1.00  0.00    -0.642 OA
HETATM   12  O2  UNL     1      14.885  10.729   2.287  1.00  0.00    -0.642 OA
ENDBRANCH   1  10
TORSDOF 1
ENDMDL
