MODEL 3
REMARK VINA RESULT: -6.673384783      1.189      1.480
REMARK  1 active torsions:
REMARK  status: ('A' for Active; 'I' for Inactive)
REMARK    1  A    between atoms: C1_2  and  C2_4 
ROOT
HETATM    1  C2  UNL     1      17.557  11.337   0.180  1.00  0.00     0.153 A 
HETATM    2  C3  UNL     1      16.762  10.559   0.992  1.00  0.00     0.058 A 
HETATM    3  C4  UNL     1      15.518  10.437   0.410  1.00  0.00     0.001 A 
HETATM    4  C5  UNL     1      14.337   9.804   0.732  1.00  0.00     0.014 A 
HETATM    5  C6  UNL     1      13.207   9.843  -0.052  1.00  0.00     0.001 A 
HETATM    6  C7  UNL     1      13.315  10.579  -1.229  1.00  0.00     0.003 A 
HETATM    7  C8  UNL     1      14.477  11.222  -1.580  1.00  0.00     0.038 A 
HETATM    8  C9  UNL     1      15.604  11.159  -0.759  1.00  0.00     0.086 A 
HETATM    9  O3  UNL     1      16.810  11.670  -0.858  1.00  0.00    -0.303 OA
ENDROOT
BRANCH   1  10
HETATM   10  C1  UNL     1      18.942  11.703   0.442  1.00  0.00     0.234 C 
HETATM   11  O1  UNL     1      19.861  11.089  -0.147  1.00  0.00    -0.642 OA
HETATM   12  O2  UNL     1      19.305  12.710   1.320  1.00  0.00    -0.642 OA
ENDBRANCH   1  10
TORSDOF 1
ENDMDL
