MODEL 1
REMARK VINA RESULT: -6.756756428      0.000      0.000
REMARK  1 active torsions:
REMARK  status: ('A' for Active; 'I' for Inactive)
REMARK    1  A    between atoms: C1_2  and  C2_4 
ROOT
HETATM    1  C2  UNL     1      17.743  11.404  -0.165  1.00  0.00     0.153 A 
HETATM    2  C3  UNL     1      16.537  11.130   0.441  1.00  0.00     0.058 A 
HETATM    3  C4  UNL     1      15.661  10.650  -0.509  1.00  0.00     0.001 A 
HETATM    4  C5  UNL     1      14.352  10.219  -0.514  1.00  0.00     0.014 A 
HETATM    5  C6  UNL     1      13.694   9.776  -1.638  1.00  0.00     0.001 A 
HETATM    6  C7  UNL     1      14.440   9.783  -2.814  1.00  0.00     0.003 A 
HETATM    7  C8  UNL     1      15.746  10.206  -2.845  1.00  0.00     0.038 A 
HETATM    8  C9  UNL     1      16.380  10.649  -1.682  1.00  0.00     0.086 A 
HETATM    9  O3  UNL     1      17.592  11.095  -1.442  1.00  0.00    -0.303 OA
ENDROOT
BRANCH   1  10
HETATM   10  C1  UNL     1      18.930  11.927   0.495  1.00  0.00     0.234 C 
HETATM   11  O1  UNL     1      18.940  12.039   1.742  1.00  0.00    -0.642 OA
HETATM   12  O2  UNL     1      20.069  12.314  -0.192  1.00  0.00    -0.642 OA
ENDBRANCH   1  10
TORSDOF 1
ENDMDL
