MODEL 11
REMARK VINA RESULT: -5.960389665      6.664      8.129
REMARK  1 active torsions:
REMARK  status: ('A' for Active; 'I' for Inactive)
REMARK    1  A    between atoms: C1_2  and  C2_4 
ROOT
HETATM    1  C2  UNL     1      15.434  10.637   5.186  1.00  0.00     0.153 A 
HETATM    2  C3  UNL     1      15.942   9.448   5.660  1.00  0.00     0.058 A 
HETATM    3  C4  UNL     1      15.311   9.135   6.845  1.00  0.00     0.001 A 
HETATM    4  C5  UNL     1      15.386   8.107   7.759  1.00  0.00     0.014 A 
HETATM    5  C6  UNL     1      14.616   8.035   8.898  1.00  0.00     0.001 A 
HETATM    6  C7  UNL     1      13.725   9.088   9.090  1.00  0.00     0.003 A 
HETATM    7  C8  UNL     1      13.625  10.128   8.198  1.00  0.00     0.038 A 
HETATM    8  C9  UNL     1      14.423  10.165   7.054  1.00  0.00     0.086 A 
HETATM    9  O3  UNL     1      14.523  11.024   6.064  1.00  0.00    -0.303 OA
ENDROOT
BRANCH   1  10
HETATM   10  C1  UNL     1      15.838  11.310   3.960  1.00  0.00     0.234 C 
HETATM   11  O1  UNL     1      16.382  10.648   3.047  1.00  0.00    -0.642 OA
HETATM   12  O2  UNL     1      15.650  12.665   3.744  1.00  0.00    -0.642 OA
ENDBRANCH   1  10
TORSDOF 1
ENDMDL
