MODEL 2
REMARK VINA RESULT: -6.751816757      0.799      1.644
REMARK  1 active torsions:
REMARK  status: ('A' for Active; 'I' for Inactive)
REMARK    1  A    between atoms: C1_2  and  C2_4 
ROOT
HETATM    1  C2  UNL     1      17.641  11.582  -0.096  1.00  0.00     0.153 A 
HETATM    2  C3  UNL     1      17.533  11.095  -1.380  1.00  0.00     0.058 A 
HETATM    3  C4  UNL     1      16.247  10.635  -1.574  1.00  0.00     0.001 A 
HETATM    4  C5  UNL     1      15.555  10.056  -2.615  1.00  0.00     0.014 A 
HETATM    5  C6  UNL     1      14.234   9.679  -2.542  1.00  0.00     0.001 A 
HETATM    6  C7  UNL     1      13.605   9.919  -1.323  1.00  0.00     0.003 A 
HETATM    7  C8  UNL     1      14.266  10.494  -0.265  1.00  0.00     0.038 A 
HETATM    8  C9  UNL     1      15.607  10.863  -0.378  1.00  0.00     0.086 A 
HETATM    9  O3  UNL     1      16.453  11.418   0.461  1.00  0.00    -0.303 OA
ENDROOT
BRANCH   1  10
HETATM   10  C1  UNL     1      18.838  12.157   0.500  1.00  0.00     0.234 C 
HETATM   11  O1  UNL     1      18.801  12.564   1.683  1.00  0.00    -0.642 OA
HETATM   12  O2  UNL     1      20.037  12.280  -0.182  1.00  0.00    -0.642 OA
ENDBRANCH   1  10
TORSDOF 1
ENDMDL
