MODEL 5
REMARK VINA RESULT: -7.134400183      4.024      6.848
REMARK  4 active torsions:
REMARK  status: ('A' for Active; 'I' for Inactive)
REMARK    1  A    between atoms: N5_13  and  C6_14 
REMARK    2  A    between atoms: C7_16  and  C8_17 
REMARK    3  A    between atoms: C9_19  and  O2_20 
REMARK    4  A    between atoms: C10_22  and  O3_23 
ROOT
HETATM    1  N1  UNL     1      15.518   9.401   6.947  1.00  0.00    -0.080 NA
HETATM    2  C1  UNL     1      16.049   9.099   5.678  1.00  0.00     0.148 A 
HETATM    3  N2  UNL     1      17.216   8.443   5.555  1.00  0.00    -0.339 N 
ATOM      4  H2  UNL     1      17.729   8.157   6.389  1.00  0.00     0.167 HD
HETATM    5  C2  UNL     1      17.707   8.164   4.341  1.00  0.00     0.183 A 
HETATM    6  N3  UNL     1      17.011   8.553   3.259  1.00  0.00    -0.336 N 
ATOM      7  H3  UNL     1      17.391   8.337   2.338  1.00  0.00     0.168 HD
HETATM    8  C3  UNL     1      15.840   9.212   3.329  1.00  0.00     0.142 A 
HETATM    9  C4  UNL     1      15.328   9.503   4.570  1.00  0.00     0.119 A 
HETATM   10  N4  UNL     1      14.179  10.149   4.377  1.00  0.00    -0.346 N 
ATOM     11  H4  UNL     1      13.572  10.492   5.122  1.00  0.00     0.167 HD
HETATM   12  C5  UNL     1      13.936  10.283   3.077  1.00  0.00     0.188 A 
HETATM   13  N5  UNL     1      14.961   9.705   2.421  1.00  0.00    -0.297 N 
ENDROOT
BRANCH  13  14
HETATM   14  C6  UNL     1      15.153   9.594   1.015  1.00  0.00     0.262 C 
HETATM   15  O1  UNL     1      14.797  10.725   0.299  1.00  0.00    -0.355 OA
HETATM   16  C7  UNL     1      14.555  10.357  -1.000  1.00  0.00     0.165 C 
HETATM   17  C9  UNL     1      14.670   8.849  -1.080  1.00  0.00     0.180 C 
HETATM   18  C10 UNL     1      14.271   8.536   0.371  1.00  0.00     0.198 C 
BRANCH  16  19
HETATM   19  C8  UNL     1      13.139  10.700  -1.455  1.00  0.00     0.120 C 
HETATM   20  S1  UNL     1      12.626   9.721  -2.875  1.00  0.00    -0.095 SA
ENDBRANCH  16  19
BRANCH  17  21
HETATM   21  O2  UNL     1      16.000   8.524  -1.229  1.00  0.00    -0.390 OA
ATOM     22  H2  UNL     1      16.522   9.209  -0.827  1.00  0.00     0.210 HD
ENDBRANCH  17  21
BRANCH  18  23
HETATM   23  O3  UNL     1      14.570   7.266   0.742  1.00  0.00    -0.388 OA
ATOM     24  H3  UNL     1      14.445   6.622   0.056  1.00  0.00     0.210 HD
ENDBRANCH  18  23
ENDBRANCH  13  14
TORSDOF 4
ENDMDL
