MODEL 1
REMARK VINA RESULT: -8.033868615      0.000      0.000
REMARK  4 active torsions:
REMARK  status: ('A' for Active; 'I' for Inactive)
REMARK    1  A    between atoms: N5_13  and  C6_14 
REMARK    2  A    between atoms: C7_16  and  C8_17 
REMARK    3  A    between atoms: C9_19  and  O2_20 
REMARK    4  A    between atoms: C10_22  and  O3_23 
ROOT
HETATM    1  N1  UNL     1      15.007  10.189  -5.651  1.00  0.00    -0.080 NA
HETATM    2  C1  UNL     1      14.075   9.913  -4.632  1.00  0.00     0.148 A 
HETATM    3  N2  UNL     1      12.795   9.627  -4.922  1.00  0.00    -0.339 N 
ATOM      4  H2  UNL     1      12.486   9.609  -5.894  1.00  0.00     0.167 HD
HETATM    5  C2  UNL     1      11.922   9.368  -3.941  1.00  0.00     0.183 A 
HETATM    6  N3  UNL     1      12.355   9.401  -2.669  1.00  0.00    -0.336 N 
ATOM      7  H3  UNL     1      11.685   9.202  -1.926  1.00  0.00     0.168 HD
HETATM    8  C3  UNL     1      13.625   9.682  -2.325  1.00  0.00     0.142 A 
HETATM    9  C4  UNL     1      14.528   9.950  -3.325  1.00  0.00     0.119 A 
HETATM   10  N4  UNL     1      15.699  10.194  -2.740  1.00  0.00    -0.346 N 
ATOM     11  H4  UNL     1      16.561  10.424  -3.236  1.00  0.00     0.167 HD
HETATM   12  C5  UNL     1      15.586  10.095  -1.419  1.00  0.00     0.188 A 
HETATM   13  N5  UNL     1      14.304   9.779  -1.154  1.00  0.00    -0.297 N 
ENDROOT
BRANCH  13  14
HETATM   14  C6  UNL     1      13.695   9.566   0.115  1.00  0.00     0.262 C 
HETATM   15  O1  UNL     1      13.754  10.658   0.966  1.00  0.00    -0.355 OA
HETATM   16  C7  UNL     1      13.605  10.210   2.254  1.00  0.00     0.165 C 
HETATM   17  C9  UNL     1      13.550   8.697   2.213  1.00  0.00     0.180 C 
HETATM   18  C10 UNL     1      14.391   8.496   0.942  1.00  0.00     0.198 C 
BRANCH  16  19
HETATM   19  C8  UNL     1      14.792  10.568   3.143  1.00  0.00     0.120 C 
HETATM   20  S1  UNL     1      14.657   9.841   4.784  1.00  0.00    -0.095 SA
ENDBRANCH  16  19
BRANCH  17  21
HETATM   21  O2  UNL     1      12.257   8.319   1.925  1.00  0.00    -0.390 OA
ATOM     22  H2  UNL     1      12.108   7.457   2.296  1.00  0.00     0.210 HD
ENDBRANCH  17  21
BRANCH  18  23
HETATM   23  O3  UNL     1      14.288   7.245   0.428  1.00  0.00    -0.388 OA
ATOM     24  H3  UNL     1      13.423   6.862   0.513  1.00  0.00     0.210 HD
ENDBRANCH  18  23
ENDBRANCH  13  14
TORSDOF 4
ENDMDL
