MODEL 3
REMARK VINA RESULT: -7.430277190      1.416      1.470
REMARK  4 active torsions:
REMARK  status: ('A' for Active; 'I' for Inactive)
REMARK    1  A    between atoms: N5_13  and  C6_14 
REMARK    2  A    between atoms: C7_16  and  C8_17 
REMARK    3  A    between atoms: C9_19  and  O2_20 
REMARK    4  A    between atoms: C10_22  and  O3_23 
ROOT
HETATM    1  N1  UNL     1      14.858   9.977  -5.406  1.00  0.00    -0.080 NA
HETATM    2  C1  UNL     1      14.115   9.922  -4.210  1.00  0.00     0.148 A 
HETATM    3  N2  UNL     1      12.793   9.680  -4.227  1.00  0.00    -0.339 N 
ATOM      4  H2  UNL     1      12.315   9.533  -5.115  1.00  0.00     0.167 HD
HETATM    5  C2  UNL     1      12.103   9.631  -3.081  1.00  0.00     0.183 A 
HETATM    6  N3  UNL     1      12.758   9.830  -1.925  1.00  0.00    -0.336 N 
ATOM      7  H3  UNL     1      12.226   9.792  -1.056  1.00  0.00     0.168 HD
HETATM    8  C3  UNL     1      14.079  10.077  -1.854  1.00  0.00     0.142 A 
HETATM    9  C4  UNL     1      14.797  10.129  -3.025  1.00  0.00     0.119 A 
HETATM   10  N4  UNL     1      16.062  10.382  -2.696  1.00  0.00    -0.346 N 
ATOM     11  H4  UNL     1      16.829  10.477  -3.363  1.00  0.00     0.167 HD
HETATM   12  C5  UNL     1      16.185  10.494  -1.378  1.00  0.00     0.188 A 
HETATM   13  N5  UNL     1      14.960  10.307  -0.849  1.00  0.00    -0.297 N 
ENDROOT
BRANCH  13  14
HETATM   14  C6  UNL     1      14.582  10.331   0.523  1.00  0.00     0.262 C 
HETATM   15  O1  UNL     1      15.506  10.938   1.359  1.00  0.00    -0.355 OA
HETATM   16  C7  UNL     1      15.297  10.484   2.637  1.00  0.00     0.165 C 
HETATM   17  C9  UNL     1      14.217   9.424   2.578  1.00  0.00     0.180 C 
HETATM   18  C10 UNL     1      14.478   8.945   1.141  1.00  0.00     0.198 C 
BRANCH  16  19
HETATM   19  C8  UNL     1      16.529   9.804   3.228  1.00  0.00     0.120 C 
HETATM   20  S1  UNL     1      18.001  10.079   2.232  1.00  0.00    -0.095 SA
ENDBRANCH  16  19
BRANCH  17  21
HETATM   21  O2  UNL     1      12.992  10.053   2.595  1.00  0.00    -0.390 OA
ATOM     22  H2  UNL     1      12.323   9.410   2.394  1.00  0.00     0.210 HD
ENDBRANCH  17  21
BRANCH  18  23
HETATM   23  O3  UNL     1      13.468   8.191   0.640  1.00  0.00    -0.388 OA
ATOM     24  H3  UNL     1      13.360   7.352   1.072  1.00  0.00     0.210 HD
ENDBRANCH  18  23
ENDBRANCH  13  14
TORSDOF 4
ENDMDL
