MODEL 2
REMARK VINA RESULT: -7.511564505      3.121      4.795
REMARK  4 active torsions:
REMARK  status: ('A' for Active; 'I' for Inactive)
REMARK    1  A    between atoms: N5_13  and  C6_14 
REMARK    2  A    between atoms: C7_16  and  C8_17 
REMARK    3  A    between atoms: C9_19  and  O2_20 
REMARK    4  A    between atoms: C10_22  and  O3_23 
ROOT
HETATM    1  N1  UNL     1      19.833  11.908  -0.042  1.00  0.00    -0.080 NA
HETATM    2  C1  UNL     1      18.932  11.412   0.920  1.00  0.00     0.148 A 
HETATM    3  N2  UNL     1      19.306  11.254   2.202  1.00  0.00    -0.339 N 
ATOM      4  H2  UNL     1      20.255  11.495   2.487  1.00  0.00     0.167 HD
HETATM    5  C2  UNL     1      18.437  10.782   3.104  1.00  0.00     0.183 A 
HETATM    6  N3  UNL     1      17.194  10.471   2.700  1.00  0.00    -0.336 N 
ATOM      7  H3  UNL     1      16.536  10.112   3.392  1.00  0.00     0.168 HD
HETATM    8  C3  UNL     1      16.770  10.610   1.430  1.00  0.00     0.142 A 
HETATM    9  C4  UNL     1      17.654  11.094   0.496  1.00  0.00     0.119 A 
HETATM   10  N4  UNL     1      17.009  11.139  -0.667  1.00  0.00    -0.346 N 
ATOM     11  H4  UNL     1      17.416  11.459  -1.547  1.00  0.00     0.167 HD
HETATM   12  C5  UNL     1      15.760  10.709  -0.521  1.00  0.00     0.188 A 
HETATM   13  N5  UNL     1      15.604  10.378   0.775  1.00  0.00    -0.297 N 
ENDROOT
BRANCH  13  14
HETATM   14  C6  UNL     1      14.442   9.868   1.420  1.00  0.00     0.262 C 
HETATM   15  O1  UNL     1      14.216  10.387   2.684  1.00  0.00    -0.355 OA
HETATM   16  C7  UNL     1      13.417   9.511   3.375  1.00  0.00     0.165 C 
HETATM   17  C9  UNL     1      13.209   8.291   2.502  1.00  0.00     0.180 C 
HETATM   18  C10 UNL     1      14.525   8.378   1.712  1.00  0.00     0.198 C 
BRANCH  16  19
HETATM   19  C8  UNL     1      14.067   9.009   4.661  1.00  0.00     0.120 C 
HETATM   20  S1  UNL     1      14.899  10.326   5.561  1.00  0.00    -0.095 SA
ENDBRANCH  16  19
BRANCH  17  21
HETATM   21  O2  UNL     1      12.177   8.554   1.629  1.00  0.00    -0.390 OA
ATOM     22  H2  UNL     1      11.989   9.485   1.661  1.00  0.00     0.210 HD
ENDBRANCH  17  21
BRANCH  18  23
HETATM   23  O3  UNL     1      14.533   7.596   0.604  1.00  0.00    -0.388 OA
ATOM     24  H3  UNL     1      15.331   7.094   0.489  1.00  0.00     0.210 HD
ENDBRANCH  18  23
ENDBRANCH  13  14
TORSDOF 4
ENDMDL
