MODEL 6
REMARK VINA RESULT: -7.007065820      6.202      7.542
REMARK  4 active torsions:
REMARK  status: ('A' for Active; 'I' for Inactive)
REMARK    1  A    between atoms: N5_13  and  C6_14 
REMARK    2  A    between atoms: C7_16  and  C8_17 
REMARK    3  A    between atoms: C9_19  and  O2_20 
REMARK    4  A    between atoms: C10_22  and  O3_23 
ROOT
HETATM    1  N1  UNL     1      18.654  12.942  -0.014  1.00  0.00    -0.080 NA
HETATM    2  C1  UNL     1      19.380  11.978   0.713  1.00  0.00     0.148 A 
HETATM    3  N2  UNL     1      20.632  11.642   0.358  1.00  0.00    -0.339 N 
ATOM      4  H2  UNL     1      21.068  12.088  -0.449  1.00  0.00     0.167 HD
HETATM    5  C2  UNL     1      21.308  10.724   1.059  1.00  0.00     0.183 A 
HETATM    6  N3  UNL     1      20.708  10.151   2.117  1.00  0.00    -0.336 N 
ATOM      7  H3  UNL     1      21.229   9.452   2.647  1.00  0.00     0.168 HD
HETATM    8  C3  UNL     1      19.458  10.451   2.512  1.00  0.00     0.142 A 
HETATM    9  C4  UNL     1      18.756  11.392   1.799  1.00  0.00     0.119 A 
HETATM   10  N4  UNL     1      17.562  11.512   2.378  1.00  0.00    -0.346 N 
ATOM     11  H4  UNL     1      16.824  12.142   2.064  1.00  0.00     0.167 HD
HETATM   12  C5  UNL     1      17.471  10.696   3.423  1.00  0.00     0.188 A 
HETATM   13  N5  UNL     1      18.641  10.035   3.512  1.00  0.00    -0.297 N 
ENDROOT
BRANCH  13  14
HETATM   14  C6  UNL     1      19.025   9.052   4.468  1.00  0.00     0.262 C 
HETATM   15  O1  UNL     1      20.376   9.055   4.778  1.00  0.00    -0.355 OA
HETATM   16  C7  UNL     1      20.706   7.823   5.284  1.00  0.00     0.165 C 
HETATM   17  C9  UNL     1      19.478   6.942   5.188  1.00  0.00     0.180 C 
HETATM   18  C10 UNL     1      18.828   7.627   3.976  1.00  0.00     0.198 C 
BRANCH  16  19
HETATM   19  C8  UNL     1      21.795   7.126   4.475  1.00  0.00     0.120 C 
HETATM   20  S1  UNL     1      21.377   5.415   4.106  1.00  0.00    -0.095 SA
ENDBRANCH  16  19
BRANCH  17  21
HETATM   21  O2  UNL     1      18.682   7.187   6.286  1.00  0.00    -0.390 OA
ATOM     22  H2  UNL     1      17.827   7.464   5.979  1.00  0.00     0.210 HD
ENDBRANCH  17  21
BRANCH  18  23
HETATM   23  O3  UNL     1      17.530   7.277   3.800  1.00  0.00    -0.388 OA
ATOM     24  H3  UNL     1      17.066   7.090   4.607  1.00  0.00     0.210 HD
ENDBRANCH  18  23
ENDBRANCH  13  14
TORSDOF 4
ENDMDL
