MODEL 4
REMARK VINA RESULT: -8.699873811      3.564      5.004
REMARK  8 active torsions:
REMARK  status: ('A' for Active; 'I' for Inactive)
REMARK    1  A    between atoms: N5_13  and  C6_14 
REMARK    2  A    between atoms: C7_16  and  C8_17 
REMARK    3  A    between atoms: C8_17  and  S1_18 
REMARK    4  A    between atoms: S1_18  and  S2_19 
REMARK    5  A    between atoms: S2_19  and  C9_20 
REMARK    6  A    between atoms: C9_20  and  C10_21 
REMARK    7  A    between atoms: C16_27  and  O2_28 
REMARK    8  A    between atoms: C17_30  and  O3_31 
ROOT
HETATM    1  C6  UNL     1      14.399  10.584  -0.223  1.00  0.00     0.262 C 
HETATM    2  O1  UNL     1      15.196  11.288   0.631  1.00  0.00    -0.355 OA
HETATM    3  C7  UNL     1      15.038  10.698   1.915  1.00  0.00     0.165 C 
HETATM    4  C16 UNL     1      15.136   9.247   1.581  1.00  0.00     0.180 C 
HETATM    5  C17 UNL     1      14.270   9.184   0.310  1.00  0.00     0.198 C 
ENDROOT
BRANCH   1   6
HETATM    6  N5  UNL     1      14.938  10.565  -1.579  1.00  0.00    -0.297 N 
HETATM    7  C3  UNL     1      14.219  10.308  -2.699  1.00  0.00     0.142 A 
HETATM    8  N3  UNL     1      12.919  10.025  -2.900  1.00  0.00    -0.336 N 
HETATM    9  C4  UNL     1      15.054  10.369  -3.811  1.00  0.00     0.119 A 
HETATM   10  C2  UNL     1      12.453   9.808  -4.153  1.00  0.00     0.183 A 
ATOM     11  H3  UNL     1      12.282   9.973  -2.105  1.00  0.00     0.168 HD
HETATM   12  N2  UNL     1      13.274   9.869  -5.223  1.00  0.00    -0.339 N 
HETATM   13  C1  UNL     1      14.582  10.148  -5.084  1.00  0.00     0.148 A 
ATOM     14  H2  UNL     1      12.894   9.701  -6.155  1.00  0.00     0.167 HD
HETATM   15  N1  UNL     1      15.436  10.207  -6.218  1.00  0.00    -0.080 NA
HETATM   16  N4  UNL     1      16.266  10.662  -3.345  1.00  0.00    -0.346 N 
HETATM   17  C5  UNL     1      16.191  10.780  -1.988  1.00  0.00     0.188 A 
ATOM     18  H4  UNL     1      17.109  10.778  -3.907  1.00  0.00     0.167 HD
ENDBRANCH   1   6
BRANCH   5  19
HETATM   19  O3  UNL     1      12.942   8.892   0.663  1.00  0.00    -0.388 OA
ATOM     20  H3  UNL     1      12.903   8.224   1.338  1.00  0.00     0.210 HD
ENDBRANCH   5  19
BRANCH   3  21
HETATM   21  C8  UNL     1      16.047  11.240   2.857  1.00  0.00     0.120 C 
BRANCH  21  22
HETATM   22  S1  UNL     1      17.568  10.290   2.798  1.00  0.00    -0.095 SA
BRANCH  22  23
HETATM   23  S2  UNL     1      18.691  10.562   1.044  1.00  0.00    -0.093 SA
BRANCH  23  24
HETATM   24  C9  UNL     1      18.644  12.252   0.440  1.00  0.00     0.124 C 
BRANCH  24  25
HETATM   25  C10 UNL     1      19.219  13.229   1.394  1.00  0.00    -0.048 A 
HETATM   26  C11 UNL     1      18.667  14.511   1.492  1.00  0.00     0.008 A 
HETATM   27  C12 UNL     1      19.222  15.400   2.388  1.00  0.00     0.001 A 
HETATM   28  C13 UNL     1      20.303  15.038   3.178  1.00  0.00     0.000 A 
HETATM   29  C14 UNL     1      20.829  13.762   3.060  1.00  0.00     0.001 A 
HETATM   30  C15 UNL     1      20.293  12.834   2.163  1.00  0.00     0.008 A 
ENDBRANCH  24  25
ENDBRANCH  23  24
ENDBRANCH  22  23
ENDBRANCH  21  22
ENDBRANCH   3  21
BRANCH   4  31
HETATM   31  O2  UNL     1      14.573   8.408   2.552  1.00  0.00    -0.390 OA
ATOM     32  H2  UNL     1      13.674   8.164   2.368  1.00  0.00     0.210 HD
ENDBRANCH   4  31
TORSDOF 8
ENDMDL
