MODEL 1
REMARK VINA RESULT: -9.743796397      0.000      0.000
REMARK  8 active torsions:
REMARK  status: ('A' for Active; 'I' for Inactive)
REMARK    1  A    between atoms: N5_13  and  C6_14 
REMARK    2  A    between atoms: C7_16  and  C8_17 
REMARK    3  A    between atoms: C8_17  and  S1_18 
REMARK    4  A    between atoms: S1_18  and  S2_19 
REMARK    5  A    between atoms: S2_19  and  C9_20 
REMARK    6  A    between atoms: C9_20  and  C10_21 
REMARK    7  A    between atoms: C16_27  and  O2_28 
REMARK    8  A    between atoms: C17_30  and  O3_31 
ROOT
HETATM    1  C6  UNL     1      14.286  10.549  -0.165  1.00  0.00     0.262 C 
HETATM    2  O1  UNL     1      15.090  11.181   0.739  1.00  0.00    -0.355 OA
HETATM    3  C7  UNL     1      14.868  10.549   1.994  1.00  0.00     0.165 C 
HETATM    4  C16 UNL     1      14.910   9.109   1.603  1.00  0.00     0.180 C 
HETATM    5  C17 UNL     1      14.080   9.137   0.308  1.00  0.00     0.198 C 
ENDROOT
BRANCH   1   6
HETATM    6  N5  UNL     1      14.864  10.559  -1.505  1.00  0.00    -0.297 N 
HETATM    7  C3  UNL     1      14.182  10.303  -2.647  1.00  0.00     0.142 A 
HETATM    8  N3  UNL     1      12.894   9.997  -2.889  1.00  0.00    -0.336 N 
HETATM    9  C4  UNL     1      15.046  10.394  -3.735  1.00  0.00     0.119 A 
HETATM   10  C2  UNL     1      12.468   9.787  -4.157  1.00  0.00     0.183 A 
ATOM     11  H3  UNL     1      12.236   9.922  -2.113  1.00  0.00     0.168 HD
HETATM   12  N2  UNL     1      13.317   9.879  -5.203  1.00  0.00    -0.339 N 
HETATM   13  C1  UNL     1      14.615  10.181  -5.023  1.00  0.00     0.148 A 
ATOM     14  H2  UNL     1      12.967   9.716  -6.147  1.00  0.00     0.167 HD
HETATM   15  N1  UNL     1      15.499  10.272  -6.132  1.00  0.00    -0.080 NA
HETATM   16  N4  UNL     1      16.238  10.705  -3.231  1.00  0.00    -0.346 N 
HETATM   17  C5  UNL     1      16.123  10.804  -1.876  1.00  0.00     0.188 A 
ATOM     18  H4  UNL     1      17.095  10.845  -3.768  1.00  0.00     0.167 HD
ENDBRANCH   1   6
BRANCH   5  19
HETATM   19  O3  UNL     1      12.730   8.892   0.611  1.00  0.00    -0.388 OA
ATOM     20  H3  UNL     1      12.377   8.191   0.075  1.00  0.00     0.210 HD
ENDBRANCH   5  19
BRANCH   3  21
HETATM   21  C8  UNL     1      15.872  11.006   2.984  1.00  0.00     0.120 C 
BRANCH  21  22
HETATM   22  S1  UNL     1      15.115  11.310   4.583  1.00  0.00    -0.095 SA
BRANCH  22  23
HETATM   23  S2  UNL     1      14.875   9.592   5.768  1.00  0.00    -0.093 SA
BRANCH  23  24
HETATM   24  C9  UNL     1      13.508   9.728   6.925  1.00  0.00     0.124 C 
BRANCH  24  25
HETATM   25  C10 UNL     1      13.901  10.323   8.224  1.00  0.00    -0.048 A 
HETATM   26  C11 UNL     1      13.010  11.166   8.898  1.00  0.00     0.008 A 
HETATM   27  C12 UNL     1      13.402  11.706  10.105  1.00  0.00     0.001 A 
HETATM   28  C13 UNL     1      14.648  11.424  10.645  1.00  0.00     0.000 A 
HETATM   29  C14 UNL     1      15.508  10.585   9.957  1.00  0.00     0.001 A 
HETATM   30  C15 UNL     1      15.147  10.019   8.730  1.00  0.00     0.008 A 
ENDBRANCH  24  25
ENDBRANCH  23  24
ENDBRANCH  22  23
ENDBRANCH  21  22
ENDBRANCH   3  21
BRANCH   4  31
HETATM   31  O2  UNL     1      14.281   8.260   2.524  1.00  0.00    -0.390 OA
ATOM     32  H2  UNL     1      14.886   7.817   3.107  1.00  0.00     0.210 HD
ENDBRANCH   4  31
TORSDOF 8
ENDMDL
