MODEL 2
REMARK VINA RESULT: -9.081105310      3.792      5.164
REMARK  8 active torsions:
REMARK  status: ('A' for Active; 'I' for Inactive)
REMARK    1  A    between atoms: N5_13  and  C6_14 
REMARK    2  A    between atoms: C7_16  and  C8_17 
REMARK    3  A    between atoms: C8_17  and  S1_18 
REMARK    4  A    between atoms: S1_18  and  S2_19 
REMARK    5  A    between atoms: S2_19  and  C9_20 
REMARK    6  A    between atoms: C9_20  and  C10_21 
REMARK    7  A    between atoms: C16_27  and  O2_28 
REMARK    8  A    between atoms: C17_30  and  O3_31 
ROOT
HETATM    1  C6  UNL     1      14.594  10.624  -0.158  1.00  0.00     0.262 C 
HETATM    2  O1  UNL     1      15.499  11.183   0.696  1.00  0.00    -0.355 OA
HETATM    3  C7  UNL     1      15.301  10.564   1.961  1.00  0.00     0.165 C 
HETATM    4  C16 UNL     1      15.200   9.128   1.568  1.00  0.00     0.180 C 
HETATM    5  C17 UNL     1      14.299   9.231   0.324  1.00  0.00     0.198 C 
ENDROOT
BRANCH   1   6
HETATM    6  N5  UNL     1      15.089  10.594  -1.531  1.00  0.00    -0.297 N 
HETATM    7  C3  UNL     1      14.334  10.333  -2.625  1.00  0.00     0.142 A 
HETATM    8  N3  UNL     1      13.027  10.052  -2.782  1.00  0.00    -0.336 N 
HETATM    9  C4  UNL     1      15.132  10.382  -3.764  1.00  0.00     0.119 A 
HETATM   10  C2  UNL     1      12.520   9.828  -4.017  1.00  0.00     0.183 A 
ATOM     11  H3  UNL     1      12.415  10.009  -1.967  1.00  0.00     0.168 HD
HETATM   12  N2  UNL     1      13.306   9.879  -5.114  1.00  0.00    -0.339 N 
HETATM   13  C1  UNL     1      14.619  10.154  -5.019  1.00  0.00     0.148 A 
ATOM     14  H2  UNL     1      12.896   9.706  -6.033  1.00  0.00     0.167 HD
HETATM   15  N1  UNL     1      15.436  10.202  -6.181  1.00  0.00    -0.080 NA
HETATM   16  N4  UNL     1      16.360  10.674  -3.339  1.00  0.00    -0.346 N 
HETATM   17  C5  UNL     1      16.329  10.802  -1.982  1.00  0.00     0.188 A 
ATOM     18  H4  UNL     1      17.185  10.784  -3.929  1.00  0.00     0.167 HD
ENDBRANCH   1   6
BRANCH   5  19
HETATM   19  O3  UNL     1      12.955   9.097   0.708  1.00  0.00    -0.388 OA
ATOM     20  H3  UNL     1      12.413   8.823  -0.023  1.00  0.00     0.210 HD
ENDBRANCH   5  19
BRANCH   3  21
HETATM   21  C8  UNL     1      16.396  10.931   2.890  1.00  0.00     0.120 C 
BRANCH  21  22
HETATM   22  S1  UNL     1      17.903  10.035   2.504  1.00  0.00    -0.095 SA
BRANCH  22  23
HETATM   23  S2  UNL     1      18.224   8.329   3.686  1.00  0.00    -0.093 SA
BRANCH  23  24
HETATM   24  C9  UNL     1      19.959   8.054   4.058  1.00  0.00     0.124 C 
BRANCH  24  25
HETATM   25  C10 UNL     1      20.350   6.626   3.992  1.00  0.00    -0.048 A 
HETATM   26  C11 UNL     1      19.361   5.637   3.960  1.00  0.00     0.008 A 
HETATM   27  C12 UNL     1      19.754   4.316   3.899  1.00  0.00     0.001 A 
HETATM   28  C13 UNL     1      21.096   3.969   3.870  1.00  0.00     0.000 A 
HETATM   29  C14 UNL     1      22.053   4.969   3.904  1.00  0.00     0.001 A 
HETATM   30  C15 UNL     1      21.694   6.319   3.965  1.00  0.00     0.008 A 
ENDBRANCH  24  25
ENDBRANCH  23  24
ENDBRANCH  22  23
ENDBRANCH  21  22
ENDBRANCH   3  21
BRANCH   4  31
HETATM   31  O2  UNL     1      14.559   8.328   2.523  1.00  0.00    -0.390 OA
ATOM     32  H2  UNL     1      13.693   8.042   2.260  1.00  0.00     0.210 HD
ENDBRANCH   4  31
TORSDOF 8
ENDMDL
