MODEL 3
REMARK VINA RESULT: -8.728569373      3.578      6.036
REMARK  8 active torsions:
REMARK  status: ('A' for Active; 'I' for Inactive)
REMARK    1  A    between atoms: N5_13  and  C6_14 
REMARK    2  A    between atoms: C7_16  and  C8_17 
REMARK    3  A    between atoms: C8_17  and  S1_18 
REMARK    4  A    between atoms: S1_18  and  S2_19 
REMARK    5  A    between atoms: S2_19  and  C9_20 
REMARK    6  A    between atoms: C9_20  and  C10_21 
REMARK    7  A    between atoms: C16_27  and  O2_28 
REMARK    8  A    between atoms: C17_30  and  O3_31 
ROOT
HETATM    1  C6  UNL     1      14.345  10.567  -0.183  1.00  0.00     0.262 C 
HETATM    2  O1  UNL     1      15.116  11.291   0.679  1.00  0.00    -0.355 OA
HETATM    3  C7  UNL     1      14.955  10.701   1.963  1.00  0.00     0.165 C 
HETATM    4  C16 UNL     1      15.089   9.251   1.634  1.00  0.00     0.180 C 
HETATM    5  C17 UNL     1      14.240   9.166   0.353  1.00  0.00     0.198 C 
ENDROOT
BRANCH   1   6
HETATM    6  N5  UNL     1      14.901  10.556  -1.532  1.00  0.00    -0.297 N 
HETATM    7  C3  UNL     1      14.200  10.293  -2.661  1.00  0.00     0.142 A 
HETATM    8  N3  UNL     1      12.906   9.995  -2.879  1.00  0.00    -0.336 N 
HETATM    9  C4  UNL     1      15.047  10.365  -3.763  1.00  0.00     0.119 A 
HETATM   10  C2  UNL     1      12.458   9.774  -4.137  1.00  0.00     0.183 A 
ATOM     11  H3  UNL     1      12.259   9.935  -2.092  1.00  0.00     0.168 HD
HETATM   12  N2  UNL     1      13.292   9.847  -5.198  1.00  0.00    -0.339 N 
HETATM   13  C1  UNL     1      14.595  10.140  -5.042  1.00  0.00     0.148 A 
ATOM     14  H2  UNL     1      12.926   9.676  -6.134  1.00  0.00     0.167 HD
HETATM   15  N1  UNL     1      15.462  10.211  -6.165  1.00  0.00    -0.080 NA
HETATM   16  N4  UNL     1      16.250  10.671  -3.281  1.00  0.00    -0.346 N 
HETATM   17  C5  UNL     1      16.157  10.787  -1.925  1.00  0.00     0.188 A 
ATOM     18  H4  UNL     1      17.099  10.798  -3.832  1.00  0.00     0.167 HD
ENDBRANCH   1   6
BRANCH   5  19
HETATM   19  O3  UNL     1      12.915   8.846   0.690  1.00  0.00    -0.388 OA
ATOM     20  H3  UNL     1      12.344   9.600   0.602  1.00  0.00     0.210 HD
ENDBRANCH   5  19
BRANCH   3  21
HETATM   21  C8  UNL     1      15.939  11.267   2.916  1.00  0.00     0.120 C 
BRANCH  21  22
HETATM   22  S1  UNL     1      17.332  12.001   2.053  1.00  0.00    -0.095 SA
BRANCH  22  23
HETATM   23  S2  UNL     1      18.591  10.613   1.104  1.00  0.00    -0.093 SA
BRANCH  23  24
HETATM   24  C9  UNL     1      19.890   9.999   2.180  1.00  0.00     0.124 C 
BRANCH  24  25
HETATM   25  C10 UNL     1      21.001   9.352   1.444  1.00  0.00    -0.048 A 
HETATM   26  C11 UNL     1      21.821   8.426   2.098  1.00  0.00     0.008 A 
HETATM   27  C12 UNL     1      22.847   7.839   1.388  1.00  0.00     0.001 A 
HETATM   28  C13 UNL     1      23.067   8.154   0.056  1.00  0.00     0.000 A 
HETATM   29  C14 UNL     1      22.240   9.073  -0.567  1.00  0.00     0.001 A 
HETATM   30  C15 UNL     1      21.189   9.689   0.120  1.00  0.00     0.008 A 
ENDBRANCH  24  25
ENDBRANCH  23  24
ENDBRANCH  22  23
ENDBRANCH  21  22
ENDBRANCH   3  21
BRANCH   4  31
HETATM   31  O2  UNL     1      14.532   8.403   2.601  1.00  0.00    -0.390 OA
ATOM     32  H2  UNL     1      13.780   8.777   3.045  1.00  0.00     0.210 HD
ENDBRANCH   4  31
TORSDOF 8
ENDMDL
