MODEL 3
REMARK VINA RESULT: -9.769606007      1.294      1.461
REMARK  9 active torsions:
REMARK  status: ('A' for Active; 'I' for Inactive)
REMARK    1  A    between atoms: N5_13  and  C6_14 
REMARK    2  A    between atoms: C7_16  and  C8_17 
REMARK    3  A    between atoms: C8_17  and  S1_18 
REMARK    4  A    between atoms: S1_18  and  S2_19 
REMARK    5  A    between atoms: S2_19  and  C9_20 
REMARK    6  A    between atoms: C9_20  and  C10_21 
REMARK    7  A    between atoms: C14_25  and  N6_26 
REMARK    8  A    between atoms: C16_30  and  O4_31 
REMARK    9  A    between atoms: C17_33  and  O5_34 
ROOT
HETATM    1  C6  UNL     1      14.792  10.400   0.232  1.00  0.00     0.262 C 
HETATM    2  O1  UNL     1      15.845  11.000   0.920  1.00  0.00    -0.355 OA
HETATM    3  C7  UNL     1      15.448  10.911   2.235  1.00  0.00     0.165 C 
HETATM    4  C16 UNL     1      14.793   9.532   2.386  1.00  0.00     0.180 C 
HETATM    5  C17 UNL     1      14.711   9.067   0.944  1.00  0.00     0.198 C 
ENDROOT
BRANCH   1   6
HETATM    6  N5  UNL     1      14.951  10.306  -1.167  1.00  0.00    -0.297 N 
HETATM    7  C3  UNL     1      14.049  10.045  -2.122  1.00  0.00     0.142 A 
HETATM    8  N3  UNL     1      12.746   9.794  -2.083  1.00  0.00    -0.336 N 
HETATM    9  C4  UNL     1      14.679  10.059  -3.351  1.00  0.00     0.119 A 
HETATM   10  C2  UNL     1      12.063   9.559  -3.223  1.00  0.00     0.183 A 
ATOM     11  H3  UNL     1      12.259   9.777  -1.188  1.00  0.00     0.168 HD
HETATM   12  N2  UNL     1      12.683   9.573  -4.433  1.00  0.00    -0.339 N 
HETATM   13  C1  UNL     1      13.992   9.820  -4.532  1.00  0.00     0.148 A 
ATOM     14  H2  UNL     1      12.140   9.392  -5.278  1.00  0.00     0.167 HD
HETATM   15  N1  UNL     1      14.699   9.849  -5.760  1.00  0.00    -0.080 NA
HETATM   16  N4  UNL     1      15.966  10.330  -3.137  1.00  0.00    -0.346 N 
HETATM   17  C5  UNL     1      16.131  10.479  -1.830  1.00  0.00     0.188 A 
ATOM     18  H4  UNL     1      16.693  10.409  -3.849  1.00  0.00     0.167 HD
ENDBRANCH   1   6
BRANCH   5  19
HETATM   19  O5  UNL     1      13.528   8.399   0.666  1.00  0.00    -0.388 OA
ATOM     20  H5  UNL     1      12.769   8.856   1.010  1.00  0.00     0.210 HD
ENDBRANCH   5  19
BRANCH   3  21
HETATM   21  C8  UNL     1      16.597  10.956   3.206  1.00  0.00     0.120 C 
BRANCH  21  22
HETATM   22  S1  UNL     1      16.968   9.275   3.840  1.00  0.00    -0.095 SA
BRANCH  22  23
HETATM   23  S2  UNL     1      16.205   9.074   5.832  1.00  0.00    -0.093 SA
BRANCH  23  24
HETATM   24  C9  UNL     1      14.795  10.205   5.987  1.00  0.00     0.124 C 
BRANCH  24  25
HETATM   25  C10 UNL     1      14.051   9.916   7.237  1.00  0.00    -0.046 A 
HETATM   26  C11 UNL     1      13.368   8.731   7.433  1.00  0.00     0.008 A 
HETATM   27  C12 UNL     1      12.691   8.525   8.623  1.00  0.00     0.003 A 
HETATM   28  C13 UNL     1      12.662   9.456   9.640  1.00  0.00     0.036 A 
HETATM   29  C14 UNL     1      13.350  10.638   9.429  1.00  0.00     0.103 A 
HETATM   30  C15 UNL     1      14.019  10.844   8.255  1.00  0.00     0.043 A 
BRANCH  29  31
HETATM   31  N6  UNL     1      13.346  11.619  10.447  1.00  0.00    -0.116 N 
HETATM   32  O2  UNL     1      14.087  11.521  11.446  1.00  0.00    -0.532 OA
HETATM   33  O3  UNL     1      12.510  12.706  10.342  1.00  0.00    -0.532 OA
ENDBRANCH  29  31
ENDBRANCH  24  25
ENDBRANCH  23  24
ENDBRANCH  22  23
ENDBRANCH  21  22
ENDBRANCH   3  21
BRANCH   4  34
HETATM   34  O4  UNL     1      13.533   9.721   2.913  1.00  0.00    -0.390 OA
ATOM     35  H4  UNL     1      12.935   9.146   2.450  1.00  0.00     0.210 HD
ENDBRANCH   4  34
TORSDOF 9
ENDMDL
