MODEL 6
REMARK VINA RESULT: -9.662428439      4.024      5.376
REMARK  9 active torsions:
REMARK  status: ('A' for Active; 'I' for Inactive)
REMARK    1  A    between atoms: N5_13  and  C6_14 
REMARK    2  A    between atoms: C7_16  and  C8_17 
REMARK    3  A    between atoms: C8_17  and  S1_18 
REMARK    4  A    between atoms: S1_18  and  S2_19 
REMARK    5  A    between atoms: S2_19  and  C9_20 
REMARK    6  A    between atoms: C9_20  and  C10_21 
REMARK    7  A    between atoms: C14_25  and  N6_26 
REMARK    8  A    between atoms: C16_30  and  O4_31 
REMARK    9  A    between atoms: C17_33  and  O5_34 
ROOT
HETATM    1  C6  UNL     1      13.633   9.417   0.007  1.00  0.00     0.262 C 
HETATM    2  O1  UNL     1      13.732  10.474   0.910  1.00  0.00    -0.355 OA
HETATM    3  C7  UNL     1      13.193   9.949   2.063  1.00  0.00     0.165 C 
HETATM    4  C16 UNL     1      13.691   8.499   2.140  1.00  0.00     0.180 C 
HETATM    5  C17 UNL     1      14.334   8.320   0.778  1.00  0.00     0.198 C 
ENDROOT
BRANCH   1   6
HETATM    6  N5  UNL     1      14.164   9.659  -1.277  1.00  0.00    -0.297 N 
HETATM    7  C3  UNL     1      13.581   9.585  -2.480  1.00  0.00     0.142 A 
HETATM    8  N3  UNL     1      12.350   9.269  -2.864  1.00  0.00    -0.336 N 
HETATM    9  C4  UNL     1      14.506   9.915  -3.451  1.00  0.00     0.119 A 
HETATM   10  C2  UNL     1      12.022   9.273  -4.172  1.00  0.00     0.183 A 
ATOM     11  H3  UNL     1      11.649   9.021  -2.167  1.00  0.00     0.168 HD
HETATM   12  N2  UNL     1      12.932   9.598  -5.128  1.00  0.00    -0.339 N 
HETATM   13  C1  UNL     1      14.186   9.925  -4.800  1.00  0.00     0.148 A 
ATOM     14  H2  UNL     1      12.655   9.593  -6.110  1.00  0.00     0.167 HD
HETATM   15  N1  UNL     1      15.184  10.273  -5.744  1.00  0.00    -0.080 NA
HETATM   16  N4  UNL     1      15.653  10.191  -2.831  1.00  0.00    -0.346 N 
HETATM   17  C5  UNL     1      15.450  10.038  -1.529  1.00  0.00     0.188 A 
ATOM     18  H4  UNL     1      16.529  10.468  -3.276  1.00  0.00     0.167 HD
ENDBRANCH   1   6
BRANCH   5  19
HETATM   19  O5  UNL     1      14.092   7.065   0.236  1.00  0.00    -0.388 OA
ATOM     20  H5  UNL     1      14.865   6.513   0.254  1.00  0.00     0.210 HD
ENDBRANCH   5  19
BRANCH   3  21
HETATM   21  C8  UNL     1      13.672  10.641   3.310  1.00  0.00     0.120 C 
BRANCH  21  22
HETATM   22  S1  UNL     1      13.985   9.418   4.643  1.00  0.00    -0.095 SA
BRANCH  22  23
HETATM   23  S2  UNL     1      16.087   9.314   5.044  1.00  0.00    -0.093 SA
BRANCH  23  24
HETATM   24  C9  UNL     1      16.929   9.088   3.453  1.00  0.00     0.124 C 
BRANCH  24  25
HETATM   25  C10 UNL     1      17.239  10.410   2.855  1.00  0.00    -0.046 A 
HETATM   26  C11 UNL     1      16.889  11.598   3.467  1.00  0.00     0.008 A 
HETATM   27  C12 UNL     1      17.207  12.798   2.853  1.00  0.00     0.003 A 
HETATM   28  C13 UNL     1      17.865  12.870   1.644  1.00  0.00     0.036 A 
HETATM   29  C14 UNL     1      18.210  11.672   1.043  1.00  0.00     0.103 A 
HETATM   30  C15 UNL     1      17.897  10.486   1.646  1.00  0.00     0.043 A 
BRANCH  29  31
HETATM   31  N6  UNL     1      18.887  11.703  -0.197  1.00  0.00    -0.116 N 
HETATM   32  O2  UNL     1      20.094  12.010  -0.271  1.00  0.00    -0.532 OA
HETATM   33  O3  UNL     1      18.208  11.388  -1.352  1.00  0.00    -0.532 OA
ENDBRANCH  29  31
ENDBRANCH  24  25
ENDBRANCH  23  24
ENDBRANCH  22  23
ENDBRANCH  21  22
ENDBRANCH   3  21
BRANCH   4  34
HETATM   34  O4  UNL     1      12.587   7.684   2.274  1.00  0.00    -0.390 OA
ATOM     35  H4  UNL     1      12.896   6.789   2.352  1.00  0.00     0.210 HD
ENDBRANCH   4  34
TORSDOF 9
ENDMDL
