MODEL 7
REMARK VINA RESULT: -9.552754263      5.628      9.616
REMARK  9 active torsions:
REMARK  status: ('A' for Active; 'I' for Inactive)
REMARK    1  A    between atoms: N5_13  and  C6_14 
REMARK    2  A    between atoms: C7_16  and  C8_17 
REMARK    3  A    between atoms: C8_17  and  S1_18 
REMARK    4  A    between atoms: S1_18  and  S2_19 
REMARK    5  A    between atoms: S2_19  and  C9_20 
REMARK    6  A    between atoms: C9_20  and  C10_21 
REMARK    7  A    between atoms: C14_25  and  N6_26 
REMARK    8  A    between atoms: C16_30  and  O4_31 
REMARK    9  A    between atoms: C17_33  and  O5_34 
ROOT
HETATM    1  C6  UNL     1      18.889   9.443   3.379  1.00  0.00     0.262 C 
HETATM    2  O1  UNL     1      17.697   9.873   3.958  1.00  0.00    -0.355 OA
HETATM    3  C7  UNL     1      17.518  11.123   3.410  1.00  0.00     0.165 C 
HETATM    4  C16 UNL     1      17.949  11.007   1.942  1.00  0.00     0.180 C 
HETATM    5  C17 UNL     1      18.573   9.624   1.910  1.00  0.00     0.198 C 
ENDROOT
BRANCH   1   6
HETATM    6  N5  UNL     1      19.305   8.142   3.731  1.00  0.00    -0.297 N 
HETATM    7  C3  UNL     1      20.427   7.480   3.418  1.00  0.00     0.142 A 
HETATM    8  N3  UNL     1      21.491   7.807   2.696  1.00  0.00    -0.336 N 
HETATM    9  C4  UNL     1      20.386   6.227   3.997  1.00  0.00     0.119 A 
HETATM   10  C2  UNL     1      22.503   6.930   2.537  1.00  0.00     0.183 A 
ATOM     11  H3  UNL     1      21.545   8.727   2.258  1.00  0.00     0.168 HD
HETATM   12  N2  UNL     1      22.464   5.696   3.107  1.00  0.00    -0.339 N 
HETATM   13  C1  UNL     1      21.417   5.312   3.844  1.00  0.00     0.148 A 
ATOM     14  H2  UNL     1      23.244   5.053   2.971  1.00  0.00     0.167 HD
HETATM   15  N1  UNL     1      21.311   4.042   4.465  1.00  0.00    -0.080 NA
HETATM   16  N4  UNL     1      19.235   6.132   4.662  1.00  0.00    -0.346 N 
HETATM   17  C5  UNL     1      18.587   7.278   4.504  1.00  0.00     0.188 A 
ATOM     18  H4  UNL     1      18.911   5.324   5.196  1.00  0.00     0.167 HD
ENDBRANCH   1   6
BRANCH   5  19
HETATM   19  O5  UNL     1      19.713   9.572   1.121  1.00  0.00    -0.388 OA
ATOM     20  H5  UNL     1      20.300   8.875   1.387  1.00  0.00     0.210 HD
ENDBRANCH   5  19
BRANCH   3  21
HETATM   21  C8  UNL     1      16.081  11.571   3.409  1.00  0.00     0.120 C 
BRANCH  21  22
HETATM   22  S1  UNL     1      14.967  10.149   3.729  1.00  0.00    -0.095 SA
BRANCH  22  23
HETATM   23  S2  UNL     1      14.599   9.098   1.898  1.00  0.00    -0.093 SA
BRANCH  23  24
HETATM   24  C9  UNL     1      13.645  10.205   0.823  1.00  0.00     0.124 C 
BRANCH  24  25
HETATM   25  C10 UNL     1      14.170  10.140  -0.563  1.00  0.00    -0.046 A 
HETATM   26  C11 UNL     1      15.508  10.327  -0.855  1.00  0.00     0.008 A 
HETATM   27  C12 UNL     1      15.932  10.254  -2.171  1.00  0.00     0.003 A 
HETATM   28  C13 UNL     1      15.076  10.001  -3.222  1.00  0.00     0.036 A 
HETATM   29  C14 UNL     1      13.740   9.816  -2.914  1.00  0.00     0.103 A 
HETATM   30  C15 UNL     1      13.318   9.887  -1.616  1.00  0.00     0.043 A 
BRANCH  29  31
HETATM   31  N6  UNL     1      12.830   9.553  -3.962  1.00  0.00    -0.116 N 
HETATM   32  O2  UNL     1      11.646   9.233  -3.730  1.00  0.00    -0.532 OA
HETATM   33  O3  UNL     1      13.249   9.649  -5.269  1.00  0.00    -0.532 OA
ENDBRANCH  29  31
ENDBRANCH  24  25
ENDBRANCH  23  24
ENDBRANCH  22  23
ENDBRANCH  21  22
ENDBRANCH   3  21
BRANCH   4  34
HETATM   34  O4  UNL     1      18.897  11.979   1.704  1.00  0.00    -0.390 OA
ATOM     35  H4  UNL     1      19.122  11.945   0.782  1.00  0.00     0.210 HD
ENDBRANCH   4  34
TORSDOF 9
ENDMDL
