MODEL 4
REMARK VINA RESULT: -9.726296266      4.017      5.295
REMARK  9 active torsions:
REMARK  status: ('A' for Active; 'I' for Inactive)
REMARK    1  A    between atoms: N5_13  and  C6_14 
REMARK    2  A    between atoms: C7_16  and  C8_17 
REMARK    3  A    between atoms: C8_17  and  S1_18 
REMARK    4  A    between atoms: S1_18  and  S2_19 
REMARK    5  A    between atoms: S2_19  and  C9_20 
REMARK    6  A    between atoms: C9_20  and  C10_21 
REMARK    7  A    between atoms: C14_25  and  N6_26 
REMARK    8  A    between atoms: C16_30  and  O4_31 
REMARK    9  A    between atoms: C17_33  and  O5_34 
ROOT
HETATM    1  C6  UNL     1      13.606   9.429  -0.026  1.00  0.00     0.262 C 
HETATM    2  O1  UNL     1      13.679  10.517   0.841  1.00  0.00    -0.355 OA
HETATM    3  C7  UNL     1      13.139  10.022   2.007  1.00  0.00     0.165 C 
HETATM    4  C16 UNL     1      13.659   8.584   2.137  1.00  0.00     0.180 C 
HETATM    5  C17 UNL     1      14.318   8.370   0.787  1.00  0.00     0.198 C 
ENDROOT
BRANCH   1   6
HETATM    6  N5  UNL     1      14.144   9.636  -1.314  1.00  0.00    -0.297 N 
HETATM    7  C3  UNL     1      13.554   9.579  -2.515  1.00  0.00     0.142 A 
HETATM    8  N3  UNL     1      12.309   9.317  -2.893  1.00  0.00    -0.336 N 
HETATM    9  C4  UNL     1      14.491   9.859  -3.490  1.00  0.00     0.119 A 
HETATM   10  C2  UNL     1      11.978   9.326  -4.201  1.00  0.00     0.183 A 
ATOM     11  H3  UNL     1      11.599   9.107  -2.192  1.00  0.00     0.168 HD
HETATM   12  N2  UNL     1      12.900   9.602  -5.161  1.00  0.00    -0.339 N 
HETATM   13  C1  UNL     1      14.168   9.873  -4.838  1.00  0.00     0.148 A 
ATOM     14  H2  UNL     1      12.620   9.602  -6.142  1.00  0.00     0.167 HD
HETATM   15  N1  UNL     1      15.179  10.168  -5.787  1.00  0.00    -0.080 NA
HETATM   16  N4  UNL     1      15.652  10.087  -2.875  1.00  0.00    -0.346 N 
HETATM   17  C5  UNL     1      15.445   9.954  -1.571  1.00  0.00     0.188 A 
ATOM     18  H4  UNL     1      16.537  10.321  -3.324  1.00  0.00     0.167 HD
ENDBRANCH   1   6
BRANCH   5  19
HETATM   19  O5  UNL     1      14.102   7.094   0.286  1.00  0.00    -0.388 OA
ATOM     20  H5  UNL     1      14.912   6.668   0.032  1.00  0.00     0.210 HD
ENDBRANCH   5  19
BRANCH   3  21
HETATM   21  C8  UNL     1      13.595  10.764   3.234  1.00  0.00     0.120 C 
BRANCH  21  22
HETATM   22  S1  UNL     1      14.007   9.585   4.580  1.00  0.00    -0.095 SA
BRANCH  22  23
HETATM   23  S2  UNL     1      15.989   9.973   5.294  1.00  0.00    -0.093 SA
BRANCH  23  24
HETATM   24  C9  UNL     1      16.631  11.390   4.360  1.00  0.00     0.124 C 
BRANCH  24  25
HETATM   25  C10 UNL     1      17.462  10.912   3.226  1.00  0.00    -0.046 A 
HETATM   26  C11 UNL     1      18.198   9.745   3.291  1.00  0.00     0.008 A 
HETATM   27  C12 UNL     1      18.954   9.357   2.198  1.00  0.00     0.003 A 
HETATM   28  C13 UNL     1      19.012  10.086   1.029  1.00  0.00     0.036 A 
HETATM   29  C14 UNL     1      18.269  11.253   0.979  1.00  0.00     0.103 A 
HETATM   30  C15 UNL     1      17.522  11.639   2.057  1.00  0.00     0.043 A 
BRANCH  29  31
HETATM   31  N6  UNL     1      18.300  12.029  -0.201  1.00  0.00    -0.116 N 
HETATM   32  O2  UNL     1      18.371  13.275  -0.158  1.00  0.00    -0.532 OA
HETATM   33  O3  UNL     1      18.250  11.408  -1.427  1.00  0.00    -0.532 OA
ENDBRANCH  29  31
ENDBRANCH  24  25
ENDBRANCH  23  24
ENDBRANCH  22  23
ENDBRANCH  21  22
ENDBRANCH   3  21
BRANCH   4  34
HETATM   34  O4  UNL     1      12.569   7.755   2.289  1.00  0.00    -0.390 OA
ATOM     35  H4  UNL     1      12.881   6.925   2.630  1.00  0.00     0.210 HD
ENDBRANCH   4  34
TORSDOF 9
ENDMDL
