MODEL 1
REMARK VINA RESULT: -9.962135742      0.000      0.000
REMARK  9 active torsions:
REMARK  status: ('A' for Active; 'I' for Inactive)
REMARK    1  A    between atoms: N5_13  and  C6_14 
REMARK    2  A    between atoms: C7_16  and  C8_17 
REMARK    3  A    between atoms: C8_17  and  S1_18 
REMARK    4  A    between atoms: S1_18  and  S2_19 
REMARK    5  A    between atoms: S2_19  and  C9_20 
REMARK    6  A    between atoms: C9_20  and  C10_21 
REMARK    7  A    between atoms: C14_25  and  N6_26 
REMARK    8  A    between atoms: C16_30  and  O4_31 
REMARK    9  A    between atoms: C17_33  and  O5_34 
ROOT
HETATM    1  C6  UNL     1      13.646   9.680  -0.185  1.00  0.00     0.262 C 
HETATM    2  O1  UNL     1      13.748  10.802   0.635  1.00  0.00    -0.355 OA
HETATM    3  C7  UNL     1      13.186  10.375   1.817  1.00  0.00     0.165 C 
HETATM    4  C16 UNL     1      13.660   8.929   2.013  1.00  0.00     0.180 C 
HETATM    5  C17 UNL     1      14.320   8.636   0.678  1.00  0.00     0.198 C 
ENDROOT
BRANCH   1   6
HETATM    6  N5  UNL     1      14.198   9.815  -1.477  1.00  0.00    -0.297 N 
HETATM    7  C3  UNL     1      13.616   9.716  -2.678  1.00  0.00     0.142 A 
HETATM    8  N3  UNL     1      12.367   9.465  -3.055  1.00  0.00    -0.336 N 
HETATM    9  C4  UNL     1      14.566   9.928  -3.658  1.00  0.00     0.119 A 
HETATM   10  C2  UNL     1      12.046   9.420  -4.364  1.00  0.00     0.183 A 
ATOM     11  H3  UNL     1      11.648   9.304  -2.350  1.00  0.00     0.168 HD
HETATM   12  N2  UNL     1      12.981   9.629  -5.328  1.00  0.00    -0.339 N 
HETATM   13  C1  UNL     1      14.253   9.886  -5.008  1.00  0.00     0.148 A 
ATOM     14  H2  UNL     1      12.708   9.590  -6.310  1.00  0.00     0.167 HD
HETATM   15  N1  UNL     1      15.277  10.112  -5.962  1.00  0.00    -0.080 NA
HETATM   16  N4  UNL     1      15.727  10.156  -3.045  1.00  0.00    -0.346 N 
HETATM   17  C5  UNL     1      15.508  10.089  -1.738  1.00  0.00     0.188 A 
ATOM     18  H4  UNL     1      16.621  10.348  -3.497  1.00  0.00     0.167 HD
ENDBRANCH   1   6
BRANCH   5  19
HETATM   19  O5  UNL     1      14.066   7.347   0.231  1.00  0.00    -0.388 OA
ATOM     20  H5  UNL     1      13.979   6.731   0.949  1.00  0.00     0.210 HD
ENDBRANCH   5  19
BRANCH   3  21
HETATM   21  C8  UNL     1      13.658  11.156   3.014  1.00  0.00     0.120 C 
BRANCH  21  22
HETATM   22  S1  UNL     1      15.451  10.881   3.291  1.00  0.00    -0.095 SA
BRANCH  22  23
HETATM   23  S2  UNL     1      15.731   9.678   5.042  1.00  0.00    -0.093 SA
BRANCH  23  24
HETATM   24  C9  UNL     1      14.090   9.129   5.588  1.00  0.00     0.124 C 
BRANCH  24  25
HETATM   25  C10 UNL     1      14.023   9.135   7.070  1.00  0.00    -0.046 A 
HETATM   26  C11 UNL     1      14.455   8.066   7.832  1.00  0.00     0.008 A 
HETATM   27  C12 UNL     1      14.362   8.134   9.212  1.00  0.00     0.003 A 
HETATM   28  C13 UNL     1      13.855   9.231   9.876  1.00  0.00     0.036 A 
HETATM   29  C14 UNL     1      13.427  10.293   9.099  1.00  0.00     0.103 A 
HETATM   30  C15 UNL     1      13.516  10.228   7.737  1.00  0.00     0.043 A 
BRANCH  29  31
HETATM   31  N6  UNL     1      12.900  11.437   9.741  1.00  0.00    -0.116 N 
HETATM   32  O2  UNL     1      11.963  12.091   9.238  1.00  0.00    -0.532 OA
HETATM   33  O3  UNL     1      13.426  11.846  10.945  1.00  0.00    -0.532 OA
ENDBRANCH  29  31
ENDBRANCH  24  25
ENDBRANCH  23  24
ENDBRANCH  22  23
ENDBRANCH  21  22
ENDBRANCH   3  21
BRANCH   4  34
HETATM   34  O4  UNL     1      12.543   8.142   2.193  1.00  0.00    -0.390 OA
ATOM     35  H4  UNL     1      12.705   7.576   2.938  1.00  0.00     0.210 HD
ENDBRANCH   4  34
TORSDOF 9
ENDMDL
