MODEL 1
REMARK VINA RESULT: -8.577289829      0.000      0.000
REMARK  11 active torsions:
REMARK  status: ('A' for Active; 'I' for Inactive)
REMARK    1  A    between atoms: N5_13  and  C6_14 
REMARK    2  A    between atoms: C7_16  and  C8_17 
REMARK    3  A    between atoms: C8_17  and  S1_18 
REMARK    4  A    between atoms: S1_18  and  C9_19 
REMARK    5  A    between atoms: C9_19  and  C10_20 
REMARK    6  A    between atoms: C10_20  and  C11_21 
REMARK    7  A    between atoms: C11_21  and  O2_22 
REMARK    8  A    between atoms: C11_21  and  C12_24 
REMARK    9  A    between atoms: C12_24  and  O3_25 
REMARK   10  A    between atoms: C13_27  and  O4_28 
REMARK   11  A    between atoms: C14_30  and  O5_31 
ROOT
HETATM    1  C6  UNL     1      13.962   9.690   0.304  1.00  0.00     0.262 C 
HETATM    2  O1  UNL     1      14.154  10.752   1.174  1.00  0.00    -0.355 OA
HETATM    3  C7  UNL     1      13.708  10.270   2.404  1.00  0.00     0.165 C 
HETATM    4  C13 UNL     1      13.811   8.794   2.432  1.00  0.00     0.180 C 
HETATM    5  C14 UNL     1      14.568   8.533   1.118  1.00  0.00     0.198 C 
ENDROOT
BRANCH   1   6
HETATM    6  N5  UNL     1      14.562   9.842  -0.977  1.00  0.00    -0.297 N 
HETATM    7  C3  UNL     1      13.892   9.674  -2.154  1.00  0.00     0.142 A 
HETATM    8  N3  UNL     1      12.609   9.351  -2.396  1.00  0.00    -0.336 N 
HETATM    9  C4  UNL     1      14.740   9.888  -3.203  1.00  0.00     0.119 A 
HETATM   10  C2  UNL     1      12.087   9.221  -3.619  1.00  0.00     0.183 A 
ATOM     11  H3  UNL     1      11.996   9.196  -1.595  1.00  0.00     0.168 HD
HETATM   12  N2  UNL     1      12.923   9.432  -4.673  1.00  0.00    -0.339 N 
HETATM   13  C1  UNL     1      14.214   9.756  -4.477  1.00  0.00     0.148 A 
ATOM     14  H2  UNL     1      12.566   9.344  -5.624  1.00  0.00     0.167 HD
HETATM   15  N1  UNL     1      15.048   9.967  -5.594  1.00  0.00    -0.080 NA
HETATM   16  N4  UNL     1      15.926  10.185  -2.667  1.00  0.00    -0.346 N 
HETATM   17  C5  UNL     1      15.803  10.153  -1.314  1.00  0.00     0.188 A 
ATOM     18  H4  UNL     1      16.778  10.398  -3.184  1.00  0.00     0.167 HD
ENDBRANCH   1   6
BRANCH   5  19
HETATM   19  O5  UNL     1      14.172   7.340   0.569  1.00  0.00    -0.388 OA
ATOM     20  H5  UNL     1      14.189   6.668   1.239  1.00  0.00     0.210 HD
ENDBRANCH   5  19
BRANCH   3  21
HETATM   21  C8  UNL     1      14.192  11.014   3.588  1.00  0.00     0.108 C 
BRANCH  21  22
HETATM   22  S1  UNL     1      15.099  10.150   4.830  1.00  0.00    -0.166 SA
BRANCH  22  23
HETATM   23  C9  UNL     1      14.031   9.493   6.112  1.00  0.00     0.076 C 
BRANCH  23  24
HETATM   24  C10 UNL     1      14.000  10.328   7.370  1.00  0.00     0.044 C 
BRANCH  24  25
HETATM   25  C11 UNL     1      14.651   9.676   8.543  1.00  0.00     0.142 C 
BRANCH  25  26
HETATM   26  O2  UNL     1      15.879   9.082   8.244  1.00  0.00    -0.393 OA
ATOM     27  H2  UNL     1      16.358   8.791   9.011  1.00  0.00     0.210 HD
ENDBRANCH  25  26
BRANCH  25  28
HETATM   28  C12 UNL     1      14.685  10.486   9.794  1.00  0.00     0.195 C 
BRANCH  28  29
HETATM   29  O3  UNL     1      14.183  11.758   9.492  1.00  0.00    -0.398 OA
ATOM     30  H3  UNL     1      13.449  11.925  10.070  1.00  0.00     0.209 HD
ENDBRANCH  28  29
ENDBRANCH  25  28
ENDBRANCH  24  25
ENDBRANCH  23  24
ENDBRANCH  22  23
ENDBRANCH  21  22
ENDBRANCH   3  21
BRANCH   4  31
HETATM   31  O4  UNL     1      12.535   8.204   2.174  1.00  0.00    -0.390 OA
ATOM     32  H4  UNL     1      12.495   7.331   2.545  1.00  0.00     0.210 HD
ENDBRANCH   4  31
TORSDOF 11
ENDMDL
