MODEL 8
REMARK VINA RESULT: -7.922356757      4.272      8.234
REMARK  11 active torsions:
REMARK  status: ('A' for Active; 'I' for Inactive)
REMARK    1  A    between atoms: N5_13  and  C6_14 
REMARK    2  A    between atoms: C7_16  and  C8_17 
REMARK    3  A    between atoms: C8_17  and  S1_18 
REMARK    4  A    between atoms: S1_18  and  C9_19 
REMARK    5  A    between atoms: C9_19  and  C10_20 
REMARK    6  A    between atoms: C10_20  and  C11_21 
REMARK    7  A    between atoms: C11_21  and  O2_22 
REMARK    8  A    between atoms: C11_21  and  C12_24 
REMARK    9  A    between atoms: C12_24  and  O3_25 
REMARK   10  A    between atoms: C13_27  and  O4_28 
REMARK   11  A    between atoms: C14_30  and  O5_31 
ROOT
HETATM    1  C6  UNL     1      16.158   9.764   3.218  1.00  0.00     0.262 C 
HETATM    2  O1  UNL     1      15.666   9.342   1.992  1.00  0.00    -0.355 OA
HETATM    3  C7  UNL     1      14.282   9.436   2.129  1.00  0.00     0.165 C 
HETATM    4  C13 UNL     1      13.946  10.443   3.160  1.00  0.00     0.180 C 
HETATM    5  C14 UNL     1      15.335  11.045   3.437  1.00  0.00     0.198 C 
ENDROOT
BRANCH   1   6
HETATM    6  N5  UNL     1      17.561   9.990   3.261  1.00  0.00    -0.297 N 
HETATM    7  C3  UNL     1      18.260  10.617   2.270  1.00  0.00     0.142 A 
HETATM    8  N3  UNL     1      17.849  11.138   1.100  1.00  0.00    -0.336 N 
HETATM    9  C4  UNL     1      19.582  10.680   2.606  1.00  0.00     0.119 A 
HETATM   10  C2  UNL     1      18.660  11.729   0.218  1.00  0.00     0.183 A 
ATOM     11  H3  UNL     1      16.857  11.078   0.873  1.00  0.00     0.168 HD
HETATM   12  N2  UNL     1      19.980  11.798   0.542  1.00  0.00    -0.339 N 
HETATM   13  C1  UNL     1      20.435  11.289   1.702  1.00  0.00     0.148 A 
ATOM     14  H2  UNL     1      20.635  12.242  -0.102  1.00  0.00     0.167 HD
HETATM   15  N1  UNL     1      21.810  11.380   2.002  1.00  0.00    -0.080 NA
HETATM   16  N4  UNL     1      19.690  10.092   3.800  1.00  0.00    -0.346 N 
HETATM   17  C5  UNL     1      18.455   9.678   4.185  1.00  0.00     0.188 A 
ATOM     18  H4  UNL     1      20.552   9.973   4.331  1.00  0.00     0.167 HD
ENDBRANCH   1   6
BRANCH   5  19
HETATM   19  O5  UNL     1      15.435  11.427   4.750  1.00  0.00    -0.388 OA
ATOM     20  H5  UNL     1      14.932  12.221   4.884  1.00  0.00     0.210 HD
ENDBRANCH   5  19
BRANCH   3  21
HETATM   21  C8  UNL     1      13.521   9.474   0.860  1.00  0.00     0.108 C 
BRANCH  21  22
HETATM   22  S1  UNL     1      14.376   9.200  -0.659  1.00  0.00    -0.166 SA
BRANCH  22  23
HETATM   23  C9  UNL     1      13.752  10.239  -1.982  1.00  0.00     0.076 C 
BRANCH  23  24
HETATM   24  C10 UNL     1      12.841   9.518  -2.947  1.00  0.00     0.044 C 
BRANCH  24  25
HETATM   25  C11 UNL     1      13.458   9.264  -4.282  1.00  0.00     0.142 C 
BRANCH  25  26
HETATM   26  O2  UNL     1      12.582   9.466  -5.351  1.00  0.00    -0.393 OA
ATOM     27  H2  UNL     1      12.063   8.701  -5.567  1.00  0.00     0.210 HD
ENDBRANCH  25  26
BRANCH  25  28
HETATM   28  C12 UNL     1      14.797   9.881  -4.500  1.00  0.00     0.195 C 
BRANCH  28  29
HETATM   29  O3  UNL     1      15.034   9.909  -5.881  1.00  0.00    -0.398 OA
ATOM     30  H3  UNL     1      15.520   9.125  -6.106  1.00  0.00     0.209 HD
ENDBRANCH  28  29
ENDBRANCH  25  28
ENDBRANCH  24  25
ENDBRANCH  23  24
ENDBRANCH  22  23
ENDBRANCH  21  22
ENDBRANCH   3  21
BRANCH   4  31
HETATM   31  O4  UNL     1      13.639   9.799   4.399  1.00  0.00    -0.390 OA
ATOM     32  H4  UNL     1      13.512  10.447   5.082  1.00  0.00     0.210 HD
ENDBRANCH   4  31
TORSDOF 11
ENDMDL
