MODEL 9
REMARK VINA RESULT: -7.843631082      4.201      8.400
REMARK  11 active torsions:
REMARK  status: ('A' for Active; 'I' for Inactive)
REMARK    1  A    between atoms: N5_13  and  C6_14 
REMARK    2  A    between atoms: C7_16  and  C8_17 
REMARK    3  A    between atoms: C8_17  and  S1_18 
REMARK    4  A    between atoms: S1_18  and  C9_19 
REMARK    5  A    between atoms: C9_19  and  C10_20 
REMARK    6  A    between atoms: C10_20  and  C11_21 
REMARK    7  A    between atoms: C11_21  and  O2_22 
REMARK    8  A    between atoms: C11_21  and  C12_24 
REMARK    9  A    between atoms: C12_24  and  O3_25 
REMARK   10  A    between atoms: C13_27  and  O4_28 
REMARK   11  A    between atoms: C14_30  and  O5_31 
ROOT
HETATM    1  C6  UNL     1      15.310   9.443   2.597  1.00  0.00     0.262 C 
HETATM    2  O1  UNL     1      15.181   9.536   1.220  1.00  0.00    -0.355 OA
HETATM    3  C7  UNL     1      13.821   9.771   1.020  1.00  0.00     0.165 C 
HETATM    4  C13 UNL     1      13.239  10.405   2.224  1.00  0.00     0.180 C 
HETATM    5  C14 UNL     1      14.509  10.676   3.050  1.00  0.00     0.198 C 
ENDROOT
BRANCH   1   6
HETATM    6  N5  UNL     1      16.648   9.441   3.081  1.00  0.00    -0.297 N 
HETATM    7  C3  UNL     1      17.639  10.232   2.576  1.00  0.00     0.142 A 
HETATM    8  N3  UNL     1      17.618  11.139   1.582  1.00  0.00    -0.336 N 
HETATM    9  C4  UNL     1      18.804  10.000   3.248  1.00  0.00     0.119 A 
HETATM   10  C2  UNL     1      18.681  11.848   1.193  1.00  0.00     0.183 A 
ATOM     11  H3  UNL     1      16.735  11.294   1.095  1.00  0.00     0.168 HD
HETATM   12  N2  UNL     1      19.849  11.625   1.857  1.00  0.00    -0.339 N 
HETATM   13  C1  UNL     1      19.915  10.726   2.856  1.00  0.00     0.148 A 
ATOM     14  H2  UNL     1      20.686  12.145   1.593  1.00  0.00     0.167 HD
HETATM   15  N1  UNL     1      21.143  10.524   3.520  1.00  0.00    -0.080 NA
HETATM   16  N4  UNL     1      18.525   9.067   4.162  1.00  0.00    -0.346 N 
HETATM   17  C5  UNL     1      17.212   8.737   4.048  1.00  0.00     0.188 A 
ATOM     18  H4  UNL     1      19.185   8.669   4.830  1.00  0.00     0.167 HD
ENDBRANCH   1   6
BRANCH   5  19
HETATM   19  O5  UNL     1      14.237  10.570   4.389  1.00  0.00    -0.388 OA
ATOM     20  H5  UNL     1      14.204  11.439   4.771  1.00  0.00     0.210 HD
ENDBRANCH   5  19
BRANCH   3  21
HETATM   21  C8  UNL     1      13.466  10.345  -0.297  1.00  0.00     0.108 C 
BRANCH  21  22
HETATM   22  S1  UNL     1      14.744  11.011  -1.314  1.00  0.00    -0.166 SA
BRANCH  22  23
HETATM   23  C9  UNL     1      15.308   9.836  -2.547  1.00  0.00     0.076 C 
BRANCH  23  24
HETATM   24  C10 UNL     1      14.189   9.144  -3.288  1.00  0.00     0.044 C 
BRANCH  24  25
HETATM   25  C11 UNL     1      14.170   9.428  -4.753  1.00  0.00     0.142 C 
BRANCH  25  26
HETATM   26  O2  UNL     1      12.885   9.592  -5.275  1.00  0.00    -0.393 OA
ATOM     27  H2  UNL     1      12.874   9.793  -6.204  1.00  0.00     0.210 HD
ENDBRANCH  25  26
BRANCH  25  28
HETATM   28  C12 UNL     1      15.126  10.473  -5.218  1.00  0.00     0.195 C 
BRANCH  28  29
HETATM   29  O3  UNL     1      16.070   9.850  -6.045  1.00  0.00    -0.398 OA
ATOM     30  H3  UNL     1      15.597   9.329  -6.683  1.00  0.00     0.209 HD
ENDBRANCH  28  29
ENDBRANCH  25  28
ENDBRANCH  24  25
ENDBRANCH  23  24
ENDBRANCH  22  23
ENDBRANCH  21  22
ENDBRANCH   3  21
BRANCH   4  31
HETATM   31  O4  UNL     1      12.560   9.429   3.017  1.00  0.00    -0.390 OA
ATOM     32  H4  UNL     1      13.179   8.794   3.358  1.00  0.00     0.210 HD
ENDBRANCH   4  31
TORSDOF 11
ENDMDL
