MODEL 6
REMARK VINA RESULT: -8.164658526      2.823      4.281
REMARK  11 active torsions:
REMARK  status: ('A' for Active; 'I' for Inactive)
REMARK    1  A    between atoms: N5_13  and  C6_14 
REMARK    2  A    between atoms: C7_16  and  C8_17 
REMARK    3  A    between atoms: C8_17  and  S1_18 
REMARK    4  A    between atoms: S1_18  and  C9_19 
REMARK    5  A    between atoms: C9_19  and  C10_20 
REMARK    6  A    between atoms: C10_20  and  C11_21 
REMARK    7  A    between atoms: C11_21  and  O2_22 
REMARK    8  A    between atoms: C11_21  and  C12_24 
REMARK    9  A    between atoms: C12_24  and  O3_25 
REMARK   10  A    between atoms: C13_27  and  O4_28 
REMARK   11  A    between atoms: C14_30  and  O5_31 
ROOT
HETATM    1  C6  UNL     1      14.668   9.863   1.641  1.00  0.00     0.262 C 
HETATM    2  O1  UNL     1      14.674  10.108   3.006  1.00  0.00    -0.355 OA
HETATM    3  C7  UNL     1      13.656   9.297   3.504  1.00  0.00     0.165 C 
HETATM    4  C13 UNL     1      13.438   8.150   2.595  1.00  0.00     0.180 C 
HETATM    5  C14 UNL     1      14.618   8.325   1.622  1.00  0.00     0.198 C 
ENDROOT
BRANCH   1   6
HETATM    6  N5  UNL     1      15.778  10.392   0.926  1.00  0.00    -0.297 N 
HETATM    7  C3  UNL     1      16.998  10.632   1.488  1.00  0.00     0.142 A 
HETATM    8  N3  UNL     1      17.436  10.451   2.746  1.00  0.00    -0.336 N 
HETATM    9  C4  UNL     1      17.848  11.137   0.547  1.00  0.00     0.119 A 
HETATM   10  C2  UNL     1      18.676  10.736   3.156  1.00  0.00     0.183 A 
ATOM     11  H3  UNL     1      16.781  10.073   3.431  1.00  0.00     0.168 HD
HETATM   12  N2  UNL     1      19.533  11.240   2.225  1.00  0.00    -0.339 N 
HETATM   13  C1  UNL     1      19.136  11.439   0.956  1.00  0.00     0.148 A 
ATOM     14  H2  UNL     1      20.489  11.471   2.495  1.00  0.00     0.167 HD
HETATM   15  N1  UNL     1      20.053  11.963   0.021  1.00  0.00    -0.080 NA
HETATM   16  N4  UNL     1      17.147  11.206  -0.588  1.00  0.00    -0.346 N 
HETATM   17  C5  UNL     1      15.892  10.750  -0.342  1.00  0.00     0.188 A 
ATOM     18  H4  UNL     1      17.495  11.544  -1.485  1.00  0.00     0.167 HD
ENDBRANCH   1   6
BRANCH   5  19
HETATM   19  O5  UNL     1      14.267   7.901   0.366  1.00  0.00    -0.388 OA
ATOM     20  H5  UNL     1      14.952   7.342   0.022  1.00  0.00     0.210 HD
ENDBRANCH   5  19
BRANCH   3  21
HETATM   21  C8  UNL     1      13.721   9.018   4.956  1.00  0.00     0.108 C 
BRANCH  21  22
HETATM   22  S1  UNL     1      14.650  10.101   5.994  1.00  0.00    -0.166 SA
BRANCH  22  23
HETATM   23  C9  UNL     1      14.490   9.673   7.729  1.00  0.00     0.076 C 
BRANCH  23  24
HETATM   24  C10 UNL     1      13.503  10.533   8.482  1.00  0.00     0.044 C 
BRANCH  24  25
HETATM   25  C11 UNL     1      13.856  10.741   9.917  1.00  0.00     0.142 C 
BRANCH  25  26
HETATM   26  O2  UNL     1      15.224  10.639  10.178  1.00  0.00    -0.393 OA
ATOM     27  H2  UNL     1      15.543  11.285  10.797  1.00  0.00     0.210 HD
ENDBRANCH  25  26
BRANCH  25  28
HETATM   28  C12 UNL     1      13.224  11.921  10.571  1.00  0.00     0.195 C 
BRANCH  28  29
HETATM   29  O3  UNL     1      12.270  12.441   9.686  1.00  0.00    -0.398 OA
ATOM     30  H3  UNL     1      12.217  13.377   9.834  1.00  0.00     0.209 HD
ENDBRANCH  28  29
ENDBRANCH  25  28
ENDBRANCH  24  25
ENDBRANCH  23  24
ENDBRANCH  22  23
ENDBRANCH  21  22
ENDBRANCH   3  21
BRANCH   4  31
HETATM   31  O4  UNL     1      12.308   8.392   1.754  1.00  0.00    -0.390 OA
ATOM     32  H4  UNL     1      11.998   7.577   1.377  1.00  0.00     0.210 HD
ENDBRANCH   4  31
TORSDOF 11
ENDMDL
