MODEL 3
REMARK VINA RESULT: -8.537824215      0.624      1.204
REMARK  11 active torsions:
REMARK  status: ('A' for Active; 'I' for Inactive)
REMARK    1  A    between atoms: N5_13  and  C6_14 
REMARK    2  A    between atoms: C7_16  and  C8_17 
REMARK    3  A    between atoms: C8_17  and  S1_18 
REMARK    4  A    between atoms: S1_18  and  C9_19 
REMARK    5  A    between atoms: C9_19  and  C10_20 
REMARK    6  A    between atoms: C10_20  and  C11_21 
REMARK    7  A    between atoms: C11_21  and  O2_22 
REMARK    8  A    between atoms: C11_21  and  C12_24 
REMARK    9  A    between atoms: C12_24  and  O3_25 
REMARK   10  A    between atoms: C13_27  and  O4_28 
REMARK   11  A    between atoms: C14_30  and  O5_31 
ROOT
HETATM    1  C6  UNL     1      13.948   9.674   0.262  1.00  0.00     0.262 C 
HETATM    2  O1  UNL     1      14.143  10.738   1.129  1.00  0.00    -0.355 OA
HETATM    3  C7  UNL     1      13.721  10.253   2.366  1.00  0.00     0.165 C 
HETATM    4  C13 UNL     1      13.838   8.778   2.393  1.00  0.00     0.180 C 
HETATM    5  C14 UNL     1      14.577   8.523   1.067  1.00  0.00     0.198 C 
ENDROOT
BRANCH   1   6
HETATM    6  N5  UNL     1      14.527   9.830  -1.028  1.00  0.00    -0.297 N 
HETATM    7  C3  UNL     1      13.839   9.662  -2.194  1.00  0.00     0.142 A 
HETATM    8  N3  UNL     1      12.553   9.336  -2.416  1.00  0.00    -0.336 N 
HETATM    9  C4  UNL     1      14.668   9.882  -3.256  1.00  0.00     0.119 A 
HETATM   10  C2  UNL     1      12.011   9.207  -3.631  1.00  0.00     0.183 A 
ATOM     11  H3  UNL     1      11.953   9.177  -1.606  1.00  0.00     0.168 HD
HETATM   12  N2  UNL     1      12.830   9.423  -4.697  1.00  0.00    -0.339 N 
HETATM   13  C1  UNL     1      14.123   9.750  -4.522  1.00  0.00     0.148 A 
ATOM     14  H2  UNL     1      12.458   9.335  -5.643  1.00  0.00     0.167 HD
HETATM   15  N1  UNL     1      14.938   9.966  -5.652  1.00  0.00    -0.080 NA
HETATM   16  N4  UNL     1      15.862  10.181  -2.738  1.00  0.00    -0.346 N 
HETATM   17  C5  UNL     1      15.761  10.147  -1.384  1.00  0.00     0.188 A 
ATOM     18  H4  UNL     1      16.705  10.399  -3.269  1.00  0.00     0.167 HD
ENDBRANCH   1   6
BRANCH   5  19
HETATM   19  O5  UNL     1      14.184   7.326   0.526  1.00  0.00    -0.388 OA
ATOM     20  H5  UNL     1      14.948   6.859   0.212  1.00  0.00     0.210 HD
ENDBRANCH   5  19
BRANCH   3  21
HETATM   21  C8  UNL     1      14.216  11.002   3.542  1.00  0.00     0.108 C 
BRANCH  21  22
HETATM   22  S1  UNL     1      15.071  10.129   4.815  1.00  0.00    -0.166 SA
BRANCH  22  23
HETATM   23  C9  UNL     1      13.965   9.577   6.115  1.00  0.00     0.076 C 
BRANCH  23  24
HETATM   24  C10 UNL     1      14.174  10.281   7.435  1.00  0.00     0.044 C 
BRANCH  24  25
HETATM   25  C11 UNL     1      15.092   9.558   8.364  1.00  0.00     0.142 C 
BRANCH  25  26
HETATM   26  O2  UNL     1      15.143  10.113   9.644  1.00  0.00    -0.393 OA
ATOM     27  H2  UNL     1      14.955   9.491  10.337  1.00  0.00     0.210 HD
ENDBRANCH  25  26
BRANCH  25  28
HETATM   28  C12 UNL     1      14.957   8.074   8.377  1.00  0.00     0.195 C 
BRANCH  28  29
HETATM   29  O3  UNL     1      16.137   7.533   7.851  1.00  0.00    -0.398 OA
ATOM     30  H3  UNL     1      16.031   6.590   7.813  1.00  0.00     0.209 HD
ENDBRANCH  28  29
ENDBRANCH  25  28
ENDBRANCH  24  25
ENDBRANCH  23  24
ENDBRANCH  22  23
ENDBRANCH  21  22
ENDBRANCH   3  21
BRANCH   4  31
HETATM   31  O4  UNL     1      12.563   8.177   2.155  1.00  0.00    -0.390 OA
ATOM     32  H4  UNL     1      12.673   7.281   1.859  1.00  0.00     0.210 HD
ENDBRANCH   4  31
TORSDOF 11
ENDMDL
