MODEL 2
REMARK VINA RESULT: -5.903247419      1.753      4.068
REMARK  6 active torsions:
REMARK  status: ('A' for Active; 'I' for Inactive)
REMARK    1  A    between atoms: C2_2  and  O1_4 
REMARK    2  A    between atoms: O1_4  and  P1_5 
REMARK    3  A    between atoms: P1_5  and  O3_7 
REMARK    4  A    between atoms: P1_5  and  C7_11 
REMARK    5  A    between atoms: O3_7  and  C4_8 
REMARK    6  A    between atoms: C12_16  and  C13_17 
ROOT
HETATM    1  P1  UNL     1       4.765  47.190  49.163  1.00  0.00     0.363 P 
HETATM    2  O2  UNL     1       4.761  46.170  50.263  1.00  0.00    -0.253 OA
ENDROOT
BRANCH   1   3
HETATM    3  O1  UNL     1       3.220  47.250  48.514  1.00  0.00    -0.306 OA
BRANCH   3   4
HETATM    4  C2  UNL     1       2.478  46.108  48.656  1.00  0.00     0.123 C 
HETATM    5  C1  UNL     1       1.222  46.492  49.416  1.00  0.00     0.040 C 
HETATM    6  C3  UNL     1       2.037  45.493  47.354  1.00  0.00     0.040 C 
ENDBRANCH   3   4
ENDBRANCH   1   3
BRANCH   1   7
HETATM    7  O3  UNL     1       5.781  46.783  47.895  1.00  0.00    -0.306 OA
BRANCH   7   8
HETATM    8  C4  UNL     1       5.400  47.180  46.662  1.00  0.00     0.123 C 
HETATM    9  C5  UNL     1       6.268  48.137  45.944  1.00  0.00     0.040 C 
HETATM   10  C6  UNL     1       5.288  45.917  45.793  1.00  0.00     0.040 C 
ENDBRANCH   7   8
ENDBRANCH   1   7
BRANCH   1  11
HETATM   11  C7  UNL     1       5.295  48.751  49.825  1.00  0.00     0.064 A 
HETATM   12  C8  UNL     1       6.505  49.269  49.427  1.00  0.00     0.020 A 
HETATM   13  C9  UNL     1       6.997  50.467  49.885  1.00  0.00     0.001 A 
HETATM   14  C10 UNL     1       6.259  51.191  50.779  1.00  0.00     0.001 A 
HETATM   15  C11 UNL     1       5.043  50.684  51.189  1.00  0.00     0.009 A 
HETATM   16  C12 UNL     1       4.552  49.480  50.728  1.00  0.00    -0.030 A 
BRANCH  16  17
HETATM   17  C13 UNL     1       3.230  48.982  51.206  1.00  0.00     0.125 C 
HETATM   18  S1  UNL     1       1.925  50.095  50.617  1.00  0.00    -0.093 SA
ENDBRANCH  16  17
ENDBRANCH   1  11
TORSDOF 6
ENDMDL
