MODEL 4
REMARK VINA RESULT: -5.766352543      1.936      4.395
REMARK  6 active torsions:
REMARK  status: ('A' for Active; 'I' for Inactive)
REMARK    1  A    between atoms: C2_2  and  O1_4 
REMARK    2  A    between atoms: O1_4  and  P1_5 
REMARK    3  A    between atoms: P1_5  and  O3_7 
REMARK    4  A    between atoms: P1_5  and  C7_11 
REMARK    5  A    between atoms: O3_7  and  C4_8 
REMARK    6  A    between atoms: C12_16  and  C13_17 
ROOT
HETATM    1  P1  UNL     1       4.411  47.371  48.659  1.00  0.00     0.363 P 
HETATM    2  O2  UNL     1       4.941  46.135  49.324  1.00  0.00    -0.253 OA
ENDROOT
BRANCH   1   3
HETATM    3  O1  UNL     1       2.758  47.177  48.461  1.00  0.00    -0.306 OA
BRANCH   3   4
HETATM    4  C2  UNL     1       2.312  45.883  48.464  1.00  0.00     0.123 C 
HETATM    5  C1  UNL     1       1.033  45.860  49.280  1.00  0.00     0.040 C 
HETATM    6  C3  UNL     1       1.976  45.343  47.099  1.00  0.00     0.040 C 
ENDBRANCH   3   4
ENDBRANCH   1   3
BRANCH   1   7
HETATM    7  O3  UNL     1       5.033  47.606  47.121  1.00  0.00    -0.306 OA
BRANCH   7   8
HETATM    8  C4  UNL     1       6.354  47.872  47.034  1.00  0.00     0.123 C 
HETATM    9  C5  UNL     1       7.220  46.868  46.379  1.00  0.00     0.040 C 
HETATM   10  C6  UNL     1       6.502  49.189  46.256  1.00  0.00     0.040 C 
ENDBRANCH   7   8
ENDBRANCH   1   7
BRANCH   1  11
HETATM   11  C7  UNL     1       4.826  48.784  49.651  1.00  0.00     0.064 A 
HETATM   12  C8  UNL     1       5.620  48.612  50.760  1.00  0.00     0.020 A 
HETATM   13  C9  UNL     1       5.992  49.645  51.585  1.00  0.00     0.001 A 
HETATM   14  C10 UNL     1       5.561  50.912  51.304  1.00  0.00     0.001 A 
HETATM   15  C11 UNL     1       4.762  51.100  50.193  1.00  0.00     0.009 A 
HETATM   16  C12 UNL     1       4.390  50.061  49.367  1.00  0.00    -0.030 A 
BRANCH  16  17
HETATM   17  C13 UNL     1       3.525  50.325  48.180  1.00  0.00     0.125 C 
HETATM   18  S1  UNL     1       2.548  51.824  48.477  1.00  0.00    -0.093 SA
ENDBRANCH  16  17
ENDBRANCH   1  11
TORSDOF 6
ENDMDL
