MODEL 12
REMARK VINA RESULT: -5.608954150      2.556      3.319
REMARK  2 active torsions:
REMARK  status: ('A' for Active; 'I' for Inactive)
REMARK    1  A    between atoms: P1_2  and  C1_5 
REMARK    2  A    between atoms: C1_5  and  C2_7 
ROOT
HETATM    1  C2  UNL     1       3.784   2.919  69.563  1.00  0.00    -0.009 A 
HETATM    2  C3  UNL     1       3.766   2.150  70.663  1.00  0.00     0.012 A 
HETATM    3  C4  UNL     1       4.905   1.470  71.117  1.00  0.00     0.024 A 
HETATM    4  C5  UNL     1       6.067   1.615  70.389  1.00  0.00     0.035 A 
HETATM    5 CL1  UNL     1       7.523   0.790  70.908  1.00  0.00    -0.084 Cl
HETATM    6  C6  UNL     1       6.114   2.409  69.242  1.00  0.00     0.048 A 
HETATM    7  C7  UNL     1       4.970   3.037  68.862  1.00  0.00     0.043 A 
HETATM    8 CL2  UNL     1       4.913   4.061  67.425  1.00  0.00    -0.084 Cl
ENDROOT
BRANCH   1   9
HETATM    9  C1  UNL     1       2.583   3.642  69.079  1.00  0.00     0.223 C 
HETATM   10  S1  UNL     1       1.469   2.261  68.543  1.00  0.00    -0.072 SA
BRANCH   9  11
HETATM   11  P1  UNL     1       1.856   4.640  70.158  1.00  0.00     0.279 P 
HETATM   12  O1  UNL     1       3.235   5.335  70.584  1.00  0.00    -0.639 OA
HETATM   13  O2  UNL     1       0.802   5.316  69.082  1.00  0.00    -0.639 OA
HETATM   14  O3  UNL     1       1.309   3.298  71.050  1.00  0.00    -0.639 OA
ENDBRANCH   9  11
ENDBRANCH   1   9
TORSDOF 2
ENDMDL
