MODEL 7
REMARK VINA RESULT: -5.786009411      1.873      2.018
REMARK  2 active torsions:
REMARK  status: ('A' for Active; 'I' for Inactive)
REMARK    1  A    between atoms: P1_2  and  C1_5 
REMARK    2  A    between atoms: C1_5  and  C2_7 
ROOT
HETATM    1  C2  UNL     1       4.544   2.351  68.931  1.00  0.00    -0.009 A 
HETATM    2  C3  UNL     1       4.687   1.200  69.605  1.00  0.00     0.012 A 
HETATM    3  C4  UNL     1       5.476   0.145  69.123  1.00  0.00     0.024 A 
HETATM    4  C5  UNL     1       6.113   0.326  67.914  1.00  0.00     0.035 A 
HETATM    5 CL1  UNL     1       7.113  -0.956  67.262  1.00  0.00    -0.084 Cl
HETATM    6  C6  UNL     1       5.982   1.513  67.193  1.00  0.00     0.048 A 
HETATM    7  C7  UNL     1       5.200   2.492  67.722  1.00  0.00     0.043 A 
HETATM    8 CL2  UNL     1       4.960   4.031  66.892  1.00  0.00    -0.084 Cl
ENDROOT
BRANCH   1   9
HETATM    9  C1  UNL     1       3.712   3.470  69.436  1.00  0.00     0.223 C 
HETATM   10  S1  UNL     1       1.990   2.815  69.240  1.00  0.00    -0.072 SA
BRANCH   9  11
HETATM   11  P1  UNL     1       4.017   3.961  70.971  1.00  0.00     0.279 P 
HETATM   12  O1  UNL     1       3.226   2.728  71.621  1.00  0.00    -0.639 OA
HETATM   13  O2  UNL     1       5.661   3.996  70.816  1.00  0.00    -0.639 OA
HETATM   14  O3  UNL     1       3.174   5.413  70.687  1.00  0.00    -0.639 OA
ENDBRANCH   9  11
ENDBRANCH   1   9
TORSDOF 2
ENDMDL
