MODEL 18
REMARK VINA RESULT: -5.484978717      3.311      4.320
REMARK  2 active torsions:
REMARK  status: ('A' for Active; 'I' for Inactive)
REMARK    1  A    between atoms: P1_2  and  C1_5 
REMARK    2  A    between atoms: C1_5  and  C2_7 
ROOT
HETATM    1  C2  UNL     1       4.998   2.235  69.077  1.00  0.00    -0.009 A 
HETATM    2  C3  UNL     1       5.304   2.510  67.800  1.00  0.00     0.012 A 
HETATM    3  C4  UNL     1       4.447   3.245  66.968  1.00  0.00     0.024 A 
HETATM    4  C5  UNL     1       3.258   3.687  67.508  1.00  0.00     0.035 A 
HETATM    5 CL1  UNL     1       2.148   4.610  66.517  1.00  0.00    -0.084 Cl
HETATM    6  C6  UNL     1       2.914   3.416  68.833  1.00  0.00     0.048 A 
HETATM    7  C7  UNL     1       3.794   2.697  69.579  1.00  0.00     0.043 A 
HETATM    8 CL2  UNL     1       3.459   2.291  71.264  1.00  0.00    -0.084 Cl
ENDROOT
BRANCH   1   9
HETATM    9  C1  UNL     1       5.899   1.459  69.962  1.00  0.00     0.223 C 
HETATM   10  S1  UNL     1       6.564   0.158  68.823  1.00  0.00    -0.072 SA
BRANCH   9  11
HETATM   11  P1  UNL     1       7.095   2.308  70.697  1.00  0.00     0.279 P 
HETATM   12  O1  UNL     1       8.250   1.596  69.845  1.00  0.00    -0.639 OA
HETATM   13  O2  UNL     1       6.495   3.802  70.329  1.00  0.00    -0.639 OA
HETATM   14  O3  UNL     1       6.662   1.640  72.202  1.00  0.00    -0.639 OA
ENDBRANCH   9  11
ENDBRANCH   1   9
TORSDOF 2
ENDMDL
