MODEL 14
REMARK VINA RESULT: -5.520711034      3.176      4.357
REMARK  2 active torsions:
REMARK  status: ('A' for Active; 'I' for Inactive)
REMARK    1  A    between atoms: P1_2  and  C1_5 
REMARK    2  A    between atoms: C1_5  and  C2_7 
ROOT
HETATM    1  C2  UNL     1       5.319   2.113  69.034  1.00  0.00    -0.009 A 
HETATM    2  C3  UNL     1       5.604   3.292  68.462  1.00  0.00     0.012 A 
HETATM    3  C4  UNL     1       4.619   4.088  67.860  1.00  0.00     0.024 A 
HETATM    4  C5  UNL     1       3.323   3.617  67.873  1.00  0.00     0.035 A 
HETATM    5 CL1  UNL     1       2.049   4.569  67.137  1.00  0.00    -0.084 Cl
HETATM    6  C6  UNL     1       2.998   2.395  68.461  1.00  0.00     0.048 A 
HETATM    7  C7  UNL     1       4.006   1.677  69.025  1.00  0.00     0.043 A 
HETATM    8 CL2  UNL     1       3.710   0.115  69.791  1.00  0.00    -0.084 Cl
ENDROOT
BRANCH   1   9
HETATM    9  C1  UNL     1       6.355   1.267  69.673  1.00  0.00     0.223 C 
HETATM   10  S1  UNL     1       7.460   0.835  68.249  1.00  0.00    -0.072 SA
BRANCH   9  11
HETATM   11  P1  UNL     1       7.183   1.951  70.912  1.00  0.00     0.279 P 
HETATM   12  O1  UNL     1       7.877   3.044  69.968  1.00  0.00    -0.639 OA
HETATM   13  O2  UNL     1       5.858   2.276  71.843  1.00  0.00    -0.639 OA
HETATM   14  O3  UNL     1       7.997   0.483  71.196  1.00  0.00    -0.639 OA
ENDBRANCH   9  11
ENDBRANCH   1   9
TORSDOF 2
ENDMDL
