MODEL 8
REMARK VINA RESULT: -5.717706728      1.367      1.489
REMARK  2 active torsions:
REMARK  status: ('A' for Active; 'I' for Inactive)
REMARK    1  A    between atoms: P1_2  and  C1_5 
REMARK    2  A    between atoms: C1_5  and  C2_7 
ROOT
HETATM    1  C2  UNL     1       4.372   2.195  69.053  1.00  0.00    -0.009 A 
HETATM    2  C3  UNL     1       3.685   1.124  68.627  1.00  0.00     0.012 A 
HETATM    3  C4  UNL     1       4.294  -0.122  68.423  1.00  0.00     0.024 A 
HETATM    4  C5  UNL     1       5.646  -0.220  68.678  1.00  0.00     0.035 A 
HETATM    5 CL1  UNL     1       6.462  -1.752  68.442  1.00  0.00    -0.084 Cl
HETATM    6  C6  UNL     1       6.385   0.876  69.122  1.00  0.00     0.048 A 
HETATM    7  C7  UNL     1       5.726   2.053  69.297  1.00  0.00     0.043 A 
HETATM    8 CL2  UNL     1       6.564   3.506  69.849  1.00  0.00    -0.084 Cl
ENDROOT
BRANCH   1   9
HETATM    9  C1  UNL     1       3.734   3.515  69.272  1.00  0.00     0.223 C 
HETATM   10  S1  UNL     1       2.945   3.859  67.631  1.00  0.00    -0.072 SA
BRANCH   9  11
HETATM   11  P1  UNL     1       2.657   3.601  70.506  1.00  0.00     0.279 P 
HETATM   12  O1  UNL     1       1.436   3.100  69.599  1.00  0.00    -0.639 OA
HETATM   13  O2  UNL     1       3.488   2.604  71.527  1.00  0.00    -0.639 OA
HETATM   14  O3  UNL     1       2.936   5.274  70.649  1.00  0.00    -0.639 OA
ENDBRANCH   9  11
ENDBRANCH   1   9
TORSDOF 2
ENDMDL
