MODEL 16
REMARK VINA RESULT: -5.500258571      3.602      4.553
REMARK  2 active torsions:
REMARK  status: ('A' for Active; 'I' for Inactive)
REMARK    1  A    between atoms: P1_2  and  C1_5 
REMARK    2  A    between atoms: C1_5  and  C2_7 
ROOT
HETATM    1  C2  UNL     1       4.900   1.837  68.893  1.00  0.00    -0.009 A 
HETATM    2  C3  UNL     1       4.891   2.151  67.589  1.00  0.00     0.012 A 
HETATM    3  C4  UNL     1       3.933   3.011  67.034  1.00  0.00     0.024 A 
HETATM    4  C5  UNL     1       2.980   3.535  67.881  1.00  0.00     0.035 A 
HETATM    5 CL1  UNL     1       1.757   4.616  67.246  1.00  0.00    -0.084 Cl
HETATM    6  C6  UNL     1       2.966   3.226  69.242  1.00  0.00     0.048 A 
HETATM    7  C7  UNL     1       3.926   2.384  69.708  1.00  0.00     0.043 A 
HETATM    8 CL2  UNL     1       3.999   1.920  71.410  1.00  0.00    -0.084 Cl
ENDROOT
BRANCH   1   9
HETATM    9  C1  UNL     1       5.912   0.929  69.486  1.00  0.00     0.223 C 
HETATM   10  S1  UNL     1       5.740  -0.599  68.452  1.00  0.00    -0.072 SA
BRANCH   9  11
HETATM   11  P1  UNL     1       7.454   1.487  69.514  1.00  0.00     0.279 P 
HETATM   12  O1  UNL     1       7.793   0.893  68.065  1.00  0.00    -0.639 OA
HETATM   13  O2  UNL     1       7.059   3.070  69.768  1.00  0.00    -0.639 OA
HETATM   14  O3  UNL     1       7.787   0.535  70.884  1.00  0.00    -0.639 OA
ENDBRANCH   9  11
ENDBRANCH   1   9
TORSDOF 2
ENDMDL
