MODEL 4
REMARK VINA RESULT: -5.835859625      2.580      3.179
REMARK  2 active torsions:
REMARK  status: ('A' for Active; 'I' for Inactive)
REMARK    1  A    between atoms: P1_2  and  C1_5 
REMARK    2  A    between atoms: C1_5  and  C2_7 
ROOT
HETATM    1  C2  UNL     1       3.767   2.893  69.571  1.00  0.00    -0.009 A 
HETATM    2  C3  UNL     1       3.764   2.085  70.642  1.00  0.00     0.012 A 
HETATM    3  C4  UNL     1       4.920   1.429  71.087  1.00  0.00     0.024 A 
HETATM    4  C5  UNL     1       6.085   1.640  70.379  1.00  0.00     0.035 A 
HETATM    5 CL1  UNL     1       7.562   0.847  70.887  1.00  0.00    -0.084 Cl
HETATM    6  C6  UNL     1       6.117   2.474  69.262  1.00  0.00     0.048 A 
HETATM    7  C7  UNL     1       4.957   3.077  68.889  1.00  0.00     0.043 A 
HETATM    8 CL2  UNL     1       4.881   4.148  67.488  1.00  0.00    -0.084 Cl
ENDROOT
BRANCH   1   9
HETATM    9  C1  UNL     1       2.548   3.591  69.096  1.00  0.00     0.223 C 
HETATM   10  S1  UNL     1       1.465   2.189  68.553  1.00  0.00    -0.072 SA
BRANCH   9  11
HETATM   11  P1  UNL     1       1.802   4.563  70.186  1.00  0.00     0.279 P 
HETATM   12  O1  UNL     1       1.249   3.330  71.047  1.00  0.00    -0.639 OA
HETATM   13  O2  UNL     1       3.151   5.418  70.604  1.00  0.00    -0.639 OA
HETATM   14  O3  UNL     1       0.817   5.207  68.957  1.00  0.00    -0.639 OA
ENDBRANCH   9  11
ENDBRANCH   1   9
TORSDOF 2
ENDMDL
