MODEL 10
REMARK VINA RESULT: -5.440779221      7.839      8.766
REMARK  2 active torsions:
REMARK  status: ('A' for Active; 'I' for Inactive)
REMARK    1  A    between atoms: P1_2  and  C1_5 
REMARK    2  A    between atoms: C1_5  and  C2_6 
ROOT
HETATM    1  C2  UNL     1       5.331  20.879  17.260  1.00  0.00    -0.045 A 
HETATM    2  C3  UNL     1       4.745  21.441  16.147  1.00  0.00     0.007 A 
HETATM    3  C4  UNL     1       4.280  22.732  16.184  1.00  0.00     0.001 A 
HETATM    4  C5  UNL     1       4.387  23.490  17.317  1.00  0.00     0.000 A 
HETATM    5  C6  UNL     1       4.972  22.932  18.434  1.00  0.00     0.001 A 
HETATM    6  C7  UNL     1       5.443  21.635  18.408  1.00  0.00     0.007 A 
ENDROOT
BRANCH   1   7
HETATM    7  C1  UNL     1       5.851  19.458  17.244  1.00  0.00     0.184 C 
BRANCH   7   8
HETATM    8  P1  UNL     1       7.526  19.536  16.846  1.00  0.00     0.263 P 
HETATM    9  O1  UNL     1       8.217  21.008  16.498  1.00  0.00    -0.639 OA
HETATM   10  O2  UNL     1       8.376  18.123  16.427  1.00  0.00    -0.639 OA
HETATM   11  O3  UNL     1       8.160  19.402  18.222  1.00  0.00    -0.639 OA
ENDBRANCH   7   8
ENDBRANCH   1   7
TORSDOF 2
ENDMDL
