MODEL 1
REMARK VINA RESULT: -7.807172740      0.000      0.000
REMARK  2 active torsions:
REMARK  status: ('A' for Active; 'I' for Inactive)
REMARK    1  A    between atoms: P1_2  and  C1_5 
REMARK    2  A    between atoms: C1_5  and  C2_6 
ROOT
HETATM    1  C2  UNL     1       1.002  14.888  18.544  1.00  0.00    -0.045 A 
HETATM    2  C3  UNL     1       1.037  15.646  19.694  1.00  0.00     0.007 A 
HETATM    3  C4  UNL     1       1.530  16.926  19.668  1.00  0.00     0.001 A 
HETATM    4  C5  UNL     1       1.996  17.481  18.508  1.00  0.00     0.000 A 
HETATM    5  C6  UNL     1       1.964  16.727  17.354  1.00  0.00     0.001 A 
HETATM    6  C7  UNL     1       1.470  15.439  17.369  1.00  0.00     0.007 A 
ENDROOT
BRANCH   1   7
HETATM    7  C1  UNL     1       0.463  13.474  18.547  1.00  0.00     0.184 C 
BRANCH   7   8
HETATM    8  P1  UNL     1       0.110  13.063  16.911  1.00  0.00     0.263 P 
HETATM    9  O1  UNL     1       1.345  12.997  15.799  1.00  0.00    -0.639 OA
HETATM   10  O2  UNL     1      -1.492  13.107  16.341  1.00  0.00    -0.639 OA
HETATM   11  O3  UNL     1      -0.064  11.556  17.021  1.00  0.00    -0.639 OA
ENDBRANCH   7   8
ENDBRANCH   1   7
TORSDOF 2
ENDMDL
