MODEL 2
REMARK VINA RESULT: -7.789529626      0.066      1.430
REMARK  2 active torsions:
REMARK  status: ('A' for Active; 'I' for Inactive)
REMARK    1  A    between atoms: P1_2  and  C1_5 
REMARK    2  A    between atoms: C1_5  and  C2_6 
ROOT
HETATM    1  C2  UNL     1       1.014  14.925  18.528  1.00  0.00    -0.045 A 
HETATM    2  C3  UNL     1       1.459  15.478  17.347  1.00  0.00     0.007 A 
HETATM    3  C4  UNL     1       1.954  16.758  17.323  1.00  0.00     0.001 A 
HETATM    4  C5  UNL     1       2.020  17.512  18.462  1.00  0.00     0.000 A 
HETATM    5  C6  UNL     1       1.575  16.963  19.646  1.00  0.00     0.001 A 
HETATM    6  C7  UNL     1       1.076  15.677  19.682  1.00  0.00     0.007 A 
ENDROOT
BRANCH   1   7
HETATM    7  C1  UNL     1       0.464  13.516  18.580  1.00  0.00     0.184 C 
BRANCH   7   8
HETATM    8  P1  UNL     1       0.134  13.040  16.956  1.00  0.00     0.263 P 
HETATM    9  O1  UNL     1       1.386  12.925  15.868  1.00  0.00    -0.639 OA
HETATM   10  O2  UNL     1      -1.458  13.067  16.360  1.00  0.00    -0.639 OA
HETATM   11  O3  UNL     1      -0.048  11.540  17.124  1.00  0.00    -0.639 OA
ENDBRANCH   7   8
ENDBRANCH   1   7
TORSDOF 2
ENDMDL
