MODEL 4
REMARK VINA RESULT: -7.306987718      0.984      2.069
REMARK  2 active torsions:
REMARK  status: ('A' for Active; 'I' for Inactive)
REMARK    1  A    between atoms: P1_2  and  C1_5 
REMARK    2  A    between atoms: C1_5  and  C2_6 
ROOT
HETATM    1  C2  UNL     1       1.289  15.309  17.249  1.00  0.00    -0.045 A 
HETATM    2  C3  UNL     1       2.044  16.369  16.797  1.00  0.00     0.007 A 
HETATM    3  C4  UNL     1       2.216  17.483  17.579  1.00  0.00     0.001 A 
HETATM    4  C5  UNL     1       1.648  17.571  18.820  1.00  0.00     0.000 A 
HETATM    5  C6  UNL     1       0.891  16.513  19.277  1.00  0.00     0.001 A 
HETATM    6  C7  UNL     1       0.712  15.387  18.499  1.00  0.00     0.007 A 
ENDROOT
BRANCH   1   7
HETATM    7  C1  UNL     1       1.085  14.070  16.405  1.00  0.00     0.184 C 
BRANCH   7   8
HETATM    8  P1  UNL     1      -0.212  13.182  17.113  1.00  0.00     0.263 P 
HETATM    9  O1  UNL     1      -1.700  13.177  16.372  1.00  0.00    -0.639 OA
HETATM   10  O2  UNL     1      -0.106  12.646  18.724  1.00  0.00    -0.639 OA
HETATM   11  O3  UNL     1       0.154  11.762  16.710  1.00  0.00    -0.639 OA
ENDBRANCH   7   8
ENDBRANCH   1   7
TORSDOF 2
ENDMDL
