MODEL 3
REMARK VINA RESULT: -7.358351432      0.987      1.637
REMARK  2 active torsions:
REMARK  status: ('A' for Active; 'I' for Inactive)
REMARK    1  A    between atoms: P1_2  and  C1_5 
REMARK    2  A    between atoms: C1_5  and  C2_6 
ROOT
HETATM    1  C2  UNL     1       1.295  15.302  17.257  1.00  0.00    -0.045 A 
HETATM    2  C3  UNL     1       0.749  15.408  18.517  1.00  0.00     0.007 A 
HETATM    3  C4  UNL     1       0.946  16.540  19.266  1.00  0.00     0.001 A 
HETATM    4  C5  UNL     1       1.684  17.586  18.786  1.00  0.00     0.000 A 
HETATM    5  C6  UNL     1       2.234  17.485  17.525  1.00  0.00     0.001 A 
HETATM    6  C7  UNL     1       2.042  16.351  16.763  1.00  0.00     0.007 A 
ENDROOT
BRANCH   1   7
HETATM    7  C1  UNL     1       1.091  14.063  16.411  1.00  0.00     0.184 C 
BRANCH   7   8
HETATM    8  P1  UNL     1      -0.214  13.181  17.111  1.00  0.00     0.263 P 
HETATM    9  O1  UNL     1      -1.697  13.180  16.359  1.00  0.00    -0.639 OA
HETATM   10  O2  UNL     1      -0.122  12.647  18.723  1.00  0.00    -0.639 OA
HETATM   11  O3  UNL     1       0.150  11.759  16.713  1.00  0.00    -0.639 OA
ENDBRANCH   7   8
ENDBRANCH   1   7
TORSDOF 2
ENDMDL
