MODEL 11
REMARK VINA RESULT: -5.360590251      6.762      7.877
REMARK  2 active torsions:
REMARK  status: ('A' for Active; 'I' for Inactive)
REMARK    1  A    between atoms: P1_2  and  C1_5 
REMARK    2  A    between atoms: C1_5  and  C2_6 
ROOT
HETATM    1  C2  UNL     1       5.424  20.302  17.493  1.00  0.00    -0.045 A 
HETATM    2  C3  UNL     1       4.829  19.476  16.565  1.00  0.00     0.007 A 
HETATM    3  C4  UNL     1       4.279  19.998  15.421  1.00  0.00     0.001 A 
HETATM    4  C5  UNL     1       4.307  21.343  15.173  1.00  0.00     0.000 A 
HETATM    5  C6  UNL     1       4.901  22.174  16.099  1.00  0.00     0.001 A 
HETATM    6  C7  UNL     1       5.458  21.660  17.252  1.00  0.00     0.007 A 
ENDROOT
BRANCH   1   7
HETATM    7  C1  UNL     1       6.038  19.750  18.761  1.00  0.00     0.184 C 
BRANCH   7   8
HETATM    8  P1  UNL     1       4.828  19.833  19.987  1.00  0.00     0.263 P 
HETATM    9  O1  UNL     1       3.457  18.904  19.847  1.00  0.00    -0.639 OA
HETATM   10  O2  UNL     1       4.831  21.111  21.110  1.00  0.00    -0.639 OA
HETATM   11  O3  UNL     1       5.464  18.988  21.080  1.00  0.00    -0.639 OA
ENDBRANCH   7   8
ENDBRANCH   1   7
TORSDOF 2
ENDMDL
