MODEL 5
REMARK VINA RESULT: -6.921360088      1.010      1.835
REMARK  2 active torsions:
REMARK  status: ('A' for Active; 'I' for Inactive)
REMARK    1  A    between atoms: P1_2  and  C1_5 
REMARK    2  A    between atoms: C1_5  and  C2_6 
ROOT
HETATM    1  C2  UNL     1       1.206  15.359  17.620  1.00  0.00    -0.045 A 
HETATM    2  C3  UNL     1       1.079  15.093  18.965  1.00  0.00     0.007 A 
HETATM    3  C4  UNL     1       1.502  16.007  19.897  1.00  0.00     0.001 A 
HETATM    4  C5  UNL     1       2.057  17.198  19.518  1.00  0.00     0.000 A 
HETATM    5  C6  UNL     1       2.187  17.469  18.172  1.00  0.00     0.001 A 
HETATM    6  C7  UNL     1       1.765  16.558  17.227  1.00  0.00     0.007 A 
ENDROOT
BRANCH   1   7
HETATM    7  C1  UNL     1       0.746  14.367  16.573  1.00  0.00     0.184 C 
BRANCH   7   8
HETATM    8  P1  UNL     1      -0.325  13.266  17.355  1.00  0.00     0.263 P 
HETATM    9  O1  UNL     1      -1.435  13.844  18.451  1.00  0.00    -0.639 OA
HETATM   10  O2  UNL     1      -0.013  11.594  17.321  1.00  0.00    -0.639 OA
HETATM   11  O3  UNL     1      -1.337  13.010  16.248  1.00  0.00    -0.639 OA
ENDBRANCH   7   8
ENDBRANCH   1   7
TORSDOF 2
ENDMDL
