MODEL 12
REMARK VINA RESULT: -5.114143095      3.558      4.449
REMARK  2 active torsions:
REMARK  status: ('A' for Active; 'I' for Inactive)
REMARK    1  A    between atoms: P1_2  and  C1_5 
REMARK    2  A    between atoms: C1_5  and  C2_6 
ROOT
HETATM    1  C2  UNL     1       0.562  14.967  18.638  1.00  0.00    -0.045 A 
HETATM    2  C3  UNL     1      -0.811  15.058  18.700  1.00  0.00     0.007 A 
HETATM    3  C4  UNL     1      -1.594  14.376  17.803  1.00  0.00     0.001 A 
HETATM    4  C5  UNL     1      -1.036  13.591  16.832  1.00  0.00     0.000 A 
HETATM    5  C6  UNL     1       0.338  13.496  16.766  1.00  0.00     0.001 A 
HETATM    6  C7  UNL     1       1.135  14.178  17.663  1.00  0.00     0.007 A 
ENDROOT
BRANCH   1   7
HETATM    7  C1  UNL     1       1.446  15.710  19.617  1.00  0.00     0.184 C 
BRANCH   7   8
HETATM    8  P1  UNL     1       2.118  17.054  18.771  1.00  0.00     0.263 P 
HETATM    9  O1  UNL     1       2.378  16.943  17.133  1.00  0.00    -0.639 OA
HETATM   10  O2  UNL     1       2.867  18.319  19.627  1.00  0.00    -0.639 OA
HETATM   11  O3  UNL     1       0.905  17.965  18.662  1.00  0.00    -0.639 OA
ENDBRANCH   7   8
ENDBRANCH   1   7
TORSDOF 2
ENDMDL
