MODEL 4
REMARK VINA RESULT: -4.924225879      0.992      1.186
REMARK  4 active torsions:
REMARK  status: ('A' for Active; 'I' for Inactive)
REMARK    1  A    between atoms: N1_1  and  C1_5 
REMARK    2  A    between atoms: C1_5  and  C2_6 
REMARK    3  A    between atoms: C2_6  and  C3_7 
REMARK    4  A    between atoms: C3_7  and  C4_8 
ROOT
HETATM    1  C1  UNL     1      23.739  20.199  17.832  1.00  0.00     0.230 C 
ENDROOT
BRANCH   1   2
HETATM    2  N1  UNL     1      23.071  20.835  16.711  1.00  0.00    -0.079 N 
ATOM      3  H13 UNL     1      23.676  21.492  16.218  1.00  0.00     0.274 HD
ATOM      4  H12 UNL     1      22.905  20.190  15.939  1.00  0.00     0.274 HD
ATOM      5  H11 UNL     1      22.212  21.272  17.046  1.00  0.00     0.274 HD
ENDBRANCH   1   2
BRANCH   1   6
HETATM    6  C2  UNL     1      22.702  19.482  18.677  1.00  0.00     0.038 C 
BRANCH   6   7
HETATM    7  C3  UNL     1      23.336  18.896  19.926  1.00  0.00     0.115 C 
BRANCH   7   8
HETATM    8  C4  UNL     1      23.304  17.434  19.942  1.00  0.00     0.172 C 
HETATM    9  O1  UNL     1      23.692  16.808  20.943  1.00  0.00    -0.648 OA
HETATM   10  O2  UNL     1      22.847  16.739  18.848  1.00  0.00    -0.648 OA
ENDBRANCH   7   8
ENDBRANCH   6   7
ENDBRANCH   1   6
TORSDOF 4
ENDMDL
