MODEL 14
REMARK VINA RESULT: -3.949813945      1.027      1.027
REMARK  4 active torsions:
REMARK  status: ('A' for Active; 'I' for Inactive)
REMARK    1  A    between atoms: N1_1  and  C1_5 
REMARK    2  A    between atoms: C1_5  and  C2_6 
REMARK    3  A    between atoms: C2_6  and  C3_7 
REMARK    4  A    between atoms: C3_7  and  C4_8 
ROOT
HETATM    1  C1  UNL     1      23.719  19.999  17.440  1.00  0.00     0.230 C 
ENDROOT
BRANCH   1   2
HETATM    2  N1  UNL     1      23.175  21.272  17.002  1.00  0.00    -0.079 N 
ATOM      3  H13 UNL     1      23.447  21.504  16.046  1.00  0.00     0.274 HD
ATOM      4  H12 UNL     1      22.166  21.235  16.857  1.00  0.00     0.274 HD
ATOM      5  H11 UNL     1      23.447  21.993  17.671  1.00  0.00     0.274 HD
ENDBRANCH   1   2
BRANCH   1   6
HETATM    6  C2  UNL     1      23.241  19.723  18.854  1.00  0.00     0.038 C 
BRANCH   6   7
HETATM    7  C3  UNL     1      23.589  18.306  19.274  1.00  0.00     0.115 C 
BRANCH   7   8
HETATM    8  C4  UNL     1      22.835  17.296  18.532  1.00  0.00     0.172 C 
HETATM    9  O1  UNL     1      21.710  16.941  18.921  1.00  0.00    -0.648 OA
HETATM   10  O2  UNL     1      23.367  16.728  17.399  1.00  0.00    -0.648 OA
ENDBRANCH   7   8
ENDBRANCH   6   7
ENDBRANCH   1   6
TORSDOF 4
ENDMDL
