MODEL 19
REMARK VINA RESULT: -3.647431034      4.076      4.801
REMARK  4 active torsions:
REMARK  status: ('A' for Active; 'I' for Inactive)
REMARK    1  A    between atoms: N1_1  and  C1_5 
REMARK    2  A    between atoms: C1_5  and  C2_6 
REMARK    3  A    between atoms: C2_6  and  C3_7 
REMARK    4  A    between atoms: C3_7  and  C4_8 
ROOT
HETATM    1  C1  UNL     1      23.461  17.669  20.150  1.00  0.00     0.230 C 
ENDROOT
BRANCH   1   2
HETATM    2  N1  UNL     1      22.703  18.896  19.982  1.00  0.00    -0.079 N 
ATOM      3  H13 UNL     1      21.874  18.765  19.402  1.00  0.00     0.274 HD
ATOM      4  H12 UNL     1      22.231  19.183  20.840  1.00  0.00     0.274 HD
ATOM      5  H11 UNL     1      23.324  19.618  19.617  1.00  0.00     0.274 HD
ENDBRANCH   1   2
BRANCH   1   6
HETATM    6  C2  UNL     1      24.150  17.701  21.502  1.00  0.00     0.038 C 
BRANCH   6   7
HETATM    7  C3  UNL     1      24.232  16.307  22.099  1.00  0.00     0.115 C 
BRANCH   7   8
HETATM    8  C4  UNL     1      25.053  16.259  23.307  1.00  0.00     0.172 C 
HETATM    9  O1  UNL     1      24.559  15.896  24.389  1.00  0.00    -0.648 OA
HETATM   10  O2  UNL     1      26.380  16.617  23.259  1.00  0.00    -0.648 OA
ENDBRANCH   7   8
ENDBRANCH   6   7
ENDBRANCH   1   6
TORSDOF 4
ENDMDL
