MODEL 1
REMARK VINA RESULT: -5.283083278      0.000      0.000
REMARK  4 active torsions:
REMARK  status: ('A' for Active; 'I' for Inactive)
REMARK    1  A    between atoms: N1_1  and  C1_5 
REMARK    2  A    between atoms: C1_5  and  C2_6 
REMARK    3  A    between atoms: C2_6  and  C3_7 
REMARK    4  A    between atoms: C3_7  and  C4_8 
ROOT
HETATM    1  C1  UNL     1      23.024  20.856  17.655  1.00  0.00     0.230 C 
ENDROOT
BRANCH   1   2
HETATM    2  N1  UNL     1      22.965  20.333  16.302  1.00  0.00    -0.079 N 
ATOM      3  H13 UNL     1      23.847  20.447  15.801  1.00  0.00     0.274 HD
ATOM      4  H12 UNL     1      22.919  19.314  16.279  1.00  0.00     0.274 HD
ATOM      5  H11 UNL     1      22.181  20.770  15.815  1.00  0.00     0.274 HD
ENDBRANCH   1   2
BRANCH   1   6
HETATM    6  C2  UNL     1      23.915  19.953  18.489  1.00  0.00     0.038 C 
BRANCH   6   7
HETATM    7  C3  UNL     1      23.083  19.000  19.329  1.00  0.00     0.115 C 
BRANCH   7   8
HETATM    8  C4  UNL     1      23.060  17.643  18.786  1.00  0.00     0.172 C 
HETATM    9  O1  UNL     1      23.112  16.661  19.546  1.00  0.00    -0.648 OA
HETATM   10  O2  UNL     1      22.984  17.440  17.428  1.00  0.00    -0.648 OA
ENDBRANCH   7   8
ENDBRANCH   6   7
ENDBRANCH   1   6
TORSDOF 4
ENDMDL
