MODEL 3
REMARK VINA RESULT: -5.051463410      1.010      1.600
REMARK  4 active torsions:
REMARK  status: ('A' for Active; 'I' for Inactive)
REMARK    1  A    between atoms: N1_1  and  C1_5 
REMARK    2  A    between atoms: C1_5  and  C2_6 
REMARK    3  A    between atoms: C2_6  and  C3_7 
REMARK    4  A    between atoms: C3_7  and  C4_8 
ROOT
HETATM    1  C1  UNL     1      23.697  20.133  17.678  1.00  0.00     0.230 C 
ENDROOT
BRANCH   1   2
HETATM    2  N1  UNL     1      23.568  19.344  16.465  1.00  0.00    -0.079 N 
ATOM      3  H13 UNL     1      24.368  19.453  15.842  1.00  0.00     0.274 HD
ATOM      4  H12 UNL     1      23.659  18.343  16.640  1.00  0.00     0.274 HD
ATOM      5  H11 UNL     1      22.685  19.582  16.012  1.00  0.00     0.274 HD
ENDBRANCH   1   2
BRANCH   1   6
HETATM    6  C2  UNL     1      22.704  19.618  18.704  1.00  0.00     0.038 C 
BRANCH   6   7
HETATM    7  C3  UNL     1      23.411  18.821  19.786  1.00  0.00     0.115 C 
BRANCH   7   8
HETATM    8  C4  UNL     1      23.207  17.380  19.650  1.00  0.00     0.172 C 
HETATM    9  O1  UNL     1      22.701  16.912  18.616  1.00  0.00    -0.648 OA
HETATM   10  O2  UNL     1      23.571  16.529  20.666  1.00  0.00    -0.648 OA
ENDBRANCH   7   8
ENDBRANCH   6   7
ENDBRANCH   1   6
TORSDOF 4
ENDMDL
