MODEL 18
REMARK VINA RESULT: -3.812449021      4.289      4.958
REMARK  4 active torsions:
REMARK  status: ('A' for Active; 'I' for Inactive)
REMARK    1  A    between atoms: N1_1  and  C1_5 
REMARK    2  A    between atoms: C1_5  and  C2_6 
REMARK    3  A    between atoms: C2_6  and  C3_7 
REMARK    4  A    between atoms: C3_7  and  C4_8 
ROOT
HETATM    1  C1  UNL     1      25.230  16.636  22.990  1.00  0.00     0.230 C 
ENDROOT
BRANCH   1   2
HETATM    2  N1  UNL     1      24.605  16.504  24.294  1.00  0.00    -0.079 N 
ATOM      3  H13 UNL     1      25.269  16.627  25.059  1.00  0.00     0.274 HD
ATOM      4  H12 UNL     1      23.991  17.289  24.513  1.00  0.00     0.274 HD
ATOM      5  H11 UNL     1      24.121  15.607  24.337  1.00  0.00     0.274 HD
ENDBRANCH   1   2
BRANCH   1   6
HETATM    6  C2  UNL     1      24.151  16.583  21.924  1.00  0.00     0.038 C 
BRANCH   6   7
HETATM    7  C3  UNL     1      23.997  17.933  21.245  1.00  0.00     0.115 C 
BRANCH   7   8
HETATM    8  C4  UNL     1      23.367  17.834  19.929  1.00  0.00     0.172 C 
HETATM    9  O1  UNL     1      23.073  18.861  19.295  1.00  0.00    -0.648 OA
HETATM   10  O2  UNL     1      23.091  16.603  19.383  1.00  0.00    -0.648 OA
ENDBRANCH   7   8
ENDBRANCH   6   7
ENDBRANCH   1   6
TORSDOF 4
ENDMDL
