MODEL 20
REMARK VINA RESULT: -3.530377732      6.285      7.026
REMARK  4 active torsions:
REMARK  status: ('A' for Active; 'I' for Inactive)
REMARK    1  A    between atoms: N1_1  and  C1_5 
REMARK    2  A    between atoms: C1_5  and  C2_6 
REMARK    3  A    between atoms: C2_6  and  C3_7 
REMARK    4  A    between atoms: C3_7  and  C4_8 
ROOT
HETATM    1  C1  UNL     1      24.429  15.375  25.534  1.00  0.00     0.230 C 
ENDROOT
BRANCH   1   2
HETATM    2  N1  UNL     1      23.260  15.804  26.279  1.00  0.00    -0.079 N 
ATOM      3  H13 UNL     1      23.209  16.819  26.376  1.00  0.00     0.274 HD
ATOM      4  H12 UNL     1      22.393  15.669  25.758  1.00  0.00     0.274 HD
ATOM      5  H11 UNL     1      23.251  15.326  27.181  1.00  0.00     0.274 HD
ENDBRANCH   1   2
BRANCH   1   6
HETATM    6  C2  UNL     1      25.015  16.574  24.811  1.00  0.00     0.038 C 
BRANCH   6   7
HETATM    7  C3  UNL     1      25.507  16.184  23.428  1.00  0.00     0.115 C 
BRANCH   7   8
HETATM    8  C4  UNL     1      24.421  16.064  22.457  1.00  0.00     0.172 C 
HETATM    9  O1  UNL     1      23.803  14.993  22.334  1.00  0.00    -0.648 OA
HETATM   10  O2  UNL     1      24.076  17.135  21.667  1.00  0.00    -0.648 OA
ENDBRANCH   7   8
ENDBRANCH   6   7
ENDBRANCH   1   6
TORSDOF 4
ENDMDL
