MODEL 2
REMARK VINA RESULT: -5.243013948      0.087      1.210
REMARK  4 active torsions:
REMARK  status: ('A' for Active; 'I' for Inactive)
REMARK    1  A    between atoms: N1_1  and  C1_5 
REMARK    2  A    between atoms: C1_5  and  C2_6 
REMARK    3  A    between atoms: C2_6  and  C3_7 
REMARK    4  A    between atoms: C3_7  and  C4_8 
ROOT
HETATM    1  C1  UNL     1      23.026  20.912  17.571  1.00  0.00     0.230 C 
ENDROOT
BRANCH   1   2
HETATM    2  N1  UNL     1      22.957  20.343  16.237  1.00  0.00    -0.079 N 
ATOM      3  H13 UNL     1      23.573  19.538  16.124  1.00  0.00     0.274 HD
ATOM      4  H12 UNL     1      22.071  19.868  16.061  1.00  0.00     0.274 HD
ATOM      5  H11 UNL     1      23.147  21.079  15.556  1.00  0.00     0.274 HD
ENDBRANCH   1   2
BRANCH   1   6
HETATM    6  C2  UNL     1      23.888  20.016  18.441  1.00  0.00     0.038 C 
BRANCH   6   7
HETATM    7  C3  UNL     1      23.029  19.055  19.245  1.00  0.00     0.115 C 
BRANCH   7   8
HETATM    8  C4  UNL     1      23.049  17.696  18.708  1.00  0.00     0.172 C 
HETATM    9  O1  UNL     1      22.998  17.504  17.481  1.00  0.00    -0.648 OA
HETATM   10  O2  UNL     1      23.120  16.616  19.556  1.00  0.00    -0.648 OA
ENDBRANCH   7   8
ENDBRANCH   6   7
ENDBRANCH   1   6
TORSDOF 4
ENDMDL
