MODEL 2
REMARK VINA RESULT: -10.417688304      0.808      1.128
REMARK  6 active torsions:
REMARK  status: ('A' for Active; 'I' for Inactive)
REMARK    1  A    between atoms: C5_5  and  C6_6 
REMARK       I    between atoms: C6_6  and  N1_8 
REMARK    2  A    between atoms: N1_8  and  C7_10 
REMARK    3  A    between atoms: C11_14  and  C12_15 
REMARK    4  A    between atoms: C15_18  and  C16_19 
REMARK       I    between atoms: C16_19  and  N2_21 
REMARK    5  A    between atoms: N2_21  and  C17_23 
REMARK    6  A    between atoms: C17_23  and  C18_24 
ROOT
HETATM    1  C12 UNL     1      41.852  31.880  31.970  1.00  0.00     0.042 A 
HETATM    2  C13 UNL     1      42.791  31.570  31.047  1.00  0.00     0.031 A 
HETATM    3  C14 UNL     1      43.991  32.278  30.886  1.00  0.00     0.021 A 
HETATM    4  C15 UNL     1      44.241  33.343  31.700  1.00  0.00     0.047 A 
HETATM    5  C21 UNL     1      43.290  33.661  32.642  1.00  0.00     0.105 A 
HETATM    6  N3  UNL     1      42.162  32.964  32.764  1.00  0.00    -0.364 N 
ATOM      7  H3  UNL     1      41.493  33.247  33.480  1.00  0.00     0.165 HD
ENDROOT
BRANCH   1   8
HETATM    8  C11 UNL     1      40.611  31.203  32.268  1.00  0.00    -0.003 A 
HETATM    9  C2  UNL     1      39.472  31.338  31.560  1.00  0.00    -0.050 A 
HETATM   10  C1  UNL     1      39.368  32.233  30.385  1.00  0.00     0.049 C 
HETATM   11  C3  UNL     1      38.285  30.663  31.944  1.00  0.00     0.009 A 
HETATM   12  C4  UNL     1      38.286  29.858  33.057  1.00  0.00     0.017 A 
HETATM   13  C5  UNL     1      39.438  29.709  33.798  1.00  0.00     0.032 A 
HETATM   14  C10 UNL     1      40.588  30.373  33.408  1.00  0.00     0.031 A 
BRANCH  13  15
HETATM   15  C6  UNL     1      39.460  28.854  34.991  1.00  0.00     0.252 C 
HETATM   16  O1  UNL     1      40.398  29.009  35.827  1.00  0.00    -0.268 OA
HETATM   17  N1  UNL     1      38.507  27.880  35.259  1.00  0.00    -0.352 N 
ATOM     18  H1  UNL     1      37.750  27.755  34.587  1.00  0.00     0.163 HD
BRANCH  17  19
HETATM   19  C7  UNL     1      38.518  27.026  36.439  1.00  0.00     0.084 A 
HETATM   20  C8  UNL     1      37.498  27.427  37.501  1.00  0.00     0.027 A 
HETATM   21  C9  UNL     1      37.358  26.156  36.745  1.00  0.00     0.027 A 
ENDBRANCH  17  19
ENDBRANCH  13  15
ENDBRANCH   1   8
BRANCH   4  22
HETATM   22  C16 UNL     1      45.481  34.097  31.555  1.00  0.00     0.253 C 
HETATM   23  O2  UNL     1      45.707  35.127  32.272  1.00  0.00    -0.268 OA
HETATM   24  N2  UNL     1      46.513  33.771  30.635  1.00  0.00    -0.356 N 
ATOM     25  H2  UNL     1      46.391  32.958  30.032  1.00  0.00     0.162 HD
BRANCH  24  26
HETATM   26  C17 UNL     1      47.728  34.541  30.518  1.00  0.00     0.135 C 
BRANCH  26  27
HETATM   27  C18 UNL     1      48.269  34.587  29.122  1.00  0.00     0.048 A 
HETATM   28  C19 UNL     1      48.710  35.949  28.697  1.00  0.00    -0.020 A 
HETATM   29  C20 UNL     1      49.647  34.998  28.920  1.00  0.00    -0.020 A 
ENDBRANCH  26  27
ENDBRANCH  24  26
ENDBRANCH   4  22
TORSDOF 6
ENDMDL
