MODEL 4
REMARK VINA RESULT: -9.811195179      1.035      1.265
REMARK  6 active torsions:
REMARK  status: ('A' for Active; 'I' for Inactive)
REMARK    1  A    between atoms: C5_5  and  C6_6 
REMARK       I    between atoms: C6_6  and  N1_8 
REMARK    2  A    between atoms: N1_8  and  C7_10 
REMARK    3  A    between atoms: C11_14  and  C12_15 
REMARK    4  A    between atoms: C15_18  and  C16_19 
REMARK       I    between atoms: C16_19  and  N2_21 
REMARK    5  A    between atoms: N2_21  and  C17_23 
REMARK    6  A    between atoms: C17_23  and  C18_24 
ROOT
HETATM    1  C12 UNL     1      41.962  31.670  32.125  1.00  0.00     0.042 A 
HETATM    2  C13 UNL     1      42.502  32.780  32.679  1.00  0.00     0.031 A 
HETATM    3  C14 UNL     1      43.737  33.323  32.296  1.00  0.00     0.021 A 
HETATM    4  C15 UNL     1      44.447  32.707  31.308  1.00  0.00     0.047 A 
HETATM    5  C21 UNL     1      43.902  31.579  30.741  1.00  0.00     0.105 A 
HETATM    6  N3  UNL     1      42.725  31.094  31.132  1.00  0.00    -0.364 N 
ATOM      7  H3  UNL     1      42.371  30.254  30.674  1.00  0.00     0.165 HD
ENDROOT
BRANCH   1   8
HETATM    8  C11 UNL     1      40.686  31.048  32.393  1.00  0.00    -0.003 A 
HETATM    9  C2  UNL     1      39.572  31.232  31.659  1.00  0.00    -0.050 A 
HETATM   10  C1  UNL     1      39.534  32.131  30.482  1.00  0.00     0.049 C 
HETATM   11  C3  UNL     1      38.347  30.610  32.014  1.00  0.00     0.009 A 
HETATM   12  C4  UNL     1      38.287  29.806  33.126  1.00  0.00     0.017 A 
HETATM   13  C5  UNL     1      39.413  29.606  33.893  1.00  0.00     0.032 A 
HETATM   14  C10 UNL     1      40.600  30.220  33.531  1.00  0.00     0.031 A 
BRANCH  13  15
HETATM   15  C6  UNL     1      39.370  28.751  35.086  1.00  0.00     0.252 C 
HETATM   16  O1  UNL     1      40.283  28.880  35.954  1.00  0.00    -0.268 OA
HETATM   17  N1  UNL     1      38.381  27.804  35.320  1.00  0.00    -0.352 N 
ATOM     18  H1  UNL     1      37.645  27.701  34.621  1.00  0.00     0.163 HD
BRANCH  17  19
HETATM   19  C7  UNL     1      38.328  26.950  36.498  1.00  0.00     0.084 A 
HETATM   20  C8  UNL     1      37.316  27.407  37.545  1.00  0.00     0.027 A 
HETATM   21  C9  UNL     1      37.117  26.146  36.786  1.00  0.00     0.027 A 
ENDBRANCH  17  19
ENDBRANCH  13  15
ENDBRANCH   1   8
BRANCH   4  22
HETATM   22  C16 UNL     1      45.735  33.249  30.890  1.00  0.00     0.253 C 
HETATM   23  O2  UNL     1      45.998  33.431  29.655  1.00  0.00    -0.268 OA
HETATM   24  N2  UNL     1      46.779  33.612  31.782  1.00  0.00    -0.356 N 
ATOM     25  H2  UNL     1      46.630  33.489  32.784  1.00  0.00     0.162 HD
BRANCH  24  26
HETATM   26  C17 UNL     1      48.042  34.146  31.333  1.00  0.00     0.135 C 
BRANCH  26  27
HETATM   27  C18 UNL     1      49.153  33.141  31.353  1.00  0.00     0.048 A 
HETATM   28  C19 UNL     1      50.304  33.540  32.217  1.00  0.00    -0.020 A 
HETATM   29  C20 UNL     1      49.510  32.519  32.615  1.00  0.00    -0.020 A 
ENDBRANCH  26  27
ENDBRANCH  24  26
ENDBRANCH   4  22
TORSDOF 6
ENDMDL
