MODEL 1
REMARK VINA RESULT: -10.457110410      0.000      0.000
REMARK  6 active torsions:
REMARK  status: ('A' for Active; 'I' for Inactive)
REMARK    1  A    between atoms: C5_5  and  C6_6 
REMARK       I    between atoms: C6_6  and  N1_8 
REMARK    2  A    between atoms: N1_8  and  C7_10 
REMARK    3  A    between atoms: C11_14  and  C12_15 
REMARK    4  A    between atoms: C15_18  and  C16_19 
REMARK       I    between atoms: C16_19  and  N2_21 
REMARK    5  A    between atoms: N2_21  and  C17_23 
REMARK    6  A    between atoms: C17_23  and  C18_24 
ROOT
HETATM    1  C12 UNL     1      41.854  31.912  32.003  1.00  0.00     0.042 A 
HETATM    2  C13 UNL     1      42.794  31.633  31.071  1.00  0.00     0.031 A 
HETATM    3  C14 UNL     1      43.993  32.347  30.932  1.00  0.00     0.021 A 
HETATM    4  C15 UNL     1      44.241  33.387  31.779  1.00  0.00     0.047 A 
HETATM    5  C21 UNL     1      43.289  33.674  32.729  1.00  0.00     0.105 A 
HETATM    6  N3  UNL     1      42.162  32.972  32.829  1.00  0.00    -0.364 N 
ATOM      7  H3  UNL     1      41.493  33.231  33.554  1.00  0.00     0.165 HD
ENDROOT
BRANCH   1   8
HETATM    8  C11 UNL     1      40.614  31.224  32.280  1.00  0.00    -0.003 A 
HETATM    9  C2  UNL     1      39.487  31.349  31.552  1.00  0.00    -0.050 A 
HETATM   10  C1  UNL     1      39.395  32.244  30.376  1.00  0.00     0.049 C 
HETATM   11  C3  UNL     1      38.299  30.663  31.916  1.00  0.00     0.009 A 
HETATM   12  C4  UNL     1      38.288  29.858  33.029  1.00  0.00     0.017 A 
HETATM   13  C5  UNL     1      39.429  29.719  33.789  1.00  0.00     0.032 A 
HETATM   14  C10 UNL     1      40.579  30.394  33.418  1.00  0.00     0.031 A 
BRANCH  13  15
HETATM   15  C6  UNL     1      39.439  28.863  34.982  1.00  0.00     0.252 C 
HETATM   16  O1  UNL     1      40.365  29.022  35.830  1.00  0.00    -0.268 OA
HETATM   17  N1  UNL     1      38.485  27.886  35.237  1.00  0.00    -0.352 N 
ATOM     18  H1  UNL     1      37.738  27.759  34.555  1.00  0.00     0.163 HD
BRANCH  17  19
HETATM   19  C7  UNL     1      38.484  27.032  36.417  1.00  0.00     0.084 A 
HETATM   20  C8  UNL     1      37.473  27.450  37.480  1.00  0.00     0.027 A 
HETATM   21  C9  UNL     1      37.310  26.182  36.725  1.00  0.00     0.027 A 
ENDBRANCH  17  19
ENDBRANCH  13  15
ENDBRANCH   1   8
BRANCH   4  22
HETATM   22  C16 UNL     1      45.479  34.148  31.656  1.00  0.00     0.253 C 
HETATM   23  O2  UNL     1      45.659  35.216  32.330  1.00  0.00    -0.268 OA
HETATM   24  N2  UNL     1      46.560  33.787  30.809  1.00  0.00    -0.356 N 
ATOM     25  H2  UNL     1      46.477  32.942  30.243  1.00  0.00     0.162 HD
BRANCH  24  26
HETATM   26  C17 UNL     1      47.772  34.565  30.712  1.00  0.00     0.135 C 
BRANCH  26  27
HETATM   27  C18 UNL     1      48.982  33.844  31.222  1.00  0.00     0.048 A 
HETATM   28  C19 UNL     1      50.033  34.755  31.767  1.00  0.00    -0.020 A 
HETATM   29  C20 UNL     1      49.335  33.975  32.624  1.00  0.00    -0.020 A 
ENDBRANCH  26  27
ENDBRANCH  24  26
ENDBRANCH   4  22
TORSDOF 6
ENDMDL
