MODEL 8
REMARK VINA RESULT: -7.901321084      3.953      9.523
REMARK  6 active torsions:
REMARK  status: ('A' for Active; 'I' for Inactive)
REMARK    1  A    between atoms: C5_5  and  C6_6 
REMARK       I    between atoms: C6_6  and  N1_8 
REMARK    2  A    between atoms: N1_8  and  C7_10 
REMARK    3  A    between atoms: C11_14  and  C12_15 
REMARK    4  A    between atoms: C15_18  and  C16_19 
REMARK       I    between atoms: C16_19  and  N2_21 
REMARK    5  A    between atoms: N2_21  and  C17_23 
REMARK    6  A    between atoms: C17_23  and  C18_24 
ROOT
HETATM    1  C12 UNL     1      43.894  30.808  31.774  1.00  0.00     0.042 A 
HETATM    2  C13 UNL     1      43.351  31.741  32.590  1.00  0.00     0.031 A 
HETATM    3  C14 UNL     1      42.200  31.529  33.363  1.00  0.00     0.021 A 
HETATM    4  C15 UNL     1      41.581  30.316  33.300  1.00  0.00     0.047 A 
HETATM    5  C21 UNL     1      42.129  29.363  32.473  1.00  0.00     0.105 A 
HETATM    6  N3  UNL     1      43.224  29.603  31.754  1.00  0.00    -0.364 N 
ATOM      7  H3  UNL     1      43.585  28.858  31.159  1.00  0.00     0.165 HD
ENDROOT
BRANCH   1   8
HETATM    8  C11 UNL     1      45.094  30.886  30.975  1.00  0.00    -0.003 A 
HETATM    9  C2  UNL     1      45.422  31.922  30.178  1.00  0.00    -0.050 A 
HETATM   10  C1  UNL     1      44.552  33.110  30.020  1.00  0.00     0.049 C 
HETATM   11  C3  UNL     1      46.607  31.901  29.396  1.00  0.00     0.009 A 
HETATM   12  C4  UNL     1      47.438  30.809  29.445  1.00  0.00     0.017 A 
HETATM   13  C5  UNL     1      47.121  29.737  30.251  1.00  0.00     0.032 A 
HETATM   14  C10 UNL     1      45.962  29.775  31.007  1.00  0.00     0.031 A 
BRANCH  13  15
HETATM   15  C6  UNL     1      47.996  28.560  30.317  1.00  0.00     0.252 C 
HETATM   16  O1  UNL     1      48.133  27.972  31.429  1.00  0.00    -0.268 OA
HETATM   17  N1  UNL     1      48.684  28.050  29.224  1.00  0.00    -0.352 N 
ATOM     18  H1  UNL     1      48.573  28.522  28.326  1.00  0.00     0.163 HD
BRANCH  17  19
HETATM   19  C7  UNL     1      49.554  26.883  29.276  1.00  0.00     0.084 A 
HETATM   20  C8  UNL     1      49.944  26.342  27.904  1.00  0.00     0.027 A 
HETATM   21  C9  UNL     1      50.953  26.969  28.795  1.00  0.00     0.027 A 
ENDBRANCH  17  19
ENDBRANCH  13  15
ENDBRANCH   1   8
BRANCH   4  22
HETATM   22  C16 UNL     1      40.382  30.068  34.092  1.00  0.00     0.253 C 
HETATM   23  O2  UNL     1      39.487  30.968  34.225  1.00  0.00    -0.268 OA
HETATM   24  N2  UNL     1      40.105  28.848  34.767  1.00  0.00    -0.356 N 
ATOM     25  H2  UNL     1      40.783  28.089  34.700  1.00  0.00     0.162 HD
BRANCH  24  26
HETATM   26  C17 UNL     1      38.907  28.637  35.542  1.00  0.00     0.135 C 
BRANCH  26  27
HETATM   27  C18 UNL     1      38.786  27.245  36.080  1.00  0.00     0.048 A 
HETATM   28  C19 UNL     1      38.374  27.193  37.515  1.00  0.00    -0.020 A 
HETATM   29  C20 UNL     1      37.495  26.794  36.567  1.00  0.00    -0.020 A 
ENDBRANCH  26  27
ENDBRANCH  24  26
ENDBRANCH   4  22
TORSDOF 6
ENDMDL
