MODEL 7
REMARK VINA RESULT: -7.904967251      2.671      9.526
REMARK  6 active torsions:
REMARK  status: ('A' for Active; 'I' for Inactive)
REMARK    1  A    between atoms: C5_5  and  C6_6 
REMARK       I    between atoms: C6_6  and  N1_8 
REMARK    2  A    between atoms: N1_8  and  C7_10 
REMARK    3  A    between atoms: C11_14  and  C12_15 
REMARK    4  A    between atoms: C15_18  and  C16_19 
REMARK       I    between atoms: C16_19  and  N2_21 
REMARK    5  A    between atoms: N2_21  and  C17_23 
REMARK    6  A    between atoms: C17_23  and  C18_24 
ROOT
HETATM    1  C12 UNL     1      43.188  31.672  32.657  1.00  0.00     0.042 A 
HETATM    2  C13 UNL     1      42.103  32.266  33.207  1.00  0.00     0.031 A 
HETATM    3  C14 UNL     1      40.975  31.567  33.659  1.00  0.00     0.021 A 
HETATM    4  C15 UNL     1      40.955  30.208  33.547  1.00  0.00     0.047 A 
HETATM    5  C21 UNL     1      42.057  29.600  32.991  1.00  0.00     0.105 A 
HETATM    6  N3  UNL     1      43.110  30.299  32.572  1.00  0.00    -0.364 N 
ATOM      7  H3  UNL     1      43.898  29.793  32.169  1.00  0.00     0.165 HD
ENDROOT
BRANCH   1   8
HETATM    8  C11 UNL     1      44.422  32.272  32.206  1.00  0.00    -0.003 A 
HETATM    9  C2  UNL     1      44.865  33.490  32.574  1.00  0.00    -0.050 A 
HETATM   10  C1  UNL     1      44.102  34.371  33.487  1.00  0.00     0.049 C 
HETATM   11  C3  UNL     1      46.075  34.020  32.053  1.00  0.00     0.009 A 
HETATM   12  C4  UNL     1      46.811  33.286  31.156  1.00  0.00     0.017 A 
HETATM   13  C5  UNL     1      46.376  32.039  30.763  1.00  0.00     0.032 A 
HETATM   14  C10 UNL     1      45.195  31.538  31.283  1.00  0.00     0.031 A 
BRANCH  13  15
HETATM   15  C6  UNL     1      47.148  31.239  29.805  1.00  0.00     0.252 C 
HETATM   16  O1  UNL     1      46.735  31.164  28.611  1.00  0.00    -0.268 OA
HETATM   17  N1  UNL     1      48.311  30.556  30.133  1.00  0.00    -0.352 N 
ATOM     18  H1  UNL     1      48.646  30.616  31.095  1.00  0.00     0.163 HD
BRANCH  17  19
HETATM   19  C7  UNL     1      49.086  29.758  29.192  1.00  0.00     0.084 A 
HETATM   20  C8  UNL     1      50.401  29.235  29.763  1.00  0.00     0.027 A 
HETATM   21  C9  UNL     1      49.289  28.309  29.427  1.00  0.00     0.027 A 
ENDBRANCH  17  19
ENDBRANCH  13  15
ENDBRANCH   1   8
BRANCH   4  22
HETATM   22  C16 UNL     1      39.795  29.455  34.008  1.00  0.00     0.253 C 
HETATM   23  O2  UNL     1      38.675  29.544  33.404  1.00  0.00    -0.268 OA
HETATM   24  N2  UNL     1      39.799  28.585  35.132  1.00  0.00    -0.356 N 
ATOM     25  H2  UNL     1      40.666  28.472  35.658  1.00  0.00     0.162 HD
BRANCH  24  26
HETATM   26  C17 UNL     1      38.631  27.855  35.560  1.00  0.00     0.135 C 
BRANCH  26  27
HETATM   27  C18 UNL     1      38.474  27.808  37.049  1.00  0.00     0.048 A 
HETATM   28  C19 UNL     1      37.118  27.364  37.491  1.00  0.00    -0.020 A 
HETATM   29  C20 UNL     1      38.171  26.536  37.680  1.00  0.00    -0.020 A 
ENDBRANCH  26  27
ENDBRANCH  24  26
ENDBRANCH   4  22
TORSDOF 6
ENDMDL
