MODEL 6
REMARK VINA RESULT: -7.934033846      1.724      9.548
REMARK  6 active torsions:
REMARK  status: ('A' for Active; 'I' for Inactive)
REMARK    1  A    between atoms: C5_5  and  C6_6 
REMARK       I    between atoms: C6_6  and  N1_8 
REMARK    2  A    between atoms: N1_8  and  C7_10 
REMARK    3  A    between atoms: C11_14  and  C12_15 
REMARK    4  A    between atoms: C15_18  and  C16_19 
REMARK       I    between atoms: C16_19  and  N2_21 
REMARK    5  A    between atoms: N2_21  and  C17_23 
REMARK    6  A    between atoms: C17_23  and  C18_24 
ROOT
HETATM    1  C12 UNL     1      42.102  31.197  33.078  1.00  0.00     0.042 A 
HETATM    2  C13 UNL     1      41.057  31.631  33.820  1.00  0.00     0.031 A 
HETATM    3  C14 UNL     1      40.311  30.807  34.675  1.00  0.00     0.021 A 
HETATM    4  C15 UNL     1      40.647  29.489  34.777  1.00  0.00     0.047 A 
HETATM    5  C21 UNL     1      41.711  29.044  34.027  1.00  0.00     0.105 A 
HETATM    6  N3  UNL     1      42.395  29.858  33.225  1.00  0.00    -0.364 N 
ATOM      7  H3  UNL     1      43.174  29.471  32.693  1.00  0.00     0.165 HD
ENDROOT
BRANCH   1   8
HETATM    8  C11 UNL     1      42.975  31.951  32.208  1.00  0.00    -0.003 A 
HETATM    9  C2  UNL     1      42.764  32.150  30.892  1.00  0.00    -0.050 A 
HETATM   10  C1  UNL     1      41.595  31.584  30.180  1.00  0.00     0.049 C 
HETATM   11  C3  UNL     1      43.693  32.874  30.101  1.00  0.00     0.009 A 
HETATM   12  C4  UNL     1      44.832  33.382  30.678  1.00  0.00     0.017 A 
HETATM   13  C5  UNL     1      45.069  33.187  32.020  1.00  0.00     0.032 A 
HETATM   14  C10 UNL     1      44.151  32.480  32.777  1.00  0.00     0.031 A 
BRANCH  13  15
HETATM   15  C6  UNL     1      46.280  33.721  32.656  1.00  0.00     0.252 C 
HETATM   16  O1  UNL     1      46.239  34.886  33.149  1.00  0.00    -0.268 OA
HETATM   17  N1  UNL     1      47.474  33.019  32.750  1.00  0.00    -0.352 N 
ATOM     18  H1  UNL     1      47.508  32.079  32.354  1.00  0.00     0.163 HD
BRANCH  17  19
HETATM   19  C7  UNL     1      48.682  33.537  33.378  1.00  0.00     0.084 A 
HETATM   20  C8  UNL     1      49.972  33.085  32.700  1.00  0.00     0.027 A 
HETATM   21  C9  UNL     1      49.543  34.506  32.660  1.00  0.00     0.027 A 
ENDBRANCH  17  19
ENDBRANCH  13  15
ENDBRANCH   1   8
BRANCH   4  22
HETATM   22  C16 UNL     1      39.889  28.609  35.658  1.00  0.00     0.253 C 
HETATM   23  O2  UNL     1      39.677  28.927  36.876  1.00  0.00    -0.268 OA
HETATM   24  N2  UNL     1      39.335  27.362  35.262  1.00  0.00    -0.356 N 
ATOM     25  H2  UNL     1      39.471  27.051  34.300  1.00  0.00     0.162 HD
BRANCH  24  26
HETATM   26  C17 UNL     1      38.589  26.516  36.161  1.00  0.00     0.135 C 
BRANCH  26  27
HETATM   27  C18 UNL     1      37.193  26.998  36.409  1.00  0.00     0.048 A 
HETATM   28  C19 UNL     1      36.354  26.027  37.174  1.00  0.00    -0.020 A 
HETATM   29  C20 UNL     1      36.746  27.172  37.779  1.00  0.00    -0.020 A 
ENDBRANCH  26  27
ENDBRANCH  24  26
ENDBRANCH   4  22
TORSDOF 6
ENDMDL
