MODEL 3
REMARK VINA RESULT: -10.307672596      0.891      1.004
REMARK  6 active torsions:
REMARK  status: ('A' for Active; 'I' for Inactive)
REMARK    1  A    between atoms: C5_5  and  C6_6 
REMARK       I    between atoms: C6_6  and  N1_8 
REMARK    2  A    between atoms: N1_8  and  C7_10 
REMARK    3  A    between atoms: C11_14  and  C12_15 
REMARK    4  A    between atoms: C15_18  and  C16_19 
REMARK       I    between atoms: C16_19  and  N2_21 
REMARK    5  A    between atoms: N2_21  and  C17_23 
REMARK    6  A    between atoms: C17_23  and  C18_24 
ROOT
HETATM    1  C12 UNL     1      42.051  31.820  32.647  1.00  0.00     0.042 A 
HETATM    2  C13 UNL     1      43.174  31.471  31.978  1.00  0.00     0.031 A 
HETATM    3  C14 UNL     1      44.363  32.215  32.005  1.00  0.00     0.021 A 
HETATM    4  C15 UNL     1      44.405  33.359  32.746  1.00  0.00     0.047 A 
HETATM    5  C21 UNL     1      43.266  33.717  33.429  1.00  0.00     0.105 A 
HETATM    6  N3  UNL     1      42.156  32.984  33.378  1.00  0.00    -0.364 N 
ATOM      7  H3  UNL     1      41.343  33.299  33.906  1.00  0.00     0.165 HD
ENDROOT
BRANCH   1   8
HETATM    8  C11 UNL     1      40.793  31.117  32.742  1.00  0.00    -0.003 A 
HETATM    9  C2  UNL     1      39.777  31.238  31.865  1.00  0.00    -0.050 A 
HETATM   10  C1  UNL     1      39.840  32.144  30.695  1.00  0.00     0.049 C 
HETATM   11  C3  UNL     1      38.557  30.537  32.052  1.00  0.00     0.009 A 
HETATM   12  C4  UNL     1      38.401  29.720  33.145  1.00  0.00     0.017 A 
HETATM   13  C5  UNL     1      39.425  29.583  34.056  1.00  0.00     0.032 A 
HETATM   14  C10 UNL     1      40.608  30.273  33.856  1.00  0.00     0.031 A 
BRANCH  13  15
HETATM   15  C6  UNL     1      39.278  28.715  35.231  1.00  0.00     0.252 C 
HETATM   16  O1  UNL     1      40.121  28.821  36.169  1.00  0.00    -0.268 OA
HETATM   17  N1  UNL     1      38.261  27.780  35.375  1.00  0.00    -0.352 N 
ATOM     18  H1  UNL     1      37.580  27.695  34.620  1.00  0.00     0.163 HD
BRANCH  17  19
HETATM   19  C7  UNL     1      38.104  26.913  36.535  1.00  0.00     0.084 A 
HETATM   20  C8  UNL     1      37.055  27.400  37.531  1.00  0.00     0.027 A 
HETATM   21  C9  UNL     1      36.845  26.159  36.742  1.00  0.00     0.027 A 
ENDBRANCH  17  19
ENDBRANCH  13  15
ENDBRANCH   1   8
BRANCH   4  22
HETATM   22  C16 UNL     1      45.627  34.153  32.791  1.00  0.00     0.253 C 
HETATM   23  O2  UNL     1      45.635  35.366  32.395  1.00  0.00    -0.268 OA
HETATM   24  N2  UNL     1      46.878  33.672  33.263  1.00  0.00    -0.356 N 
ATOM     25  H2  UNL     1      46.938  32.709  33.594  1.00  0.00     0.162 HD
BRANCH  24  26
HETATM   26  C17 UNL     1      48.069  34.486  33.294  1.00  0.00     0.135 C 
BRANCH  26  27
HETATM   27  C18 UNL     1      48.969  34.267  32.118  1.00  0.00     0.048 A 
HETATM   28  C19 UNL     1      50.167  33.431  32.431  1.00  0.00    -0.020 A 
HETATM   29  C20 UNL     1      49.192  32.911  31.651  1.00  0.00    -0.020 A 
ENDBRANCH  26  27
ENDBRANCH  24  26
ENDBRANCH   4  22
TORSDOF 6
ENDMDL
