MODEL 4
REMARK VINA RESULT: -13.034834950      1.128      1.832
REMARK  14 active torsions:
REMARK  status: ('A' for Active; 'I' for Inactive)
REMARK    1  A    between atoms: C1_2  and  C2_4 
REMARK    2  A    between atoms: C2_4  and  C3_5 
REMARK    3  A    between atoms: C7_9  and  O3_10 
REMARK    4  A    between atoms: O3_10  and  C8_11 
REMARK    5  A    between atoms: C8_11  and  C9_12 
REMARK    6  A    between atoms: C9_12  and  C10_13 
REMARK    7  A    between atoms: C10_13  and  N1_14 
REMARK    8  A    between atoms: N1_14  and  C11_15 
REMARK    9  A    between atoms: N1_14  and  C19_27 
REMARK   10  A    between atoms: C11_15  and  C12_16 
REMARK   11  A    between atoms: C16_20  and  C17_21 
REMARK   12  A    between atoms: C19_27  and  C20_28 
REMARK   13  A    between atoms: C20_28  and  C21_29 
REMARK   14  A    between atoms: C20_28  and  C27_35 
ROOT
HETATM    1  N1  UNL     1      40.720  14.712  -6.123  1.00  0.00    -0.368 N 
ENDROOT
BRANCH   1   2
HETATM    2  C10 UNL     1      41.889  14.193  -6.791  1.00  0.00     0.129 C 
BRANCH   2   3
HETATM    3  C9  UNL     1      43.180  14.317  -5.983  1.00  0.00     0.047 C 
BRANCH   3   4
HETATM    4  C8  UNL     1      43.266  15.573  -5.172  1.00  0.00     0.177 C 
BRANCH   4   5
HETATM    5  O3  UNL     1      44.238  15.444  -4.194  1.00  0.00    -0.351 OA
BRANCH   5   6
HETATM    6  C7  UNL     1      45.381  16.168  -4.002  1.00  0.00     0.069 A 
HETATM    7  C6  UNL     1      45.456  17.537  -3.994  1.00  0.00     0.037 A 
HETATM    8  C5  UNL     1      46.641  18.231  -3.800  1.00  0.00     0.003 A 
HETATM    9  C4  UNL     1      47.808  17.541  -3.603  1.00  0.00     0.008 A 
HETATM   10  C3  UNL     1      47.763  16.174  -3.605  1.00  0.00    -0.046 A 
HETATM   11  C33 UNL     1      46.603  15.497  -3.796  1.00  0.00     0.044 A 
BRANCH  10  12
HETATM   12  C2  UNL     1      49.048  15.428  -3.386  1.00  0.00     0.151 C 
BRANCH  12  13
HETATM   13  C1  UNL     1      50.127  16.159  -4.084  1.00  0.00     0.176 C 
HETATM   14  O1  UNL     1      50.085  16.359  -5.326  1.00  0.00    -0.648 OA
HETATM   15  O2  UNL     1      51.234  16.654  -3.367  1.00  0.00    -0.648 OA
ENDBRANCH  12  13
ENDBRANCH  10  12
ENDBRANCH   5   6
ENDBRANCH   4   5
ENDBRANCH   3   4
ENDBRANCH   2   3
ENDBRANCH   1   2
BRANCH   1  16
HETATM   16  C11 UNL     1      40.102  13.961  -5.139  1.00  0.00     0.103 C 
BRANCH  16  17
HETATM   17  C12 UNL     1      38.720  13.743  -4.927  1.00  0.00     0.002 A 
HETATM   18  C13 UNL     1      37.972  12.747  -5.442  1.00  0.00     0.014 A 
HETATM   19  C14 UNL     1      36.612  12.583  -5.191  1.00  0.00     0.002 A 
HETATM   20  C15 UNL     1      35.977  13.470  -4.382  1.00  0.00     0.018 A 
HETATM   21  C16 UNL     1      36.698  14.507  -3.829  1.00  0.00     0.070 A 
HETATM   22  C18 UNL     1      38.032  14.643  -4.092  1.00  0.00     0.060 A 
HETATM   23 CL1  UNL     1      38.899  15.976  -3.371  1.00  0.00    -0.083 Cl
BRANCH  21  24
HETATM   24  C17 UNL     1      35.952  15.456  -2.946  1.00  0.00     0.419 C 
HETATM   25  F1  UNL     1      35.807  14.953  -1.655  1.00  0.00    -0.166 F 
HETATM   26  F2  UNL     1      36.564  16.692  -2.905  1.00  0.00    -0.166 F 
HETATM   27  F3  UNL     1      34.677  15.634  -3.435  1.00  0.00    -0.166 F 
ENDBRANCH  21  24
ENDBRANCH  16  17
ENDBRANCH   1  16
BRANCH   1  28
HETATM   28  C19 UNL     1      39.907  15.579  -6.923  1.00  0.00     0.077 C 
BRANCH  28  29
HETATM   29  C20 UNL     1      40.260  16.966  -7.189  1.00  0.00     0.090 C 
BRANCH  29  30
HETATM   30  C21 UNL     1      40.044  17.968  -6.128  1.00  0.00    -0.045 A 
HETATM   31  C22 UNL     1      41.125  18.492  -5.458  1.00  0.00     0.008 A 
HETATM   32  C23 UNL     1      40.973  19.450  -4.475  1.00  0.00     0.001 A 
HETATM   33  C24 UNL     1      39.728  19.929  -4.114  1.00  0.00     0.000 A 
HETATM   34  C25 UNL     1      38.622  19.412  -4.777  1.00  0.00     0.001 A 
HETATM   35  C26 UNL     1      38.810  18.464  -5.746  1.00  0.00     0.008 A 
ENDBRANCH  29  30
BRANCH  29  36
HETATM   36  C27 UNL     1      39.511  17.437  -8.387  1.00  0.00    -0.045 A 
HETATM   37  C28 UNL     1      38.214  17.002  -8.653  1.00  0.00     0.008 A 
HETATM   38  C29 UNL     1      37.559  17.454  -9.771  1.00  0.00     0.001 A 
HETATM   39  C30 UNL     1      38.129  18.334 -10.660  1.00  0.00     0.000 A 
HETATM   40  C31 UNL     1      39.413  18.772 -10.408  1.00  0.00     0.001 A 
HETATM   41  C32 UNL     1      40.076  18.312  -9.273  1.00  0.00     0.008 A 
ENDBRANCH  29  36
ENDBRANCH  28  29
ENDBRANCH   1  28
TORSDOF 14
ENDMDL
