MODEL 19
REMARK VINA RESULT: -11.436364235      4.527      8.654
REMARK  14 active torsions:
REMARK  status: ('A' for Active; 'I' for Inactive)
REMARK    1  A    between atoms: C1_2  and  C2_4 
REMARK    2  A    between atoms: C2_4  and  C3_5 
REMARK    3  A    between atoms: C7_9  and  O3_10 
REMARK    4  A    between atoms: O3_10  and  C8_11 
REMARK    5  A    between atoms: C8_11  and  C9_12 
REMARK    6  A    between atoms: C9_12  and  C10_13 
REMARK    7  A    between atoms: C10_13  and  N1_14 
REMARK    8  A    between atoms: N1_14  and  C11_15 
REMARK    9  A    between atoms: N1_14  and  C19_27 
REMARK   10  A    between atoms: C11_15  and  C12_16 
REMARK   11  A    between atoms: C16_20  and  C17_21 
REMARK   12  A    between atoms: C19_27  and  C20_28 
REMARK   13  A    between atoms: C20_28  and  C21_29 
REMARK   14  A    between atoms: C20_28  and  C27_35 
ROOT
HETATM    1  N1  UNL     1      41.969  15.639  -6.573  1.00  0.00    -0.368 N 
ENDROOT
BRANCH   1   2
HETATM    2  C10 UNL     1      41.411  14.363  -6.950  1.00  0.00     0.129 C 
BRANCH   2   3
HETATM    3  C9  UNL     1      40.169  13.963  -6.156  1.00  0.00     0.047 C 
BRANCH   3   4
HETATM    4  C8  UNL     1      40.391  13.901  -4.677  1.00  0.00     0.177 C 
BRANCH   4   5
HETATM    5  O3  UNL     1      39.416  13.122  -4.079  1.00  0.00    -0.351 OA
BRANCH   5   6
HETATM    6  C7  UNL     1      38.055  13.208  -4.171  1.00  0.00     0.069 A 
HETATM    7  C6  UNL     1      37.251  12.317  -4.834  1.00  0.00     0.037 A 
HETATM    8  C5  UNL     1      35.872  12.448  -4.906  1.00  0.00     0.003 A 
HETATM    9  C4  UNL     1      35.256  13.508  -4.293  1.00  0.00     0.008 A 
HETATM   10  C3  UNL     1      36.034  14.412  -3.623  1.00  0.00    -0.046 A 
HETATM   11  C33 UNL     1      37.383  14.283  -3.555  1.00  0.00     0.044 A 
BRANCH  10  12
HETATM   12  C2  UNL     1      35.349  15.569  -2.953  1.00  0.00     0.151 C 
BRANCH  12  13
HETATM   13  C1  UNL     1      34.241  15.034  -2.135  1.00  0.00     0.176 C 
HETATM   14  O1  UNL     1      34.461  14.364  -1.091  1.00  0.00    -0.648 OA
HETATM   15  O2  UNL     1      32.902  15.264  -2.507  1.00  0.00    -0.648 OA
ENDBRANCH  12  13
ENDBRANCH  10  12
ENDBRANCH   5   6
ENDBRANCH   4   5
ENDBRANCH   3   4
ENDBRANCH   2   3
ENDBRANCH   1   2
BRANCH   1  16
HETATM   16  C11 UNL     1      42.462  15.822  -5.293  1.00  0.00     0.103 C 
BRANCH  16  17
HETATM   17  C12 UNL     1      43.808  15.919  -4.865  1.00  0.00     0.002 A 
HETATM   18  C13 UNL     1      44.705  14.916  -4.793  1.00  0.00     0.014 A 
HETATM   19  C14 UNL     1      46.020  15.076  -4.365  1.00  0.00     0.002 A 
HETATM   20  C15 UNL     1      46.449  16.310  -3.992  1.00  0.00     0.018 A 
HETATM   21  C16 UNL     1      45.568  17.369  -4.048  1.00  0.00     0.070 A 
HETATM   22  C18 UNL     1      44.284  17.184  -4.472  1.00  0.00     0.060 A 
HETATM   23 CL1  UNL     1      43.207  18.557  -4.521  1.00  0.00    -0.083 Cl
BRANCH  21  24
HETATM   24  C17 UNL     1      46.090  18.706  -3.624  1.00  0.00     0.419 C 
HETATM   25  F1  UNL     1      46.374  19.519  -4.719  1.00  0.00    -0.166 F 
HETATM   26  F2  UNL     1      45.206  19.345  -2.778  1.00  0.00    -0.166 F 
HETATM   27  F3  UNL     1      47.278  18.544  -2.947  1.00  0.00    -0.166 F 
ENDBRANCH  21  24
ENDBRANCH  16  17
ENDBRANCH   1  16
BRANCH   1  28
HETATM   28  C19 UNL     1      41.394  16.767  -7.244  1.00  0.00     0.077 C 
BRANCH  28  29
HETATM   29  C20 UNL     1      39.957  16.964  -7.365  1.00  0.00     0.090 C 
BRANCH  29  30
HETATM   30  C21 UNL     1      39.425  17.552  -8.609  1.00  0.00    -0.045 A 
HETATM   31  C22 UNL     1      38.105  17.360  -8.943  1.00  0.00     0.008 A 
HETATM   32  C23 UNL     1      37.558  17.912 -10.084  1.00  0.00     0.001 A 
HETATM   33  C24 UNL     1      38.309  18.685 -10.949  1.00  0.00     0.000 A 
HETATM   34  C25 UNL     1      39.646  18.892 -10.632  1.00  0.00     0.001 A 
HETATM   35  C26 UNL     1      40.155  18.329  -9.492  1.00  0.00     0.008 A 
ENDBRANCH  29  30
BRANCH  29  36
HETATM   36  C27 UNL     1      39.486  17.823  -6.244  1.00  0.00    -0.045 A 
HETATM   37  C28 UNL     1      38.758  17.296  -5.179  1.00  0.00     0.008 A 
HETATM   38  C29 UNL     1      38.335  18.120  -4.167  1.00  0.00     0.001 A 
HETATM   39  C30 UNL     1      38.602  19.469  -4.150  1.00  0.00     0.000 A 
HETATM   40  C31 UNL     1      39.322  20.004  -5.198  1.00  0.00     0.001 A 
HETATM   41  C32 UNL     1      39.749  19.165  -6.224  1.00  0.00     0.008 A 
ENDBRANCH  29  36
ENDBRANCH  28  29
ENDBRANCH   1  28
TORSDOF 14
ENDMDL
