MODEL 3
REMARK VINA RESULT: -13.370708445      0.658      2.810
REMARK  14 active torsions:
REMARK  status: ('A' for Active; 'I' for Inactive)
REMARK    1  A    between atoms: C1_2  and  C2_4 
REMARK    2  A    between atoms: C2_4  and  C3_5 
REMARK    3  A    between atoms: C7_9  and  O3_10 
REMARK    4  A    between atoms: O3_10  and  C8_11 
REMARK    5  A    between atoms: C8_11  and  C9_12 
REMARK    6  A    between atoms: C9_12  and  C10_13 
REMARK    7  A    between atoms: C10_13  and  N1_14 
REMARK    8  A    between atoms: N1_14  and  C11_15 
REMARK    9  A    between atoms: N1_14  and  C19_27 
REMARK   10  A    between atoms: C11_15  and  C12_16 
REMARK   11  A    between atoms: C16_20  and  C17_21 
REMARK   12  A    between atoms: C19_27  and  C20_28 
REMARK   13  A    between atoms: C20_28  and  C21_29 
REMARK   14  A    between atoms: C20_28  and  C27_35 
ROOT
HETATM    1  N1  UNL     1      40.953  14.780  -6.317  1.00  0.00    -0.368 N 
ENDROOT
BRANCH   1   2
HETATM    2  C10 UNL     1      42.155  14.017  -6.556  1.00  0.00     0.129 C 
BRANCH   2   3
HETATM    3  C9  UNL     1      43.363  14.482  -5.744  1.00  0.00     0.047 C 
BRANCH   3   4
HETATM    4  C8  UNL     1      43.004  15.292  -4.537  1.00  0.00     0.177 C 
BRANCH   4   5
HETATM    5  O3  UNL     1      44.105  15.428  -3.708  1.00  0.00    -0.351 OA
BRANCH   5   6
HETATM    6  C7  UNL     1      45.211  16.217  -3.853  1.00  0.00     0.069 A 
HETATM    7  C6  UNL     1      45.207  17.588  -3.858  1.00  0.00     0.037 A 
HETATM    8  C5  UNL     1      46.356  18.349  -4.013  1.00  0.00     0.003 A 
HETATM    9  C4  UNL     1      47.567  17.728  -4.170  1.00  0.00     0.008 A 
HETATM   10  C3  UNL     1      47.601  16.360  -4.167  1.00  0.00    -0.046 A 
HETATM   11  C33 UNL     1      46.476  15.618  -4.016  1.00  0.00     0.044 A 
BRANCH  10  12
HETATM   12  C2  UNL     1      48.935  15.691  -4.337  1.00  0.00     0.151 C 
BRANCH  12  13
HETATM   13  C1  UNL     1      49.745  15.970  -3.134  1.00  0.00     0.176 C 
HETATM   14  O1  UNL     1      49.379  15.584  -1.992  1.00  0.00    -0.648 OA
HETATM   15  O2  UNL     1      50.957  16.681  -3.238  1.00  0.00    -0.648 OA
ENDBRANCH  12  13
ENDBRANCH  10  12
ENDBRANCH   5   6
ENDBRANCH   4   5
ENDBRANCH   3   4
ENDBRANCH   2   3
ENDBRANCH   1   2
BRANCH   1  16
HETATM   16  C11 UNL     1      39.818  14.143  -5.847  1.00  0.00     0.103 C 
BRANCH  16  17
HETATM   17  C12 UNL     1      39.020  14.466  -4.724  1.00  0.00     0.002 A 
HETATM   18  C13 UNL     1      39.298  15.380  -3.774  1.00  0.00     0.014 A 
HETATM   19  C14 UNL     1      38.467  15.655  -2.690  1.00  0.00     0.002 A 
HETATM   20  C15 UNL     1      37.301  14.972  -2.561  1.00  0.00     0.018 A 
HETATM   21  C16 UNL     1      36.971  14.025  -3.507  1.00  0.00     0.070 A 
HETATM   22  C18 UNL     1      37.804  13.776  -4.560  1.00  0.00     0.060 A 
HETATM   23 CL1  UNL     1      37.343  12.565  -5.730  1.00  0.00    -0.083 Cl
BRANCH  21  24
HETATM   24  C17 UNL     1      35.676  13.300  -3.318  1.00  0.00     0.419 C 
HETATM   25  F1  UNL     1      34.816  13.490  -4.397  1.00  0.00    -0.166 F 
HETATM   26  F2  UNL     1      35.881  11.951  -3.111  1.00  0.00    -0.166 F 
HETATM   27  F3  UNL     1      35.025  13.801  -2.213  1.00  0.00    -0.166 F 
ENDBRANCH  21  24
ENDBRANCH  16  17
ENDBRANCH   1  16
BRANCH   1  28
HETATM   28  C19 UNL     1      40.785  15.918  -7.171  1.00  0.00     0.077 C 
BRANCH  28  29
HETATM   29  C20 UNL     1      39.577  16.730  -7.173  1.00  0.00     0.090 C 
BRANCH  29  30
HETATM   30  C21 UNL     1      39.157  17.372  -8.434  1.00  0.00    -0.045 A 
HETATM   31  C22 UNL     1      40.045  18.167  -9.121  1.00  0.00     0.008 A 
HETATM   32  C23 UNL     1      39.703  18.768 -10.316  1.00  0.00     0.001 A 
HETATM   33  C24 UNL     1      38.454  18.602 -10.882  1.00  0.00     0.000 A 
HETATM   34  C25 UNL     1      37.541  17.804 -10.204  1.00  0.00     0.001 A 
HETATM   35  C26 UNL     1      37.913  17.223  -9.022  1.00  0.00     0.008 A 
ENDBRANCH  29  30
BRANCH  29  36
HETATM   36  C27 UNL     1      39.716  17.813  -6.161  1.00  0.00    -0.045 A 
HETATM   37  C28 UNL     1      40.962  18.185  -5.659  1.00  0.00     0.008 A 
HETATM   38  C29 UNL     1      41.050  19.184  -4.723  1.00  0.00     0.001 A 
HETATM   39  C30 UNL     1      39.947  19.852  -4.245  1.00  0.00     0.000 A 
HETATM   40  C31 UNL     1      38.707  19.493  -4.734  1.00  0.00     0.001 A 
HETATM   41  C32 UNL     1      38.621  18.478  -5.684  1.00  0.00     0.008 A 
ENDBRANCH  29  36
ENDBRANCH  28  29
ENDBRANCH   1  28
TORSDOF 14
ENDMDL
