MODEL 5
REMARK VINA RESULT: -12.953709881      1.305      1.921
REMARK  14 active torsions:
REMARK  status: ('A' for Active; 'I' for Inactive)
REMARK    1  A    between atoms: C1_2  and  C2_4 
REMARK    2  A    between atoms: C2_4  and  C3_5 
REMARK    3  A    between atoms: C7_9  and  O3_10 
REMARK    4  A    between atoms: O3_10  and  C8_11 
REMARK    5  A    between atoms: C8_11  and  C9_12 
REMARK    6  A    between atoms: C9_12  and  C10_13 
REMARK    7  A    between atoms: C10_13  and  N1_14 
REMARK    8  A    between atoms: N1_14  and  C11_15 
REMARK    9  A    between atoms: N1_14  and  C19_27 
REMARK   10  A    between atoms: C11_15  and  C12_16 
REMARK   11  A    between atoms: C16_20  and  C17_21 
REMARK   12  A    between atoms: C19_27  and  C20_28 
REMARK   13  A    between atoms: C20_28  and  C21_29 
REMARK   14  A    between atoms: C20_28  and  C27_35 
ROOT
HETATM    1  N1  UNL     1      40.728  14.979  -6.021  1.00  0.00    -0.368 N 
ENDROOT
BRANCH   1   2
HETATM    2  C10 UNL     1      41.994  14.367  -6.347  1.00  0.00     0.129 C 
BRANCH   2   3
HETATM    3  C9  UNL     1      42.933  14.197  -5.154  1.00  0.00     0.047 C 
BRANCH   3   4
HETATM    4  C8  UNL     1      44.069  15.172  -5.135  1.00  0.00     0.177 C 
BRANCH   4   5
HETATM    5  O3  UNL     1      45.227  14.549  -4.701  1.00  0.00    -0.351 OA
BRANCH   5   6
HETATM    6  C7  UNL     1      46.443  15.090  -4.389  1.00  0.00     0.069 A 
HETATM    7  C6  UNL     1      47.638  14.421  -4.432  1.00  0.00     0.037 A 
HETATM    8  C5  UNL     1      48.850  15.009  -4.100  1.00  0.00     0.003 A 
HETATM    9  C4  UNL     1      48.883  16.322  -3.710  1.00  0.00     0.008 A 
HETATM   10  C3  UNL     1      47.704  17.016  -3.660  1.00  0.00    -0.046 A 
HETATM   11  C33 UNL     1      46.521  16.437  -3.983  1.00  0.00     0.044 A 
BRANCH  10  12
HETATM   12  C2  UNL     1      47.753  18.454  -3.233  1.00  0.00     0.151 C 
BRANCH  12  13
HETATM   13  C1  UNL     1      46.517  19.114  -3.703  1.00  0.00     0.176 C 
HETATM   14  O1  UNL     1      46.356  19.414  -4.916  1.00  0.00    -0.648 OA
HETATM   15  O2  UNL     1      45.483  19.424  -2.798  1.00  0.00    -0.648 OA
ENDBRANCH  12  13
ENDBRANCH  10  12
ENDBRANCH   5   6
ENDBRANCH   4   5
ENDBRANCH   3   4
ENDBRANCH   2   3
ENDBRANCH   1   2
BRANCH   1  16
HETATM   16  C11 UNL     1      39.900  14.388  -5.084  1.00  0.00     0.103 C 
BRANCH  16  17
HETATM   17  C12 UNL     1      38.891  14.983  -4.290  1.00  0.00     0.002 A 
HETATM   18  C13 UNL     1      39.043  16.007  -3.427  1.00  0.00     0.014 A 
HETATM   19  C14 UNL     1      38.007  16.552  -2.673  1.00  0.00     0.002 A 
HETATM   20  C15 UNL     1      36.757  16.037  -2.798  1.00  0.00     0.018 A 
HETATM   21  C16 UNL     1      36.549  14.988  -3.668  1.00  0.00     0.070 A 
HETATM   22  C18 UNL     1      37.584  14.472  -4.395  1.00  0.00     0.060 A 
HETATM   23 CL1  UNL     1      37.269  13.142  -5.480  1.00  0.00    -0.083 Cl
BRANCH  21  24
HETATM   24  C17 UNL     1      35.154  14.456  -3.767  1.00  0.00     0.419 C 
HETATM   25  F1  UNL     1      35.119  13.070  -3.629  1.00  0.00    -0.166 F 
HETATM   26  F2  UNL     1      34.325  15.044  -2.834  1.00  0.00    -0.166 F 
HETATM   27  F3  UNL     1      34.643  14.731  -5.016  1.00  0.00    -0.166 F 
ENDBRANCH  21  24
ENDBRANCH  16  17
ENDBRANCH   1  16
BRANCH   1  28
HETATM   28  C19 UNL     1      40.122  15.711  -7.094  1.00  0.00     0.077 C 
BRANCH  28  29
HETATM   29  C20 UNL     1      40.368  17.127  -7.319  1.00  0.00     0.090 C 
BRANCH  29  30
HETATM   30  C21 UNL     1      40.084  18.079  -6.228  1.00  0.00    -0.045 A 
HETATM   31  C22 UNL     1      41.119  18.572  -5.469  1.00  0.00     0.008 A 
HETATM   32  C23 UNL     1      40.902  19.482  -4.454  1.00  0.00     0.001 A 
HETATM   33  C24 UNL     1      39.636  19.943  -4.149  1.00  0.00     0.000 A 
HETATM   34  C25 UNL     1      38.575  19.457  -4.902  1.00  0.00     0.001 A 
HETATM   35  C26 UNL     1      38.826  18.556  -5.902  1.00  0.00     0.008 A 
ENDBRANCH  29  30
BRANCH  29  36
HETATM   36  C27 UNL     1      39.580  17.576  -8.500  1.00  0.00    -0.045 A 
HETATM   37  C28 UNL     1      40.123  18.433  -9.456  1.00  0.00     0.008 A 
HETATM   38  C29 UNL     1      39.364  18.830 -10.527  1.00  0.00     0.001 A 
HETATM   39  C30 UNL     1      38.067  18.414 -10.711  1.00  0.00     0.000 A 
HETATM   40  C31 UNL     1      37.516  17.566  -9.772  1.00  0.00     0.001 A 
HETATM   41  C32 UNL     1      38.289  17.165  -8.686  1.00  0.00     0.008 A 
ENDBRANCH  29  36
ENDBRANCH  28  29
ENDBRANCH   1  28
TORSDOF 14
ENDMDL
