MODEL 20
REMARK VINA RESULT: -11.404632634      4.894      8.772
REMARK  14 active torsions:
REMARK  status: ('A' for Active; 'I' for Inactive)
REMARK    1  A    between atoms: C1_2  and  C2_4 
REMARK    2  A    between atoms: C2_4  and  C3_5 
REMARK    3  A    between atoms: C7_9  and  O3_10 
REMARK    4  A    between atoms: O3_10  and  C8_11 
REMARK    5  A    between atoms: C8_11  and  C9_12 
REMARK    6  A    between atoms: C9_12  and  C10_13 
REMARK    7  A    between atoms: C10_13  and  N1_14 
REMARK    8  A    between atoms: N1_14  and  C11_15 
REMARK    9  A    between atoms: N1_14  and  C19_27 
REMARK   10  A    between atoms: C11_15  and  C12_16 
REMARK   11  A    between atoms: C16_20  and  C17_21 
REMARK   12  A    between atoms: C19_27  and  C20_28 
REMARK   13  A    between atoms: C20_28  and  C21_29 
REMARK   14  A    between atoms: C20_28  and  C27_35 
ROOT
HETATM    1  N1  UNL     1      42.305  15.936  -5.647  1.00  0.00    -0.368 N 
ENDROOT
BRANCH   1   2
HETATM    2  C10 UNL     1      41.449  14.774  -5.625  1.00  0.00     0.129 C 
BRANCH   2   3
HETATM    3  C9  UNL     1      41.218  14.139  -6.995  1.00  0.00     0.047 C 
BRANCH   3   4
HETATM    4  C8  UNL     1      39.776  14.061  -7.389  1.00  0.00     0.177 C 
BRANCH   4   5
HETATM    5  O3  UNL     1      38.973  14.528  -6.362  1.00  0.00    -0.351 OA
BRANCH   5   6
HETATM    6  C7  UNL     1      37.965  13.897  -5.689  1.00  0.00     0.069 A 
HETATM    7  C6  UNL     1      37.849  12.540  -5.534  1.00  0.00     0.037 A 
HETATM    8  C5  UNL     1      36.804  11.941  -4.846  1.00  0.00     0.003 A 
HETATM    9  C4  UNL     1      35.826  12.719  -4.283  1.00  0.00     0.008 A 
HETATM   10  C3  UNL     1      35.917  14.078  -4.421  1.00  0.00    -0.046 A 
HETATM   11  C33 UNL     1      36.940  14.661  -5.096  1.00  0.00     0.044 A 
BRANCH  10  12
HETATM   12  C2  UNL     1      34.842  14.921  -3.799  1.00  0.00     0.151 C 
BRANCH  12  13
HETATM   13  C1  UNL     1      35.180  15.117  -2.374  1.00  0.00     0.176 C 
HETATM   14  O1  UNL     1      36.116  15.884  -2.022  1.00  0.00    -0.648 OA
HETATM   15  O2  UNL     1      34.457  14.446  -1.368  1.00  0.00    -0.648 OA
ENDBRANCH  12  13
ENDBRANCH  10  12
ENDBRANCH   5   6
ENDBRANCH   4   5
ENDBRANCH   3   4
ENDBRANCH   2   3
ENDBRANCH   1   2
BRANCH   1  16
HETATM   16  C11 UNL     1      43.088  16.233  -4.546  1.00  0.00     0.103 C 
BRANCH  16  17
HETATM   17  C12 UNL     1      44.491  16.125  -4.400  1.00  0.00     0.002 A 
HETATM   18  C13 UNL     1      45.236  15.014  -4.563  1.00  0.00     0.014 A 
HETATM   19  C14 UNL     1      46.619  14.973  -4.407  1.00  0.00     0.002 A 
HETATM   20  C15 UNL     1      47.281  16.110  -4.071  1.00  0.00     0.018 A 
HETATM   21  C16 UNL     1      46.564  17.274  -3.893  1.00  0.00     0.070 A 
HETATM   22  C18 UNL     1      45.208  17.286  -4.052  1.00  0.00     0.060 A 
HETATM   23 CL1  UNL     1      44.346  18.784  -3.812  1.00  0.00    -0.083 Cl
BRANCH  21  24
HETATM   24  C17 UNL     1      47.341  18.497  -3.522  1.00  0.00     0.419 C 
HETATM   25  F1  UNL     1      47.396  19.411  -4.572  1.00  0.00    -0.166 F 
HETATM   26  F2  UNL     1      46.818  19.102  -2.397  1.00  0.00    -0.166 F 
HETATM   27  F3  UNL     1      48.644  18.150  -3.245  1.00  0.00    -0.166 F 
ENDBRANCH  21  24
ENDBRANCH  16  17
ENDBRANCH   1  16
BRANCH   1  28
HETATM   28  C19 UNL     1      41.820  17.022  -6.446  1.00  0.00     0.077 C 
BRANCH  28  29
HETATM   29  C20 UNL     1      40.402  17.298  -6.624  1.00  0.00     0.090 C 
BRANCH  29  30
HETATM   30  C21 UNL     1      39.925  17.723  -7.954  1.00  0.00    -0.045 A 
HETATM   31  C22 UNL     1      40.767  18.419  -8.789  1.00  0.00     0.008 A 
HETATM   32  C23 UNL     1      40.371  18.814 -10.051  1.00  0.00     0.001 A 
HETATM   33  C24 UNL     1      39.110  18.532 -10.539  1.00  0.00     0.000 A 
HETATM   34  C25 UNL     1      38.242  17.830  -9.712  1.00  0.00     0.001 A 
HETATM   35  C26 UNL     1      38.668  17.453  -8.467  1.00  0.00     0.008 A 
ENDBRANCH  29  30
BRANCH  29  36
HETATM   36  C27 UNL     1      39.986  18.352  -5.659  1.00  0.00    -0.045 A 
HETATM   37  C28 UNL     1      38.644  18.570  -5.351  1.00  0.00     0.008 A 
HETATM   38  C29 UNL     1      38.299  19.555  -4.461  1.00  0.00     0.001 A 
HETATM   39  C30 UNL     1      39.230  20.355  -3.843  1.00  0.00     0.000 A 
HETATM   40  C31 UNL     1      40.562  20.151  -4.138  1.00  0.00     0.001 A 
HETATM   41  C32 UNL     1      40.910  19.151  -5.042  1.00  0.00     0.008 A 
ENDBRANCH  29  36
ENDBRANCH  28  29
ENDBRANCH   1  28
TORSDOF 14
ENDMDL
