MODEL 1
REMARK VINA RESULT: -13.611629668      0.000      0.000
REMARK  14 active torsions:
REMARK  status: ('A' for Active; 'I' for Inactive)
REMARK    1  A    between atoms: C1_2  and  C2_4 
REMARK    2  A    between atoms: C2_4  and  C3_5 
REMARK    3  A    between atoms: C7_9  and  O3_10 
REMARK    4  A    between atoms: O3_10  and  C8_11 
REMARK    5  A    between atoms: C8_11  and  C9_12 
REMARK    6  A    between atoms: C9_12  and  C10_13 
REMARK    7  A    between atoms: C10_13  and  N1_14 
REMARK    8  A    between atoms: N1_14  and  C11_15 
REMARK    9  A    between atoms: N1_14  and  C19_27 
REMARK   10  A    between atoms: C11_15  and  C12_16 
REMARK   11  A    between atoms: C16_20  and  C17_21 
REMARK   12  A    between atoms: C19_27  and  C20_28 
REMARK   13  A    between atoms: C20_28  and  C21_29 
REMARK   14  A    between atoms: C20_28  and  C27_35 
ROOT
HETATM    1  N1  UNL     1      40.513  14.790  -6.136  1.00  0.00    -0.368 N 
ENDROOT
BRANCH   1   2
HETATM    2  C10 UNL     1      41.642  14.046  -6.642  1.00  0.00     0.129 C 
BRANCH   2   3
HETATM    3  C9  UNL     1      42.976  14.417  -5.997  1.00  0.00     0.047 C 
BRANCH   3   4
HETATM    4  C8  UNL     1      42.838  15.231  -4.748  1.00  0.00     0.177 C 
BRANCH   4   5
HETATM    5  O3  UNL     1      44.005  15.171  -4.007  1.00  0.00    -0.351 OA
BRANCH   5   6
HETATM    6  C7  UNL     1      45.083  16.012  -4.009  1.00  0.00     0.069 A 
HETATM    7  C6  UNL     1      45.020  17.375  -3.883  1.00  0.00     0.037 A 
HETATM    8  C5  UNL     1      46.141  18.192  -3.897  1.00  0.00     0.003 A 
HETATM    9  C4  UNL     1      47.385  17.635  -4.040  1.00  0.00     0.008 A 
HETATM   10  C3  UNL     1      47.478  16.276  -4.167  1.00  0.00    -0.046 A 
HETATM   11  C33 UNL     1      46.380  15.480  -4.154  1.00  0.00     0.044 A 
BRANCH  10  12
HETATM   12  C2  UNL     1      48.847  15.676  -4.321  1.00  0.00     0.151 C 
BRANCH  12  13
HETATM   13  C1  UNL     1      49.617  15.970  -3.094  1.00  0.00     0.176 C 
HETATM   14  O1  UNL     1      50.687  16.633  -3.135  1.00  0.00    -0.648 OA
HETATM   15  O2  UNL     1      49.166  15.510  -1.841  1.00  0.00    -0.648 OA
ENDBRANCH  12  13
ENDBRANCH  10  12
ENDBRANCH   5   6
ENDBRANCH   4   5
ENDBRANCH   3   4
ENDBRANCH   2   3
ENDBRANCH   1   2
BRANCH   1  16
HETATM   16  C11 UNL     1      39.744  14.261  -5.116  1.00  0.00     0.103 C 
BRANCH  16  17
HETATM   17  C12 UNL     1      38.801  14.913  -4.285  1.00  0.00     0.002 A 
HETATM   18  C13 UNL     1      39.029  15.971  -3.484  1.00  0.00     0.014 A 
HETATM   19  C14 UNL     1      38.056  16.572  -2.690  1.00  0.00     0.002 A 
HETATM   20  C15 UNL     1      36.791  16.078  -2.707  1.00  0.00     0.018 A 
HETATM   21  C16 UNL     1      36.506  14.995  -3.511  1.00  0.00     0.070 A 
HETATM   22  C18 UNL     1      37.481  14.425  -4.280  1.00  0.00     0.060 A 
HETATM   23 CL1  UNL     1      37.070  13.054  -5.278  1.00  0.00    -0.083 Cl
BRANCH  21  24
HETATM   24  C17 UNL     1      35.099  14.488  -3.492  1.00  0.00     0.419 C 
HETATM   25  F1  UNL     1      34.496  14.591  -4.743  1.00  0.00    -0.166 F 
HETATM   26  F2  UNL     1      35.040  13.183  -3.046  1.00  0.00    -0.166 F 
HETATM   27  F3  UNL     1      34.343  15.259  -2.636  1.00  0.00    -0.166 F 
ENDBRANCH  21  24
ENDBRANCH  16  17
ENDBRANCH   1  16
BRANCH   1  28
HETATM   28  C19 UNL     1      39.871  15.634  -7.100  1.00  0.00     0.077 C 
BRANCH  28  29
HETATM   29  C20 UNL     1      40.261  17.019  -7.318  1.00  0.00     0.090 C 
BRANCH  29  30
HETATM   30  C21 UNL     1      40.043  17.997  -6.235  1.00  0.00    -0.045 A 
HETATM   31  C22 UNL     1      41.110  18.423  -5.479  1.00  0.00     0.008 A 
HETATM   32  C23 UNL     1      40.956  19.354  -4.471  1.00  0.00     0.001 A 
HETATM   33  C24 UNL     1      39.725  19.904  -4.170  1.00  0.00     0.000 A 
HETATM   34  C25 UNL     1      38.633  19.487  -4.921  1.00  0.00     0.001 A 
HETATM   35  C26 UNL     1      38.821  18.562  -5.913  1.00  0.00     0.008 A 
ENDBRANCH  29  30
BRANCH  29  36
HETATM   36  C27 UNL     1      39.553  17.541  -8.520  1.00  0.00    -0.045 A 
HETATM   37  C28 UNL     1      40.169  18.427  -9.401  1.00  0.00     0.008 A 
HETATM   38  C29 UNL     1      39.482  18.891 -10.494  1.00  0.00     0.001 A 
HETATM   39  C30 UNL     1      38.189  18.516 -10.771  1.00  0.00     0.000 A 
HETATM   40  C31 UNL     1      37.567  17.639  -9.907  1.00  0.00     0.001 A 
HETATM   41  C32 UNL     1      38.266  17.170  -8.798  1.00  0.00     0.008 A 
ENDBRANCH  29  36
ENDBRANCH  28  29
ENDBRANCH   1  28
TORSDOF 14
ENDMDL
