MODEL 17
REMARK VINA RESULT: -11.471001223      4.628      8.152
REMARK  14 active torsions:
REMARK  status: ('A' for Active; 'I' for Inactive)
REMARK    1  A    between atoms: C1_2  and  C2_4 
REMARK    2  A    between atoms: C2_4  and  C3_5 
REMARK    3  A    between atoms: C7_9  and  O3_10 
REMARK    4  A    between atoms: O3_10  and  C8_11 
REMARK    5  A    between atoms: C8_11  and  C9_12 
REMARK    6  A    between atoms: C9_12  and  C10_13 
REMARK    7  A    between atoms: C10_13  and  N1_14 
REMARK    8  A    between atoms: N1_14  and  C11_15 
REMARK    9  A    between atoms: N1_14  and  C19_27 
REMARK   10  A    between atoms: C11_15  and  C12_16 
REMARK   11  A    between atoms: C16_20  and  C17_21 
REMARK   12  A    between atoms: C19_27  and  C20_28 
REMARK   13  A    between atoms: C20_28  and  C21_29 
REMARK   14  A    between atoms: C20_28  and  C27_35 
ROOT
HETATM    1  N1  UNL     1      40.969  18.543  -5.335  1.00  0.00    -0.368 N 
ENDROOT
BRANCH   1   2
HETATM    2  C10 UNL     1      40.389  19.820  -4.993  1.00  0.00     0.129 C 
BRANCH   2   3
HETATM    3  C9  UNL     1      39.379  19.762  -3.849  1.00  0.00     0.047 C 
BRANCH   3   4
HETATM    4  C8  UNL     1      38.476  18.569  -3.899  1.00  0.00     0.177 C 
BRANCH   4   5
HETATM    5  O3  UNL     1      38.866  17.635  -2.954  1.00  0.00    -0.351 OA
BRANCH   5   6
HETATM    6  C7  UNL     1      38.469  16.336  -2.799  1.00  0.00     0.069 A 
HETATM    7  C6  UNL     1      39.287  15.242  -2.917  1.00  0.00     0.037 A 
HETATM    8  C5  UNL     1      38.839  13.939  -2.756  1.00  0.00     0.003 A 
HETATM    9  C4  UNL     1      37.521  13.705  -2.462  1.00  0.00     0.008 A 
HETATM   10  C3  UNL     1      36.682  14.779  -2.336  1.00  0.00    -0.046 A 
HETATM   11  C33 UNL     1      37.123  16.052  -2.496  1.00  0.00     0.044 A 
BRANCH  10  12
HETATM   12  C2  UNL     1      35.241  14.510  -2.012  1.00  0.00     0.151 C 
BRANCH  12  13
HETATM   13  C1  UNL     1      34.412  15.104  -3.082  1.00  0.00     0.176 C 
HETATM   14  O1  UNL     1      34.474  14.684  -4.267  1.00  0.00    -0.648 OA
HETATM   15  O2  UNL     1      33.526  16.161  -2.796  1.00  0.00    -0.648 OA
ENDBRANCH  12  13
ENDBRANCH  10  12
ENDBRANCH   5   6
ENDBRANCH   4   5
ENDBRANCH   3   4
ENDBRANCH   2   3
ENDBRANCH   1   2
BRANCH   1  16
HETATM   16  C11 UNL     1      42.183  18.171  -4.786  1.00  0.00     0.103 C 
BRANCH  16  17
HETATM   17  C12 UNL     1      42.887  16.952  -4.933  1.00  0.00     0.002 A 
HETATM   18  C13 UNL     1      42.433  15.823  -5.511  1.00  0.00     0.014 A 
HETATM   19  C14 UNL     1      43.178  14.653  -5.628  1.00  0.00     0.002 A 
HETATM   20  C15 UNL     1      44.443  14.622  -5.135  1.00  0.00     0.018 A 
HETATM   21  C16 UNL     1      44.954  15.753  -4.534  1.00  0.00     0.070 A 
HETATM   22  C18 UNL     1      44.201  16.887  -4.433  1.00  0.00     0.060 A 
HETATM   23 CL1  UNL     1      44.893  18.290  -3.659  1.00  0.00    -0.083 Cl
BRANCH  21  24
HETATM   24  C17 UNL     1      46.352  15.666  -4.006  1.00  0.00     0.419 C 
HETATM   25  F1  UNL     1      47.126  16.749  -4.416  1.00  0.00    -0.166 F 
HETATM   26  F2  UNL     1      46.365  15.571  -2.629  1.00  0.00    -0.166 F 
HETATM   27  F3  UNL     1      46.966  14.542  -4.511  1.00  0.00    -0.166 F 
ENDBRANCH  21  24
ENDBRANCH  16  17
ENDBRANCH   1  16
BRANCH   1  28
HETATM   28  C19 UNL     1      40.648  18.072  -6.650  1.00  0.00     0.077 C 
BRANCH  28  29
HETATM   29  C20 UNL     1      39.327  17.582  -7.011  1.00  0.00     0.090 C 
BRANCH  29  30
HETATM   30  C21 UNL     1      39.024  16.151  -6.817  1.00  0.00    -0.045 A 
HETATM   31  C22 UNL     1      37.868  15.781  -6.169  1.00  0.00     0.008 A 
HETATM   32  C23 UNL     1      37.533  14.454  -5.988  1.00  0.00     0.001 A 
HETATM   33  C24 UNL     1      38.341  13.431  -6.447  1.00  0.00     0.000 A 
HETATM   34  C25 UNL     1      39.513  13.782  -7.104  1.00  0.00     0.001 A 
HETATM   35  C26 UNL     1      39.815  15.107  -7.266  1.00  0.00     0.008 A 
ENDBRANCH  29  30
BRANCH  29  36
HETATM   36  C27 UNL     1      39.068  17.889  -8.444  1.00  0.00    -0.045 A 
HETATM   37  C28 UNL     1      40.042  18.475  -9.251  1.00  0.00     0.008 A 
HETATM   38  C29 UNL     1      39.764  18.749 -10.566  1.00  0.00     0.001 A 
HETATM   39  C30 UNL     1      38.548  18.467 -11.142  1.00  0.00     0.000 A 
HETATM   40  C31 UNL     1      37.574  17.887 -10.354  1.00  0.00     0.001 A 
HETATM   41  C32 UNL     1      37.859  17.611  -9.019  1.00  0.00     0.008 A 
ENDBRANCH  29  36
ENDBRANCH  28  29
ENDBRANCH   1  28
TORSDOF 14
ENDMDL
