MODEL 2
REMARK VINA RESULT: -13.524732552      0.546      1.231
REMARK  14 active torsions:
REMARK  status: ('A' for Active; 'I' for Inactive)
REMARK    1  A    between atoms: C1_2  and  C2_4 
REMARK    2  A    between atoms: C2_4  and  C3_5 
REMARK    3  A    between atoms: C7_9  and  O3_10 
REMARK    4  A    between atoms: O3_10  and  C8_11 
REMARK    5  A    between atoms: C8_11  and  C9_12 
REMARK    6  A    between atoms: C9_12  and  C10_13 
REMARK    7  A    between atoms: C10_13  and  N1_14 
REMARK    8  A    between atoms: N1_14  and  C11_15 
REMARK    9  A    between atoms: N1_14  and  C19_27 
REMARK   10  A    between atoms: C11_15  and  C12_16 
REMARK   11  A    between atoms: C16_20  and  C17_21 
REMARK   12  A    between atoms: C19_27  and  C20_28 
REMARK   13  A    between atoms: C20_28  and  C21_29 
REMARK   14  A    between atoms: C20_28  and  C27_35 
ROOT
HETATM    1  N1  UNL     1      40.628  14.829  -6.048  1.00  0.00    -0.368 N 
ENDROOT
BRANCH   1   2
HETATM    2  C10 UNL     1      41.681  14.028  -6.627  1.00  0.00     0.129 C 
BRANCH   2   3
HETATM    3  C9  UNL     1      43.062  14.284  -6.028  1.00  0.00     0.047 C 
BRANCH   3   4
HETATM    4  C8  UNL     1      43.160  15.563  -5.256  1.00  0.00     0.177 C 
BRANCH   4   5
HETATM    5  O3  UNL     1      44.108  15.445  -4.254  1.00  0.00    -0.351 OA
BRANCH   5   6
HETATM    6  C7  UNL     1      45.249  16.168  -4.045  1.00  0.00     0.069 A 
HETATM    7  C6  UNL     1      45.323  17.536  -4.021  1.00  0.00     0.037 A 
HETATM    8  C5  UNL     1      46.506  18.229  -3.811  1.00  0.00     0.003 A 
HETATM    9  C4  UNL     1      47.673  17.537  -3.614  1.00  0.00     0.008 A 
HETATM   10  C3  UNL     1      47.628  16.170  -3.631  1.00  0.00    -0.046 A 
HETATM   11  C33 UNL     1      46.470  15.495  -3.838  1.00  0.00     0.044 A 
BRANCH  10  12
HETATM   12  C2  UNL     1      48.912  15.422  -3.412  1.00  0.00     0.151 C 
BRANCH  12  13
HETATM   13  C1  UNL     1      49.994  16.159  -4.099  1.00  0.00     0.176 C 
HETATM   14  O1  UNL     1      49.982  16.327  -5.347  1.00  0.00    -0.648 OA
HETATM   15  O2  UNL     1      51.071  16.694  -3.365  1.00  0.00    -0.648 OA
ENDBRANCH  12  13
ENDBRANCH  10  12
ENDBRANCH   5   6
ENDBRANCH   4   5
ENDBRANCH   3   4
ENDBRANCH   2   3
ENDBRANCH   1   2
BRANCH   1  16
HETATM   16  C11 UNL     1      39.952  14.370  -4.931  1.00  0.00     0.103 C 
BRANCH  16  17
HETATM   17  C12 UNL     1      38.919  15.001  -4.198  1.00  0.00     0.002 A 
HETATM   18  C13 UNL     1      39.049  16.045  -3.356  1.00  0.00     0.014 A 
HETATM   19  C14 UNL     1      37.989  16.625  -2.664  1.00  0.00     0.002 A 
HETATM   20  C15 UNL     1      36.737  16.125  -2.831  1.00  0.00     0.018 A 
HETATM   21  C16 UNL     1      36.552  15.057  -3.683  1.00  0.00     0.070 A 
HETATM   22  C18 UNL     1      37.609  14.507  -4.349  1.00  0.00     0.060 A 
HETATM   23 CL1  UNL     1      37.322  13.154  -5.413  1.00  0.00    -0.083 Cl
BRANCH  21  24
HETATM   24  C17 UNL     1      35.154  14.544  -3.830  1.00  0.00     0.419 C 
HETATM   25  F1  UNL     1      34.669  14.731  -5.122  1.00  0.00    -0.166 F 
HETATM   26  F2  UNL     1      35.069  13.210  -3.483  1.00  0.00    -0.166 F 
HETATM   27  F3  UNL     1      34.314  15.248  -2.997  1.00  0.00    -0.166 F 
ENDBRANCH  21  24
ENDBRANCH  16  17
ENDBRANCH   1  16
BRANCH   1  28
HETATM   28  C19 UNL     1      39.913  15.647  -6.982  1.00  0.00     0.077 C 
BRANCH  28  29
HETATM   29  C20 UNL     1      40.275  17.029  -7.257  1.00  0.00     0.090 C 
BRANCH  29  30
HETATM   30  C21 UNL     1      40.080  18.037  -6.197  1.00  0.00    -0.045 A 
HETATM   31  C22 UNL     1      38.815  18.505  -5.928  1.00  0.00     0.008 A 
HETATM   32  C23 UNL     1      38.582  19.429  -4.929  1.00  0.00     0.001 A 
HETATM   33  C24 UNL     1      39.607  19.932  -4.151  1.00  0.00     0.000 A 
HETATM   34  C25 UNL     1      40.894  19.474  -4.407  1.00  0.00     0.001 A 
HETATM   35  C26 UNL     1      41.088  18.557  -5.404  1.00  0.00     0.008 A 
ENDBRANCH  29  30
BRANCH  29  36
HETATM   36  C27 UNL     1      39.519  17.503  -8.449  1.00  0.00    -0.045 A 
HETATM   37  C28 UNL     1      38.217  17.076  -8.703  1.00  0.00     0.008 A 
HETATM   38  C29 UNL     1      37.555  17.529  -9.815  1.00  0.00     0.001 A 
HETATM   39  C30 UNL     1      38.123  18.404 -10.711  1.00  0.00     0.000 A 
HETATM   40  C31 UNL     1      39.412  18.835 -10.472  1.00  0.00     0.001 A 
HETATM   41  C32 UNL     1      40.082  18.372  -9.343  1.00  0.00     0.008 A 
ENDBRANCH  29  36
ENDBRANCH  28  29
ENDBRANCH   1  28
TORSDOF 14
ENDMDL
