MODEL 7
REMARK VINA RESULT: -10.356963849      3.662      6.216
REMARK  10 active torsions:
REMARK  status: ('A' for Active; 'I' for Inactive)
REMARK    1  A    between atoms: C2_2  and  C3_3 
REMARK    2  A    between atoms: C3_3  and  C4_4 
REMARK    3  A    between atoms: C5_5  and  O1_6 
REMARK    4  A    between atoms: O1_6  and  C6_7 
REMARK    5  A    between atoms: C6_7  and  C7_8 
REMARK    6  A    between atoms: C7_8  and  C8_9 
REMARK    7  A    between atoms: C8_9  and  N1_10 
REMARK       I    between atoms: N1_10  and  C10_12 
REMARK       I    between atoms: C10_12  and  N2_14 
REMARK    8  A    between atoms: N2_14  and  C11_16 
REMARK    9  A    between atoms: C14_19  and  C15_20 
REMARK   10  A    between atoms: C21_28  and  C22_29 
ROOT
HETATM    1  O1  UNL     1      17.950 -15.737  18.915  1.00  0.00    -0.350 OA
ENDROOT
BRANCH   1   2
HETATM    2  C5  UNL     1      19.196 -16.198  18.647  1.00  0.00     0.077 A 
HETATM    3  C4  UNL     1      19.560 -17.508  18.965  1.00  0.00     0.012 A 
HETATM    4  C23 UNL     1      20.840 -17.996  18.682  1.00  0.00     0.120 A 
HETATM    5  C20 UNL     1      21.760 -17.179  18.083  1.00  0.00     0.034 A 
HETATM    6  O5  UNL     1      21.420 -19.142  18.866  1.00  0.00    -0.236 OA
HETATM    7  C19 UNL     1      21.416 -15.907  17.773  1.00  0.00     0.019 A 
HETATM    8  C21 UNL     1      22.942 -17.909  17.915  1.00  0.00     0.151 A 
HETATM    9  C18 UNL     1      20.140 -15.404  18.048  1.00  0.00     0.038 A 
HETATM   10  N3  UNL     1      22.641 -19.123  18.431  1.00  0.00    -0.255 N 
ATOM     11  H3  UNL     1      23.285 -19.912  18.473  1.00  0.00     0.195 HD
BRANCH   3  12
HETATM   12  C3  UNL     1      18.675 -18.449  19.660  1.00  0.00     0.044 C 
BRANCH  12  13
HETATM   13  C2  UNL     1      17.966 -19.374  18.740  1.00  0.00     0.000 C 
HETATM   14  C1  UNL     1      16.551 -19.060  18.414  1.00  0.00     0.005 C 
ENDBRANCH  12  13
ENDBRANCH   3  12
BRANCH   8  15
HETATM   15  C22 UNL     1      24.213 -17.435  17.310  1.00  0.00     0.435 C 
HETATM   16  F1  UNL     1      24.780 -16.417  18.052  1.00  0.00    -0.165 F 
HETATM   17  F2  UNL     1      25.096 -18.501  17.306  1.00  0.00    -0.165 F 
HETATM   18  F3  UNL     1      24.041 -17.032  15.995  1.00  0.00    -0.165 F 
ENDBRANCH   8  15
ENDBRANCH   1   2
BRANCH   1  19
HETATM   19  C6  UNL     1      16.864 -15.480  18.129  1.00  0.00     0.177 C 
BRANCH  19  20
HETATM   20  C7  UNL     1      15.580 -15.006  18.696  1.00  0.00     0.046 C 
BRANCH  20  21
HETATM   21  C8  UNL     1      14.409 -15.047  17.738  1.00  0.00     0.129 C 
BRANCH  21  22
HETATM   22  N1  UNL     1      13.358 -15.942  18.155  1.00  0.00    -0.338 N 
HETATM   23  C9  UNL     1      13.645 -17.177  18.830  1.00  0.00     0.154 C 
HETATM   24  C10 UNL     1      11.974 -15.618  17.922  1.00  0.00     0.322 C 
HETATM   25  O2  UNL     1      11.109 -16.424  18.326  1.00  0.00    -0.247 OA
HETATM   26  N2  UNL     1      11.556 -14.461  17.272  1.00  0.00    -0.309 N 
ATOM     27  H2  UNL     1      12.306 -13.844  16.961  1.00  0.00     0.170 HD
BRANCH  26  28
HETATM   28  C11 UNL     1      10.255 -14.013  16.981  1.00  0.00     0.036 A 
HETATM   29  C12 UNL     1       9.929 -13.452  15.786  1.00  0.00     0.030 A 
HETATM   30  C13 UNL     1       8.631 -12.996  15.522  1.00  0.00     0.020 A 
HETATM   31  C14 UNL     1       7.652 -13.108  16.472  1.00  0.00     0.041 A 
HETATM   32  C16 UNL     1       7.955 -13.673  17.695  1.00  0.00     0.020 A 
HETATM   33  C17 UNL     1       9.232 -14.111  17.928  1.00  0.00     0.030 A 
BRANCH  31  34
HETATM   34  C15 UNL     1       6.311 -12.622  16.171  1.00  0.00     0.209 C 
HETATM   35  O3  UNL     1       6.176 -11.494  15.655  1.00  0.00    -0.644 OA
HETATM   36  O4  UNL     1       5.166 -13.356  16.431  1.00  0.00    -0.644 OA
ENDBRANCH  31  34
ENDBRANCH  26  28
ENDBRANCH  21  22
ENDBRANCH  20  21
ENDBRANCH  19  20
ENDBRANCH   1  19
TORSDOF 10
ENDMDL
