MODEL 2
REMARK VINA RESULT: -10.858036334      0.813      1.095
REMARK  10 active torsions:
REMARK  status: ('A' for Active; 'I' for Inactive)
REMARK    1  A    between atoms: C2_2  and  C3_3 
REMARK    2  A    between atoms: C3_3  and  C4_4 
REMARK    3  A    between atoms: C5_5  and  O1_6 
REMARK    4  A    between atoms: O1_6  and  C6_7 
REMARK    5  A    between atoms: C6_7  and  C7_8 
REMARK    6  A    between atoms: C7_8  and  C8_9 
REMARK    7  A    between atoms: C8_9  and  N1_10 
REMARK       I    between atoms: N1_10  and  C10_12 
REMARK       I    between atoms: C10_12  and  N2_14 
REMARK    8  A    between atoms: N2_14  and  C11_16 
REMARK    9  A    between atoms: C14_19  and  C15_20 
REMARK   10  A    between atoms: C21_28  and  C22_29 
ROOT
HETATM    1  O1  UNL     1      22.586 -16.618  17.984  1.00  0.00    -0.350 OA
ENDROOT
BRANCH   1   2
HETATM    2  C5  UNL     1      23.766 -16.179  18.485  1.00  0.00     0.077 A 
HETATM    3  C4  UNL     1      24.940 -16.914  18.306  1.00  0.00     0.012 A 
HETATM    4  C23 UNL     1      26.164 -16.463  18.809  1.00  0.00     0.120 A 
HETATM    5  C20 UNL     1      26.222 -15.280  19.493  1.00  0.00     0.034 A 
HETATM    6  O5  UNL     1      27.372 -16.939  18.782  1.00  0.00    -0.236 OA
HETATM    7  C19 UNL     1      25.089 -14.561  19.673  1.00  0.00     0.019 A 
HETATM    8  C21 UNL     1      27.550 -15.068  19.882  1.00  0.00     0.151 A 
HETATM    9  C18 UNL     1      23.857 -14.997  19.175  1.00  0.00     0.038 A 
HETATM   10  N3  UNL     1      28.198 -16.152  19.396  1.00  0.00    -0.255 N 
ATOM     11  H3  UNL     1      29.197 -16.325  19.499  1.00  0.00     0.195 HD
BRANCH   3  12
HETATM   12  C3  UNL     1      24.984 -18.221  17.641  1.00  0.00     0.044 C 
BRANCH  12  13
HETATM   13  C2  UNL     1      24.964 -19.362  18.591  1.00  0.00     0.000 C 
HETATM   14  C1  UNL     1      23.655 -20.018  18.841  1.00  0.00     0.005 C 
ENDBRANCH  12  13
ENDBRANCH   3  12
BRANCH   8  15
HETATM   15  C22 UNL     1      28.090 -13.916  20.647  1.00  0.00     0.435 C 
HETATM   16  F1  UNL     1      27.261 -13.570  21.696  1.00  0.00    -0.165 F 
HETATM   17  F2  UNL     1      29.309 -14.302  21.177  1.00  0.00    -0.165 F 
HETATM   18  F3  UNL     1      28.318 -12.817  19.834  1.00  0.00    -0.165 F 
ENDBRANCH   8  15
ENDBRANCH   1   2
BRANCH   1  19
HETATM   19  C6  UNL     1      21.586 -16.005  17.286  1.00  0.00     0.177 C 
BRANCH  19  20
HETATM   20  C7  UNL     1      20.403 -15.423  17.960  1.00  0.00     0.046 C 
BRANCH  20  21
HETATM   21  C8  UNL     1      20.076 -16.032  19.308  1.00  0.00     0.129 C 
BRANCH  21  22
HETATM   22  N1  UNL     1      19.452 -17.328  19.215  1.00  0.00    -0.338 N 
HETATM   23  C9  UNL     1      20.209 -18.540  19.355  1.00  0.00     0.154 C 
HETATM   24  C10 UNL     1      18.034 -17.453  18.995  1.00  0.00     0.322 C 
HETATM   25  O2  UNL     1      17.549 -18.603  18.945  1.00  0.00    -0.247 OA
HETATM   26  N2  UNL     1      17.185 -16.363  18.833  1.00  0.00    -0.309 N 
ATOM     27  H2  UNL     1      17.637 -15.450  18.877  1.00  0.00     0.170 HD
BRANCH  26  28
HETATM   28  C11 UNL     1      15.795 -16.330  18.617  1.00  0.00     0.036 A 
HETATM   29  C12 UNL     1      14.952 -17.251  19.156  1.00  0.00     0.030 A 
HETATM   30  C13 UNL     1      13.574 -17.211  18.914  1.00  0.00     0.020 A 
HETATM   31  C14 UNL     1      13.039 -16.232  18.121  1.00  0.00     0.041 A 
HETATM   32  C16 UNL     1      13.871 -15.283  17.560  1.00  0.00     0.020 A 
HETATM   33  C17 UNL     1      15.216 -15.344  17.813  1.00  0.00     0.030 A 
BRANCH  31  34
HETATM   34  C15 UNL     1      11.601 -16.216  17.884  1.00  0.00     0.209 C 
HETATM   35  O3  UNL     1      11.054 -17.230  17.404  1.00  0.00    -0.644 OA
HETATM   36  O4  UNL     1      10.800 -15.121  18.167  1.00  0.00    -0.644 OA
ENDBRANCH  31  34
ENDBRANCH  26  28
ENDBRANCH  21  22
ENDBRANCH  20  21
ENDBRANCH  19  20
ENDBRANCH   1  19
TORSDOF 10
ENDMDL
