MODEL 5
REMARK VINA RESULT: -10.618632131      0.748      1.190
REMARK  10 active torsions:
REMARK  status: ('A' for Active; 'I' for Inactive)
REMARK    1  A    between atoms: C2_2  and  C3_3 
REMARK    2  A    between atoms: C3_3  and  C4_4 
REMARK    3  A    between atoms: C5_5  and  O1_6 
REMARK    4  A    between atoms: O1_6  and  C6_7 
REMARK    5  A    between atoms: C6_7  and  C7_8 
REMARK    6  A    between atoms: C7_8  and  C8_9 
REMARK    7  A    between atoms: C8_9  and  N1_10 
REMARK       I    between atoms: N1_10  and  C10_12 
REMARK       I    between atoms: C10_12  and  N2_14 
REMARK    8  A    between atoms: N2_14  and  C11_16 
REMARK    9  A    between atoms: C14_19  and  C15_20 
REMARK   10  A    between atoms: C21_28  and  C22_29 
ROOT
HETATM    1  O1  UNL     1      22.738 -16.608  18.593  1.00  0.00    -0.350 OA
ENDROOT
BRANCH   1   2
HETATM    2  C5  UNL     1      23.954 -16.021  18.713  1.00  0.00     0.077 A 
HETATM    3  C4  UNL     1      25.115 -16.791  18.817  1.00  0.00     0.012 A 
HETATM    4  C23 UNL     1      26.374 -16.195  18.929  1.00  0.00     0.120 A 
HETATM    5  C20 UNL     1      26.481 -14.831  18.939  1.00  0.00     0.034 A 
HETATM    6  O5  UNL     1      27.580 -16.665  19.035  1.00  0.00    -0.236 OA
HETATM    7  C19 UNL     1      25.361 -14.077  18.840  1.00  0.00     0.019 A 
HETATM    8  C21 UNL     1      27.837 -14.503  19.059  1.00  0.00     0.151 A 
HETATM    9  C18 UNL     1      24.094 -14.657  18.726  1.00  0.00     0.038 A 
HETATM   10  N3  UNL     1      28.450 -15.708  19.113  1.00  0.00    -0.255 N 
ATOM     11  H3  UNL     1      29.456 -15.844  19.202  1.00  0.00     0.195 HD
BRANCH   3  12
HETATM   12  C3  UNL     1      25.113 -18.257  18.876  1.00  0.00     0.044 C 
BRANCH  12  13
HETATM   13  C2  UNL     1      25.219 -18.896  17.540  1.00  0.00     0.000 C 
HETATM   14  C1  UNL     1      24.001 -19.553  16.999  1.00  0.00     0.005 C 
ENDBRANCH  12  13
ENDBRANCH   3  12
BRANCH   8  15
HETATM   15  C22 UNL     1      28.431 -13.144  19.114  1.00  0.00     0.435 C 
HETATM   16  F1  UNL     1      29.673 -13.108  18.511  1.00  0.00    -0.165 F 
HETATM   17  F2  UNL     1      27.594 -12.294  18.412  1.00  0.00    -0.165 F 
HETATM   18  F3  UNL     1      28.514 -12.667  20.413  1.00  0.00    -0.165 F 
ENDBRANCH   8  15
ENDBRANCH   1   2
BRANCH   1  19
HETATM   19  C6  UNL     1      21.467 -16.174  18.841  1.00  0.00     0.177 C 
BRANCH  19  20
HETATM   20  C7  UNL     1      20.653 -16.725  19.949  1.00  0.00     0.046 C 
BRANCH  20  21
HETATM   21  C8  UNL     1      19.165 -16.473  19.829  1.00  0.00     0.129 C 
BRANCH  21  22
HETATM   22  N1  UNL     1      18.421 -17.628  19.392  1.00  0.00    -0.338 N 
HETATM   23  C9  UNL     1      19.005 -18.940  19.380  1.00  0.00     0.154 C 
HETATM   24  C10 UNL     1      17.051 -17.508  18.965  1.00  0.00     0.322 C 
HETATM   25  O2  UNL     1      16.452 -18.548  18.618  1.00  0.00    -0.247 OA
HETATM   26  N2  UNL     1      16.365 -16.297  18.918  1.00  0.00    -0.309 N 
ATOM     27  H2  UNL     1      16.905 -15.482  19.207  1.00  0.00     0.170 HD
BRANCH  26  28
HETATM   28  C11 UNL     1      15.040 -16.029  18.532  1.00  0.00     0.036 A 
HETATM   29  C12 UNL     1      14.019 -16.891  18.784  1.00  0.00     0.030 A 
HETATM   30  C13 UNL     1      12.709 -16.613  18.375  1.00  0.00     0.020 A 
HETATM   31  C14 UNL     1      12.424 -15.454  17.705  1.00  0.00     0.041 A 
HETATM   32  C16 UNL     1      13.442 -14.559  17.435  1.00  0.00     0.020 A 
HETATM   33  C17 UNL     1      14.715 -14.855  17.846  1.00  0.00     0.030 A 
BRANCH  31  34
HETATM   34  C15 UNL     1      11.053 -15.191  17.289  1.00  0.00     0.209 C 
HETATM   35  O3  UNL     1      10.268 -16.151  17.146  1.00  0.00    -0.644 OA
HETATM   36  O4  UNL     1      10.568 -13.917  17.041  1.00  0.00    -0.644 OA
ENDBRANCH  31  34
ENDBRANCH  26  28
ENDBRANCH  21  22
ENDBRANCH  20  21
ENDBRANCH  19  20
ENDBRANCH   1  19
TORSDOF 10
ENDMDL
