MODEL 16
REMARK VINA RESULT: -9.987583512      0.970      1.648
REMARK  10 active torsions:
REMARK  status: ('A' for Active; 'I' for Inactive)
REMARK    1  A    between atoms: C2_2  and  C3_3 
REMARK    2  A    between atoms: C3_3  and  C4_4 
REMARK    3  A    between atoms: C5_5  and  O1_6 
REMARK    4  A    between atoms: O1_6  and  C6_7 
REMARK    5  A    between atoms: C6_7  and  C7_8 
REMARK    6  A    between atoms: C7_8  and  C8_9 
REMARK    7  A    between atoms: C8_9  and  N1_10 
REMARK       I    between atoms: N1_10  and  C10_12 
REMARK       I    between atoms: C10_12  and  N2_14 
REMARK    8  A    between atoms: N2_14  and  C11_16 
REMARK    9  A    between atoms: C14_19  and  C15_20 
REMARK   10  A    between atoms: C21_28  and  C22_29 
ROOT
HETATM    1  O1  UNL     1      22.876 -17.245  18.672  1.00  0.00    -0.350 OA
ENDROOT
BRANCH   1   2
HETATM    2  C5  UNL     1      24.010 -16.513  18.796  1.00  0.00     0.077 A 
HETATM    3  C4  UNL     1      25.264 -17.130  18.808  1.00  0.00     0.012 A 
HETATM    4  C23 UNL     1      26.440 -16.383  18.924  1.00  0.00     0.120 A 
HETATM    5  C20 UNL     1      26.371 -15.020  19.028  1.00  0.00     0.034 A 
HETATM    6  O5  UNL     1      27.699 -16.698  18.959  1.00  0.00    -0.236 OA
HETATM    7  C19 UNL     1      25.160 -14.415  19.018  1.00  0.00     0.019 A 
HETATM    8  C21 UNL     1      27.677 -14.527  19.129  1.00  0.00     0.151 A 
HETATM    9  C18 UNL     1      23.974 -15.147  18.902  1.00  0.00     0.038 A 
HETATM   10  N3  UNL     1      28.441 -15.642  19.078  1.00  0.00    -0.255 N 
ATOM     11  H3  UNL     1      29.459 -15.651  19.126  1.00  0.00     0.195 HD
BRANCH   3  12
HETATM   12  C3  UNL     1      25.452 -18.584  18.762  1.00  0.00     0.044 C 
BRANCH  12  13
HETATM   13  C2  UNL     1      25.325 -19.147  17.394  1.00  0.00     0.000 C 
HETATM   14  C1  UNL     1      24.061 -19.855  17.063  1.00  0.00     0.005 C 
ENDBRANCH  12  13
ENDBRANCH   3  12
BRANCH   8  15
HETATM   15  C22 UNL     1      28.094 -13.108  19.262  1.00  0.00     0.435 C 
HETATM   16  F1  UNL     1      27.365 -12.284  18.428  1.00  0.00    -0.165 F 
HETATM   17  F2  UNL     1      27.843 -12.721  20.568  1.00  0.00    -0.165 F 
HETATM   18  F3  UNL     1      29.451 -12.944  19.033  1.00  0.00    -0.165 F 
ENDBRANCH   8  15
ENDBRANCH   1   2
BRANCH   1  19
HETATM   19  C6  UNL     1      22.086 -17.896  19.576  1.00  0.00     0.177 C 
BRANCH  19  20
HETATM   20  C7  UNL     1      20.663 -18.199  19.298  1.00  0.00     0.046 C 
BRANCH  20  21
HETATM   21  C8  UNL     1      19.677 -17.216  19.893  1.00  0.00     0.129 C 
BRANCH  21  22
HETATM   22  N1  UNL     1      19.307 -16.155  18.989  1.00  0.00    -0.338 N 
HETATM   23  C9  UNL     1      20.289 -15.270  18.425  1.00  0.00     0.154 C 
HETATM   24  C10 UNL     1      17.934 -15.955  18.604  1.00  0.00     0.322 C 
HETATM   25  O2  UNL     1      17.680 -15.033  17.801  1.00  0.00    -0.247 OA
HETATM   26  N2  UNL     1      16.883 -16.733  19.081  1.00  0.00    -0.309 N 
ATOM     27  H2  UNL     1      17.150 -17.467  19.738  1.00  0.00     0.170 HD
BRANCH  26  28
HETATM   28  C11 UNL     1      15.508 -16.660  18.795  1.00  0.00     0.036 A 
HETATM   29  C12 UNL     1      14.997 -15.775  17.898  1.00  0.00     0.030 A 
HETATM   30  C13 UNL     1      13.623 -15.705  17.640  1.00  0.00     0.020 A 
HETATM   31  C14 UNL     1      12.753 -16.537  18.294  1.00  0.00     0.041 A 
HETATM   32  C16 UNL     1      13.244 -17.445  19.211  1.00  0.00     0.020 A 
HETATM   33  C17 UNL     1      14.593 -17.493  19.445  1.00  0.00     0.030 A 
BRANCH  31  34
HETATM   34  C15 UNL     1      11.327 -16.441  18.008  1.00  0.00     0.209 C 
HETATM   35  O3  UNL     1      10.753 -15.342  18.150  1.00  0.00    -0.644 OA
HETATM   36  O4  UNL     1      10.568 -17.519  17.583  1.00  0.00    -0.644 OA
ENDBRANCH  31  34
ENDBRANCH  26  28
ENDBRANCH  21  22
ENDBRANCH  20  21
ENDBRANCH  19  20
ENDBRANCH   1  19
TORSDOF 10
ENDMDL
