MODEL 9
REMARK VINA RESULT: -10.209926147      5.563     12.408
REMARK  10 active torsions:
REMARK  status: ('A' for Active; 'I' for Inactive)
REMARK    1  A    between atoms: C2_2  and  C3_3 
REMARK    2  A    between atoms: C3_3  and  C4_4 
REMARK    3  A    between atoms: C5_5  and  O1_6 
REMARK    4  A    between atoms: O1_6  and  C6_7 
REMARK    5  A    between atoms: C6_7  and  C7_8 
REMARK    6  A    between atoms: C7_8  and  C8_9 
REMARK    7  A    between atoms: C8_9  and  N1_10 
REMARK       I    between atoms: N1_10  and  C10_12 
REMARK       I    between atoms: C10_12  and  N2_14 
REMARK    8  A    between atoms: N2_14  and  C11_16 
REMARK    9  A    between atoms: C14_19  and  C15_20 
REMARK   10  A    between atoms: C21_28  and  C22_29 
ROOT
HETATM    1  O1  UNL     1      17.213 -15.737  19.017  1.00  0.00    -0.350 OA
ENDROOT
BRANCH   1   2
HETATM    2  C5  UNL     1      15.906 -15.654  18.665  1.00  0.00     0.077 A 
HETATM    3  C4  UNL     1      15.022 -16.699  18.939  1.00  0.00     0.012 A 
HETATM    4  C23 UNL     1      13.670 -16.618  18.590  1.00  0.00     0.120 A 
HETATM    5  C20 UNL     1      13.197 -15.496  17.967  1.00  0.00     0.034 A 
HETATM    6  O5  UNL     1      12.662 -17.424  18.728  1.00  0.00    -0.236 OA
HETATM    7  C19 UNL     1      14.047 -14.478  17.697  1.00  0.00     0.019 A 
HETATM    8  C21 UNL     1      11.828 -15.675  17.734  1.00  0.00     0.151 A 
HETATM    9  C18 UNL     1      15.402 -14.543  18.040  1.00  0.00     0.038 A 
HETATM   10  N3  UNL     1      11.579 -16.904  18.240  1.00  0.00    -0.255 N 
ATOM     11  H3  UNL     1      10.666 -17.359  18.239  1.00  0.00     0.195 HD
BRANCH   3  12
HETATM   12  C3  UNL     1      15.432 -17.969  19.549  1.00  0.00     0.044 C 
BRANCH  12  13
HETATM   13  C2  UNL     1      15.920 -18.963  18.560  1.00  0.00     0.000 C 
HETATM   14  C1  UNL     1      17.357 -19.332  18.616  1.00  0.00     0.005 C 
ENDBRANCH  12  13
ENDBRANCH   3  12
BRANCH   8  15
HETATM   15  C22 UNL     1      10.896 -14.722  17.081  1.00  0.00     0.435 C 
HETATM   16  F1  UNL     1      10.161 -15.332  16.084  1.00  0.00    -0.165 F 
HETATM   17  F2  UNL     1      10.011 -14.275  18.048  1.00  0.00    -0.165 F 
HETATM   18  F3  UNL     1      11.558 -13.612  16.579  1.00  0.00    -0.165 F 
ENDBRANCH   8  15
ENDBRANCH   1   2
BRANCH   1  19
HETATM   19  C6  UNL     1      18.356 -15.959  18.304  1.00  0.00     0.177 C 
BRANCH  19  20
HETATM   20  C7  UNL     1      19.698 -15.694  18.872  1.00  0.00     0.046 C 
BRANCH  20  21
HETATM   21  C8  UNL     1      20.851 -16.244  18.059  1.00  0.00     0.129 C 
BRANCH  21  22
HETATM   22  N1  UNL     1      21.599 -17.268  18.745  1.00  0.00    -0.338 N 
HETATM   23  C9  UNL     1      20.977 -18.485  19.188  1.00  0.00     0.154 C 
HETATM   24  C10 UNL     1      23.008 -17.114  18.995  1.00  0.00     0.322 C 
HETATM   25  O2  UNL     1      23.605 -18.046  19.574  1.00  0.00    -0.247 OA
HETATM   26  N2  UNL     1      23.733 -15.984  18.628  1.00  0.00    -0.309 N 
ATOM     27  H2  UNL     1      23.193 -15.254  18.164  1.00  0.00     0.170 HD
BRANCH  26  28
HETATM   28  C11 UNL     1      25.099 -15.696  18.801  1.00  0.00     0.036 A 
HETATM   29  C12 UNL     1      26.049 -16.669  18.840  1.00  0.00     0.030 A 
HETATM   30  C13 UNL     1      27.402 -16.363  19.031  1.00  0.00     0.020 A 
HETATM   31  C14 UNL     1      27.802 -15.063  19.184  1.00  0.00     0.041 A 
HETATM   32  C16 UNL     1      26.859 -14.054  19.149  1.00  0.00     0.020 A 
HETATM   33  C17 UNL     1      25.542 -14.380  18.961  1.00  0.00     0.030 A 
BRANCH  31  34
HETATM   34  C15 UNL     1      29.216 -14.773  19.384  1.00  0.00     0.209 C 
HETATM   35  O3  UNL     1      29.778 -15.181  20.420  1.00  0.00    -0.644 OA
HETATM   36  O4  UNL     1      29.978 -14.060  18.472  1.00  0.00    -0.644 OA
ENDBRANCH  31  34
ENDBRANCH  26  28
ENDBRANCH  21  22
ENDBRANCH  20  21
ENDBRANCH  19  20
ENDBRANCH   1  19
TORSDOF 10
ENDMDL
