MODEL 3
REMARK VINA RESULT: -10.714636344      0.867      1.165
REMARK  10 active torsions:
REMARK  status: ('A' for Active; 'I' for Inactive)
REMARK    1  A    between atoms: C2_2  and  C3_3 
REMARK    2  A    between atoms: C3_3  and  C4_4 
REMARK    3  A    between atoms: C5_5  and  O1_6 
REMARK    4  A    between atoms: O1_6  and  C6_7 
REMARK    5  A    between atoms: C6_7  and  C7_8 
REMARK    6  A    between atoms: C7_8  and  C8_9 
REMARK    7  A    between atoms: C8_9  and  N1_10 
REMARK       I    between atoms: N1_10  and  C10_12 
REMARK       I    between atoms: C10_12  and  N2_14 
REMARK    8  A    between atoms: N2_14  and  C11_16 
REMARK    9  A    between atoms: C14_19  and  C15_20 
REMARK   10  A    between atoms: C21_28  and  C22_29 
ROOT
HETATM    1  O1  UNL     1      22.746 -16.404  17.762  1.00  0.00    -0.350 OA
ENDROOT
BRANCH   1   2
HETATM    2  C5  UNL     1      23.942 -16.063  18.300  1.00  0.00     0.077 A 
HETATM    3  C4  UNL     1      24.807 -17.039  18.803  1.00  0.00     0.012 A 
HETATM    4  C23 UNL     1      26.048 -16.698  19.349  1.00  0.00     0.120 A 
HETATM    5  C20 UNL     1      26.431 -15.385  19.396  1.00  0.00     0.034 A 
HETATM    6  O5  UNL     1      27.015 -17.389  19.870  1.00  0.00    -0.236 OA
HETATM    7  C19 UNL     1      25.599 -14.433  18.912  1.00  0.00     0.019 A 
HETATM    8  C21 UNL     1      27.700 -15.325  19.983  1.00  0.00     0.151 A 
HETATM    9  C18 UNL     1      24.355 -14.757  18.361  1.00  0.00     0.038 A 
HETATM   10  N3  UNL     1      27.988 -16.620  20.248  1.00  0.00    -0.255 N 
ATOM     11  H3  UNL     1      28.850 -16.946  20.683  1.00  0.00     0.195 HD
BRANCH   3  12
HETATM   12  C3  UNL     1      24.474 -18.466  18.857  1.00  0.00     0.044 C 
BRANCH  12  13
HETATM   13  C2  UNL     1      24.894 -19.211  17.644  1.00  0.00     0.000 C 
HETATM   14  C1  UNL     1      23.835 -19.587  16.673  1.00  0.00     0.005 C 
ENDBRANCH  12  13
ENDBRANCH   3  12
BRANCH   8  15
HETATM   15  C22 UNL     1      28.514 -14.111  20.243  1.00  0.00     0.435 C 
HETATM   16  F1  UNL     1      29.078 -13.620  19.082  1.00  0.00    -0.165 F 
HETATM   17  F2  UNL     1      27.665 -13.140  20.747  1.00  0.00    -0.165 F 
HETATM   18  F3  UNL     1      29.496 -14.340  21.194  1.00  0.00    -0.165 F 
ENDBRANCH   8  15
ENDBRANCH   1   2
BRANCH   1  19
HETATM   19  C6  UNL     1      21.583 -15.715  17.570  1.00  0.00     0.177 C 
BRANCH  19  20
HETATM   20  C7  UNL     1      20.740 -15.268  18.703  1.00  0.00     0.046 C 
BRANCH  20  21
HETATM   21  C8  UNL     1      20.545 -16.299  19.795  1.00  0.00     0.129 C 
BRANCH  21  22
HETATM   22  N1  UNL     1      19.940 -17.522  19.328  1.00  0.00    -0.338 N 
HETATM   23  C9  UNL     1      20.700 -18.733  19.188  1.00  0.00     0.154 C 
HETATM   24  C10 UNL     1      18.539 -17.576  18.999  1.00  0.00     0.322 C 
HETATM   25  O2  UNL     1      18.068 -18.669  18.621  1.00  0.00    -0.247 OA
HETATM   26  N2  UNL     1      17.689 -16.476  19.081  1.00  0.00    -0.309 N 
ATOM     27  H2  UNL     1      18.130 -15.610  19.390  1.00  0.00     0.170 HD
BRANCH  26  28
HETATM   28  C11 UNL     1      16.315 -16.380  18.800  1.00  0.00     0.036 A 
HETATM   29  C12 UNL     1      15.428 -17.347  19.158  1.00  0.00     0.030 A 
HETATM   30  C13 UNL     1      14.066 -17.240  18.853  1.00  0.00     0.020 A 
HETATM   31  C14 UNL     1      13.591 -16.146  18.181  1.00  0.00     0.041 A 
HETATM   32  C16 UNL     1      14.469 -15.148  17.805  1.00  0.00     0.020 A 
HETATM   33  C17 UNL     1      15.796 -15.277  18.115  1.00  0.00     0.030 A 
BRANCH  31  34
HETATM   34  C15 UNL     1      12.169 -16.062  17.875  1.00  0.00     0.209 C 
HETATM   35  O3  UNL     1      11.633 -14.939  17.785  1.00  0.00    -0.644 OA
HETATM   36  O4  UNL     1      11.372 -17.178  17.676  1.00  0.00    -0.644 OA
ENDBRANCH  31  34
ENDBRANCH  26  28
ENDBRANCH  21  22
ENDBRANCH  20  21
ENDBRANCH  19  20
ENDBRANCH   1  19
TORSDOF 10
ENDMDL
