MODEL 1
REMARK VINA RESULT: -11.198615289      0.000      0.000
REMARK  10 active torsions:
REMARK  status: ('A' for Active; 'I' for Inactive)
REMARK    1  A    between atoms: C2_2  and  C3_3 
REMARK    2  A    between atoms: C3_3  and  C4_4 
REMARK    3  A    between atoms: C5_5  and  O1_6 
REMARK    4  A    between atoms: O1_6  and  C6_7 
REMARK    5  A    between atoms: C6_7  and  C7_8 
REMARK    6  A    between atoms: C7_8  and  C8_9 
REMARK    7  A    between atoms: C8_9  and  N1_10 
REMARK       I    between atoms: N1_10  and  C10_12 
REMARK       I    between atoms: C10_12  and  N2_14 
REMARK    8  A    between atoms: N2_14  and  C11_16 
REMARK    9  A    between atoms: C14_19  and  C15_20 
REMARK   10  A    between atoms: C21_28  and  C22_29 
ROOT
HETATM    1  O1  UNL     1      22.823 -16.461  18.462  1.00  0.00    -0.350 OA
ENDROOT
BRANCH   1   2
HETATM    2  C5  UNL     1      24.055 -15.917  18.615  1.00  0.00     0.077 A 
HETATM    3  C4  UNL     1      25.189 -16.726  18.720  1.00  0.00     0.012 A 
HETATM    4  C23 UNL     1      26.465 -16.173  18.867  1.00  0.00     0.120 A 
HETATM    5  C20 UNL     1      26.615 -14.814  18.910  1.00  0.00     0.034 A 
HETATM    6  O5  UNL     1      27.653 -16.684  18.982  1.00  0.00    -0.236 OA
HETATM    7  C19 UNL     1      25.521 -14.022  18.810  1.00  0.00     0.019 A 
HETATM    8  C21 UNL     1      27.978 -14.533  19.060  1.00  0.00     0.151 A 
HETATM    9  C18 UNL     1      24.238 -14.559  18.662  1.00  0.00     0.038 A 
HETATM   10  N3  UNL     1      28.551 -15.758  19.096  1.00  0.00    -0.255 N 
ATOM     11  H3  UNL     1      29.551 -15.928  19.198  1.00  0.00     0.195 HD
BRANCH   3  12
HETATM   12  C3  UNL     1      25.139 -18.192  18.744  1.00  0.00     0.044 C 
BRANCH  12  13
HETATM   13  C2  UNL     1      25.159 -18.801  17.390  1.00  0.00     0.000 C 
HETATM   14  C1  UNL     1      23.924 -19.488  16.934  1.00  0.00     0.005 C 
ENDBRANCH  12  13
ENDBRANCH   3  12
BRANCH   8  15
HETATM   15  C22 UNL     1      28.614 -13.195  19.156  1.00  0.00     0.435 C 
HETATM   16  F1  UNL     1      28.793 -12.811  20.471  1.00  0.00    -0.165 F 
HETATM   17  F2  UNL     1      29.863 -13.284  18.565  1.00  0.00    -0.165 F 
HETATM   18  F3  UNL     1      27.896 -12.230  18.468  1.00  0.00    -0.165 F 
ENDBRANCH   8  15
ENDBRANCH   1   2
BRANCH   1  19
HETATM   19  C6  UNL     1      21.817 -16.248  17.564  1.00  0.00     0.177 C 
BRANCH  19  20
HETATM   20  C7  UNL     1      20.554 -15.576  17.947  1.00  0.00     0.046 C 
BRANCH  20  21
HETATM   21  C8  UNL     1      19.986 -16.007  19.282  1.00  0.00     0.129 C 
BRANCH  21  22
HETATM   22  N1  UNL     1      19.352 -17.301  19.245  1.00  0.00    -0.338 N 
HETATM   23  C9  UNL     1      20.100 -18.511  19.443  1.00  0.00     0.154 C 
HETATM   24  C10 UNL     1      17.934 -17.425  19.023  1.00  0.00     0.322 C 
HETATM   25  O2  UNL     1      17.440 -18.573  19.023  1.00  0.00    -0.247 OA
HETATM   26  N2  UNL     1      17.094 -16.337  18.808  1.00  0.00    -0.309 N 
ATOM     27  H2  UNL     1      17.553 -15.427  18.814  1.00  0.00     0.170 HD
BRANCH  26  28
HETATM   28  C11 UNL     1      15.705 -16.304  18.585  1.00  0.00     0.036 A 
HETATM   29  C12 UNL     1      14.864 -17.246  19.088  1.00  0.00     0.030 A 
HETATM   30  C13 UNL     1      13.486 -17.205  18.839  1.00  0.00     0.020 A 
HETATM   31  C14 UNL     1      12.952 -16.203  18.074  1.00  0.00     0.041 A 
HETATM   32  C16 UNL     1      13.783 -15.233  17.549  1.00  0.00     0.020 A 
HETATM   33  C17 UNL     1      15.126 -15.297  17.808  1.00  0.00     0.030 A 
BRANCH  31  34
HETATM   34  C15 UNL     1      11.515 -16.187  17.828  1.00  0.00     0.209 C 
HETATM   35  O3  UNL     1      10.849 -15.197  18.193  1.00  0.00    -0.644 OA
HETATM   36  O4  UNL     1      10.843 -17.225  17.204  1.00  0.00    -0.644 OA
ENDBRANCH  31  34
ENDBRANCH  26  28
ENDBRANCH  21  22
ENDBRANCH  20  21
ENDBRANCH  19  20
ENDBRANCH   1  19
TORSDOF 10
ENDMDL
