MODEL 4
REMARK VINA RESULT: -10.638116651      5.331     11.362
REMARK  10 active torsions:
REMARK  status: ('A' for Active; 'I' for Inactive)
REMARK    1  A    between atoms: C2_2  and  C3_3 
REMARK    2  A    between atoms: C3_3  and  C4_4 
REMARK    3  A    between atoms: C5_5  and  O1_6 
REMARK    4  A    between atoms: O1_6  and  C6_7 
REMARK    5  A    between atoms: C6_7  and  C7_8 
REMARK    6  A    between atoms: C7_8  and  C8_9 
REMARK    7  A    between atoms: C8_9  and  N1_10 
REMARK       I    between atoms: N1_10  and  C10_12 
REMARK       I    between atoms: C10_12  and  N2_14 
REMARK    8  A    between atoms: N2_14  and  C11_16 
REMARK    9  A    between atoms: C14_19  and  C15_20 
REMARK   10  A    between atoms: C21_28  and  C22_29 
ROOT
HETATM    1  O1  UNL     1      19.489 -18.881  19.266  1.00  0.00    -0.350 OA
ENDROOT
BRANCH   1   2
HETATM    2  C5  UNL     1      18.316 -18.240  19.040  1.00  0.00     0.077 A 
HETATM    3  C4  UNL     1      18.258 -16.845  18.995  1.00  0.00     0.012 A 
HETATM    4  C23 UNL     1      17.055 -16.176  18.752  1.00  0.00     0.120 A 
HETATM    5  C20 UNL     1      15.907 -16.894  18.554  1.00  0.00     0.034 A 
HETATM    6  O5  UNL     1      16.732 -14.922  18.658  1.00  0.00    -0.236 OA
HETATM    7  C19 UNL     1      15.954 -18.246  18.598  1.00  0.00     0.019 A 
HETATM    8  C21 UNL     1      14.862 -15.988  18.334  1.00  0.00     0.151 A 
HETATM    9  C18 UNL     1      17.149 -18.931  18.839  1.00  0.00     0.038 A 
HETATM   10  N3  UNL     1      15.467 -14.781  18.417  1.00  0.00    -0.255 N 
ATOM     11  H3  UNL     1      14.993 -13.885  18.304  1.00  0.00     0.195 HD
BRANCH   3  12
HETATM   12  C3  UNL     1      19.412 -15.977  19.250  1.00  0.00     0.044 C 
BRANCH  12  13
HETATM   13  C2  UNL     1      20.106 -15.545  18.011  1.00  0.00     0.000 C 
HETATM   14  C1  UNL     1      21.555 -15.234  18.113  1.00  0.00     0.005 C 
ENDBRANCH  12  13
ENDBRANCH   3  12
BRANCH   8  15
HETATM   15  C22 UNL     1      13.436 -16.308  18.075  1.00  0.00     0.435 C 
HETATM   16  F1  UNL     1      12.651 -15.172  18.080  1.00  0.00    -0.165 F 
HETATM   17  F2  UNL     1      13.357 -16.873  16.813  1.00  0.00    -0.165 F 
HETATM   18  F3  UNL     1      12.942 -17.237  18.977  1.00  0.00    -0.165 F 
ENDBRANCH   8  15
ENDBRANCH   1   2
BRANCH   1  19
HETATM   19  C6  UNL     1      20.677 -18.911  18.594  1.00  0.00     0.177 C 
BRANCH  19  20
HETATM   20  C7  UNL     1      21.973 -18.713  19.284  1.00  0.00     0.046 C 
BRANCH  20  21
HETATM   21  C8  UNL     1      23.035 -19.739  18.946  1.00  0.00     0.129 C 
BRANCH  21  22
HETATM   22  N1  UNL     1      23.756 -19.440  17.734  1.00  0.00    -0.338 N 
HETATM   23  C9  UNL     1      23.507 -20.158  16.515  1.00  0.00     0.154 C 
HETATM   24  C10 UNL     1      24.745 -18.394  17.699  1.00  0.00     0.322 C 
HETATM   25  O2  UNL     1      25.321 -18.169  16.613  1.00  0.00    -0.247 OA
HETATM   26  N2  UNL     1      25.090 -17.628  18.808  1.00  0.00    -0.309 N 
ATOM     27  H2  UNL     1      24.592 -17.860  19.667  1.00  0.00     0.170 HD
BRANCH  26  28
HETATM   28  C11 UNL     1      26.023 -16.582  18.923  1.00  0.00     0.036 A 
HETATM   29  C12 UNL     1      27.322 -16.799  19.262  1.00  0.00     0.030 A 
HETATM   30  C13 UNL     1      28.231 -15.741  19.389  1.00  0.00     0.020 A 
HETATM   31  C14 UNL     1      27.827 -14.451  19.172  1.00  0.00     0.041 A 
HETATM   32  C16 UNL     1      26.513 -14.202  18.828  1.00  0.00     0.020 A 
HETATM   33  C17 UNL     1      25.644 -15.254  18.710  1.00  0.00     0.030 A 
BRANCH  31  34
HETATM   34  C15 UNL     1      28.793 -13.370  19.314  1.00  0.00     0.209 C 
HETATM   35  O3  UNL     1      28.697 -12.594  20.286  1.00  0.00    -0.644 OA
HETATM   36  O4  UNL     1      29.825 -13.156  18.415  1.00  0.00    -0.644 OA
ENDBRANCH  31  34
ENDBRANCH  26  28
ENDBRANCH  21  22
ENDBRANCH  20  21
ENDBRANCH  19  20
ENDBRANCH   1  19
TORSDOF 10
ENDMDL
