MODEL 13
REMARK VINA RESULT: -7.307001622      2.758      7.210
REMARK  3 active torsions:
REMARK  status: ('A' for Active; 'I' for Inactive)
REMARK    1  A    between atoms: O1_2  and  C2_3 
REMARK    2  A    between atoms: C6_9  and  C7_10 
REMARK       I    between atoms: C7_10  and  N2_12 
REMARK    3  A    between atoms: N2_12  and  S1_14 
ROOT
HETATM    1  C2  UNL     1      15.423  11.353   3.539  1.00  0.00     0.069 A 
HETATM    2  C3  UNL     1      16.633  11.826   3.070  1.00  0.00     0.039 A 
HETATM    3  C4  UNL     1      16.984  11.757   1.735  1.00  0.00     0.033 A 
HETATM    4  C5  UNL     1      16.079  11.185   0.848  1.00  0.00     0.043 A 
HETATM    5  N1  UNL     1      16.146  10.977  -0.478  1.00  0.00    -0.351 N 
ATOM      6  H1  UNL     1      16.938  11.235  -1.067  1.00  0.00     0.166 HD
HETATM    7  C6  UNL     1      15.029  10.384  -0.919  1.00  0.00     0.103 A 
HETATM    8  C9  UNL     1      14.229  10.216   0.192  1.00  0.00     0.049 A 
HETATM    9  C10 UNL     1      14.868  10.710   1.310  1.00  0.00    -0.004 A 
HETATM   10  C11 UNL     1      14.517  10.782   2.651  1.00  0.00     0.050 A 
ENDROOT
BRANCH   7  11
HETATM   11  C7  UNL     1      14.693   9.979  -2.285  1.00  0.00     0.281 C 
HETATM   12  O2  UNL     1      15.584   9.999  -3.153  1.00  0.00    -0.265 OA
HETATM   13  N2  UNL     1      13.388   9.567  -2.638  1.00  0.00    -0.249 N 
ATOM     14  H2  UNL     1      12.641   9.545  -1.944  1.00  0.00     0.182 HD
BRANCH  13  15
HETATM   15  S1  UNL     1      13.091   9.107  -4.262  1.00  0.00     0.229 S 
HETATM   16  C8  UNL     1      11.388   9.297  -4.732  1.00  0.00     0.186 C 
HETATM   17  O3  UNL     1      13.906   9.969  -5.215  1.00  0.00    -0.206 OA
HETATM   18  O4  UNL     1      13.487   7.660  -4.458  1.00  0.00    -0.206 OA
ENDBRANCH  13  15
ENDBRANCH   7  11
BRANCH   1  19
HETATM   19  O1  UNL     1      15.047  11.409   4.873  1.00  0.00    -0.356 OA
HETATM   20  C1  UNL     1      14.654  10.251   5.585  1.00  0.00     0.210 C 
ENDBRANCH   1  19
TORSDOF 3
ENDMDL
