MODEL 3
REMARK VINA RESULT: -8.215325488      1.379      1.580
REMARK  3 active torsions:
REMARK  status: ('A' for Active; 'I' for Inactive)
REMARK    1  A    between atoms: O1_2  and  C2_3 
REMARK    2  A    between atoms: C6_9  and  C7_10 
REMARK       I    between atoms: C7_10  and  N2_12 
REMARK    3  A    between atoms: N2_12  and  S1_14 
ROOT
HETATM    1  C2  UNL     1      13.022   9.731  -4.586  1.00  0.00     0.069 A 
HETATM    2  C3  UNL     1      14.333   9.951  -4.964  1.00  0.00     0.039 A 
HETATM    3  C4  UNL     1      15.335  10.182  -4.042  1.00  0.00     0.033 A 
HETATM    4  C5  UNL     1      14.997  10.192  -2.693  1.00  0.00     0.043 A 
HETATM    5  N1  UNL     1      15.741  10.394  -1.592  1.00  0.00    -0.351 N 
ATOM      6  H1  UNL     1      16.745  10.580  -1.596  1.00  0.00     0.166 HD
HETATM    7  C6  UNL     1      14.983  10.317  -0.491  1.00  0.00     0.103 A 
HETATM    8  C9  UNL     1      13.704  10.054  -0.933  1.00  0.00     0.049 A 
HETATM    9  C10 UNL     1      13.690   9.973  -2.309  1.00  0.00    -0.004 A 
HETATM   10  C11 UNL     1      12.684   9.740  -3.237  1.00  0.00     0.050 A 
ENDROOT
BRANCH   7  11
HETATM   11  C7  UNL     1      15.391  10.477   0.906  1.00  0.00     0.281 C 
HETATM   12  O2  UNL     1      15.863  11.569   1.271  1.00  0.00    -0.265 OA
HETATM   13  N2  UNL     1      15.261   9.427   1.844  1.00  0.00    -0.249 N 
ATOM     14  H2  UNL     1      14.879   8.524   1.567  1.00  0.00     0.182 HD
BRANCH  13  15
HETATM   15  S1  UNL     1      15.761   9.711   3.458  1.00  0.00     0.229 S 
HETATM   16  C8  UNL     1      14.876  11.046   4.228  1.00  0.00     0.186 C 
HETATM   17  O3  UNL     1      15.519   8.477   4.314  1.00  0.00    -0.206 OA
HETATM   18  O4  UNL     1      17.238  10.035   3.481  1.00  0.00    -0.206 OA
ENDBRANCH  13  15
ENDBRANCH   7  11
BRANCH   1  19
HETATM   19  O1  UNL     1      11.996   9.499  -5.492  1.00  0.00    -0.356 OA
HETATM   20  C1  UNL     1      10.636   9.610  -5.119  1.00  0.00     0.210 C 
ENDBRANCH   1  19
TORSDOF 3
ENDMDL
