MODEL 4
REMARK VINA RESULT: -8.130430077      1.392      1.678
REMARK  3 active torsions:
REMARK  status: ('A' for Active; 'I' for Inactive)
REMARK    1  A    between atoms: O1_2  and  C2_3 
REMARK    2  A    between atoms: C6_9  and  C7_10 
REMARK       I    between atoms: C7_10  and  N2_12 
REMARK    3  A    between atoms: N2_12  and  S1_14 
ROOT
HETATM    1  C2  UNL     1      13.035   9.723  -4.601  1.00  0.00     0.069 A 
HETATM    2  C3  UNL     1      14.355   9.942  -4.947  1.00  0.00     0.039 A 
HETATM    3  C4  UNL     1      15.336  10.166  -4.001  1.00  0.00     0.033 A 
HETATM    4  C5  UNL     1      14.967  10.171  -2.661  1.00  0.00     0.043 A 
HETATM    5  N1  UNL     1      15.686  10.365  -1.542  1.00  0.00    -0.351 N 
ATOM      6  H1  UNL     1      16.690  10.550  -1.521  1.00  0.00     0.166 HD
HETATM    7  C6  UNL     1      14.903  10.284  -0.459  1.00  0.00     0.103 A 
HETATM    8  C9  UNL     1      13.633  10.026  -0.931  1.00  0.00     0.049 A 
HETATM    9  C10 UNL     1      13.651   9.952  -2.308  1.00  0.00    -0.004 A 
HETATM   10  C11 UNL     1      12.666   9.726  -3.259  1.00  0.00     0.050 A 
ENDROOT
BRANCH   7  11
HETATM   11  C7  UNL     1      15.278  10.437   0.948  1.00  0.00     0.281 C 
HETATM   12  O2  UNL     1      15.789  11.509   1.319  1.00  0.00    -0.265 OA
HETATM   13  N2  UNL     1      15.075   9.401   1.889  1.00  0.00    -0.249 N 
ATOM     14  H2  UNL     1      14.661   8.514   1.607  1.00  0.00     0.182 HD
BRANCH  13  15
HETATM   15  S1  UNL     1      15.543   9.675   3.514  1.00  0.00     0.229 S 
HETATM   16  C8  UNL     1      17.298   9.883   3.700  1.00  0.00     0.186 C 
HETATM   17  O3  UNL     1      14.895  10.945   4.047  1.00  0.00    -0.206 OA
HETATM   18  O4  UNL     1      15.102   8.510   4.371  1.00  0.00    -0.206 OA
ENDBRANCH  13  15
ENDBRANCH   7  11
BRANCH   1  19
HETATM   19  O1  UNL     1      12.030   9.497  -5.531  1.00  0.00    -0.356 OA
HETATM   20  C1  UNL     1      10.662   9.630  -5.194  1.00  0.00     0.210 C 
ENDBRANCH   1  19
TORSDOF 3
ENDMDL
