MODEL 1
REMARK VINA RESULT: -8.345645829      0.000      0.000
REMARK  3 active torsions:
REMARK  status: ('A' for Active; 'I' for Inactive)
REMARK    1  A    between atoms: O1_2  and  C2_3 
REMARK    2  A    between atoms: C6_9  and  C7_10 
REMARK       I    between atoms: C7_10  and  N2_12 
REMARK    3  A    between atoms: N2_12  and  S1_14 
ROOT
HETATM    1  C2  UNL     1      13.051   9.730  -4.480  1.00  0.00     0.069 A 
HETATM    2  C3  UNL     1      14.389   9.848  -4.808  1.00  0.00     0.039 A 
HETATM    3  C4  UNL     1      15.356  10.135  -3.864  1.00  0.00     0.033 A 
HETATM    4  C5  UNL     1      14.953  10.312  -2.545  1.00  0.00     0.043 A 
HETATM    5  N1  UNL     1      15.652  10.603  -1.434  1.00  0.00    -0.351 N 
ATOM      6  H1  UNL     1      16.663  10.743  -1.404  1.00  0.00     0.166 HD
HETATM    7  C6  UNL     1      14.839  10.684  -0.374  1.00  0.00     0.103 A 
HETATM    8  C9  UNL     1      13.570  10.431  -0.853  1.00  0.00     0.049 A 
HETATM    9  C10 UNL     1      13.619  10.196  -2.210  1.00  0.00    -0.004 A 
HETATM   10  C11 UNL     1      12.649   9.906  -3.160  1.00  0.00     0.050 A 
ENDROOT
BRANCH   7  11
HETATM   11  C7  UNL     1      15.185  10.983   1.017  1.00  0.00     0.281 C 
HETATM   12  O2  UNL     1      14.279  11.000   1.870  1.00  0.00    -0.265 OA
HETATM   13  N2  UNL     1      16.516  11.250   1.411  1.00  0.00    -0.249 N 
ATOM     14  H2  UNL     1      17.274  11.243   0.729  1.00  0.00     0.182 HD
BRANCH  13  15
HETATM   15  S1  UNL     1      16.824  11.585   3.063  1.00  0.00     0.229 S 
HETATM   16  C8  UNL     1      16.219  10.314   4.148  1.00  0.00     0.186 C 
HETATM   17  O3  UNL     1      18.321  11.694   3.312  1.00  0.00    -0.206 OA
HETATM   18  O4  UNL     1      16.173  12.895   3.444  1.00  0.00    -0.206 OA
ENDBRANCH  13  15
ENDBRANCH   7  11
BRANCH   1  19
HETATM   19  O1  UNL     1      12.061   9.443  -5.408  1.00  0.00    -0.356 OA
HETATM   20  C1  UNL     1      10.689   9.464  -5.062  1.00  0.00     0.210 C 
ENDBRANCH   1  19
TORSDOF 3
ENDMDL
