MODEL 9
REMARK VINA RESULT: -7.499314515      3.672      4.924
REMARK  3 active torsions:
REMARK  status: ('A' for Active; 'I' for Inactive)
REMARK    1  A    between atoms: O1_2  and  C2_3 
REMARK    2  A    between atoms: C6_9  and  C7_10 
REMARK       I    between atoms: C7_10  and  N2_12 
REMARK    3  A    between atoms: N2_12  and  S1_14 
ROOT
HETATM    1  C2  UNL     1      14.350  10.877  -0.610  1.00  0.00     0.069 A 
HETATM    2  C3  UNL     1      15.663  11.200  -0.325  1.00  0.00     0.039 A 
HETATM    3  C4  UNL     1      16.198  11.059   0.940  1.00  0.00     0.033 A 
HETATM    4  C5  UNL     1      15.374  10.578   1.951  1.00  0.00     0.043 A 
HETATM    5  N1  UNL     1      15.609  10.348   3.255  1.00  0.00    -0.351 N 
ATOM      6  H1  UNL     1      16.503  10.507   3.721  1.00  0.00     0.166 HD
HETATM    7  C6  UNL     1      14.507   9.882   3.857  1.00  0.00     0.103 A 
HETATM    8  C9  UNL     1      13.540   9.821   2.875  1.00  0.00     0.049 A 
HETATM    9  C10 UNL     1      14.062  10.252   1.674  1.00  0.00    -0.004 A 
HETATM   10  C11 UNL     1      13.526  10.393   0.402  1.00  0.00     0.050 A 
ENDROOT
BRANCH   7  11
HETATM   11  C7  UNL     1      14.327   9.511   5.261  1.00  0.00     0.281 C 
HETATM   12  O2  UNL     1      14.398   8.310   5.577  1.00  0.00    -0.265 OA
HETATM   13  N2  UNL     1      14.074  10.479   6.260  1.00  0.00    -0.249 N 
ATOM     14  H2  UNL     1      14.009  11.469   6.024  1.00  0.00     0.182 HD
BRANCH  13  15
HETATM   15  S1  UNL     1      13.880   9.948   7.877  1.00  0.00     0.229 S 
HETATM   16  C8  UNL     1      13.204  11.204   8.938  1.00  0.00     0.186 C 
HETATM   17  O3  UNL     1      12.924   8.766   7.937  1.00  0.00    -0.206 OA
HETATM   18  O4  UNL     1      15.219   9.517   8.433  1.00  0.00    -0.206 OA
ENDBRANCH  13  15
ENDBRANCH   7  11
BRANCH   1  19
HETATM   19  O1  UNL     1      13.787  11.010  -1.871  1.00  0.00    -0.356 OA
HETATM   20  C1  UNL     1      12.747  10.160  -2.315  1.00  0.00     0.210 C 
ENDBRANCH   1  19
TORSDOF 3
ENDMDL
