MODEL 2
REMARK VINA RESULT: -4.943519697      3.444      4.762
REMARK  3 active torsions:
REMARK  status: ('A' for Active; 'I' for Inactive)
REMARK    1  A    between atoms: C2_2  and  C3_3 
REMARK    2  A    between atoms: C5_5  and  N1_6 
REMARK    3  A    between atoms: C8_11  and  S1_12 
ROOT
HETATM    1  C3  UNL     1     -58.368 -68.031  19.692  1.00  0.00     0.036 A 
HETATM    2  C4  UNL     1     -59.532 -68.308  19.016  1.00  0.00     0.077 A 
HETATM    3  C5  UNL     1     -60.253 -69.464  19.282  1.00  0.00     0.106 A 
HETATM    4  N2  UNL     1     -59.759 -70.292  20.228  1.00  0.00    -0.319 N 
ATOM      5  H2  UNL     1     -60.272 -71.148  20.441  1.00  0.00     0.169 HD
HETATM    6  C8  UNL     1     -58.623 -70.042  20.903  1.00  0.00     0.204 A 
HETATM    7  N3  UNL     1     -57.949 -68.906  20.617  1.00  0.00    -0.333 N 
ATOM      8  H3  UNL     1     -57.087 -68.708  21.124  1.00  0.00     0.168 HD
ENDROOT
BRANCH   6   9
HETATM    9  S1  UNL     1     -58.033 -71.166  22.126  1.00  0.00     0.203 S 
HETATM   10  C9  UNL     1     -59.207 -72.460  22.431  1.00  0.00     0.170 C 
HETATM   11  O1  UNL     1     -56.737 -71.726  21.608  1.00  0.00    -0.220 OA
HETATM   12  O2  UNL     1     -57.723 -70.444  23.404  1.00  0.00    -0.220 OA
ENDBRANCH   6   9
BRANCH   3  13
HETATM   13  N1  UNL     1     -61.455 -69.775  18.602  1.00  0.00    -0.376 N 
HETATM   14  C6  UNL     1     -62.005 -68.870  17.625  1.00  0.00     0.150 C 
HETATM   15  C7  UNL     1     -62.142 -71.010  18.881  1.00  0.00     0.150 C 
ENDBRANCH   3  13
BRANCH   1  16
HETATM   16  C2  UNL     1     -57.649 -66.805  19.377  1.00  0.00     0.019 C 
HETATM   17  C1  UNL     1     -57.828 -66.133  18.268  1.00  0.00     0.013 C 
ENDBRANCH   1  16
TORSDOF 3
ENDMDL
