MODEL 1
REMARK VINA RESULT: -4.962489871      0.000      0.000
REMARK  3 active torsions:
REMARK  status: ('A' for Active; 'I' for Inactive)
REMARK    1  A    between atoms: C2_2  and  C3_3 
REMARK    2  A    between atoms: C5_5  and  N1_6 
REMARK    3  A    between atoms: C8_11  and  S1_12 
ROOT
HETATM    1  C3  UNL     1     -59.290 -67.903  20.471  1.00  0.00     0.036 A 
HETATM    2  C4  UNL     1     -60.342 -67.862  19.588  1.00  0.00     0.077 A 
HETATM    3  C5  UNL     1     -60.204 -67.267  18.342  1.00  0.00     0.106 A 
HETATM    4  N2  UNL     1     -58.997 -66.737  18.044  1.00  0.00    -0.319 N 
ATOM      5  H2  UNL     1     -58.871 -66.295  17.134  1.00  0.00     0.169 HD
HETATM    6  C8  UNL     1     -57.953 -66.765  18.891  1.00  0.00     0.204 A 
HETATM    7  N3  UNL     1     -58.126 -67.354  20.096  1.00  0.00    -0.333 N 
ATOM      8  H3  UNL     1     -57.340 -67.381  20.745  1.00  0.00     0.168 HD
ENDROOT
BRANCH   6   9
HETATM    9  S1  UNL     1     -56.404 -66.055  18.441  1.00  0.00     0.203 S 
HETATM   10  C9  UNL     1     -56.626 -64.620  17.423  1.00  0.00     0.170 C 
HETATM   11  O1  UNL     1     -55.702 -65.702  19.724  1.00  0.00    -0.220 OA
HETATM   12  O2  UNL     1     -55.547 -67.059  17.729  1.00  0.00    -0.220 OA
ENDBRANCH   6   9
BRANCH   3  13
HETATM   13  N1  UNL     1     -61.270 -67.210  17.412  1.00  0.00    -0.376 N 
HETATM   14  C6  UNL     1     -61.683 -65.954  16.840  1.00  0.00     0.150 C 
HETATM   15  C7  UNL     1     -61.955 -68.417  17.026  1.00  0.00     0.150 C 
ENDBRANCH   3  13
BRANCH   1  16
HETATM   16  C2  UNL     1     -59.486 -68.538  21.766  1.00  0.00     0.019 C 
HETATM   17  C1  UNL     1     -60.645 -68.987  22.177  1.00  0.00     0.013 C 
ENDBRANCH   1  16
TORSDOF 3
ENDMDL
