MODEL 19
REMARK VINA RESULT: -4.331420784      6.878      9.655
REMARK  3 active torsions:
REMARK  status: ('A' for Active; 'I' for Inactive)
REMARK    1  A    between atoms: C2_2  and  C3_3 
REMARK    2  A    between atoms: C5_5  and  N1_6 
REMARK    3  A    between atoms: C8_11  and  S1_12 
ROOT
HETATM    1  C3  UNL     1     -52.868 -61.385  13.388  1.00  0.00     0.036 A 
HETATM    2  C4  UNL     1     -53.779 -61.451  14.415  1.00  0.00     0.077 A 
HETATM    3  C5  UNL     1     -53.958 -62.624  15.135  1.00  0.00     0.106 A 
HETATM    4  N2  UNL     1     -53.200 -63.685  14.780  1.00  0.00    -0.319 N 
ATOM      5  H2  UNL     1     -53.314 -64.558  15.295  1.00  0.00     0.169 HD
HETATM    6  C8  UNL     1     -52.302 -63.644  13.780  1.00  0.00     0.204 A 
HETATM    7  N3  UNL     1     -52.155 -62.484  13.102  1.00  0.00    -0.333 N 
ATOM      8  H3  UNL     1     -51.476 -62.443  12.342  1.00  0.00     0.168 HD
ENDROOT
BRANCH   6   9
HETATM    9  S1  UNL     1     -51.344 -65.065  13.368  1.00  0.00     0.203 S 
HETATM   10  C9  UNL     1     -51.025 -66.063  14.798  1.00  0.00     0.170 C 
HETATM   11  O1  UNL     1     -52.132 -65.833  12.341  1.00  0.00    -0.220 OA
HETATM   12  O2  UNL     1     -50.050 -64.664  12.724  1.00  0.00    -0.220 OA
ENDBRANCH   6   9
BRANCH   3  13
HETATM   13  N1  UNL     1     -54.889 -62.721  16.197  1.00  0.00    -0.376 N 
HETATM   14  C6  UNL     1     -55.526 -63.976  16.506  1.00  0.00     0.150 C 
HETATM   15  C7  UNL     1     -55.208 -61.558  16.984  1.00  0.00     0.150 C 
ENDBRANCH   3  13
BRANCH   1  16
HETATM   16  C2  UNL     1     -52.717 -60.132  12.664  1.00  0.00     0.019 C 
HETATM   17  C1  UNL     1     -53.631 -59.194  12.654  1.00  0.00     0.013 C 
ENDBRANCH   1  16
TORSDOF 3
ENDMDL
