MODEL 3
REMARK VINA RESULT: -4.787779582      0.929      3.426
REMARK  3 active torsions:
REMARK  status: ('A' for Active; 'I' for Inactive)
REMARK    1  A    between atoms: C2_2  and  C3_3 
REMARK    2  A    between atoms: C5_5  and  N1_6 
REMARK    3  A    between atoms: C8_11  and  S1_12 
ROOT
HETATM    1  C3  UNL     1     -60.302 -66.536  18.121  1.00  0.00     0.036 A 
HETATM    2  C4  UNL     1     -60.546 -67.306  19.233  1.00  0.00     0.077 A 
HETATM    3  C5  UNL     1     -59.515 -67.669  20.089  1.00  0.00     0.106 A 
HETATM    4  N2  UNL     1     -58.275 -67.232  19.777  1.00  0.00    -0.319 N 
ATOM      5  H2  UNL     1     -57.502 -67.486  20.391  1.00  0.00     0.169 HD
HETATM    6  C8  UNL     1     -58.012 -66.478  18.695  1.00  0.00     0.204 A 
HETATM    7  N3  UNL     1     -59.042 -66.145  17.886  1.00  0.00    -0.333 N 
ATOM      8  H3  UNL     1     -58.853 -65.573  17.063  1.00  0.00     0.168 HD
ENDROOT
BRANCH   6   9
HETATM    9  S1  UNL     1     -56.370 -65.942  18.345  1.00  0.00     0.203 S 
HETATM   10  C9  UNL     1     -56.371 -64.461  17.371  1.00  0.00     0.170 C 
HETATM   11  O1  UNL     1     -55.700 -65.712  19.673  1.00  0.00    -0.220 OA
HETATM   12  O2  UNL     1     -55.599 -67.018  17.641  1.00  0.00    -0.220 OA
ENDBRANCH   6   9
BRANCH   3  13
HETATM   13  N1  UNL     1     -59.737 -68.461  21.242  1.00  0.00    -0.376 N 
HETATM   14  C6  UNL     1     -60.926 -68.289  22.036  1.00  0.00     0.150 C 
HETATM   15  C7  UNL     1     -58.768 -69.453  21.632  1.00  0.00     0.150 C 
ENDBRANCH   3  13
BRANCH   1  16
HETATM   16  C2  UNL     1     -61.418 -66.182  17.256  1.00  0.00     0.019 C 
HETATM   17  C1  UNL     1     -61.989 -67.030  16.438  1.00  0.00     0.013 C 
ENDBRANCH   1  16
TORSDOF 3
ENDMDL
