MODEL 2
REMARK VINA RESULT: -5.568971555      0.087      1.016
REMARK  5 active torsions:
REMARK  status: ('A' for Active; 'I' for Inactive)
REMARK    1  A    between atoms: C1_2  and  C2_4 
REMARK    2  A    between atoms: C2_4  and  O3_5 
REMARK    3  A    between atoms: C2_4  and  C3_7 
REMARK    4  A    between atoms: C3_7  and  O4_8 
REMARK    5  A    between atoms: C3_7  and  C4_10 
ROOT
HETATM    1  C2  UNL     1      10.426  18.688 -10.058  1.00  0.00     0.258 C 
ENDROOT
BRANCH   1   2
HETATM    2  C1  UNL     1       9.651  17.719  -9.244  1.00  0.00     0.206 C 
HETATM    3  O1  UNL     1       8.984  16.807  -9.795  1.00  0.00    -0.646 OA
HETATM    4  O2  UNL     1       9.626  17.779  -7.859  1.00  0.00    -0.646 OA
ENDBRANCH   1   2
BRANCH   1   5
HETATM    5  O3  UNL     1      11.683  18.853  -9.489  1.00  0.00    -0.382 OA
ATOM      6  H3  UNL     1      12.314  18.340  -9.979  1.00  0.00     0.210 HD
ENDBRANCH   1   5
BRANCH   1   7
HETATM    7  C3  UNL     1       9.739  20.036 -10.133  1.00  0.00     0.258 C 
BRANCH   7   8
HETATM    8  O4  UNL     1       8.625  20.107  -9.326  1.00  0.00    -0.382 OA
ATOM      9  H4  UNL     1       8.497  20.973  -8.956  1.00  0.00     0.210 HD
ENDBRANCH   7   8
BRANCH   7  10
HETATM   10  C4  UNL     1      10.726  21.055  -9.676  1.00  0.00     0.206 C 
HETATM   11  O5  UNL     1      11.469  21.694 -10.468  1.00  0.00    -0.646 OA
HETATM   12  O6  UNL     1      10.852  21.329  -8.317  1.00  0.00    -0.646 OA
ENDBRANCH   7  10
ENDBRANCH   1   7
TORSDOF 5
ENDMDL
