MODEL 1
REMARK VINA RESULT: -5.586210961      0.000      0.000
REMARK  5 active torsions:
REMARK  status: ('A' for Active; 'I' for Inactive)
REMARK    1  A    between atoms: C1_2  and  C2_4 
REMARK    2  A    between atoms: C2_4  and  O3_5 
REMARK    3  A    between atoms: C2_4  and  C3_7 
REMARK    4  A    between atoms: C3_7  and  O4_8 
REMARK    5  A    between atoms: C3_7  and  C4_10 
ROOT
HETATM    1  C2  UNL     1      10.415  18.717 -10.039  1.00  0.00     0.258 C 
ENDROOT
BRANCH   1   2
HETATM    2  C1  UNL     1       9.643  17.736  -9.237  1.00  0.00     0.206 C 
HETATM    3  O1  UNL     1       8.994  16.817  -9.797  1.00  0.00    -0.646 OA
HETATM    4  O2  UNL     1       9.603  17.790  -7.852  1.00  0.00    -0.646 OA
ENDBRANCH   1   2
BRANCH   1   5
HETATM    5  O3  UNL     1      11.690  18.837  -9.502  1.00  0.00    -0.382 OA
ATOM      6  H3  UNL     1      12.311  18.409 -10.080  1.00  0.00     0.210 HD
ENDBRANCH   1   5
BRANCH   1   7
HETATM    7  C3  UNL     1       9.755  20.080 -10.046  1.00  0.00     0.258 C 
BRANCH   7   8
HETATM    8  O4  UNL     1       8.641  20.133  -9.237  1.00  0.00    -0.382 OA
ATOM      9  H4  UNL     1       7.991  20.751  -9.551  1.00  0.00     0.210 HD
ENDBRANCH   7   8
BRANCH   7  10
HETATM   10  C4  UNL     1      10.760  21.055  -9.539  1.00  0.00     0.206 C 
HETATM   11  O5  UNL     1      10.860  21.370  -8.323  1.00  0.00    -0.646 OA
HETATM   12  O6  UNL     1      11.641  21.662 -10.431  1.00  0.00    -0.646 OA
ENDBRANCH   7  10
ENDBRANCH   1   7
TORSDOF 5
ENDMDL
