MODEL 7
REMARK VINA RESULT: -6.406704999      4.779      6.567
REMARK  3 active torsions:
REMARK  status: ('A' for Active; 'I' for Inactive)
REMARK    1  A    between atoms: C2_7  and  S1_8 
REMARK    2  A    between atoms: S1_8  and  C3_9 
REMARK    3  A    between atoms: C3_9  and  C4_10 
ROOT
HETATM    1  S1  UNL     1      -4.716  41.720  -3.850  1.00  0.00    -0.088 SA
ENDROOT
BRANCH   1   2
HETATM    2  C2  UNL     1      -6.401  41.930  -3.319  1.00  0.00     0.161 A 
HETATM    3  N3  UNL     1      -7.324  41.015  -3.067  1.00  0.00    -0.277 N 
HETATM    4  N2  UNL     1      -8.421  41.639  -2.699  1.00  0.00    -0.271 N 
ATOM      5  H3  UNL     1      -7.205  40.004  -3.145  1.00  0.00     0.189 HD
HETATM    6  C1  UNL     1      -8.198  42.963  -2.715  1.00  0.00     0.209 A 
ATOM      7  H2  UNL     1      -9.301  41.189  -2.444  1.00  0.00     0.189 HD
HETATM    8  N1  UNL     1      -9.106  43.992  -2.391  1.00  0.00    -0.062 NA
HETATM    9  N4  UNL     1      -6.931  43.147  -3.104  1.00  0.00    -0.309 N 
ATOM     10  H4  UNL     1      -6.456  44.043  -3.216  1.00  0.00     0.170 HD
ENDBRANCH   1   2
BRANCH   1  11
HETATM   11  C3  UNL     1      -4.152  43.015  -4.971  1.00  0.00     0.122 C 
BRANCH  11  12
HETATM   12  C4  UNL     1      -3.100  43.854  -4.359  1.00  0.00    -0.027 A 
HETATM   13  C5  UNL     1      -2.584  43.704  -3.108  1.00  0.00     0.011 A 
HETATM   14  C6  UNL     1      -1.606  44.538  -2.564  1.00  0.00     0.024 A 
HETATM   15  C7  UNL     1      -1.137  45.572  -3.339  1.00  0.00     0.035 A 
HETATM   16 CL1  UNL     1       0.092  46.647  -2.704  1.00  0.00    -0.084 Cl
HETATM   17  C8  UNL     1      -1.642  45.748  -4.610  1.00  0.00     0.048 A 
HETATM   18  C9  UNL     1      -2.608  44.915  -5.133  1.00  0.00     0.042 A 
HETATM   19 CL2  UNL     1      -3.246  45.150  -6.757  1.00  0.00    -0.084 Cl
ENDBRANCH  11  12
ENDBRANCH   1  11
TORSDOF 3
ENDMDL
