MODEL 1
REMARK VINA RESULT: -8.335835947      0.000      0.000
REMARK  3 active torsions:
REMARK  status: ('A' for Active; 'I' for Inactive)
REMARK    1  A    between atoms: C2_7  and  S1_8 
REMARK    2  A    between atoms: S1_8  and  C3_9 
REMARK    3  A    between atoms: C3_9  and  C4_10 
ROOT
HETATM    1  S1  UNL     1     -10.009  44.181  -3.531  1.00  0.00    -0.088 SA
ENDROOT
BRANCH   1   2
HETATM    2  C2  UNL     1      -8.500  43.258  -3.338  1.00  0.00     0.161 A 
HETATM    3  N3  UNL     1      -8.328  41.969  -3.087  1.00  0.00    -0.277 N 
HETATM    4  N2  UNL     1      -7.035  41.738  -3.032  1.00  0.00    -0.271 N 
ATOM      5  H3  UNL     1      -9.068  41.278  -2.960  1.00  0.00     0.189 HD
HETATM    6  C1  UNL     1      -6.374  42.887  -3.249  1.00  0.00     0.209 A 
ATOM      7  H2  UNL     1      -6.603  40.831  -2.852  1.00  0.00     0.189 HD
HETATM    8  N1  UNL     1      -4.979  43.085  -3.275  1.00  0.00    -0.062 NA
HETATM    9  N4  UNL     1      -7.293  43.841  -3.440  1.00  0.00    -0.309 N 
ATOM     10  H4  UNL     1      -7.111  44.827  -3.629  1.00  0.00     0.170 HD
ENDBRANCH   1   2
BRANCH   1  11
HETATM   11  C3  UNL     1     -10.003  45.269  -4.968  1.00  0.00     0.122 C 
BRANCH  11  12
HETATM   12  C4  UNL     1      -9.997  46.696  -4.580  1.00  0.00    -0.027 A 
HETATM   13  C5  UNL     1     -10.962  47.333  -3.861  1.00  0.00     0.011 A 
HETATM   14  C6  UNL     1     -10.924  48.690  -3.539  1.00  0.00     0.024 A 
HETATM   15  C7  UNL     1      -9.848  49.426  -3.973  1.00  0.00     0.035 A 
HETATM   16 CL1  UNL     1      -9.750  51.134  -3.594  1.00  0.00    -0.084 Cl
HETATM   17  C8  UNL     1      -8.855  48.806  -4.704  1.00  0.00     0.048 A 
HETATM   18  C9  UNL     1      -8.907  47.465  -5.014  1.00  0.00     0.042 A 
HETATM   19 CL2  UNL     1      -7.635  46.684  -5.948  1.00  0.00    -0.084 Cl
ENDBRANCH  11  12
ENDBRANCH   1  11
TORSDOF 3
ENDMDL
