MODEL 13
REMARK VINA RESULT: -5.907578086      5.338      7.389
REMARK  3 active torsions:
REMARK  status: ('A' for Active; 'I' for Inactive)
REMARK    1  A    between atoms: C2_7  and  S1_8 
REMARK    2  A    between atoms: S1_8  and  C3_9 
REMARK    3  A    between atoms: C3_9  and  C4_10 
ROOT
HETATM    1  S1  UNL     1      -4.828  41.894  -4.154  1.00  0.00    -0.088 SA
ENDROOT
BRANCH   1   2
HETATM    2  C2  UNL     1      -6.460  42.031  -3.456  1.00  0.00     0.161 A 
HETATM    3  N3  UNL     1      -7.309  41.075  -3.109  1.00  0.00    -0.277 N 
HETATM    4  N2  UNL     1      -8.392  41.651  -2.635  1.00  0.00    -0.271 N 
ATOM      5  H3  UNL     1      -7.151  40.071  -3.194  1.00  0.00     0.189 HD
HETATM    6  C1  UNL     1      -8.234  42.984  -2.678  1.00  0.00     0.209 A 
ATOM      7  H2  UNL     1      -9.219  41.164  -2.291  1.00  0.00     0.189 HD
HETATM    8  N1  UNL     1      -9.152  43.973  -2.269  1.00  0.00    -0.062 NA
HETATM    9  N4  UNL     1      -7.022  43.223  -3.194  1.00  0.00    -0.309 N 
ATOM     10  H4  UNL     1      -6.604  44.139  -3.357  1.00  0.00     0.170 HD
ENDBRANCH   1   2
BRANCH   1  11
HETATM   11  C3  UNL     1      -4.009  43.484  -4.374  1.00  0.00     0.122 C 
BRANCH  11  12
HETATM   12  C4  UNL     1      -3.175  43.511  -5.595  1.00  0.00    -0.027 A 
HETATM   13  C5  UNL     1      -3.605  43.822  -6.849  1.00  0.00     0.011 A 
HETATM   14  C6  UNL     1      -2.784  43.812  -7.978  1.00  0.00     0.024 A 
HETATM   15  C7  UNL     1      -1.464  43.466  -7.812  1.00  0.00     0.035 A 
HETATM   16 CL1  UNL     1      -0.390  43.438  -9.196  1.00  0.00    -0.084 Cl
HETATM   17  C8  UNL     1      -1.002  43.146  -6.552  1.00  0.00     0.048 A 
HETATM   18  C9  UNL     1      -1.825  43.161  -5.447  1.00  0.00     0.042 A 
HETATM   19 CL2  UNL     1      -1.224  42.750  -3.844  1.00  0.00    -0.084 Cl
ENDBRANCH  11  12
ENDBRANCH   1  11
TORSDOF 3
ENDMDL
