MODEL 11
REMARK VINA RESULT: -6.128398021      4.912      6.341
REMARK  3 active torsions:
REMARK  status: ('A' for Active; 'I' for Inactive)
REMARK    1  A    between atoms: C2_7  and  S1_8 
REMARK    2  A    between atoms: S1_8  and  C3_9 
REMARK    3  A    between atoms: C3_9  and  C4_10 
ROOT
HETATM    1  S1  UNL     1      -4.952  41.599  -4.220  1.00  0.00    -0.088 SA
ENDROOT
BRANCH   1   2
HETATM    2  C2  UNL     1      -6.548  41.847  -3.473  1.00  0.00     0.161 A 
HETATM    3  N3  UNL     1      -7.480  40.957  -3.166  1.00  0.00    -0.277 N 
HETATM    4  N2  UNL     1      -8.492  41.603  -2.629  1.00  0.00    -0.271 N 
ATOM      5  H3  UNL     1      -7.423  39.950  -3.319  1.00  0.00     0.189 HD
HETATM    6  C1  UNL     1      -8.205  42.914  -2.591  1.00  0.00     0.209 A 
ATOM      7  H2  UNL     1      -9.356  41.176  -2.295  1.00  0.00     0.189 HD
HETATM    8  N1  UNL     1      -9.013  43.958  -2.095  1.00  0.00    -0.062 NA
HETATM    9  N4  UNL     1      -6.985  43.068  -3.121  1.00  0.00    -0.309 N 
ATOM     10  H4  UNL     1      -6.482  43.948  -3.236  1.00  0.00     0.170 HD
ENDBRANCH   1   2
BRANCH   1  11
HETATM   11  C3  UNL     1      -3.664  42.649  -3.521  1.00  0.00     0.122 C 
BRANCH  11  12
HETATM   12  C4  UNL     1      -3.282  43.741  -4.442  1.00  0.00    -0.027 A 
HETATM   13  C5  UNL     1      -3.784  43.945  -5.691  1.00  0.00     0.011 A 
HETATM   14  C6  UNL     1      -3.374  44.979  -6.534  1.00  0.00     0.024 A 
HETATM   15  C7  UNL     1      -2.406  45.840  -6.076  1.00  0.00     0.035 A 
HETATM   16 CL1  UNL     1      -1.857  47.155  -7.095  1.00  0.00    -0.084 Cl
HETATM   17  C8  UNL     1      -1.879  45.656  -4.814  1.00  0.00     0.048 A 
HETATM   18  C9  UNL     1      -2.295  44.630  -3.993  1.00  0.00     0.042 A 
HETATM   19 CL2  UNL     1      -1.615  44.404  -2.384  1.00  0.00    -0.084 Cl
ENDBRANCH  11  12
ENDBRANCH   1  11
TORSDOF 3
ENDMDL
