MODEL 16
REMARK VINA RESULT: -5.834726106      2.070      2.604
REMARK  3 active torsions:
REMARK  status: ('A' for Active; 'I' for Inactive)
REMARK    1  A    between atoms: C2_7  and  S1_8 
REMARK    2  A    between atoms: S1_8  and  C3_9 
REMARK    3  A    between atoms: C3_9  and  C4_10 
ROOT
HETATM    1  S1  UNL     1     -10.597  44.906  -6.492  1.00  0.00    -0.088 SA
ENDROOT
BRANCH   1   2
HETATM    2  C2  UNL     1     -10.438  44.683  -4.734  1.00  0.00     0.161 A 
HETATM    3  N3  UNL     1     -11.320  44.917  -3.773  1.00  0.00    -0.277 N 
HETATM    4  N2  UNL     1     -10.759  44.602  -2.626  1.00  0.00    -0.271 N 
ATOM      5  H3  UNL     1     -12.265  45.278  -3.900  1.00  0.00     0.189 HD
HETATM    6  C1  UNL     1      -9.511  44.162  -2.855  1.00  0.00     0.209 A 
ATOM      7  H2  UNL     1     -11.201  44.679  -1.710  1.00  0.00     0.189 HD
HETATM    8  N1  UNL     1      -8.565  43.725  -1.904  1.00  0.00    -0.062 NA
HETATM    9  N4  UNL     1      -9.308  44.214  -4.177  1.00  0.00    -0.309 N 
ATOM     10  H4  UNL     1      -8.456  43.946  -4.669  1.00  0.00     0.170 HD
ENDBRANCH   1   2
BRANCH   1  11
HETATM   11  C3  UNL     1      -9.661  46.310  -7.124  1.00  0.00     0.122 C 
BRANCH  11  12
HETATM   12  C4  UNL     1      -9.674  47.451  -6.183  1.00  0.00    -0.027 A 
HETATM   13  C5  UNL     1     -10.702  48.324  -6.000  1.00  0.00     0.011 A 
HETATM   14  C6  UNL     1     -10.660  49.402  -5.115  1.00  0.00     0.024 A 
HETATM   15  C7  UNL     1      -9.511  49.593  -4.386  1.00  0.00     0.035 A 
HETATM   16 CL1  UNL     1      -9.405  50.931  -3.260  1.00  0.00    -0.084 Cl
HETATM   17  C8  UNL     1      -8.452  48.723  -4.552  1.00  0.00     0.048 A 
HETATM   18  C9  UNL     1      -8.510  47.663  -5.430  1.00  0.00     0.042 A 
HETATM   19 CL2  UNL     1      -7.153  46.560  -5.633  1.00  0.00    -0.084 Cl
ENDBRANCH  11  12
ENDBRANCH   1  11
TORSDOF 3
ENDMDL
