MODEL 14
REMARK VINA RESULT: -9.238029232      5.847      8.731
REMARK  4 active torsions:
REMARK  status: ('A' for Active; 'I' for Inactive)
REMARK    1  A    between atoms: O1_2  and  C2_3 
REMARK    2  A    between atoms: C6_9  and  C7_10 
REMARK       I    between atoms: C7_10  and  N2_12 
REMARK    3  A    between atoms: N2_12  and  S1_14 
REMARK    4  A    between atoms: S1_14  and  C8_17 
ROOT
HETATM    1  C7  UNL     1      16.221   9.890   2.975  1.00  0.00     0.281 C 
HETATM    2  O2  UNL     1      16.068   8.917   2.176  1.00  0.00    -0.265 OA
HETATM    3  N2  UNL     1      16.851  11.027   2.441  1.00  0.00    -0.244 N 
ATOM      4  H2  UNL     1      16.989  11.833   3.051  1.00  0.00     0.182 HD
ENDROOT
BRANCH   1   5
HETATM    5  C6  UNL     1      15.737   9.735   4.334  1.00  0.00     0.103 A 
HETATM    6  N1  UNL     1      16.163   8.805   5.196  1.00  0.00    -0.351 N 
HETATM    7  C5  UNL     1      15.543   8.895   6.389  1.00  0.00     0.043 A 
ATOM      8  H1  UNL     1      16.875   8.108   4.976  1.00  0.00     0.166 HD
HETATM    9  C4  UNL     1      15.612   8.206   7.570  1.00  0.00     0.033 A 
HETATM   10  C15 UNL     1      14.666   9.962   6.260  1.00  0.00    -0.004 A 
HETATM   11  C3  UNL     1      14.841   8.530   8.641  1.00  0.00     0.039 A 
HETATM   12  C2  UNL     1      13.970   9.596   8.497  1.00  0.00     0.069 A 
HETATM   13  C16 UNL     1      13.881  10.301   7.331  1.00  0.00     0.050 A 
HETATM   14  C14 UNL     1      14.779  10.489   4.987  1.00  0.00     0.049 A 
BRANCH  12  15
HETATM   15  O1  UNL     1      13.164   9.958   9.571  1.00  0.00    -0.356 OA
HETATM   16  C1  UNL     1      13.336  11.175  10.269  1.00  0.00     0.210 C 
ENDBRANCH  12  15
ENDBRANCH   1   5
BRANCH   3  17
HETATM   17  S1  UNL     1      17.400  11.133   0.814  1.00  0.00     0.281 S 
HETATM   18  O3  UNL     1      18.622  10.289   0.582  1.00  0.00    -0.199 OA
HETATM   19  O4  UNL     1      17.797  12.559   0.547  1.00  0.00    -0.199 OA
BRANCH  17  20
HETATM   20  C8  UNL     1      16.170  10.705  -0.349  1.00  0.00     0.149 A 
HETATM   21  C9  UNL     1      16.410  10.187  -1.584  1.00  0.00     0.044 A 
HETATM   22  C10 UNL     1      15.335   9.884  -2.421  1.00  0.00     0.011 A 
HETATM   23  C11 UNL     1      14.031  10.094  -2.033  1.00  0.00    -0.046 A 
HETATM   24  C12 UNL     1      12.923   9.766  -2.934  1.00  0.00     0.049 C 
HETATM   25  C13 UNL     1      13.835  10.620  -0.777  1.00  0.00     0.095 A 
HETATM   26  N3  UNL     1      14.875  10.908   0.020  1.00  0.00    -0.355 N 
ATOM     27  H3  UNL     1      14.687  11.296   0.944  1.00  0.00     0.166 HD
ENDBRANCH  17  20
ENDBRANCH   3  17
TORSDOF 4
ENDMDL
