MODEL 4
REMARK VINA RESULT: -9.709301420      2.528      3.492
REMARK  4 active torsions:
REMARK  status: ('A' for Active; 'I' for Inactive)
REMARK    1  A    between atoms: O1_2  and  C2_3 
REMARK    2  A    between atoms: C6_9  and  C7_10 
REMARK       I    between atoms: C7_10  and  N2_12 
REMARK    3  A    between atoms: N2_12  and  S1_14 
REMARK    4  A    between atoms: S1_14  and  C8_17 
ROOT
HETATM    1  C7  UNL     1      15.851  10.287   0.733  1.00  0.00     0.281 C 
HETATM    2  O2  UNL     1      16.466  11.365   0.998  1.00  0.00    -0.265 OA
HETATM    3  N2  UNL     1      15.781   9.349   1.776  1.00  0.00    -0.244 N 
ATOM      4  H2  UNL     1      15.291   8.471   1.604  1.00  0.00     0.182 HD
ENDROOT
BRANCH   1   5
HETATM    5  C6  UNL     1      15.293  10.135  -0.598  1.00  0.00     0.103 A 
HETATM    6  N1  UNL     1      15.996  10.194  -1.735  1.00  0.00    -0.351 N 
HETATM    7  C5  UNL     1      15.220  10.016  -2.822  1.00  0.00     0.043 A 
ATOM      8  H1  UNL     1      17.002  10.355  -1.773  1.00  0.00     0.166 HD
HETATM    9  C4  UNL     1      15.440   9.987  -4.173  1.00  0.00     0.033 A 
HETATM   10  C15 UNL     1      13.938   9.832  -2.324  1.00  0.00    -0.004 A 
HETATM   11  C3  UNL     1      14.434   9.782  -5.064  1.00  0.00     0.039 A 
HETATM   12  C2  UNL     1      13.160   9.600  -4.553  1.00  0.00     0.069 A 
HETATM   13  C16 UNL     1      12.913   9.624  -3.210  1.00  0.00     0.050 A 
HETATM   14  C14 UNL     1      13.974   9.905  -0.945  1.00  0.00     0.049 A 
BRANCH  12  15
HETATM   15  O1  UNL     1      12.105   9.388  -5.433  1.00  0.00    -0.356 OA
HETATM   16  C1  UNL     1      10.753   9.493  -5.032  1.00  0.00     0.210 C 
ENDBRANCH  12  15
ENDBRANCH   1   5
BRANCH   3  17
HETATM   17  S1  UNL     1      16.475   9.603   3.330  1.00  0.00     0.281 S 
HETATM   18  O3  UNL     1      16.035   8.557   4.316  1.00  0.00    -0.199 OA
HETATM   19  O4  UNL     1      15.984  10.927   3.849  1.00  0.00    -0.199 OA
BRANCH  17  20
HETATM   20  C8  UNL     1      18.219   9.670   3.294  1.00  0.00     0.149 A 
HETATM   21  C9  UNL     1      19.014   9.892   4.375  1.00  0.00     0.044 A 
HETATM   22  C10 UNL     1      20.400   9.919   4.214  1.00  0.00     0.011 A 
HETATM   23  C11 UNL     1      20.991   9.726   2.985  1.00  0.00    -0.046 A 
HETATM   24  C12 UNL     1      22.449   9.760   2.846  1.00  0.00     0.049 C 
HETATM   25  C13 UNL     1      20.150   9.506   1.920  1.00  0.00     0.095 A 
HETATM   26  N3  UNL     1      18.819   9.482   2.086  1.00  0.00    -0.355 N 
ATOM     27  H3  UNL     1      18.230   9.316   1.270  1.00  0.00     0.166 HD
ENDBRANCH  17  20
ENDBRANCH   3  17
TORSDOF 4
ENDMDL
