MODEL 13
REMARK VINA RESULT: -9.317319100      2.149      9.003
REMARK  4 active torsions:
REMARK  status: ('A' for Active; 'I' for Inactive)
REMARK    1  A    between atoms: O1_2  and  C2_3 
REMARK    2  A    between atoms: C6_9  and  C7_10 
REMARK       I    between atoms: C7_10  and  N2_12 
REMARK    3  A    between atoms: N2_12  and  S1_14 
REMARK    4  A    between atoms: S1_14  and  C8_17 
ROOT
HETATM    1  C7  UNL     1      19.738  10.300   0.510  1.00  0.00     0.281 C 
HETATM    2  O2  UNL     1      19.913  11.295  -0.258  1.00  0.00    -0.265 OA
HETATM    3  N2  UNL     1      18.446  10.158   1.044  1.00  0.00    -0.244 N 
ATOM      4  H2  UNL     1      18.264   9.368   1.663  1.00  0.00     0.182 HD
ENDROOT
BRANCH   1   5
HETATM    5  C6  UNL     1      20.869   9.424   0.752  1.00  0.00     0.103 A 
HETATM    6  N1  UNL     1      21.789   9.091  -0.160  1.00  0.00    -0.351 N 
HETATM    7  C5  UNL     1      22.728   8.265   0.343  1.00  0.00     0.043 A 
ATOM      8  H1  UNL     1      21.781   9.424  -1.124  1.00  0.00     0.166 HD
HETATM    9  C4  UNL     1      23.846   7.653  -0.157  1.00  0.00     0.033 A 
HETATM   10  C15 UNL     1      22.365   8.069   1.667  1.00  0.00    -0.004 A 
HETATM   11  C3  UNL     1      24.629   6.845   0.605  1.00  0.00     0.039 A 
HETATM   12  C2  UNL     1      24.254   6.659   1.925  1.00  0.00     0.069 A 
HETATM   13  C16 UNL     1      23.144   7.257   2.450  1.00  0.00     0.050 A 
HETATM   14  C14 UNL     1      21.212   8.784   1.930  1.00  0.00     0.049 A 
BRANCH  12  15
HETATM   15  O1  UNL     1      25.030   5.840   2.737  1.00  0.00    -0.356 OA
HETATM   16  C1  UNL     1      25.157   6.056   4.128  1.00  0.00     0.210 C 
ENDBRANCH  12  15
ENDBRANCH   1   5
BRANCH   3  17
HETATM   17  S1  UNL     1      17.156  11.246   0.709  1.00  0.00     0.281 S 
HETATM   18  O3  UNL     1      17.649  12.651   0.504  1.00  0.00    -0.199 OA
HETATM   19  O4  UNL     1      16.245  11.272   1.907  1.00  0.00    -0.199 OA
BRANCH  17  20
HETATM   20  C8  UNL     1      16.196  10.760  -0.667  1.00  0.00     0.149 A 
HETATM   21  C9  UNL     1      16.690  10.196  -1.802  1.00  0.00     0.044 A 
HETATM   22  C10 UNL     1      15.814   9.849  -2.832  1.00  0.00     0.011 A 
HETATM   23  C11 UNL     1      14.458  10.062  -2.734  1.00  0.00    -0.046 A 
HETATM   24  C12 UNL     1      13.563   9.688  -3.832  1.00  0.00     0.049 C 
HETATM   25  C13 UNL     1      14.003  10.636  -1.570  1.00  0.00     0.095 A 
HETATM   26  N3  UNL     1      14.853  10.965  -0.585  1.00  0.00    -0.355 N 
ATOM     27  H3  UNL     1      14.475  11.388   0.262  1.00  0.00     0.166 HD
ENDBRANCH  17  20
ENDBRANCH   3  17
TORSDOF 4
ENDMDL
