MODEL 12
REMARK VINA RESULT: -9.405082838      3.226      4.167
REMARK  4 active torsions:
REMARK  status: ('A' for Active; 'I' for Inactive)
REMARK    1  A    between atoms: O1_2  and  C2_3 
REMARK    2  A    between atoms: C6_9  and  C7_10 
REMARK       I    between atoms: C7_10  and  N2_12 
REMARK    3  A    between atoms: N2_12  and  S1_14 
REMARK    4  A    between atoms: S1_14  and  C8_17 
ROOT
HETATM    1  C7  UNL     1      15.641  10.912   1.043  1.00  0.00     0.281 C 
HETATM    2  O2  UNL     1      16.745  11.529   1.145  1.00  0.00    -0.265 OA
HETATM    3  N2  UNL     1      14.991  10.614   2.253  1.00  0.00    -0.244 N 
ATOM      4  H2  UNL     1      14.099  10.122   2.213  1.00  0.00     0.182 HD
ENDROOT
BRANCH   1   5
HETATM    5  C6  UNL     1      15.168  10.584  -0.289  1.00  0.00     0.103 A 
HETATM    6  N1  UNL     1      15.949  10.456  -1.368  1.00  0.00    -0.351 N 
HETATM    7  C5  UNL     1      15.242  10.143  -2.472  1.00  0.00     0.043 A 
ATOM      8  H1  UNL     1      16.961  10.580  -1.356  1.00  0.00     0.166 HD
HETATM    9  C4  UNL     1      15.552   9.911  -3.785  1.00  0.00     0.033 A 
HETATM   10  C15 UNL     1      13.923  10.071  -2.048  1.00  0.00    -0.004 A 
HETATM   11  C3  UNL     1      14.602   9.607  -4.709  1.00  0.00     0.039 A 
HETATM   12  C2  UNL     1      13.290   9.538  -4.271  1.00  0.00     0.069 A 
HETATM   13  C16 UNL     1      12.953   9.766  -2.967  1.00  0.00     0.050 A 
HETATM   14  C14 UNL     1      13.868  10.343  -0.695  1.00  0.00     0.049 A 
BRANCH  12  15
HETATM   15  O1  UNL     1      12.290   9.231  -5.186  1.00  0.00    -0.356 OA
HETATM   16  C1  UNL     1      10.917   9.296  -4.856  1.00  0.00     0.210 C 
ENDBRANCH  12  15
ENDBRANCH   1   5
BRANCH   3  17
HETATM   17  S1  UNL     1      15.621  11.036   3.798  1.00  0.00     0.281 S 
HETATM   18  O3  UNL     1      14.618  10.802   4.892  1.00  0.00    -0.199 OA
HETATM   19  O4  UNL     1      15.925  12.510   3.790  1.00  0.00    -0.199 OA
BRANCH  17  20
HETATM   20  C8  UNL     1      17.104  10.197   4.180  1.00  0.00     0.149 A 
HETATM   21  C9  UNL     1      17.211   9.160   5.052  1.00  0.00     0.044 A 
HETATM   22  C10 UNL     1      18.457   8.570   5.269  1.00  0.00     0.011 A 
HETATM   23  C11 UNL     1      19.590   9.011   4.623  1.00  0.00    -0.046 A 
HETATM   24  C12 UNL     1      20.885   8.373   4.871  1.00  0.00     0.049 C 
HETATM   25  C13 UNL     1      19.436  10.063   3.750  1.00  0.00     0.095 A 
HETATM   26  N3  UNL     1      18.233  10.622   3.549  1.00  0.00    -0.355 N 
ATOM     27  H3  UNL     1      18.162  11.400   2.893  1.00  0.00     0.166 HD
ENDBRANCH  17  20
ENDBRANCH   3  17
TORSDOF 4
ENDMDL
