MODEL 16
REMARK VINA RESULT: -9.105112376      2.660      9.230
REMARK  4 active torsions:
REMARK  status: ('A' for Active; 'I' for Inactive)
REMARK    1  A    between atoms: O1_2  and  C2_3 
REMARK    2  A    between atoms: C6_9  and  C7_10 
REMARK       I    between atoms: C7_10  and  N2_12 
REMARK    3  A    between atoms: N2_12  and  S1_14 
REMARK    4  A    between atoms: S1_14  and  C8_17 
ROOT
HETATM    1  C7  UNL     1      19.013   9.969   2.232  1.00  0.00     0.281 C 
HETATM    2  O2  UNL     1      18.896  11.014   2.943  1.00  0.00    -0.265 OA
HETATM    3  N2  UNL     1      18.188   9.906   1.096  1.00  0.00    -0.244 N 
ATOM      4  H2  UNL     1      18.254   9.083   0.497  1.00  0.00     0.182 HD
ENDROOT
BRANCH   1   5
HETATM    5  C6  UNL     1      19.969   8.964   2.656  1.00  0.00     0.103 A 
HETATM    6  N1  UNL     1      20.900   8.413   1.868  1.00  0.00    -0.351 N 
HETATM    7  C5  UNL     1      21.653   7.510   2.527  1.00  0.00     0.043 A 
ATOM      8  H1  UNL     1      21.024   8.648   0.884  1.00  0.00     0.166 HD
HETATM    9  C4  UNL     1      22.700   6.695   2.190  1.00  0.00     0.033 A 
HETATM   10  C15 UNL     1      21.155   7.499   3.821  1.00  0.00    -0.004 A 
HETATM   11  C3  UNL     1      23.282   5.858   3.090  1.00  0.00     0.039 A 
HETATM   12  C2  UNL     1      22.774   5.859   4.378  1.00  0.00     0.069 A 
HETATM   13  C16 UNL     1      21.730   6.661   4.740  1.00  0.00     0.050 A 
HETATM   14  C14 UNL     1      20.109   8.398   3.910  1.00  0.00     0.049 A 
BRANCH  12  15
HETATM   15  O1  UNL     1      23.343   5.017   5.326  1.00  0.00    -0.356 OA
HETATM   16  C1  UNL     1      24.457   5.401   6.109  1.00  0.00     0.210 C 
ENDBRANCH  12  15
ENDBRANCH   1   5
BRANCH   3  17
HETATM   17  S1  UNL     1      17.072  11.143   0.663  1.00  0.00     0.281 S 
HETATM   18  O3  UNL     1      17.766  12.447   0.387  1.00  0.00    -0.199 OA
HETATM   19  O4  UNL     1      16.155  11.374   1.833  1.00  0.00    -0.199 OA
BRANCH  17  20
HETATM   20  C8  UNL     1      16.077  10.712  -0.706  1.00  0.00     0.149 A 
HETATM   21  C9  UNL     1      16.535  10.152  -1.857  1.00  0.00     0.044 A 
HETATM   22  C10 UNL     1      15.633   9.851  -2.880  1.00  0.00     0.011 A 
HETATM   23  C11 UNL     1      14.286  10.106  -2.757  1.00  0.00    -0.046 A 
HETATM   24  C12 UNL     1      13.364   9.780  -3.848  1.00  0.00     0.049 C 
HETATM   25  C13 UNL     1      13.868  10.675  -1.577  1.00  0.00     0.095 A 
HETATM   26  N3  UNL     1      14.742  10.959  -0.601  1.00  0.00    -0.355 N 
ATOM     27  H3  UNL     1      14.392  11.380   0.260  1.00  0.00     0.166 HD
ENDBRANCH  17  20
ENDBRANCH   3  17
TORSDOF 4
ENDMDL
