MODEL 17
REMARK VINA RESULT: -9.275316022      2.237      2.975
REMARK  6 active torsions:
REMARK  status: ('A' for Active; 'I' for Inactive)
REMARK    1  A    between atoms: O1_2  and  C2_3 
REMARK    2  A    between atoms: C9_10  and  C10_11 
REMARK       I    between atoms: C10_11  and  N1_13 
REMARK    3  A    between atoms: N1_13  and  S1_15 
REMARK    4  A    between atoms: S1_15  and  C11_18 
REMARK    5  A    between atoms: N3_26  and  C17_27 
REMARK    6  A    between atoms: C17_27  and  C18_28 
ROOT
HETATM    1  C2  UNL     1      13.576  10.055  -4.149  1.00  0.00     0.069 A 
HETATM    2  C3  UNL     1      14.926  10.057  -4.437  1.00  0.00     0.039 A 
HETATM    3  C4  UNL     1      15.919  10.063  -3.476  1.00  0.00     0.033 A 
HETATM    4  C5  UNL     1      15.522  10.066  -2.151  1.00  0.00     0.046 A 
HETATM    5  C6  UNL     1      14.185  10.065  -1.840  1.00  0.00    -0.004 A 
HETATM    6  C7  UNL     1      13.212  10.059  -2.827  1.00  0.00     0.050 A 
HETATM    7  C8  UNL     1      14.146  10.072  -0.466  1.00  0.00     0.049 A 
HETATM    8  C9  UNL     1      15.466  10.079   0.046  1.00  0.00     0.105 A 
HETATM    9  N3  UNL     1      16.279  10.077  -0.998  1.00  0.00    -0.332 N 
ENDROOT
BRANCH   8  10
HETATM   10  C10 UNL     1      15.737  10.121   1.474  1.00  0.00     0.281 C 
HETATM   11  O2  UNL     1      15.144  11.027   2.192  1.00  0.00    -0.265 OA
HETATM   12  N1  UNL     1      16.579   9.286   2.219  1.00  0.00    -0.244 N 
ATOM     13  H1  UNL     1      17.080   8.538   1.741  1.00  0.00     0.182 HD
BRANCH  12  14
HETATM   14  S1  UNL     1      16.802   9.487   3.937  1.00  0.00     0.281 S 
HETATM   15  O3  UNL     1      16.663  10.977   4.218  1.00  0.00    -0.199 OA
HETATM   16  O4  UNL     1      15.722   8.793   4.708  1.00  0.00    -0.199 OA
BRANCH  14  17
HETATM   17  C11 UNL     1      18.343   8.947   4.485  1.00  0.00     0.149 A 
HETATM   18  C12 UNL     1      19.407   9.856   4.476  1.00  0.00     0.044 A 
HETATM   19  C13 UNL     1      20.671   9.525   4.892  1.00  0.00     0.011 A 
HETATM   20  C14 UNL     1      20.920   8.245   5.341  1.00  0.00    -0.046 A 
HETATM   21  C15 UNL     1      22.297   7.843   5.804  1.00  0.00     0.049 C 
HETATM   22  C16 UNL     1      19.858   7.373   5.339  1.00  0.00     0.095 A 
HETATM   23  N2  UNL     1      18.617   7.718   4.924  1.00  0.00    -0.355 N 
ATOM     24  H2  UNL     1      17.873   7.021   4.949  1.00  0.00     0.166 HD
ENDBRANCH  14  17
ENDBRANCH  12  14
ENDBRANCH   8  10
BRANCH   9  25
HETATM   25  C17 UNL     1      17.740  10.114  -1.023  1.00  0.00     0.242 C 
BRANCH  25  26
HETATM   26  C18 UNL     1      18.234  11.241  -0.222  1.00  0.00     0.191 C 
HETATM   27  O5  UNL     1      18.114  12.404  -0.642  1.00  0.00    -0.647 OA
HETATM   28  O6  UNL     1      18.831  11.006   0.995  1.00  0.00    -0.647 OA
ENDBRANCH  25  26
ENDBRANCH   9  25
BRANCH   1  29
HETATM   29  O1  UNL     1      12.606  10.049  -5.170  1.00  0.00    -0.356 OA
HETATM   30  C1  UNL     1      11.346   9.498  -4.837  1.00  0.00     0.210 C 
ENDBRANCH   1  29
TORSDOF 6
ENDMDL
