MODEL 10
REMARK VINA RESULT: -9.461650260      2.138      8.004
REMARK  6 active torsions:
REMARK  status: ('A' for Active; 'I' for Inactive)
REMARK    1  A    between atoms: O1_2  and  C2_3 
REMARK    2  A    between atoms: C9_10  and  C10_11 
REMARK       I    between atoms: C10_11  and  N1_13 
REMARK    3  A    between atoms: N1_13  and  S1_15 
REMARK    4  A    between atoms: S1_15  and  C11_18 
REMARK    5  A    between atoms: N3_26  and  C17_27 
REMARK    6  A    between atoms: C17_27  and  C18_28 
ROOT
HETATM    1  C2  UNL     1      14.709   9.383   7.797  1.00  0.00     0.069 A 
HETATM    2  C3  UNL     1      15.842   8.597   7.779  1.00  0.00     0.039 A 
HETATM    3  C4  UNL     1      16.708   8.514   6.705  1.00  0.00     0.033 A 
HETATM    4  C5  UNL     1      16.407   9.271   5.587  1.00  0.00     0.046 A 
HETATM    5  C6  UNL     1      15.285  10.061   5.580  1.00  0.00    -0.004 A 
HETATM    6  C7  UNL     1      14.436  10.122   6.674  1.00  0.00     0.050 A 
HETATM    7  C8  UNL     1      15.286  10.660   4.343  1.00  0.00     0.049 A 
HETATM    8  C9  UNL     1      16.415  10.225   3.607  1.00  0.00     0.105 A 
HETATM    9  N3  UNL     1      17.076   9.383   4.385  1.00  0.00    -0.332 N 
ENDROOT
BRANCH   8  10
HETATM   10  C10 UNL     1      16.663  10.670   2.245  1.00  0.00     0.281 C 
HETATM   11  O2  UNL     1      16.030  11.717   1.809  1.00  0.00    -0.265 OA
HETATM   12  N1  UNL     1      17.524  10.107   1.295  1.00  0.00    -0.244 N 
ATOM     13  H1  UNL     1      18.071   9.286   1.551  1.00  0.00     0.182 HD
BRANCH  12  14
HETATM   14  S1  UNL     1      17.690  10.765  -0.312  1.00  0.00     0.281 S 
HETATM   15  O3  UNL     1      17.979  12.250  -0.141  1.00  0.00    -0.199 OA
HETATM   16  O4  UNL     1      18.865  10.169  -1.023  1.00  0.00    -0.199 OA
BRANCH  14  17
HETATM   17  C11 UNL     1      16.272  10.568  -1.270  1.00  0.00     0.149 A 
HETATM   18  C12 UNL     1      16.379   9.872  -2.480  1.00  0.00     0.044 A 
HETATM   19  C13 UNL     1      15.310   9.661  -3.313  1.00  0.00     0.011 A 
HETATM   20  C14 UNL     1      14.071  10.149  -2.957  1.00  0.00    -0.046 A 
HETATM   21  C15 UNL     1      12.873   9.939  -3.847  1.00  0.00     0.049 C 
HETATM   22  C16 UNL     1      13.994  10.829  -1.764  1.00  0.00     0.095 A 
HETATM   23  N2  UNL     1      15.060  11.027  -0.956  1.00  0.00    -0.355 N 
ATOM     24  H2  UNL     1      14.934  11.539  -0.083  1.00  0.00     0.166 HD
ENDBRANCH  14  17
ENDBRANCH  12  14
ENDBRANCH   8  10
BRANCH   9  25
HETATM   25  C17 UNL     1      18.293   8.628   4.095  1.00  0.00     0.242 C 
BRANCH  25  26
HETATM   26  C18 UNL     1      19.479   9.443   4.384  1.00  0.00     0.191 C 
HETATM   27  O5  UNL     1      20.139   9.240   5.416  1.00  0.00    -0.647 OA
HETATM   28  O6  UNL     1      19.858  10.433   3.506  1.00  0.00    -0.647 OA
ENDBRANCH  25  26
ENDBRANCH   9  25
BRANCH   1  29
HETATM   29  O1  UNL     1      13.861   9.429   8.921  1.00  0.00    -0.356 OA
HETATM   30  C1  UNL     1      13.312  10.691   9.243  1.00  0.00     0.210 C 
ENDBRANCH   1  29
TORSDOF 6
ENDMDL
