MODEL 14
REMARK VINA RESULT: -9.433615431      3.057      7.874
REMARK  6 active torsions:
REMARK  status: ('A' for Active; 'I' for Inactive)
REMARK    1  A    between atoms: O1_2  and  C2_3 
REMARK    2  A    between atoms: C9_10  and  C10_11 
REMARK       I    between atoms: C10_11  and  N1_13 
REMARK    3  A    between atoms: N1_13  and  S1_15 
REMARK    4  A    between atoms: S1_15  and  C11_18 
REMARK    5  A    between atoms: N3_26  and  C17_27 
REMARK    6  A    between atoms: C17_27  and  C18_28 
ROOT
HETATM    1  C2  UNL     1      21.544   9.678   5.126  1.00  0.00     0.069 A 
HETATM    2  C3  UNL     1      22.100   9.762   3.865  1.00  0.00     0.039 A 
HETATM    3  C4  UNL     1      21.362   9.864   2.702  1.00  0.00     0.033 A 
HETATM    4  C5  UNL     1      19.983   9.882   2.823  1.00  0.00     0.046 A 
HETATM    5  C6  UNL     1      19.407   9.799   4.066  1.00  0.00    -0.004 A 
HETATM    6  C7  UNL     1      20.176   9.698   5.214  1.00  0.00     0.050 A 
HETATM    7  C8  UNL     1      18.054   9.841   3.827  1.00  0.00     0.049 A 
HETATM    8  C9  UNL     1      17.822   9.948   2.435  1.00  0.00     0.105 A 
HETATM    9  N3  UNL     1      19.009   9.970   1.851  1.00  0.00    -0.332 N 
ENDROOT
BRANCH   8  10
HETATM   10  C10 UNL     1      16.477   9.980   1.880  1.00  0.00     0.281 C 
HETATM   11  O2  UNL     1      16.032  11.100   1.396  1.00  0.00    -0.265 OA
HETATM   12  N1  UNL     1      15.555   8.931   1.788  1.00  0.00    -0.244 N 
ATOM     13  H1  UNL     1      15.820   8.009   2.134  1.00  0.00     0.182 HD
BRANCH  12  14
HETATM   14  S1  UNL     1      13.966   9.149   1.101  1.00  0.00     0.281 S 
HETATM   15  O3  UNL     1      13.180   7.887   1.427  1.00  0.00    -0.199 OA
HETATM   16  O4  UNL     1      13.248  10.292   1.747  1.00  0.00    -0.199 OA
BRANCH  14  17
HETATM   17  C11 UNL     1      13.996   9.375  -0.607  1.00  0.00     0.149 A 
HETATM   18  C12 UNL     1      13.187  10.373  -1.159  1.00  0.00     0.044 A 
HETATM   19  C13 UNL     1      13.139  10.632  -2.505  1.00  0.00     0.011 A 
HETATM   20  C14 UNL     1      13.918   9.886  -3.364  1.00  0.00    -0.046 A 
HETATM   21  C15 UNL     1      13.893  10.140  -4.849  1.00  0.00     0.049 C 
HETATM   22  C16 UNL     1      14.705   8.912  -2.794  1.00  0.00     0.095 A 
HETATM   23  N2  UNL     1      14.738   8.671  -1.464  1.00  0.00    -0.355 N 
ATOM     24  H2  UNL     1      15.344   7.933  -1.107  1.00  0.00     0.166 HD
ENDBRANCH  14  17
ENDBRANCH  12  14
ENDBRANCH   8  10
BRANCH   9  25
HETATM   25  C17 UNL     1      19.329  10.037   0.426  1.00  0.00     0.242 C 
BRANCH  25  26
HETATM   26  C18 UNL     1      19.524  11.433   0.014  1.00  0.00     0.191 C 
HETATM   27  O5  UNL     1      20.661  11.933   0.022  1.00  0.00    -0.647 OA
HETATM   28  O6  UNL     1      18.443  12.186  -0.383  1.00  0.00    -0.647 OA
ENDBRANCH  25  26
ENDBRANCH   9  25
BRANCH   1  29
HETATM   29  O1  UNL     1      22.346   9.576   6.279  1.00  0.00    -0.356 OA
HETATM   30  C1  UNL     1      23.208   8.456   6.348  1.00  0.00     0.210 C 
ENDBRANCH   1  29
TORSDOF 6
ENDMDL
