MODEL 4
REMARK VINA RESULT: -9.800759625      1.860      2.544
REMARK  6 active torsions:
REMARK  status: ('A' for Active; 'I' for Inactive)
REMARK    1  A    between atoms: O1_2  and  C2_3 
REMARK    2  A    between atoms: C9_10  and  C10_11 
REMARK       I    between atoms: C10_11  and  N1_13 
REMARK    3  A    between atoms: N1_13  and  S1_15 
REMARK    4  A    between atoms: S1_15  and  C11_18 
REMARK    5  A    between atoms: N3_26  and  C17_27 
REMARK    6  A    between atoms: C17_27  and  C18_28 
ROOT
HETATM    1  C2  UNL     1      13.596  10.079  -4.170  1.00  0.00     0.069 A 
HETATM    2  C3  UNL     1      14.937   9.967  -4.474  1.00  0.00     0.039 A 
HETATM    3  C4  UNL     1      15.946   9.989  -3.531  1.00  0.00     0.033 A 
HETATM    4  C5  UNL     1      15.576  10.135  -2.205  1.00  0.00     0.046 A 
HETATM    5  C6  UNL     1      14.248  10.250  -1.878  1.00  0.00    -0.004 A 
HETATM    6  C7  UNL     1      13.258  10.223  -2.848  1.00  0.00     0.050 A 
HETATM    7  C8  UNL     1      14.235  10.380  -0.510  1.00  0.00     0.049 A 
HETATM    8  C9  UNL     1      15.562  10.344  -0.018  1.00  0.00     0.105 A 
HETATM    9  N3  UNL     1      16.354  10.196  -1.068  1.00  0.00    -0.332 N 
ENDROOT
BRANCH   8  10
HETATM   10  C10 UNL     1      15.862  10.491   1.397  1.00  0.00     0.281 C 
HETATM   11  O2  UNL     1      15.627   9.489   2.190  1.00  0.00    -0.265 OA
HETATM   12  N1  UNL     1      16.393  11.607   2.057  1.00  0.00    -0.244 N 
ATOM     13  H1  UNL     1      16.619  12.439   1.514  1.00  0.00     0.182 HD
BRANCH  12  14
HETATM   14  S1  UNL     1      16.678  11.619   3.778  1.00  0.00     0.281 S 
HETATM   15  O3  UNL     1      17.095  13.039   4.134  1.00  0.00    -0.199 OA
HETATM   16  O4  UNL     1      15.422  11.327   4.538  1.00  0.00    -0.199 OA
BRANCH  14  17
HETATM   17  C11 UNL     1      17.916  10.524   4.263  1.00  0.00     0.149 A 
HETATM   18  C12 UNL     1      17.606   9.552   5.220  1.00  0.00     0.044 A 
HETATM   19  C13 UNL     1      18.521   8.635   5.671  1.00  0.00     0.011 A 
HETATM   20  C14 UNL     1      19.804   8.658   5.169  1.00  0.00    -0.046 A 
HETATM   21  C15 UNL     1      20.837   7.668   5.642  1.00  0.00     0.049 C 
HETATM   22  C16 UNL     1      20.082   9.624   4.230  1.00  0.00     0.095 A 
HETATM   23  N2  UNL     1      19.166  10.520   3.797  1.00  0.00    -0.355 N 
ATOM     24  H2  UNL     1      19.438  11.210   3.098  1.00  0.00     0.166 HD
ENDBRANCH  14  17
ENDBRANCH  12  14
ENDBRANCH   8  10
BRANCH   9  25
HETATM   25  C17 UNL     1      17.813  10.133  -1.115  1.00  0.00     0.242 C 
BRANCH  25  26
HETATM   26  C18 UNL     1      18.396  11.237  -0.342  1.00  0.00     0.191 C 
HETATM   27  O5  UNL     1      18.189  12.413  -0.682  1.00  0.00    -0.647 OA
HETATM   28  O6  UNL     1      19.171  10.964   0.761  1.00  0.00    -0.647 OA
ENDBRANCH  25  26
ENDBRANCH   9  25
BRANCH   1  29
HETATM   29  O1  UNL     1      12.608  10.049  -5.173  1.00  0.00    -0.356 OA
HETATM   30  C1  UNL     1      11.356   9.502  -4.807  1.00  0.00     0.210 C 
ENDBRANCH   1  29
TORSDOF 6
ENDMDL
