MODEL 7
REMARK VINA RESULT: -9.745569423      2.357      8.348
REMARK  6 active torsions:
REMARK  status: ('A' for Active; 'I' for Inactive)
REMARK    1  A    between atoms: O1_2  and  C2_3 
REMARK    2  A    between atoms: C9_10  and  C10_11 
REMARK       I    between atoms: C10_11  and  N1_13 
REMARK    3  A    between atoms: N1_13  and  S1_15 
REMARK    4  A    between atoms: S1_15  and  C11_18 
REMARK    5  A    between atoms: N3_26  and  C17_27 
REMARK    6  A    between atoms: C17_27  and  C18_28 
ROOT
HETATM    1  C2  UNL     1      15.168   8.901   7.651  1.00  0.00     0.069 A 
HETATM    2  C3  UNL     1      13.945   8.480   7.170  1.00  0.00     0.039 A 
HETATM    3  C4  UNL     1      13.565   8.570   5.845  1.00  0.00     0.033 A 
HETATM    4  C5  UNL     1      14.475   9.117   4.958  1.00  0.00     0.046 A 
HETATM    5  C6  UNL     1      15.698   9.543   5.412  1.00  0.00    -0.004 A 
HETATM    6  C7  UNL     1      16.050   9.439   6.749  1.00  0.00     0.050 A 
HETATM    7  C8  UNL     1      16.338  10.023   4.295  1.00  0.00     0.049 A 
HETATM    8  C9  UNL     1      15.492   9.884   3.168  1.00  0.00     0.105 A 
HETATM    9  N3  UNL     1      14.369   9.333   3.599  1.00  0.00    -0.332 N 
ENDROOT
BRANCH   8  10
HETATM   10  C10 UNL     1      15.892  10.339   1.845  1.00  0.00     0.281 C 
HETATM   11  O2  UNL     1      15.240  11.323   1.304  1.00  0.00    -0.265 OA
HETATM   12  N1  UNL     1      16.925   9.848   1.038  1.00  0.00    -0.244 N 
ATOM     13  H1  UNL     1      17.499   9.080   1.385  1.00  0.00     0.182 HD
BRANCH  12  14
HETATM   14  S1  UNL     1      17.261  10.506  -0.542  1.00  0.00     0.281 S 
HETATM   15  O3  UNL     1      17.555  11.985  -0.338  1.00  0.00    -0.199 OA
HETATM   16  O4  UNL     1      18.491   9.892  -1.135  1.00  0.00    -0.199 OA
BRANCH  14  17
HETATM   17  C11 UNL     1      15.943  10.334  -1.638  1.00  0.00     0.149 A 
HETATM   18  C12 UNL     1      16.200   9.816  -2.912  1.00  0.00     0.044 A 
HETATM   19  C13 UNL     1      15.220   9.640  -3.855  1.00  0.00     0.011 A 
HETATM   20  C14 UNL     1      13.921   9.983  -3.549  1.00  0.00    -0.046 A 
HETATM   21  C15 UNL     1      12.817   9.806  -4.560  1.00  0.00     0.049 C 
HETATM   22  C16 UNL     1      13.695  10.490  -2.291  1.00  0.00     0.095 A 
HETATM   23  N2  UNL     1      14.676  10.656  -1.374  1.00  0.00    -0.355 N 
ATOM     24  H2  UNL     1      14.440  11.036  -0.457  1.00  0.00     0.166 HD
ENDBRANCH  14  17
ENDBRANCH  12  14
ENDBRANCH   8  10
BRANCH   9  25
HETATM   25  C17 UNL     1      13.160   9.005   2.848  1.00  0.00     0.242 C 
BRANCH  25  26
HETATM   26  C18 UNL     1      13.443   7.958   1.858  1.00  0.00     0.191 C 
HETATM   27  O5  UNL     1      13.549   6.774   2.216  1.00  0.00    -0.647 OA
HETATM   28  O6  UNL     1      13.590   8.293   0.531  1.00  0.00    -0.647 OA
ENDBRANCH  25  26
ENDBRANCH   9  25
BRANCH   1  29
HETATM   29  O1  UNL     1      15.504   8.784   9.014  1.00  0.00    -0.356 OA
HETATM   30  C1  UNL     1      14.998   9.787   9.873  1.00  0.00     0.210 C 
ENDBRANCH   1  29
TORSDOF 6
ENDMDL
