MODEL 12
REMARK VINA RESULT: -9.459543858      2.320      3.285
REMARK  6 active torsions:
REMARK  status: ('A' for Active; 'I' for Inactive)
REMARK    1  A    between atoms: O1_2  and  C2_3 
REMARK    2  A    between atoms: C9_10  and  C10_11 
REMARK       I    between atoms: C10_11  and  N1_13 
REMARK    3  A    between atoms: N1_13  and  S1_15 
REMARK    4  A    between atoms: S1_15  and  C11_18 
REMARK    5  A    between atoms: N3_26  and  C17_27 
REMARK    6  A    between atoms: C17_27  and  C18_28 
ROOT
HETATM    1  C2  UNL     1      13.483  10.105  -4.204  1.00  0.00     0.069 A 
HETATM    2  C3  UNL     1      14.787   9.923  -4.618  1.00  0.00     0.039 A 
HETATM    3  C4  UNL     1      15.868   9.871  -3.760  1.00  0.00     0.033 A 
HETATM    4  C5  UNL     1      15.614  10.012  -2.407  1.00  0.00     0.046 A 
HETATM    5  C6  UNL     1      14.326  10.194  -1.971  1.00  0.00    -0.004 A 
HETATM    6  C7  UNL     1      13.262  10.242  -2.858  1.00  0.00     0.050 A 
HETATM    7  C8  UNL     1      14.430  10.298  -0.605  1.00  0.00     0.049 A 
HETATM    8  C9  UNL     1      15.788  10.178  -0.223  1.00  0.00     0.105 A 
HETATM    9  N3  UNL     1      16.483  10.006  -1.336  1.00  0.00    -0.332 N 
ENDROOT
BRANCH   8  10
HETATM   10  C10 UNL     1      16.209  10.281   1.166  1.00  0.00     0.281 C 
HETATM   11  O2  UNL     1      16.561  11.445   1.623  1.00  0.00    -0.265 OA
HETATM   12  N1  UNL     1      16.290   9.261   2.122  1.00  0.00    -0.244 N 
ATOM     13  H1  UNL     1      16.024   8.314   1.856  1.00  0.00     0.182 HD
BRANCH  12  14
HETATM   14  S1  UNL     1      16.834   9.560   3.752  1.00  0.00     0.281 S 
HETATM   15  O3  UNL     1      16.183  10.864   4.191  1.00  0.00    -0.199 OA
HETATM   16  O4  UNL     1      16.354   8.494   4.688  1.00  0.00    -0.199 OA
BRANCH  14  17
HETATM   17  C11 UNL     1      18.546   9.709   3.875  1.00  0.00     0.149 A 
HETATM   18  C12 UNL     1      19.182   9.166   4.996  1.00  0.00     0.044 A 
HETATM   19  C13 UNL     1      20.539   9.232   5.186  1.00  0.00     0.011 A 
HETATM   20  C14 UNL     1      21.323   9.857   4.240  1.00  0.00    -0.046 A 
HETATM   21  C15 UNL     1      22.817   9.951   4.415  1.00  0.00     0.049 C 
HETATM   22  C16 UNL     1      20.672  10.382   3.149  1.00  0.00     0.095 A 
HETATM   23  N2  UNL     1      19.333  10.307   2.979  1.00  0.00    -0.355 N 
ATOM     24  H2  UNL     1      18.913  10.717   2.144  1.00  0.00     0.166 HD
ENDBRANCH  14  17
ENDBRANCH  12  14
ENDBRANCH   8  10
BRANCH   9  25
HETATM   25  C17 UNL     1      17.928   9.863  -1.502  1.00  0.00     0.242 C 
BRANCH  25  26
HETATM   26  C18 UNL     1      18.625  11.012  -0.912  1.00  0.00     0.191 C 
HETATM   27  O5  UNL     1      18.158  12.156  -1.036  1.00  0.00    -0.647 OA
HETATM   28  O6  UNL     1      19.798  10.817  -0.218  1.00  0.00    -0.647 OA
ENDBRANCH  25  26
ENDBRANCH   9  25
BRANCH   1  29
HETATM   29  O1  UNL     1      12.418  10.150  -5.125  1.00  0.00    -0.356 OA
HETATM   30  C1  UNL     1      11.272   9.388  -4.797  1.00  0.00     0.210 C 
ENDBRANCH   1  29
TORSDOF 6
ENDMDL
