MODEL 1
REMARK VINA RESULT: -9.973039930      0.000      0.000
REMARK  7 active torsions:
REMARK  status: ('A' for Active; 'I' for Inactive)
REMARK    1  A    between atoms: O1_2  and  C2_3 
REMARK    2  A    between atoms: C9_10  and  C10_11 
REMARK    3  A    between atoms: C10_11  and  O3_13 
REMARK    4  A    between atoms: O3_13  and  C11_14 
REMARK    5  A    between atoms: C11_14  and  C12_15 
REMARK    6  A    between atoms: N1_24  and  C20_25 
REMARK    7  A    between atoms: C20_25  and  C21_26 
ROOT
HETATM    1  C2  UNL     1      13.516   9.783  -3.744  1.00  0.00     0.069 A 
HETATM    2  C3  UNL     1      14.884   9.938  -3.702  1.00  0.00     0.039 A 
HETATM    3  C4  UNL     1      15.553  10.143  -2.504  1.00  0.00     0.033 A 
HETATM    4  C5  UNL     1      14.864  10.199  -1.303  1.00  0.00     0.046 A 
HETATM    5  C6  UNL     1      13.498  10.044  -1.344  1.00  0.00    -0.004 A 
HETATM    6  C7  UNL     1      12.830   9.838  -2.549  1.00  0.00     0.050 A 
HETATM    7  C8  UNL     1      13.074  10.140  -0.036  1.00  0.00     0.050 A 
HETATM    8  C9  UNL     1      14.216  10.352   0.744  1.00  0.00     0.112 A 
HETATM    9  N1  UNL     1      15.304  10.386  -0.036  1.00  0.00    -0.331 N 
ENDROOT
BRANCH   8  10
HETATM   10  C10 UNL     1      14.196  10.506   2.192  1.00  0.00     0.310 C 
HETATM   11  O2  UNL     1      13.697  11.535   2.745  1.00  0.00    -0.258 OA
BRANCH  10  12
HETATM   12  O3  UNL     1      14.714   9.551   3.032  1.00  0.00    -0.310 OA
BRANCH  12  13
HETATM   13  C11 UNL     1      15.662   9.758   4.032  1.00  0.00     0.244 C 
BRANCH  13  14
HETATM   14  C12 UNL     1      15.115   9.656   5.397  1.00  0.00     0.078 A 
HETATM   15  C13 UNL     1      15.337   8.649   6.302  1.00  0.00     0.049 A 
HETATM   16  C14 UNL     1      14.632   8.952   7.455  1.00  0.00     0.000 A 
HETATM   17  C15 UNL     1      14.456   8.351   8.685  1.00  0.00     0.014 A 
HETATM   18  C19 UNL     1      14.005  10.154   7.182  1.00  0.00     0.086 A 
HETATM   19  C16 UNL     1      13.648   8.967   9.632  1.00  0.00     0.001 A 
HETATM   20  C17 UNL     1      13.024  10.161   9.363  1.00  0.00     0.003 A 
HETATM   21  C18 UNL     1      13.201  10.769   8.120  1.00  0.00     0.038 A 
HETATM   22  O4  UNL     1      14.323  10.516   5.969  1.00  0.00    -0.312 OA
ENDBRANCH  13  14
ENDBRANCH  12  13
ENDBRANCH  10  12
ENDBRANCH   8  10
BRANCH   9  23
HETATM   23  C20 UNL     1      16.707  10.587   0.362  1.00  0.00     0.242 C 
BRANCH  23  24
HETATM   24  C21 UNL     1      16.894  12.065   0.470  1.00  0.00     0.191 C 
HETATM   25  O5  UNL     1      17.368  12.687  -0.520  1.00  0.00    -0.647 OA
HETATM   26  O6  UNL     1      16.577  12.791   1.598  1.00  0.00    -0.647 OA
ENDBRANCH  23  24
ENDBRANCH   9  23
BRANCH   1  27
HETATM   27  O1  UNL     1      12.850   9.576  -4.959  1.00  0.00    -0.356 OA
HETATM   28  C1  UNL     1      11.481   9.332  -5.047  1.00  0.00     0.210 C 
ENDBRANCH   1  27
TORSDOF 7
ENDMDL
