MODEL 9
REMARK VINA RESULT: -9.512152583      1.907      8.634
REMARK  7 active torsions:
REMARK  status: ('A' for Active; 'I' for Inactive)
REMARK    1  A    between atoms: O1_2  and  C2_3 
REMARK    2  A    between atoms: C9_10  and  C10_11 
REMARK    3  A    between atoms: C10_11  and  O3_13 
REMARK    4  A    between atoms: O3_13  and  C11_14 
REMARK    5  A    between atoms: C11_14  and  C12_15 
REMARK    6  A    between atoms: N1_24  and  C20_25 
REMARK    7  A    between atoms: C20_25  and  C21_26 
ROOT
HETATM    1  C2  UNL     1      13.247   9.582   7.344  1.00  0.00     0.069 A 
HETATM    2  C3  UNL     1      12.802   8.608   6.478  1.00  0.00     0.039 A 
HETATM    3  C4  UNL     1      13.250   8.546   5.166  1.00  0.00     0.033 A 
HETATM    4  C5  UNL     1      14.164   9.466   4.680  1.00  0.00     0.046 A 
HETATM    5  C6  UNL     1      14.609  10.439   5.545  1.00  0.00    -0.004 A 
HETATM    6  C7  UNL     1      14.157  10.498   6.861  1.00  0.00     0.050 A 
HETATM    7  C8  UNL     1      15.495  11.205   4.817  1.00  0.00     0.050 A 
HETATM    8  C9  UNL     1      15.544  10.654   3.532  1.00  0.00     0.112 A 
HETATM    9  N1  UNL     1      14.731   9.593   3.456  1.00  0.00    -0.331 N 
ENDROOT
BRANCH   8  10
HETATM   10  C10 UNL     1      16.371  11.176   2.453  1.00  0.00     0.310 C 
HETATM   11  O2  UNL     1      17.634  11.254   2.559  1.00  0.00    -0.258 OA
BRANCH  10  12
HETATM   12  O3  UNL     1      15.830  11.610   1.267  1.00  0.00    -0.310 OA
BRANCH  12  13
HETATM   13  C11 UNL     1      16.421  11.520   0.009  1.00  0.00     0.244 C 
BRANCH  13  14
HETATM   14  C12 UNL     1      15.543  10.928  -1.017  1.00  0.00     0.078 A 
HETATM   15  C13 UNL     1      15.925  10.167  -2.092  1.00  0.00     0.049 A 
HETATM   16  C14 UNL     1      14.782   9.823  -2.796  1.00  0.00     0.000 A 
HETATM   17  C15 UNL     1      14.514   9.090  -3.934  1.00  0.00     0.014 A 
HETATM   18  C19 UNL     1      13.745  10.407  -2.094  1.00  0.00     0.086 A 
HETATM   19  C16 UNL     1      13.198   8.952  -4.357  1.00  0.00     0.001 A 
HETATM   20  C17 UNL     1      12.165   9.532  -3.662  1.00  0.00     0.003 A 
HETATM   21  C18 UNL     1      12.436  10.273  -2.511  1.00  0.00     0.038 A 
HETATM   22  O4  UNL     1      14.247  11.038  -1.068  1.00  0.00    -0.312 OA
ENDBRANCH  13  14
ENDBRANCH  12  13
ENDBRANCH  10  12
ENDBRANCH   8  10
BRANCH   9  23
HETATM   23  C20 UNL     1      14.473   8.720   2.299  1.00  0.00     0.242 C 
BRANCH  23  24
HETATM   24  C21 UNL     1      13.112   9.086   1.806  1.00  0.00     0.191 C 
HETATM   25  O5  UNL     1      12.289   8.162   1.564  1.00  0.00    -0.647 OA
HETATM   26  O6  UNL     1      12.704  10.386   1.596  1.00  0.00    -0.647 OA
ENDBRANCH  23  24
ENDBRANCH   9  23
BRANCH   1  27
HETATM   27  O1  UNL     1      12.788   9.636   8.666  1.00  0.00    -0.356 OA
HETATM   28  C1  UNL     1      13.026  10.717   9.512  1.00  0.00     0.210 C 
ENDBRANCH   1  27
TORSDOF 7
ENDMDL
