MODEL 7
REMARK VINA RESULT: -9.566765640      3.492      5.851
REMARK  7 active torsions:
REMARK  status: ('A' for Active; 'I' for Inactive)
REMARK    1  A    between atoms: O1_2  and  C2_3 
REMARK    2  A    between atoms: C9_10  and  C10_11 
REMARK    3  A    between atoms: C10_11  and  O3_13 
REMARK    4  A    between atoms: O3_13  and  C11_14 
REMARK    5  A    between atoms: C11_14  and  C12_15 
REMARK    6  A    between atoms: N1_24  and  C20_25 
REMARK    7  A    between atoms: C20_25  and  C21_26 
ROOT
HETATM    1  C2  UNL     1      13.095   9.928  -2.113  1.00  0.00     0.069 A 
HETATM    2  C3  UNL     1      14.288  10.092  -2.781  1.00  0.00     0.039 A 
HETATM    3  C4  UNL     1      15.483  10.265  -2.098  1.00  0.00     0.033 A 
HETATM    4  C5  UNL     1      15.517  10.279  -0.713  1.00  0.00     0.046 A 
HETATM    5  C6  UNL     1      14.326  10.116  -0.044  1.00  0.00    -0.004 A 
HETATM    6  C7  UNL     1      13.128   9.943  -0.734  1.00  0.00     0.050 A 
HETATM    7  C8  UNL     1      14.642  10.169   1.296  1.00  0.00     0.050 A 
HETATM    8  C9  UNL     1      16.025  10.364   1.378  1.00  0.00     0.112 A 
HETATM    9  N1  UNL     1      16.552  10.430   0.148  1.00  0.00    -0.331 N 
ENDROOT
BRANCH   8  10
HETATM   10  C10 UNL     1      16.760  10.474   2.630  1.00  0.00     0.310 C 
HETATM   11  O2  UNL     1      16.944  11.595   3.198  1.00  0.00    -0.258 OA
BRANCH  10  12
HETATM   12  O3  UNL     1      17.291   9.376   3.261  1.00  0.00    -0.310 OA
BRANCH  12  13
HETATM   13  C11 UNL     1      18.513   9.317   3.927  1.00  0.00     0.244 C 
BRANCH  13  14
HETATM   14  C12 UNL     1      19.652   8.991   3.049  1.00  0.00     0.078 A 
HETATM   15  C13 UNL     1      20.339   7.806   2.994  1.00  0.00     0.049 A 
HETATM   16  C14 UNL     1      21.331   7.934   2.034  1.00  0.00     0.000 A 
HETATM   17  C15 UNL     1      22.320   7.116   1.529  1.00  0.00     0.014 A 
HETATM   18  C19 UNL     1      21.187   9.220   1.547  1.00  0.00     0.086 A 
HETATM   19  C16 UNL     1      23.160   7.601   0.535  1.00  0.00     0.001 A 
HETATM   20  C17 UNL     1      23.020   8.878   0.050  1.00  0.00     0.003 A 
HETATM   21  C18 UNL     1      22.020   9.706   0.560  1.00  0.00     0.038 A 
HETATM   22  O4  UNL     1      20.194   9.789   2.175  1.00  0.00    -0.312 OA
ENDBRANCH  13  14
ENDBRANCH  12  13
ENDBRANCH  10  12
ENDBRANCH   8  10
BRANCH   9  23
HETATM   23  C20 UNL     1      17.960  10.629  -0.233  1.00  0.00     0.242 C 
BRANCH  23  24
HETATM   24  C21 UNL     1      18.248  12.075   0.001  1.00  0.00     0.191 C 
HETATM   25  O5  UNL     1      19.383  12.401   0.444  1.00  0.00    -0.647 OA
HETATM   26  O6  UNL     1      17.336  13.080  -0.241  1.00  0.00    -0.647 OA
ENDBRANCH  23  24
ENDBRANCH   9  23
BRANCH   1  27
HETATM   27  O1  UNL     1      11.894   9.755  -2.812  1.00  0.00    -0.356 OA
HETATM   28  C1  UNL     1      11.840   9.407  -4.160  1.00  0.00     0.210 C 
ENDBRANCH   1  27
TORSDOF 7
ENDMDL
