MODEL 2
REMARK VINA RESULT: -9.932588719      0.516      1.096
REMARK  7 active torsions:
REMARK  status: ('A' for Active; 'I' for Inactive)
REMARK    1  A    between atoms: O1_2  and  C2_3 
REMARK    2  A    between atoms: C9_10  and  C10_11 
REMARK    3  A    between atoms: C10_11  and  O3_13 
REMARK    4  A    between atoms: O3_13  and  C11_14 
REMARK    5  A    between atoms: C11_14  and  C12_15 
REMARK    6  A    between atoms: N1_24  and  C20_25 
REMARK    7  A    between atoms: C20_25  and  C21_26 
ROOT
HETATM    1  C2  UNL     1      13.334   9.773  -3.851  1.00  0.00     0.069 A 
HETATM    2  C3  UNL     1      14.709   9.865  -3.844  1.00  0.00     0.039 A 
HETATM    3  C4  UNL     1      15.418  10.026  -2.663  1.00  0.00     0.033 A 
HETATM    4  C5  UNL     1      14.764  10.101  -1.444  1.00  0.00     0.046 A 
HETATM    5  C6  UNL     1      13.392  10.009  -1.449  1.00  0.00    -0.004 A 
HETATM    6  C7  UNL     1      12.684   9.847  -2.638  1.00  0.00     0.050 A 
HETATM    7  C8  UNL     1      13.008  10.110  -0.130  1.00  0.00     0.050 A 
HETATM    8  C9  UNL     1      14.178  10.261   0.622  1.00  0.00     0.112 A 
HETATM    9  N1  UNL     1      15.246  10.253  -0.187  1.00  0.00    -0.331 N 
ENDROOT
BRANCH   8  10
HETATM   10  C10 UNL     1      14.204  10.400   2.071  1.00  0.00     0.310 C 
HETATM   11  O2  UNL     1      13.757  11.440   2.648  1.00  0.00    -0.258 OA
BRANCH  10  12
HETATM   12  O3  UNL     1      14.711   9.419   2.887  1.00  0.00    -0.310 OA
BRANCH  12  13
HETATM   13  C11 UNL     1      15.670   9.587   3.882  1.00  0.00     0.244 C 
BRANCH  13  14
HETATM   14  C12 UNL     1      15.116   9.574   5.249  1.00  0.00     0.078 A 
HETATM   15  C13 UNL     1      14.290  10.512   5.813  1.00  0.00     0.049 A 
HETATM   16  C14 UNL     1      14.013  10.108   7.110  1.00  0.00     0.000 A 
HETATM   17  C15 UNL     1      13.265  10.609   8.156  1.00  0.00     0.014 A 
HETATM   18  C19 UNL     1      14.703   8.920   7.265  1.00  0.00     0.086 A 
HETATM   19  C16 UNL     1      13.219   9.907   9.353  1.00  0.00     0.001 A 
HETATM   20  C17 UNL     1      13.903   8.727   9.511  1.00  0.00     0.003 A 
HETATM   21  C18 UNL     1      14.660   8.220   8.454  1.00  0.00     0.038 A 
HETATM   22  O4  UNL     1      15.327   8.659   6.149  1.00  0.00    -0.312 OA
ENDBRANCH  13  14
ENDBRANCH  12  13
ENDBRANCH  10  12
ENDBRANCH   8  10
BRANCH   9  23
HETATM   23  C20 UNL     1      16.667  10.386   0.175  1.00  0.00     0.242 C 
BRANCH  23  24
HETATM   24  C21 UNL     1      16.930  11.852   0.273  1.00  0.00     0.191 C 
HETATM   25  O5  UNL     1      17.412  12.447  -0.729  1.00  0.00    -0.647 OA
HETATM   26  O6  UNL     1      16.674  12.596   1.405  1.00  0.00    -0.647 OA
ENDBRANCH  23  24
ENDBRANCH   9  23
BRANCH   1  27
HETATM   27  O1  UNL     1      12.628   9.611  -5.050  1.00  0.00    -0.356 OA
HETATM   28  C1  UNL     1      11.275   9.283  -5.099  1.00  0.00     0.210 C 
ENDBRANCH   1  27
TORSDOF 7
ENDMDL
