MODEL 8
REMARK VINA RESULT: -9.534672861      3.211      7.627
REMARK  7 active torsions:
REMARK  status: ('A' for Active; 'I' for Inactive)
REMARK    1  A    between atoms: O1_2  and  C2_3 
REMARK    2  A    between atoms: C9_10  and  C10_11 
REMARK    3  A    between atoms: C10_11  and  O3_13 
REMARK    4  A    between atoms: O3_13  and  C11_14 
REMARK    5  A    between atoms: C11_14  and  C12_15 
REMARK    6  A    between atoms: N1_24  and  C20_25 
REMARK    7  A    between atoms: C20_25  and  C21_26 
ROOT
HETATM    1  C2  UNL     1      20.164   8.246   4.123  1.00  0.00     0.069 A 
HETATM    2  C3  UNL     1      20.268   8.305   2.751  1.00  0.00     0.039 A 
HETATM    3  C4  UNL     1      19.409   9.086   1.993  1.00  0.00     0.033 A 
HETATM    4  C5  UNL     1      18.412   9.838   2.592  1.00  0.00     0.046 A 
HETATM    5  C6  UNL     1      18.307   9.780   3.963  1.00  0.00    -0.004 A 
HETATM    6  C7  UNL     1      19.172   8.994   4.721  1.00  0.00     0.050 A 
HETATM    7  C8  UNL     1      17.254  10.607   4.290  1.00  0.00     0.050 A 
HETATM    8  C9  UNL     1      16.765  11.133   3.090  1.00  0.00     0.112 A 
HETATM    9  N1  UNL     1      17.477  10.660   2.058  1.00  0.00    -0.331 N 
ENDROOT
BRANCH   8  10
HETATM   10  C10 UNL     1      15.645  12.060   3.002  1.00  0.00     0.310 C 
HETATM   11  O2  UNL     1      15.809  13.314   3.119  1.00  0.00    -0.258 OA
BRANCH  10  12
HETATM   12  O3  UNL     1      14.359  11.629   2.789  1.00  0.00    -0.310 OA
BRANCH  12  13
HETATM   13  C11 UNL     1      13.961  10.321   2.524  1.00  0.00     0.244 C 
BRANCH  13  14
HETATM   14  C12 UNL     1      13.885  10.003   1.087  1.00  0.00     0.078 A 
HETATM   15  C13 UNL     1      14.493   8.959   0.439  1.00  0.00     0.049 A 
HETATM   16  C14 UNL     1      14.156   9.038  -0.903  1.00  0.00     0.000 A 
HETATM   17  C15 UNL     1      14.445   8.300  -2.033  1.00  0.00     0.014 A 
HETATM   18  C19 UNL     1      13.343  10.152  -0.999  1.00  0.00     0.086 A 
HETATM   19  C16 UNL     1      13.911   8.692  -3.253  1.00  0.00     0.001 A 
HETATM   20  C17 UNL     1      13.103   9.798  -3.352  1.00  0.00     0.003 A 
HETATM   21  C18 UNL     1      12.811  10.545  -2.210  1.00  0.00     0.038 A 
HETATM   22  O4  UNL     1      13.220  10.674   0.191  1.00  0.00    -0.312 OA
ENDBRANCH  13  14
ENDBRANCH  12  13
ENDBRANCH  10  12
ENDBRANCH   8  10
BRANCH   9  23
HETATM   23  C20 UNL     1      17.307  10.945   0.624  1.00  0.00     0.242 C 
BRANCH  23  24
HETATM   24  C21 UNL     1      18.024  12.231   0.374  1.00  0.00     0.191 C 
HETATM   25  O5  UNL     1      17.357  13.228  -0.016  1.00  0.00    -0.647 OA
HETATM   26  O6  UNL     1      19.382  12.390   0.545  1.00  0.00    -0.647 OA
ENDBRANCH  23  24
ENDBRANCH   9  23
BRANCH   1  27
HETATM   27  O1  UNL     1      21.036   7.453   4.879  1.00  0.00    -0.356 OA
HETATM   28  C1  UNL     1      21.343   6.133   4.554  1.00  0.00     0.210 C 
ENDBRANCH   1  27
TORSDOF 7
ENDMDL
