MODEL 2
REMARK VINA RESULT: -9.940904529      1.198      1.433
REMARK  7 active torsions:
REMARK  status: ('A' for Active; 'I' for Inactive)
REMARK    1  A    between atoms: O1_2  and  C2_3 
REMARK    2  A    between atoms: C9_10  and  C10_11 
REMARK    3  A    between atoms: C10_11  and  N1_12 
REMARK    4  A    between atoms: N1_12  and  S1_14 
REMARK    5  A    between atoms: S1_14  and  C11_17 
REMARK    6  A    between atoms: N2_26  and  C19_27 
REMARK    7  A    between atoms: C19_27  and  C20_28 
ROOT
HETATM    1  C2  UNL     1      -1.165  -8.804  40.181  1.00  0.00     0.069 A 
HETATM    2  C3  UNL     1      -0.369  -9.767  40.773  1.00  0.00     0.039 A 
HETATM    3  C4  UNL     1       0.378 -10.589  39.965  1.00  0.00     0.033 A 
HETATM    4  C5  UNL     1       0.340 -10.465  38.587  1.00  0.00     0.045 A 
HETATM    5  C6  UNL     1      -0.440  -9.521  37.989  1.00  0.00    -0.005 A 
HETATM    6  C7  UNL     1      -1.186  -8.698  38.806  1.00  0.00     0.050 A 
HETATM    7  C8  UNL     1      -0.255  -9.657  36.633  1.00  0.00     0.040 A 
HETATM    8  C9  UNL     1       0.651 -10.699  36.395  1.00  0.00     0.032 A 
HETATM    9  N2  UNL     1       0.982 -11.157  37.612  1.00  0.00    -0.338 N 
ENDROOT
BRANCH   8  10
HETATM   10  C10 UNL     1       1.104 -11.132  35.053  1.00  0.00     0.189 C 
BRANCH  10  11
HETATM   11  N1  UNL     1       0.552 -10.332  33.974  1.00  0.00    -0.308 N 
ATOM     12  H1  UNL     1      -0.435 -10.295  33.718  1.00  0.00     0.172 HD
BRANCH  11  13
HETATM   13  S1  UNL     1       1.816  -9.446  33.185  1.00  0.00     0.281 S 
HETATM   14  O2  UNL     1       3.164  -9.770  33.731  1.00  0.00    -0.199 OA
HETATM   15  O3  UNL     1       1.558  -7.983  33.453  1.00  0.00    -0.199 OA
BRANCH  13  16
HETATM   16  C11 UNL     1       1.756  -9.660  31.453  1.00  0.00     0.191 A 
HETATM   17  C12 UNL     1       2.151  -8.690  30.557  1.00  0.00     0.066 A 
HETATM   18  C13 UNL     1       1.951  -9.243  29.304  1.00  0.00     0.001 A 
HETATM   19  C14 UNL     1       2.156  -8.767  28.022  1.00  0.00     0.014 A 
HETATM   20  C18 UNL     1       1.450 -10.503  29.492  1.00  0.00     0.087 A 
HETATM   21  C15 UNL     1       1.853  -9.575  26.952  1.00  0.00     0.001 A 
HETATM   22  C16 UNL     1       1.344 -10.852  27.165  1.00  0.00     0.003 A 
HETATM   23  C17 UNL     1       1.136 -11.336  28.439  1.00  0.00     0.038 A 
HETATM   24  O4  UNL     1       1.349 -10.713  30.782  1.00  0.00    -0.296 OA
ENDBRANCH  13  16
ENDBRANCH  11  13
ENDBRANCH  10  11
ENDBRANCH   8  10
BRANCH   9  25
HETATM   25  C19 UNL     1       1.899 -12.244  37.887  1.00  0.00     0.242 C 
BRANCH  25  26
HETATM   26  C20 UNL     1       1.287 -13.576  37.767  1.00  0.00     0.191 C 
HETATM   27  O5  UNL     1       1.203 -14.275  38.804  1.00  0.00    -0.647 OA
HETATM   28  O6  UNL     1       0.792 -14.116  36.588  1.00  0.00    -0.647 OA
ENDBRANCH  25  26
ENDBRANCH   9  25
BRANCH   1  29
HETATM   29  O1  UNL     1      -1.922  -7.967  40.993  1.00  0.00    -0.356 OA
HETATM   30  C1  UNL     1      -2.354  -6.701  40.577  1.00  0.00     0.210 C 
ENDBRANCH   1  29
TORSDOF 7
ENDMDL
