MODEL 3
REMARK VINA RESULT: -9.636702106      2.174      9.057
REMARK  7 active torsions:
REMARK  status: ('A' for Active; 'I' for Inactive)
REMARK    1  A    between atoms: O1_2  and  C2_3 
REMARK    2  A    between atoms: C9_10  and  C10_11 
REMARK    3  A    between atoms: C10_11  and  N1_12 
REMARK    4  A    between atoms: N1_12  and  S1_14 
REMARK    5  A    between atoms: S1_14  and  C11_17 
REMARK    6  A    between atoms: N2_26  and  C19_27 
REMARK    7  A    between atoms: C19_27  and  C20_28 
ROOT
HETATM    1  C2  UNL     1       1.928  -9.927  29.389  1.00  0.00     0.069 A 
HETATM    2  C3  UNL     1       2.133  -8.657  29.895  1.00  0.00     0.039 A 
HETATM    3  C4  UNL     1       1.980  -8.455  31.245  1.00  0.00     0.033 A 
HETATM    4  C5  UNL     1       1.625  -9.494  32.087  1.00  0.00     0.045 A 
HETATM    5  C6  UNL     1       1.419 -10.750  31.604  1.00  0.00    -0.005 A 
HETATM    6  C7  UNL     1       1.576 -10.946  30.248  1.00  0.00     0.050 A 
HETATM    7  C8  UNL     1       1.086 -11.539  32.680  1.00  0.00     0.040 A 
HETATM    8  C9  UNL     1       1.087 -10.756  33.842  1.00  0.00     0.032 A 
HETATM    9  N2  UNL     1       1.421  -9.522  33.429  1.00  0.00    -0.338 N 
ENDROOT
BRANCH   8  10
HETATM   10  C10 UNL     1       0.786 -11.261  35.200  1.00  0.00     0.189 C 
BRANCH  10  11
HETATM   11  N1  UNL     1       1.957 -11.345  36.056  1.00  0.00    -0.308 N 
ATOM     12  H1  UNL     1       2.893 -11.036  35.796  1.00  0.00     0.172 HD
BRANCH  11  13
HETATM   13  S1  UNL     1       1.529 -12.046  37.582  1.00  0.00     0.281 S 
HETATM   14  O2  UNL     1       2.706 -12.606  38.302  1.00  0.00    -0.199 OA
HETATM   15  O3  UNL     1       0.589 -13.190  37.289  1.00  0.00    -0.199 OA
BRANCH  13  16
HETATM   16  C11 UNL     1       0.648 -10.912  38.576  1.00  0.00     0.191 A 
HETATM   17  C12 UNL     1       0.616 -10.980  39.953  1.00  0.00     0.066 A 
HETATM   18  C13 UNL     1      -0.177  -9.919  40.355  1.00  0.00     0.001 A 
HETATM   19  C14 UNL     1      -0.580  -9.463  41.597  1.00  0.00     0.014 A 
HETATM   20  C18 UNL     1      -0.584  -9.265  39.223  1.00  0.00     0.087 A 
HETATM   21  C15 UNL     1      -1.388  -8.353  41.672  1.00  0.00     0.001 A 
HETATM   22  C16 UNL     1      -1.792  -7.705  40.510  1.00  0.00     0.003 A 
HETATM   23  C17 UNL     1      -1.395  -8.151  39.267  1.00  0.00     0.038 A 
HETATM   24  O4  UNL     1      -0.074  -9.886  38.188  1.00  0.00    -0.296 OA
ENDBRANCH  13  16
ENDBRANCH  11  13
ENDBRANCH  10  11
ENDBRANCH   8  10
BRANCH   9  25
HETATM   25  C19 UNL     1       1.553  -8.354  34.275  1.00  0.00     0.242 C 
BRANCH  25  26
HETATM   26  C20 UNL     1       0.266  -7.732  34.626  1.00  0.00     0.191 C 
HETATM   27  O5  UNL     1      -0.080  -7.749  35.830  1.00  0.00    -0.647 OA
HETATM   28  O6  UNL     1      -0.591  -7.124  33.719  1.00  0.00    -0.647 OA
ENDBRANCH  25  26
ENDBRANCH   9  25
BRANCH   1  29
HETATM   29  O1  UNL     1       2.084 -10.139  28.023  1.00  0.00    -0.356 OA
HETATM   30  C1  UNL     1       1.497 -11.222  27.356  1.00  0.00     0.210 C 
ENDBRANCH   1  29
TORSDOF 7
ENDMDL
