MODEL 4
REMARK VINA RESULT: -9.580620144      1.398      1.691
REMARK  7 active torsions:
REMARK  status: ('A' for Active; 'I' for Inactive)
REMARK    1  A    between atoms: O1_2  and  C2_3 
REMARK    2  A    between atoms: C9_10  and  C10_11 
REMARK    3  A    between atoms: C10_11  and  N1_12 
REMARK    4  A    between atoms: N1_12  and  S1_14 
REMARK    5  A    between atoms: S1_14  and  C11_17 
REMARK    6  A    between atoms: N2_26  and  C19_27 
REMARK    7  A    between atoms: C19_27  and  C20_28 
ROOT
HETATM    1  C2  UNL     1      -0.780  -8.819  40.563  1.00  0.00     0.069 A 
HETATM    2  C3  UNL     1      -0.267  -9.991  41.085  1.00  0.00     0.039 A 
HETATM    3  C4  UNL     1       0.284 -10.907  40.223  1.00  0.00     0.033 A 
HETATM    4  C5  UNL     1       0.327 -10.672  38.860  1.00  0.00     0.045 A 
HETATM    5  C6  UNL     1      -0.175  -9.521  38.331  1.00  0.00    -0.005 A 
HETATM    6  C7  UNL     1      -0.726  -8.605  39.202  1.00  0.00     0.050 A 
HETATM    7  C8  UNL     1       0.019  -9.593  36.972  1.00  0.00     0.040 A 
HETATM    8  C9  UNL     1       0.649 -10.805  36.661  1.00  0.00     0.032 A 
HETATM    9  N2  UNL     1       0.815 -11.423  37.841  1.00  0.00    -0.338 N 
ENDROOT
BRANCH   8  10
HETATM   10  C10 UNL     1       1.030 -11.232  35.295  1.00  0.00     0.189 C 
BRANCH  10  11
HETATM   11  N1  UNL     1       0.496 -10.371  34.254  1.00  0.00    -0.308 N 
ATOM     12  H1  UNL     1      -0.488 -10.313  33.991  1.00  0.00     0.172 HD
BRANCH  11  13
HETATM   13  S1  UNL     1       1.776  -9.458  33.525  1.00  0.00     0.281 S 
HETATM   14  O2  UNL     1       3.112  -9.799  34.088  1.00  0.00    -0.199 OA
HETATM   15  O3  UNL     1       1.509  -8.005  33.837  1.00  0.00    -0.199 OA
BRANCH  13  16
HETATM   16  C11 UNL     1       1.753  -9.612  31.785  1.00  0.00     0.191 A 
HETATM   17  C12 UNL     1       2.116  -8.591  30.931  1.00  0.00     0.066 A 
HETATM   18  C13 UNL     1       1.963  -9.107  29.656  1.00  0.00     0.001 A 
HETATM   19  C14 UNL     1       2.166  -8.576  28.396  1.00  0.00     0.014 A 
HETATM   20  C18 UNL     1       1.521 -10.396  29.791  1.00  0.00     0.087 A 
HETATM   21  C15 UNL     1       1.919  -9.359  27.292  1.00  0.00     0.001 A 
HETATM   22  C16 UNL     1       1.470 -10.665  27.450  1.00  0.00     0.003 A 
HETATM   23  C17 UNL     1       1.264 -11.204  28.703  1.00  0.00     0.038 A 
HETATM   24  O4  UNL     1       1.409 -10.657  31.070  1.00  0.00    -0.296 OA
ENDBRANCH  13  16
ENDBRANCH  11  13
ENDBRANCH  10  11
ENDBRANCH   8  10
BRANCH   9  25
HETATM   25  C19 UNL     1       1.427 -12.721  38.038  1.00  0.00     0.242 C 
BRANCH  25  26
HETATM   26  C20 UNL     1       2.888 -12.667  38.196  1.00  0.00     0.191 C 
HETATM   27  O5  UNL     1       3.592 -12.819  37.170  1.00  0.00    -0.647 OA
HETATM   28  O6  UNL     1       3.546 -12.457  39.400  1.00  0.00    -0.647 OA
ENDBRANCH  25  26
ENDBRANCH   9  25
BRANCH   1  29
HETATM   29  O1  UNL     1      -1.338  -7.886  41.431  1.00  0.00    -0.356 OA
HETATM   30  C1  UNL     1      -2.332  -6.983  41.030  1.00  0.00     0.210 C 
ENDBRANCH   1  29
TORSDOF 7
ENDMDL
