MODEL 8
REMARK VINA RESULT: -9.095234943      3.545      6.564
REMARK  7 active torsions:
REMARK  status: ('A' for Active; 'I' for Inactive)
REMARK    1  A    between atoms: O1_2  and  C2_3 
REMARK    2  A    between atoms: C9_10  and  C10_11 
REMARK    3  A    between atoms: C10_11  and  N1_12 
REMARK    4  A    between atoms: N1_12  and  S1_14 
REMARK    5  A    between atoms: S1_14  and  C11_17 
REMARK    6  A    between atoms: N2_26  and  C19_27 
REMARK    7  A    between atoms: C19_27  and  C20_28 
ROOT
HETATM    1  C2  UNL     1      -0.795  -9.109  40.090  1.00  0.00     0.069 A 
HETATM    2  C3  UNL     1      -1.176  -8.344  39.004  1.00  0.00     0.039 A 
HETATM    3  C4  UNL     1      -0.761  -8.727  37.752  1.00  0.00     0.033 A 
HETATM    4  C5  UNL     1       0.024  -9.852  37.573  1.00  0.00     0.045 A 
HETATM    5  C6  UNL     1       0.408 -10.616  38.633  1.00  0.00    -0.005 A 
HETATM    6  C7  UNL     1      -0.013 -10.227  39.886  1.00  0.00     0.050 A 
HETATM    7  C8  UNL     1       1.167 -11.644  38.125  1.00  0.00     0.040 A 
HETATM    8  C9  UNL     1       1.251 -11.510  36.733  1.00  0.00     0.032 A 
HETATM    9  N2  UNL     1       0.540 -10.407  36.447  1.00  0.00    -0.338 N 
ENDROOT
BRANCH   8  10
HETATM   10  C10 UNL     1       1.979 -12.438  35.838  1.00  0.00     0.189 C 
BRANCH  10  11
HETATM   11  N1  UNL     1       1.275 -13.688  35.612  1.00  0.00    -0.308 N 
ATOM     12  H1  UNL     1       0.483 -13.808  34.980  1.00  0.00     0.172 HD
BRANCH  11  13
HETATM   13  S1  UNL     1       1.980 -14.949  36.571  1.00  0.00     0.281 S 
HETATM   14  O2  UNL     1       2.057 -16.245  35.841  1.00  0.00    -0.199 OA
HETATM   15  O3  UNL     1       1.074 -15.150  37.761  1.00  0.00    -0.199 OA
BRANCH  13  16
HETATM   16  C11 UNL     1       3.538 -14.472  37.199  1.00  0.00     0.191 A 
HETATM   17  C12 UNL     1       3.752 -14.142  38.521  1.00  0.00     0.066 A 
HETATM   18  C13 UNL     1       5.097 -13.827  38.608  1.00  0.00     0.001 A 
HETATM   19  C14 UNL     1       5.902 -13.426  39.658  1.00  0.00     0.014 A 
HETATM   20  C18 UNL     1       5.631 -13.978  37.356  1.00  0.00     0.087 A 
HETATM   21  C15 UNL     1       7.236 -13.183  39.423  1.00  0.00     0.001 A 
HETATM   22  C16 UNL     1       7.758 -13.342  38.144  1.00  0.00     0.003 A 
HETATM   23  C17 UNL     1       6.963 -13.742  37.091  1.00  0.00     0.038 A 
HETATM   24  O4  UNL     1       4.673 -14.361  36.548  1.00  0.00    -0.296 OA
ENDBRANCH  13  16
ENDBRANCH  11  13
ENDBRANCH  10  11
ENDBRANCH   8  10
BRANCH   9  25
HETATM   25  C19 UNL     1       0.333  -9.854  35.125  1.00  0.00     0.242 C 
BRANCH  25  26
HETATM   26  C20 UNL     1       1.267  -8.768  34.787  1.00  0.00     0.191 C 
HETATM   27  O5  UNL     1       2.362  -9.082  34.265  1.00  0.00    -0.647 OA
HETATM   28  O6  UNL     1       1.022  -7.419  35.002  1.00  0.00    -0.647 OA
ENDBRANCH  25  26
ENDBRANCH   9  25
BRANCH   1  29
HETATM   29  O1  UNL     1      -1.214  -8.728  41.360  1.00  0.00    -0.356 OA
HETATM   30  C1  UNL     1      -0.830  -9.415  42.519  1.00  0.00     0.210 C 
ENDBRANCH   1  29
TORSDOF 7
ENDMDL
