MODEL 6
REMARK VINA RESULT: -9.232015466      1.927      4.303
REMARK  7 active torsions:
REMARK  status: ('A' for Active; 'I' for Inactive)
REMARK    1  A    between atoms: O1_2  and  C2_3 
REMARK    2  A    between atoms: C9_10  and  C10_11 
REMARK    3  A    between atoms: C10_11  and  N1_12 
REMARK    4  A    between atoms: N1_12  and  S1_14 
REMARK    5  A    between atoms: S1_14  and  C11_17 
REMARK    6  A    between atoms: N2_26  and  C19_27 
REMARK    7  A    between atoms: C19_27  and  C20_28 
ROOT
HETATM    1  C2  UNL     1       2.718 -14.126  38.361  1.00  0.00     0.069 A 
HETATM    2  C3  UNL     1       2.467 -13.246  39.397  1.00  0.00     0.039 A 
HETATM    3  C4  UNL     1       1.862 -12.047  39.109  1.00  0.00     0.033 A 
HETATM    4  C5  UNL     1       1.508 -11.719  37.812  1.00  0.00     0.045 A 
HETATM    5  C6  UNL     1       1.749 -12.575  36.781  1.00  0.00    -0.005 A 
HETATM    6  C7  UNL     1       2.356 -13.777  37.077  1.00  0.00     0.050 A 
HETATM    7  C8  UNL     1       1.285 -11.962  35.641  1.00  0.00     0.040 A 
HETATM    8  C9  UNL     1       0.752 -10.710  35.976  1.00  0.00     0.032 A 
HETATM    9  N2  UNL     1       0.911 -10.610  37.305  1.00  0.00    -0.338 N 
ENDROOT
BRANCH   8  10
HETATM   10  C10 UNL     1       0.149  -9.764  35.010  1.00  0.00     0.189 C 
BRANCH  10  11
HETATM   11  N1  UNL     1       0.265 -10.200  33.630  1.00  0.00    -0.308 N 
ATOM     12  H1  UNL     1      -0.354 -10.871  33.175  1.00  0.00     0.172 HD
BRANCH  11  13
HETATM   13  S1  UNL     1       1.608  -9.411  32.869  1.00  0.00     0.281 S 
HETATM   14  O2  UNL     1       2.913  -9.794  33.478  1.00  0.00    -0.199 OA
HETATM   15  O3  UNL     1       1.424  -7.929  33.084  1.00  0.00    -0.199 OA
BRANCH  13  16
HETATM   16  C11 UNL     1       1.603  -9.675  31.142  1.00  0.00     0.191 A 
HETATM   17  C12 UNL     1       2.001  -8.720  30.231  1.00  0.00     0.066 A 
HETATM   18  C13 UNL     1       1.851  -9.312  28.988  1.00  0.00     0.001 A 
HETATM   19  C14 UNL     1       2.082  -8.866  27.700  1.00  0.00     0.014 A 
HETATM   20  C18 UNL     1       1.377 -10.579  29.198  1.00  0.00     0.087 A 
HETATM   21  C15 UNL     1       1.830  -9.712  26.645  1.00  0.00     0.001 A 
HETATM   22  C16 UNL     1       1.348 -10.995  26.879  1.00  0.00     0.003 A 
HETATM   23  C17 UNL     1       1.114 -11.449  28.161  1.00  0.00     0.038 A 
HETATM   24  O4  UNL     1       1.244 -10.756  30.490  1.00  0.00    -0.296 OA
ENDBRANCH  13  16
ENDBRANCH  11  13
ENDBRANCH  10  11
ENDBRANCH   8  10
BRANCH   9  25
HETATM   25  C19 UNL     1       0.512  -9.482  38.122  1.00  0.00     0.242 C 
BRANCH  25  26
HETATM   26  C20 UNL     1      -0.849  -9.601  38.668  1.00  0.00     0.191 C 
HETATM   27  O5  UNL     1      -0.987  -9.528  39.911  1.00  0.00    -0.647 OA
HETATM   28  O6  UNL     1      -1.993  -9.787  37.904  1.00  0.00    -0.647 OA
ENDBRANCH  25  26
ENDBRANCH   9  25
BRANCH   1  29
HETATM   29  O1  UNL     1       3.329 -15.342  38.647  1.00  0.00    -0.356 OA
HETATM   30  C1  UNL     1       4.547 -15.727  38.072  1.00  0.00     0.210 C 
ENDBRANCH   1  29
TORSDOF 7
ENDMDL
