MODEL 1
REMARK VINA RESULT: -10.091329895      0.000      0.000
REMARK  7 active torsions:
REMARK  status: ('A' for Active; 'I' for Inactive)
REMARK    1  A    between atoms: O1_2  and  C2_3 
REMARK    2  A    between atoms: C9_10  and  C10_11 
REMARK    3  A    between atoms: C10_11  and  N1_12 
REMARK    4  A    between atoms: N1_12  and  S1_14 
REMARK    5  A    between atoms: S1_14  and  C11_17 
REMARK    6  A    between atoms: N2_26  and  C19_27 
REMARK    7  A    between atoms: C19_27  and  C20_28 
ROOT
HETATM    1  C2  UNL     1      -1.238  -8.575  40.795  1.00  0.00     0.069 A 
HETATM    2  C3  UNL     1      -0.540  -9.681  41.240  1.00  0.00     0.039 A 
HETATM    3  C4  UNL     1       0.264 -10.352  40.351  1.00  0.00     0.033 A 
HETATM    4  C5  UNL     1       0.378  -9.937  39.037  1.00  0.00     0.045 A 
HETATM    5  C6  UNL     1      -0.304  -8.849  38.583  1.00  0.00    -0.005 A 
HETATM    6  C7  UNL     1      -1.109  -8.180  39.480  1.00  0.00     0.050 A 
HETATM    7  C8  UNL     1       0.021  -8.704  37.254  1.00  0.00     0.040 A 
HETATM    8  C9  UNL     1       0.915  -9.718  36.886  1.00  0.00     0.032 A 
HETATM    9  N2  UNL     1       1.100 -10.439  38.003  1.00  0.00    -0.338 N 
ENDROOT
BRANCH   8  10
HETATM   10  C10 UNL     1       1.496  -9.880  35.534  1.00  0.00     0.189 C 
BRANCH  10  11
HETATM   11  N1  UNL     1       0.495 -10.059  34.497  1.00  0.00    -0.308 N 
ATOM     12  H1  UNL     1      -0.355  -9.503  34.402  1.00  0.00     0.172 HD
BRANCH  11  13
HETATM   13  S1  UNL     1       0.957 -11.355  33.442  1.00  0.00     0.281 S 
HETATM   14  O2  UNL     1      -0.013 -12.485  33.469  1.00  0.00    -0.199 OA
HETATM   15  O3  UNL     1       2.279 -11.879  33.948  1.00  0.00    -0.199 OA
BRANCH  13  16
HETATM   16  C11 UNL     1       1.231 -10.782  31.816  1.00  0.00     0.191 A 
HETATM   17  C12 UNL     1       1.632  -9.495  31.525  1.00  0.00     0.066 A 
HETATM   18  C13 UNL     1       1.735  -9.444  30.145  1.00  0.00     0.001 A 
HETATM   19  C14 UNL     1       2.090  -8.439  29.265  1.00  0.00     0.014 A 
HETATM   20  C18 UNL     1       1.398 -10.682  29.668  1.00  0.00     0.087 A 
HETATM   21  C15 UNL     1       2.098  -8.704  27.916  1.00  0.00     0.001 A 
HETATM   22  C16 UNL     1       1.751  -9.968  27.451  1.00  0.00     0.003 A 
HETATM   23  C17 UNL     1       1.396 -10.977  28.321  1.00  0.00     0.038 A 
HETATM   24  O4  UNL     1       1.105 -11.447  30.691  1.00  0.00    -0.296 OA
ENDBRANCH  13  16
ENDBRANCH  11  13
ENDBRANCH  10  11
ENDBRANCH   8  10
BRANCH   9  25
HETATM   25  C19 UNL     1       1.949 -11.607  38.125  1.00  0.00     0.242 C 
BRANCH  25  26
HETATM   26  C20 UNL     1       1.256 -12.873  37.839  1.00  0.00     0.191 C 
HETATM   27  O5  UNL     1       1.175 -13.714  38.764  1.00  0.00    -0.647 OA
HETATM   28  O6  UNL     1       0.684 -13.203  36.619  1.00  0.00    -0.647 OA
ENDBRANCH  25  26
ENDBRANCH   9  25
BRANCH   1  29
HETATM   29  O1  UNL     1      -2.053  -7.890  41.691  1.00  0.00    -0.356 OA
HETATM   30  C1  UNL     1      -2.841  -6.797  41.309  1.00  0.00     0.210 C 
ENDBRANCH   1  29
TORSDOF 7
ENDMDL
