MODEL 4
REMARK VINA RESULT: -9.948995660      4.220      8.606
REMARK  6 active torsions:
REMARK  status: ('A' for Active; 'I' for Inactive)
REMARK    1  A    between atoms: O1_2  and  C2_3 
REMARK    2  A    between atoms: C9_10  and  C10_11 
REMARK       I    between atoms: C10_11  and  N1_13 
REMARK    3  A    between atoms: N1_13  and  S1_15 
REMARK    4  A    between atoms: S1_15  and  C11_18 
REMARK    5  A    between atoms: N2_27  and  C19_28 
REMARK    6  A    between atoms: C19_28  and  C20_29 
ROOT
HETATM    1  C10 UNL     1      16.148  10.073   1.715  1.00  0.00     0.282 C 
HETATM    2  O2  UNL     1      16.141   9.038   2.428  1.00  0.00    -0.265 OA
HETATM    3  N1  UNL     1      16.589  11.291   2.301  1.00  0.00    -0.243 N 
ATOM      4  H1  UNL     1      16.589  12.126   1.714  1.00  0.00     0.182 HD
ENDROOT
BRANCH   1   5
HETATM    5  C9  UNL     1      15.714  10.035   0.312  1.00  0.00     0.105 A 
HETATM    6  C8  UNL     1      14.422  10.095  -0.172  1.00  0.00     0.049 A 
HETATM    7  C6  UNL     1      14.427  10.035  -1.547  1.00  0.00    -0.004 A 
HETATM    8  C5  UNL     1      15.763   9.937  -1.895  1.00  0.00     0.046 A 
HETATM    9  C7  UNL     1      13.433  10.056  -2.507  1.00  0.00     0.050 A 
HETATM   10  C4  UNL     1      16.043   9.862  -3.242  1.00  0.00     0.033 A 
HETATM   11  N2  UNL     1      16.517   9.939  -0.756  1.00  0.00    -0.332 N 
HETATM   12  C3  UNL     1      15.043   9.884  -4.205  1.00  0.00     0.039 A 
HETATM   13  C2  UNL     1      13.717   9.982  -3.841  1.00  0.00     0.069 A 
BRANCH  13  14
HETATM   14  O1  UNL     1      12.692  10.007  -4.776  1.00  0.00    -0.356 OA
HETATM   15  C1  UNL     1      11.555   9.191  -4.590  1.00  0.00     0.210 C 
ENDBRANCH  13  14
BRANCH  11  16
HETATM   16  C19 UNL     1      17.950   9.849  -0.761  1.00  0.00     0.242 C 
BRANCH  16  17
HETATM   17  C20 UNL     1      18.521  11.209  -0.499  1.00  0.00     0.191 C 
HETATM   18  O6  UNL     1      19.758  11.326  -0.552  1.00  0.00    -0.647 OA
HETATM   19  O7  UNL     1      17.715  12.292  -0.211  1.00  0.00    -0.647 OA
ENDBRANCH  16  17
ENDBRANCH  11  16
ENDBRANCH   1   5
BRANCH   3  20
HETATM   20  S1  UNL     1      17.121  11.457   3.926  1.00  0.00     0.287 S 
HETATM   21  O3  UNL     1      17.036  12.921   4.309  1.00  0.00    -0.198 OA
HETATM   22  O4  UNL     1      18.570  11.062   4.017  1.00  0.00    -0.198 OA
BRANCH  20  23
HETATM   23  C11 UNL     1      16.167  10.504   5.039  1.00  0.00     0.191 A 
HETATM   24  C12 UNL     1      16.711   9.569   5.905  1.00  0.00     0.066 A 
HETATM   25  C13 UNL     1      15.673   9.001   6.641  1.00  0.00     0.001 A 
HETATM   26  C14 UNL     1      15.610   8.040   7.626  1.00  0.00     0.014 A 
HETATM   27  C18 UNL     1      14.539   9.630   6.176  1.00  0.00     0.087 A 
HETATM   28  C15 UNL     1      14.415   7.668   8.189  1.00  0.00     0.001 A 
HETATM   29  C16 UNL     1      13.272   8.287   7.735  1.00  0.00     0.003 A 
HETATM   30  C17 UNL     1      13.333   9.249   6.749  1.00  0.00     0.038 A 
HETATM   31  O5  UNL     1      14.893  10.491   5.248  1.00  0.00    -0.296 OA
ENDBRANCH  20  23
ENDBRANCH   3  20
TORSDOF 6
ENDMDL
