MODEL 5
REMARK VINA RESULT: -9.907101402      2.533      3.118
REMARK  6 active torsions:
REMARK  status: ('A' for Active; 'I' for Inactive)
REMARK    1  A    between atoms: O1_2  and  C2_3 
REMARK    2  A    between atoms: C9_10  and  C10_11 
REMARK       I    between atoms: C10_11  and  N1_13 
REMARK    3  A    between atoms: N1_13  and  S1_15 
REMARK    4  A    between atoms: S1_15  and  C11_18 
REMARK    5  A    between atoms: N2_27  and  C19_28 
REMARK    6  A    between atoms: C19_28  and  C20_29 
ROOT
HETATM    1  C10 UNL     1      16.669  10.218   2.072  1.00  0.00     0.282 C 
HETATM    2  O2  UNL     1      16.198  11.345   1.775  1.00  0.00    -0.265 OA
HETATM    3  N1  UNL     1      15.851   9.072   1.869  1.00  0.00    -0.243 N 
ATOM      4  H1  UNL     1      16.242   8.162   2.114  1.00  0.00     0.182 HD
ENDROOT
BRANCH   1   5
HETATM    5  C9  UNL     1      18.027  10.078   2.613  1.00  0.00     0.105 A 
HETATM    6  C8  UNL     1      18.405  10.037   3.941  1.00  0.00     0.049 A 
HETATM    7  C6  UNL     1      19.769   9.892   4.042  1.00  0.00    -0.004 A 
HETATM    8  C5  UNL     1      20.221   9.844   2.734  1.00  0.00     0.046 A 
HETATM    9  C7  UNL     1      20.643   9.798   5.109  1.00  0.00     0.050 A 
HETATM   10  C4  UNL     1      21.579   9.699   2.559  1.00  0.00     0.033 A 
HETATM   11  N2  UNL     1      19.151   9.959   1.894  1.00  0.00    -0.332 N 
HETATM   12  C3  UNL     1      22.456   9.604   3.632  1.00  0.00     0.039 A 
HETATM   13  C2  UNL     1      21.989   9.654   4.928  1.00  0.00     0.069 A 
BRANCH  13  14
HETATM   14  O1  UNL     1      22.835   9.563   6.024  1.00  0.00    -0.356 OA
HETATM   15  C1  UNL     1      22.331   9.107   7.262  1.00  0.00     0.210 C 
ENDBRANCH  13  14
BRANCH  11  16
HETATM   16  C19 UNL     1      19.270   9.947   0.463  1.00  0.00     0.242 C 
BRANCH  16  17
HETATM   17  C20 UNL     1      19.531  11.343  -0.013  1.00  0.00     0.191 C 
HETATM   18  O6  UNL     1      20.711  11.735  -0.010  1.00  0.00    -0.647 OA
HETATM   19  O7  UNL     1      18.509  12.168  -0.439  1.00  0.00    -0.647 OA
ENDBRANCH  16  17
ENDBRANCH  11  16
ENDBRANCH   1   5
BRANCH   3  20
HETATM   20  S1  UNL     1      14.253   9.112   1.241  1.00  0.00     0.287 S 
HETATM   21  O3  UNL     1      13.500  10.237   1.920  1.00  0.00    -0.198 OA
HETATM   22  O4  UNL     1      13.547   7.832   1.598  1.00  0.00    -0.198 OA
BRANCH  20  23
HETATM   23  C11 UNL     1      14.225   9.351  -0.492  1.00  0.00     0.191 A 
HETATM   24  C12 UNL     1      15.367   9.504  -1.260  1.00  0.00     0.066 A 
HETATM   25  C13 UNL     1      14.980   9.672  -2.588  1.00  0.00     0.001 A 
HETATM   26  C14 UNL     1      15.663   9.864  -3.769  1.00  0.00     0.014 A 
HETATM   27  C18 UNL     1      13.604   9.612  -2.554  1.00  0.00     0.087 A 
HETATM   28  C15 UNL     1      15.003  10.001  -4.964  1.00  0.00     0.001 A 
HETATM   29  C16 UNL     1      13.628   9.944  -4.948  1.00  0.00     0.003 A 
HETATM   30  C17 UNL     1      12.942   9.753  -3.766  1.00  0.00     0.038 A 
HETATM   31  O5  UNL     1      13.228   9.424  -1.309  1.00  0.00    -0.296 OA
ENDBRANCH  20  23
ENDBRANCH   3  20
TORSDOF 6
ENDMDL
