MODEL 2
REMARK VINA RESULT: -10.064406501      0.539      1.211
REMARK  6 active torsions:
REMARK  status: ('A' for Active; 'I' for Inactive)
REMARK    1  A    between atoms: O1_2  and  C2_3 
REMARK    2  A    between atoms: C9_10  and  C10_11 
REMARK       I    between atoms: C10_11  and  N1_13 
REMARK    3  A    between atoms: N1_13  and  S1_15 
REMARK    4  A    between atoms: S1_15  and  C11_18 
REMARK    5  A    between atoms: N2_27  and  C19_28 
REMARK    6  A    between atoms: C19_28  and  C20_29 
ROOT
HETATM    1  C10 UNL     1      18.823   9.975   2.698  1.00  0.00     0.282 C 
HETATM    2  O2  UNL     1      18.680  10.940   3.491  1.00  0.00    -0.265 OA
HETATM    3  N1  UNL     1      17.996   9.926   1.542  1.00  0.00    -0.243 N 
ATOM      4  H1  UNL     1      18.119   9.138   0.905  1.00  0.00     0.182 HD
ENDROOT
BRANCH   1   5
HETATM    5  C9  UNL     1      19.815   8.922   2.950  1.00  0.00     0.105 A 
HETATM    6  C8  UNL     1      19.698   7.839   3.799  1.00  0.00     0.049 A 
HETATM    7  C6  UNL     1      20.841   7.075   3.755  1.00  0.00    -0.004 A 
HETATM    8  C5  UNL     1      21.667   7.720   2.852  1.00  0.00     0.046 A 
HETATM    9  C7  UNL     1      21.238   5.913   4.391  1.00  0.00     0.050 A 
HETATM   10  C4  UNL     1      22.898   7.145   2.624  1.00  0.00     0.033 A 
HETATM   11  N2  UNL     1      21.025   8.830   2.382  1.00  0.00    -0.332 N 
HETATM   12  C3  UNL     1      23.295   5.977   3.263  1.00  0.00     0.039 A 
HETATM   13  C2  UNL     1      22.460   5.347   4.161  1.00  0.00     0.069 A 
BRANCH  13  14
HETATM   14  O1  UNL     1      22.823   4.181   4.818  1.00  0.00    -0.356 OA
HETATM   15  C1  UNL     1      24.082   4.096   5.452  1.00  0.00     0.210 C 
ENDBRANCH  13  14
BRANCH  11  16
HETATM   16  C19 UNL     1      21.606   9.728   1.424  1.00  0.00     0.242 C 
BRANCH  16  17
HETATM   17  C20 UNL     1      21.360   9.192   0.047  1.00  0.00     0.191 C 
HETATM   18  O6  UNL     1      20.180   9.139  -0.342  1.00  0.00    -0.647 OA
HETATM   19  O7  UNL     1      22.396   8.772  -0.764  1.00  0.00    -0.647 OA
ENDBRANCH  16  17
ENDBRANCH  11  16
ENDBRANCH   1   5
BRANCH   3  20
HETATM   20  S1  UNL     1      16.806  11.098   1.141  1.00  0.00     0.287 S 
HETATM   21  O3  UNL     1      17.494  12.437   0.968  1.00  0.00    -0.198 OA
HETATM   22  O4  UNL     1      15.844  11.242   2.288  1.00  0.00    -0.198 OA
BRANCH  20  23
HETATM   23  C11 UNL     1      15.940  10.693  -0.323  1.00  0.00     0.191 A 
HETATM   24  C12 UNL     1      16.565  10.315  -1.501  1.00  0.00     0.066 A 
HETATM   25  C13 UNL     1      15.582  10.067  -2.456  1.00  0.00     0.001 A 
HETATM   26  C14 UNL     1      15.604   9.670  -3.775  1.00  0.00     0.014 A 
HETATM   27  C18 UNL     1      14.396  10.310  -1.798  1.00  0.00     0.087 A 
HETATM   28  C15 UNL     1      14.446   9.498  -4.492  1.00  0.00     0.001 A 
HETATM   29  C16 UNL     1      13.253   9.738  -3.849  1.00  0.00     0.003 A 
HETATM   30  C17 UNL     1      13.228  10.136  -2.529  1.00  0.00     0.038 A 
HETATM   31  O5  UNL     1      14.672  10.669  -0.564  1.00  0.00    -0.296 OA
ENDBRANCH  20  23
ENDBRANCH   3  20
TORSDOF 6
ENDMDL
