MODEL 1
REMARK VINA RESULT: -10.188215480      0.000      0.000
REMARK  6 active torsions:
REMARK  status: ('A' for Active; 'I' for Inactive)
REMARK    1  A    between atoms: O1_2  and  C2_3 
REMARK    2  A    between atoms: C9_10  and  C10_11 
REMARK       I    between atoms: C10_11  and  N1_13 
REMARK    3  A    between atoms: N1_13  and  S1_15 
REMARK    4  A    between atoms: S1_15  and  C11_18 
REMARK    5  A    between atoms: N2_27  and  C19_28 
REMARK    6  A    between atoms: C19_28  and  C20_29 
ROOT
HETATM    1  C10 UNL     1      18.847  10.128   2.437  1.00  0.00     0.282 C 
HETATM    2  O2  UNL     1      18.691  11.128   3.182  1.00  0.00    -0.265 OA
HETATM    3  N1  UNL     1      18.048  10.030   1.265  1.00  0.00    -0.243 N 
ATOM      4  H1  UNL     1      18.182   9.214   0.667  1.00  0.00     0.182 HD
ENDROOT
BRANCH   1   5
HETATM    5  C9  UNL     1      19.828   9.082   2.760  1.00  0.00     0.105 A 
HETATM    6  C8  UNL     1      19.668   8.015   3.621  1.00  0.00     0.049 A 
HETATM    7  C6  UNL     1      20.814   7.254   3.652  1.00  0.00    -0.004 A 
HETATM    8  C5  UNL     1      21.685   7.886   2.781  1.00  0.00     0.046 A 
HETATM    9  C7  UNL     1      21.180   6.106   4.329  1.00  0.00     0.050 A 
HETATM   10  C4  UNL     1      22.927   7.310   2.629  1.00  0.00     0.033 A 
HETATM   11  N2  UNL     1      21.066   8.985   2.258  1.00  0.00    -0.332 N 
HETATM   12  C3  UNL     1      23.293   6.156   3.309  1.00  0.00     0.039 A 
HETATM   13  C2  UNL     1      22.413   5.539   4.174  1.00  0.00     0.069 A 
BRANCH  13  14
HETATM   14  O1  UNL     1      22.744   4.386   4.870  1.00  0.00    -0.356 OA
HETATM   15  C1  UNL     1      24.045   4.235   5.398  1.00  0.00     0.210 C 
ENDBRANCH  13  14
BRANCH  11  16
HETATM   16  C19 UNL     1      21.694   9.867   1.316  1.00  0.00     0.242 C 
BRANCH  16  17
HETATM   17  C20 UNL     1      21.429   9.364  -0.070  1.00  0.00     0.191 C 
HETATM   18  O6  UNL     1      22.349   8.751  -0.639  1.00  0.00    -0.647 OA
HETATM   19  O7  UNL     1      20.216   9.569  -0.697  1.00  0.00    -0.647 OA
ENDBRANCH  16  17
ENDBRANCH  11  16
ENDBRANCH   1   5
BRANCH   3  20
HETATM   20  S1  UNL     1      16.875  11.189   0.783  1.00  0.00     0.287 S 
HETATM   21  O3  UNL     1      17.571  12.520   0.587  1.00  0.00    -0.198 OA
HETATM   22  O4  UNL     1      15.876  11.374   1.891  1.00  0.00    -0.198 OA
BRANCH  20  23
HETATM   23  C11 UNL     1      16.057  10.732  -0.694  1.00  0.00     0.191 A 
HETATM   24  C12 UNL     1      14.681  10.619  -0.801  1.00  0.00     0.066 A 
HETATM   25  C13 UNL     1      14.375  10.241  -2.107  1.00  0.00     0.001 A 
HETATM   26  C14 UNL     1      13.201   9.984  -2.781  1.00  0.00     0.014 A 
HETATM   27  C18 UNL     1      15.599  10.145  -2.731  1.00  0.00     0.087 A 
HETATM   28  C15 UNL     1      13.199   9.622  -4.105  1.00  0.00     0.001 A 
HETATM   29  C16 UNL     1      14.415   9.520  -4.743  1.00  0.00     0.003 A 
HETATM   30  C17 UNL     1      15.591   9.776  -4.070  1.00  0.00     0.038 A 
HETATM   31  O5  UNL     1      16.535  10.442  -1.858  1.00  0.00    -0.296 OA
ENDBRANCH  20  23
ENDBRANCH   3  20
TORSDOF 6
ENDMDL
