MODEL 10
REMARK VINA RESULT: -10.548444826      3.945      5.237
REMARK  9 active torsions:
REMARK  status: ('A' for Active; 'I' for Inactive)
REMARK    1  A    between atoms: C1_2  and  C2_3 
REMARK       I    between atoms: C1_2  and  N3_30 
REMARK    2  A    between atoms: C2_3  and  S1_4 
REMARK    3  A    between atoms: S1_4  and  C3_5 
REMARK    4  A    between atoms: N1_7  and  C5_8 
REMARK    5  A    between atoms: C5_8  and  C6_9 
REMARK    6  A    between atoms: C6_9  and  N2_10 
REMARK       I    between atoms: N2_10  and  C7_12 
REMARK    7  A    between atoms: C7_12  and  C8_14 
REMARK    8  A    between atoms: C12_18  and  C13_19 
REMARK    9  A    between atoms: N3_30  and  C21_32 
ROOT
HETATM    1  C3  UNL     1      18.710   3.077 -22.679  1.00  0.00     0.029 A 
HETATM    2  C4  UNL     1      18.601   2.885 -21.304  1.00  0.00     0.110 A 
HETATM    3  N1  UNL     1      18.690   1.579 -20.999  1.00  0.00    -0.353 N 
HETATM    4  C15 UNL     1      18.862   0.859 -22.148  1.00  0.00     0.045 A 
HETATM    5  C16 UNL     1      19.008  -0.498 -22.386  1.00  0.00     0.030 A 
HETATM    6  C17 UNL     1      19.167  -0.920 -23.684  1.00  0.00     0.002 A 
HETATM    7  C18 UNL     1      19.180  -0.013 -24.718  1.00  0.00     0.001 A 
HETATM    8  C19 UNL     1      19.035   1.351 -24.490  1.00  0.00     0.015 A 
HETATM    9  C20 UNL     1      18.875   1.774 -23.176  1.00  0.00     0.009 A 
ENDROOT
BRANCH   1  10
HETATM   10  S1  UNL     1      18.598   4.526 -23.670  1.00  0.00    -0.118 SA
BRANCH  10  11
HETATM   11  C2  UNL     1      19.603   5.908 -23.224  1.00  0.00     0.182 C 
BRANCH  11  12
HETATM   12  C1  UNL     1      18.850   7.189 -22.983  1.00  0.00     0.231 C 
HETATM   13  O1  UNL     1      18.872   8.087 -23.820  1.00  0.00    -0.272 OA
HETATM   14  N3  UNL     1      18.123   7.321 -21.754  1.00  0.00    -0.326 N 
ATOM     15  H3  UNL     1      18.143   6.527 -21.113  1.00  0.00     0.169 HD
BRANCH  14  16
HETATM   16  C21 UNL     1      17.384   8.447 -21.355  1.00  0.00     0.037 A 
HETATM   17  C22 UNL     1      17.927   9.575 -20.836  1.00  0.00     0.032 A 
HETATM   18  C23 UNL     1      17.125  10.616 -20.416  1.00  0.00     0.042 A 
HETATM   19  C24 UNL     1      15.760  10.514 -20.524  1.00  0.00     0.102 A 
HETATM   20  C25 UNL     1      15.209   9.369 -21.050  1.00  0.00     0.104 A 
HETATM   21  O4  UNL     1      14.930  11.541 -20.110  1.00  0.00    -0.346 OA
HETATM   22  C26 UNL     1      16.000   8.351 -21.461  1.00  0.00     0.069 A 
HETATM   23  O3  UNL     1      13.813   9.298 -21.144  1.00  0.00    -0.346 OA
HETATM   24  C27 UNL     1      13.024  10.022 -20.230  1.00  0.00     0.202 C 
HETATM   25  C28 UNL     1      13.536  11.444 -20.055  1.00  0.00     0.202 C 
ENDBRANCH  14  16
ENDBRANCH  11  12
ENDBRANCH  10  11
ENDBRANCH   1  10
BRANCH   3  26
HETATM   26  C5  UNL     1      18.568   0.894 -19.720  1.00  0.00     0.148 C 
BRANCH  26  27
HETATM   27  C6  UNL     1      19.894   0.983 -18.986  1.00  0.00     0.143 C 
BRANCH  27  28
HETATM   28  N2  UNL     1      20.757  -0.118 -19.289  1.00  0.00    -0.355 N 
HETATM   29  C7  UNL     1      21.854  -0.005 -20.199  1.00  0.00     0.251 C 
HETATM   30  O2  UNL     1      22.050   1.125 -20.742  1.00  0.00    -0.268 OA
ATOM     31  H2  UNL     1      20.582  -1.017 -18.841  1.00  0.00     0.162 HD
BRANCH  29  32
HETATM   32  C8  UNL     1      22.685  -1.153 -20.469  1.00  0.00     0.032 A 
HETATM   33  C9  UNL     1      23.806  -0.959 -21.256  1.00  0.00     0.017 A 
HETATM   34  C10 UNL     1      24.655  -2.003 -21.559  1.00  0.00     0.002 A 
HETATM   35  C11 UNL     1      24.411  -3.271 -21.087  1.00  0.00     0.016 A 
HETATM   36  C12 UNL     1      23.289  -3.489 -20.295  1.00  0.00     0.048 A 
HETATM   37  C14 UNL     1      22.460  -2.425 -20.009  1.00  0.00     0.033 A 
BRANCH  36  38
HETATM   38  C13 UNL     1      23.025  -4.855 -19.785  1.00  0.00     0.417 C 
HETATM   39  F1  UNL     1      23.764  -5.780 -20.521  1.00  0.00    -0.166 F 
HETATM   40  F2  UNL     1      21.685  -5.176 -19.896  1.00  0.00    -0.166 F 
HETATM   41  F3  UNL     1      23.432  -4.873 -18.462  1.00  0.00    -0.166 F 
ENDBRANCH  36  38
ENDBRANCH  29  32
ENDBRANCH  27  28
ENDBRANCH  26  27
ENDBRANCH   3  26
TORSDOF 9
ENDMDL
