MODEL 11
REMARK VINA RESULT: -10.457011147      4.330      8.993
REMARK  9 active torsions:
REMARK  status: ('A' for Active; 'I' for Inactive)
REMARK    1  A    between atoms: C1_2  and  C2_3 
REMARK       I    between atoms: C1_2  and  N3_30 
REMARK    2  A    between atoms: C2_3  and  S1_4 
REMARK    3  A    between atoms: S1_4  and  C3_5 
REMARK    4  A    between atoms: N1_7  and  C5_8 
REMARK    5  A    between atoms: C5_8  and  C6_9 
REMARK    6  A    between atoms: C6_9  and  N2_10 
REMARK       I    between atoms: N2_10  and  C7_12 
REMARK    7  A    between atoms: C7_12  and  C8_14 
REMARK    8  A    between atoms: C12_18  and  C13_19 
REMARK    9  A    between atoms: N3_30  and  C21_32 
ROOT
HETATM    1  C3  UNL     1      18.876   1.205 -20.898  1.00  0.00     0.029 A 
HETATM    2  C4  UNL     1      19.358   0.415 -21.937  1.00  0.00     0.110 A 
HETATM    3  N1  UNL     1      19.046   0.954 -23.128  1.00  0.00    -0.353 N 
HETATM    4  C15 UNL     1      18.353   2.114 -22.929  1.00  0.00     0.045 A 
HETATM    5  C16 UNL     1      17.810   3.040 -23.805  1.00  0.00     0.030 A 
HETATM    6  C17 UNL     1      17.157   4.130 -23.282  1.00  0.00     0.002 A 
HETATM    7  C18 UNL     1      17.047   4.293 -21.921  1.00  0.00     0.001 A 
HETATM    8  C19 UNL     1      17.588   3.370 -21.033  1.00  0.00     0.015 A 
HETATM    9  C20 UNL     1      18.249   2.270 -21.565  1.00  0.00     0.009 A 
ENDROOT
BRANCH   1  10
HETATM   10  S1  UNL     1      18.906   0.988 -19.152  1.00  0.00    -0.118 SA
BRANCH  10  11
HETATM   11  C2  UNL     1      20.480   0.964 -18.353  1.00  0.00     0.182 C 
BRANCH  11  12
HETATM   12  C1  UNL     1      21.311  -0.262 -18.626  1.00  0.00     0.231 C 
HETATM   13  O1  UNL     1      21.531  -1.073 -17.730  1.00  0.00    -0.272 OA
HETATM   14  N3  UNL     1      21.835  -0.439 -19.949  1.00  0.00    -0.326 N 
ATOM     15  H3  UNL     1      21.600   0.272 -20.642  1.00  0.00     0.169 HD
BRANCH  14  16
HETATM   16  C21 UNL     1      22.642  -1.506 -20.375  1.00  0.00     0.037 A 
HETATM   17  C22 UNL     1      23.849  -1.362 -20.974  1.00  0.00     0.032 A 
HETATM   18  C23 UNL     1      24.555  -2.464 -21.414  1.00  0.00     0.042 A 
HETATM   19  C24 UNL     1      24.032  -3.723 -21.244  1.00  0.00     0.102 A 
HETATM   20  C25 UNL     1      22.807  -3.868 -20.636  1.00  0.00     0.104 A 
HETATM   21  O4  UNL     1      24.717  -4.845 -21.676  1.00  0.00    -0.346 OA
HETATM   22  C26 UNL     1      22.120  -2.785 -20.207  1.00  0.00     0.069 A 
HETATM   23  O3  UNL     1      22.304  -5.167 -20.481  1.00  0.00    -0.346 OA
HETATM   24  C27 UNL     1      22.683  -6.166 -21.398  1.00  0.00     0.202 C 
HETATM   25  C28 UNL     1      24.180  -6.137 -21.668  1.00  0.00     0.202 C 
ENDBRANCH  14  16
ENDBRANCH  11  12
ENDBRANCH  10  11
ENDBRANCH   1  10
BRANCH   3  26
HETATM   26  C5  UNL     1      19.275   0.464 -24.480  1.00  0.00     0.148 C 
BRANCH  26  27
HETATM   27  C6  UNL     1      20.672   0.865 -24.919  1.00  0.00     0.143 C 
BRANCH  27  28
HETATM   28  N2  UNL     1      20.764   2.260 -25.226  1.00  0.00    -0.355 N 
HETATM   29  C7  UNL     1      21.400   3.197 -24.353  1.00  0.00     0.251 C 
HETATM   30  O2  UNL     1      21.894   2.749 -23.274  1.00  0.00    -0.268 OA
ATOM     31  H2  UNL     1      20.361   2.598 -26.100  1.00  0.00     0.162 HD
BRANCH  29  32
HETATM   32  C8  UNL     1      21.456   4.592 -24.716  1.00  0.00     0.032 A 
HETATM   33  C9  UNL     1      20.858   5.499 -23.858  1.00  0.00     0.017 A 
HETATM   34  C10 UNL     1      20.870   6.851 -24.128  1.00  0.00     0.002 A 
HETATM   35  C11 UNL     1      21.477   7.340 -25.260  1.00  0.00     0.016 A 
HETATM   36  C12 UNL     1      22.083   6.446 -26.137  1.00  0.00     0.048 A 
HETATM   37  C14 UNL     1      22.056   5.101 -25.839  1.00  0.00     0.033 A 
BRANCH  36  38
HETATM   38  C13 UNL     1      22.738   6.972 -27.358  1.00  0.00     0.417 C 
HETATM   39  F1  UNL     1      21.946   6.692 -28.471  1.00  0.00    -0.166 F 
HETATM   40  F2  UNL     1      23.979   6.390 -27.545  1.00  0.00    -0.166 F 
HETATM   41  F3  UNL     1      22.851   8.342 -27.193  1.00  0.00    -0.166 F 
ENDBRANCH  36  38
ENDBRANCH  29  32
ENDBRANCH  27  28
ENDBRANCH  26  27
ENDBRANCH   3  26
TORSDOF 9
ENDMDL
