MODEL 7
REMARK VINA RESULT: -10.582918041      4.123      8.673
REMARK  9 active torsions:
REMARK  status: ('A' for Active; 'I' for Inactive)
REMARK    1  A    between atoms: C1_2  and  C2_3 
REMARK       I    between atoms: C1_2  and  N3_30 
REMARK    2  A    between atoms: C2_3  and  S1_4 
REMARK    3  A    between atoms: S1_4  and  C3_5 
REMARK    4  A    between atoms: N1_7  and  C5_8 
REMARK    5  A    between atoms: C5_8  and  C6_9 
REMARK    6  A    between atoms: C6_9  and  N2_10 
REMARK       I    between atoms: N2_10  and  C7_12 
REMARK    7  A    between atoms: C7_12  and  C8_14 
REMARK    8  A    between atoms: C12_18  and  C13_19 
REMARK    9  A    between atoms: N3_30  and  C21_32 
ROOT
HETATM    1  C3  UNL     1      18.931   0.990 -20.568  1.00  0.00     0.029 A 
HETATM    2  C4  UNL     1      19.333   0.043 -21.507  1.00  0.00     0.110 A 
HETATM    3  N1  UNL     1      18.859   0.351 -22.725  1.00  0.00    -0.353 N 
HETATM    4  C15 UNL     1      18.133   1.506 -22.648  1.00  0.00     0.045 A 
HETATM    5  C16 UNL     1      17.446   2.243 -23.598  1.00  0.00     0.030 A 
HETATM    6  C17 UNL     1      16.800   3.388 -23.197  1.00  0.00     0.002 A 
HETATM    7  C18 UNL     1      16.838   3.787 -21.881  1.00  0.00     0.001 A 
HETATM    8  C19 UNL     1      17.525   3.055 -20.919  1.00  0.00     0.015 A 
HETATM    9  C20 UNL     1      18.177   1.899 -21.329  1.00  0.00     0.009 A 
ENDROOT
BRANCH   1  10
HETATM   10  S1  UNL     1      19.172   1.089 -18.829  1.00  0.00    -0.118 SA
BRANCH  10  11
HETATM   11  C2  UNL     1      20.827   0.993 -18.220  1.00  0.00     0.182 C 
BRANCH  11  12
HETATM   12  C1  UNL     1      21.555  -0.279 -18.563  1.00  0.00     0.231 C 
HETATM   13  O1  UNL     1      21.617  -1.196 -17.748  1.00  0.00    -0.272 OA
HETATM   14  N3  UNL     1      22.172  -0.375 -19.854  1.00  0.00    -0.326 N 
ATOM     15  H3  UNL     1      22.068   0.425 -20.480  1.00  0.00     0.169 HD
BRANCH  14  16
HETATM   16  C21 UNL     1      22.906  -1.472 -20.333  1.00  0.00     0.037 A 
HETATM   17  C22 UNL     1      24.095  -1.377 -20.976  1.00  0.00     0.032 A 
HETATM   18  C23 UNL     1      24.725  -2.503 -21.465  1.00  0.00     0.042 A 
HETATM   19  C24 UNL     1      24.145  -3.737 -21.300  1.00  0.00     0.102 A 
HETATM   20  C25 UNL     1      22.939  -3.833 -20.648  1.00  0.00     0.104 A 
HETATM   21  O4  UNL     1      24.753  -4.883 -21.781  1.00  0.00    -0.346 OA
HETATM   22  C26 UNL     1      22.325  -2.726 -20.170  1.00  0.00     0.069 A 
HETATM   23  O3  UNL     1      22.375  -5.107 -20.499  1.00  0.00    -0.346 OA
HETATM   24  C27 UNL     1      22.666  -6.104 -21.450  1.00  0.00     0.202 C 
HETATM   25  C28 UNL     1      24.151  -6.146 -21.778  1.00  0.00     0.202 C 
ENDBRANCH  14  16
ENDBRANCH  11  12
ENDBRANCH  10  11
ENDBRANCH   1  10
BRANCH   3  26
HETATM   26  C5  UNL     1      18.958  -0.365 -23.990  1.00  0.00     0.148 C 
BRANCH  26  27
HETATM   27  C6  UNL     1      20.249   0.033 -24.681  1.00  0.00     0.143 C 
BRANCH  27  28
HETATM   28  N2  UNL     1      20.343   1.447 -24.883  1.00  0.00    -0.355 N 
HETATM   29  C7  UNL     1      21.183   2.282 -24.083  1.00  0.00     0.251 C 
HETATM   30  O2  UNL     1      21.861   1.724 -23.168  1.00  0.00    -0.268 OA
ATOM     31  H2  UNL     1      19.790   1.875 -25.626  1.00  0.00     0.162 HD
BRANCH  29  32
HETATM   32  C8  UNL     1      21.230   3.703 -24.331  1.00  0.00     0.032 A 
HETATM   33  C9  UNL     1      22.031   4.143 -25.369  1.00  0.00     0.017 A 
HETATM   34  C10 UNL     1      22.129   5.484 -25.677  1.00  0.00     0.002 A 
HETATM   35  C11 UNL     1      21.432   6.425 -24.957  1.00  0.00     0.016 A 
HETATM   36  C12 UNL     1      20.622   6.005 -23.908  1.00  0.00     0.048 A 
HETATM   37  C14 UNL     1      20.544   4.658 -23.626  1.00  0.00     0.033 A 
BRANCH  36  38
HETATM   38  C13 UNL     1      19.870   7.019 -23.131  1.00  0.00     0.417 C 
HETATM   39  F1  UNL     1      19.021   6.381 -22.227  1.00  0.00    -0.166 F 
HETATM   40  F2  UNL     1      19.105   7.815 -23.963  1.00  0.00    -0.166 F 
HETATM   41  F3  UNL     1      20.807   7.773 -22.445  1.00  0.00    -0.166 F 
ENDBRANCH  36  38
ENDBRANCH  29  32
ENDBRANCH  27  28
ENDBRANCH  26  27
ENDBRANCH   3  26
TORSDOF 9
ENDMDL
