MODEL 2
REMARK VINA RESULT: -11.366785063      0.698      1.353
REMARK  9 active torsions:
REMARK  status: ('A' for Active; 'I' for Inactive)
REMARK    1  A    between atoms: C1_2  and  C2_3 
REMARK       I    between atoms: C1_2  and  N3_30 
REMARK    2  A    between atoms: C2_3  and  S1_4 
REMARK    3  A    between atoms: S1_4  and  C3_5 
REMARK    4  A    between atoms: N1_7  and  C5_8 
REMARK    5  A    between atoms: C5_8  and  C6_9 
REMARK    6  A    between atoms: C6_9  and  N2_10 
REMARK       I    between atoms: N2_10  and  C7_12 
REMARK    7  A    between atoms: C7_12  and  C8_14 
REMARK    8  A    between atoms: C12_18  and  C13_19 
REMARK    9  A    between atoms: N3_30  and  C21_32 
ROOT
HETATM    1  C3  UNL     1      19.000   0.140 -22.535  1.00  0.00     0.029 A 
HETATM    2  C4  UNL     1      19.349  -0.169 -21.223  1.00  0.00     0.110 A 
HETATM    3  N1  UNL     1      18.833   0.731 -20.370  1.00  0.00    -0.353 N 
HETATM    4  C15 UNL     1      18.125   1.664 -21.073  1.00  0.00     0.045 A 
HETATM    5  C16 UNL     1      17.408   2.782 -20.681  1.00  0.00     0.030 A 
HETATM    6  C17 UNL     1      16.791   3.537 -21.650  1.00  0.00     0.002 A 
HETATM    7  C18 UNL     1      16.887   3.184 -22.976  1.00  0.00     0.001 A 
HETATM    8  C19 UNL     1      17.603   2.064 -23.380  1.00  0.00     0.015 A 
HETATM    9  C20 UNL     1      18.225   1.304 -22.398  1.00  0.00     0.009 A 
ENDROOT
BRANCH   1  10
HETATM   10  S1  UNL     1      19.428  -0.609 -24.068  1.00  0.00    -0.118 SA
BRANCH  10  11
HETATM   11  C2  UNL     1      20.931  -0.100 -24.842  1.00  0.00     0.182 C 
BRANCH  11  12
HETATM   12  C1  UNL     1      20.974   1.349 -25.251  1.00  0.00     0.231 C 
HETATM   13  O1  UNL     1      20.944   1.657 -26.440  1.00  0.00    -0.272 OA
HETATM   14  N3  UNL     1      21.059   2.339 -24.217  1.00  0.00    -0.326 N 
ATOM     15  H3  UNL     1      21.069   2.005 -23.253  1.00  0.00     0.169 HD
BRANCH  14  16
HETATM   16  C21 UNL     1      21.128   3.728 -24.415  1.00  0.00     0.037 A 
HETATM   17  C22 UNL     1      21.979   4.337 -25.276  1.00  0.00     0.032 A 
HETATM   18  C23 UNL     1      22.022   5.713 -25.369  1.00  0.00     0.042 A 
HETATM   19  C24 UNL     1      21.196   6.478 -24.583  1.00  0.00     0.102 A 
HETATM   20  C25 UNL     1      20.333   5.859 -23.710  1.00  0.00     0.104 A 
HETATM   21  O4  UNL     1      21.218   7.860 -24.655  1.00  0.00    -0.346 OA
HETATM   22  C26 UNL     1      20.294   4.510 -23.623  1.00  0.00     0.069 A 
HETATM   23  O3  UNL     1      19.505   6.671 -22.923  1.00  0.00    -0.346 OA
HETATM   24  C27 UNL     1      19.935   7.967 -22.582  1.00  0.00     0.202 C 
HETATM   25  C28 UNL     1      20.514   8.698 -23.784  1.00  0.00     0.202 C 
ENDBRANCH  14  16
ENDBRANCH  11  12
ENDBRANCH  10  11
ENDBRANCH   1  10
BRANCH   3  26
HETATM   26  C5  UNL     1      18.979   0.861 -18.926  1.00  0.00     0.148 C 
BRANCH  26  27
HETATM   27  C6  UNL     1      20.440   1.113 -18.600  1.00  0.00     0.143 C 
BRANCH  27  28
HETATM   28  N2  UNL     1      21.320   0.331 -19.413  1.00  0.00    -0.355 N 
HETATM   29  C7  UNL     1      21.873  -0.911 -18.970  1.00  0.00     0.251 C 
HETATM   30  O2  UNL     1      21.554  -1.312 -17.809  1.00  0.00    -0.268 OA
ATOM     31  H2  UNL     1      21.563   0.672 -20.343  1.00  0.00     0.162 HD
BRANCH  29  32
HETATM   32  C8  UNL     1      22.761  -1.651 -19.833  1.00  0.00     0.032 A 
HETATM   33  C9  UNL     1      23.688  -0.931 -20.564  1.00  0.00     0.017 A 
HETATM   34  C10 UNL     1      24.577  -1.561 -21.410  1.00  0.00     0.002 A 
HETATM   35  C11 UNL     1      24.566  -2.928 -21.553  1.00  0.00     0.016 A 
HETATM   36  C12 UNL     1      23.641  -3.672 -20.828  1.00  0.00     0.048 A 
HETATM   37  C14 UNL     1      22.768  -3.014 -19.990  1.00  0.00     0.033 A 
BRANCH  36  38
HETATM   38  C13 UNL     1      23.629  -5.147 -20.980  1.00  0.00     0.417 C 
HETATM   39  F1  UNL     1      24.677  -5.540 -21.812  1.00  0.00    -0.166 F 
HETATM   40  F2  UNL     1      22.440  -5.578 -21.539  1.00  0.00    -0.166 F 
HETATM   41  F3  UNL     1      23.806  -5.680 -19.715  1.00  0.00    -0.166 F 
ENDBRANCH  36  38
ENDBRANCH  29  32
ENDBRANCH  27  28
ENDBRANCH  26  27
ENDBRANCH   3  26
TORSDOF 9
ENDMDL
