MODEL 1
REMARK VINA RESULT: -11.556021133      0.000      0.000
REMARK  9 active torsions:
REMARK  status: ('A' for Active; 'I' for Inactive)
REMARK    1  A    between atoms: C1_2  and  C2_3 
REMARK       I    between atoms: C1_2  and  N3_30 
REMARK    2  A    between atoms: C2_3  and  S1_4 
REMARK    3  A    between atoms: S1_4  and  C3_5 
REMARK    4  A    between atoms: N1_7  and  C5_8 
REMARK    5  A    between atoms: C5_8  and  C6_9 
REMARK    6  A    between atoms: C6_9  and  N2_10 
REMARK       I    between atoms: N2_10  and  C7_12 
REMARK    7  A    between atoms: C7_12  and  C8_14 
REMARK    8  A    between atoms: C12_18  and  C13_19 
REMARK    9  A    between atoms: N3_30  and  C21_32 
ROOT
HETATM    1  C3  UNL     1      19.039   0.118 -22.573  1.00  0.00     0.029 A 
HETATM    2  C4  UNL     1      19.380  -0.186 -21.258  1.00  0.00     0.110 A 
HETATM    3  N1  UNL     1      18.876   0.729 -20.413  1.00  0.00    -0.353 N 
HETATM    4  C15 UNL     1      18.185   1.668 -21.125  1.00  0.00     0.045 A 
HETATM    5  C16 UNL     1      17.486   2.801 -20.744  1.00  0.00     0.030 A 
HETATM    6  C17 UNL     1      16.884   3.557 -21.721  1.00  0.00     0.002 A 
HETATM    7  C18 UNL     1      16.978   3.193 -23.044  1.00  0.00     0.001 A 
HETATM    8  C19 UNL     1      17.676   2.057 -23.437  1.00  0.00     0.015 A 
HETATM    9  C20 UNL     1      18.283   1.295 -22.447  1.00  0.00     0.009 A 
ENDROOT
BRANCH   1  10
HETATM   10  S1  UNL     1      19.460  -0.650 -24.098  1.00  0.00    -0.118 SA
BRANCH  10  11
HETATM   11  C2  UNL     1      20.897  -0.070 -24.944  1.00  0.00     0.182 C 
BRANCH  11  12
HETATM   12  C1  UNL     1      20.938   1.417 -25.177  1.00  0.00     0.231 C 
HETATM   13  O1  UNL     1      20.906   1.865 -26.321  1.00  0.00    -0.272 OA
HETATM   14  N3  UNL     1      21.024   2.276 -24.032  1.00  0.00    -0.326 N 
ATOM     15  H3  UNL     1      21.037   1.830 -23.115  1.00  0.00     0.169 HD
BRANCH  14  16
HETATM   16  C21 UNL     1      21.093   3.679 -24.063  1.00  0.00     0.037 A 
HETATM   17  C22 UNL     1      20.556   4.493 -23.122  1.00  0.00     0.032 A 
HETATM   18  C23 UNL     1      20.620   5.865 -23.257  1.00  0.00     0.042 A 
HETATM   19  C24 UNL     1      21.234   6.416 -24.355  1.00  0.00     0.102 A 
HETATM   20  C25 UNL     1      21.778   5.589 -25.309  1.00  0.00     0.104 A 
HETATM   21  O4  UNL     1      21.311   7.788 -24.517  1.00  0.00    -0.346 OA
HETATM   22  C26 UNL     1      21.714   4.245 -25.172  1.00  0.00     0.069 A 
HETATM   23  O3  UNL     1      22.396   6.186 -26.417  1.00  0.00    -0.346 OA
HETATM   24  C27 UNL     1      21.961   7.455 -26.846  1.00  0.00     0.202 C 
HETATM   25  C28 UNL     1      21.789   8.411 -25.675  1.00  0.00     0.202 C 
ENDBRANCH  14  16
ENDBRANCH  11  12
ENDBRANCH  10  11
ENDBRANCH   1  10
BRANCH   3  26
HETATM   26  C5  UNL     1      19.021   0.868 -18.970  1.00  0.00     0.148 C 
BRANCH  26  27
HETATM   27  C6  UNL     1      20.481   1.123 -18.644  1.00  0.00     0.143 C 
BRANCH  27  28
HETATM   28  N2  UNL     1      21.363   0.332 -19.447  1.00  0.00    -0.355 N 
HETATM   29  C7  UNL     1      21.888  -0.921 -19.001  1.00  0.00     0.251 C 
HETATM   30  O2  UNL     1      21.542  -1.324 -17.849  1.00  0.00    -0.268 OA
ATOM     31  H2  UNL     1      21.626   0.674 -20.370  1.00  0.00     0.162 HD
BRANCH  29  32
HETATM   32  C8  UNL     1      22.778  -1.671 -19.854  1.00  0.00     0.032 A 
HETATM   33  C9  UNL     1      23.722  -0.960 -20.574  1.00  0.00     0.017 A 
HETATM   34  C10 UNL     1      24.614  -1.599 -21.409  1.00  0.00     0.002 A 
HETATM   35  C11 UNL     1      24.591  -2.966 -21.552  1.00  0.00     0.016 A 
HETATM   36  C12 UNL     1      23.650  -3.701 -20.839  1.00  0.00     0.048 A 
HETATM   37  C14 UNL     1      22.773  -3.033 -20.011  1.00  0.00     0.033 A 
BRANCH  36  38
HETATM   38  C13 UNL     1      23.624  -5.175 -20.991  1.00  0.00     0.417 C 
HETATM   39  F1  UNL     1      24.663  -5.577 -21.829  1.00  0.00    -0.166 F 
HETATM   40  F2  UNL     1      22.428  -5.597 -21.542  1.00  0.00    -0.166 F 
HETATM   41  F3  UNL     1      23.805  -5.710 -19.727  1.00  0.00    -0.166 F 
ENDBRANCH  36  38
ENDBRANCH  29  32
ENDBRANCH  27  28
ENDBRANCH  26  27
ENDBRANCH   3  26
TORSDOF 9
ENDMDL
