MODEL 11
REMARK VINA RESULT: -6.382609932      2.831      8.737
REMARK  7 active torsions:
REMARK  status: ('A' for Active; 'I' for Inactive)
REMARK    1  A    between atoms: C2_2  and  O1_3 
REMARK    2  A    between atoms: O1_3  and  C3_4 
REMARK    3  A    between atoms: C3_4  and  C4_6 
REMARK    4  A    between atoms: C7_9  and  C8_10 
REMARK       I    between atoms: C8_10  and  N1_12 
REMARK    5  A    between atoms: N2_15  and  C11_16 
REMARK    6  A    between atoms: C11_16  and  C12_17 
REMARK    7  A    between atoms: N3_27  and  C22_28 
ROOT
HETATM    1  C8  UNL     1     -18.908  -1.640   4.861  1.00  0.00     0.256 C 
HETATM    2  O3  UNL     1     -18.611  -0.448   5.105  1.00  0.00    -0.267 OA
HETATM    3  N1  UNL     1     -20.158  -2.111   5.324  1.00  0.00    -0.345 N 
HETATM    4  C9  UNL     1     -20.487  -3.507   5.030  1.00  0.00     0.156 C 
HETATM    5  C10 UNL     1     -21.972  -3.732   4.922  1.00  0.00     0.292 C 
HETATM    6  N2  UNL     1     -22.666  -3.092   6.023  1.00  0.00     0.095 N 
HETATM    7  C18 UNL     1     -22.462  -1.684   6.076  1.00  0.00     0.292 C 
HETATM    8  C19 UNL     1     -21.035  -1.247   6.039  1.00  0.00     0.156 C 
ENDROOT
BRANCH   1   9
HETATM    9  C7  UNL     1     -17.963  -2.469   4.123  1.00  0.00     0.062 A 
HETATM   10  C5  UNL     1     -17.792  -2.433   2.761  1.00  0.00    -0.011 A 
HETATM   11  C4  UNL     1     -16.816  -3.356   2.435  1.00  0.00     0.117 A 
HETATM   12  C6  UNL     1     -18.471  -1.603   1.749  1.00  0.00     0.052 C 
HETATM   13  N3  UNL     1     -16.403  -3.940   3.572  1.00  0.00    -0.345 N 
HETATM   14  C20 UNL     1     -17.104  -3.399   4.612  1.00  0.00     0.024 A 
HETATM   15  C21 UNL     1     -16.934  -3.785   6.039  1.00  0.00     0.069 C 
BRANCH  11  16
HETATM   16  C3  UNL     1     -16.317  -3.648   1.070  1.00  0.00     0.310 C 
HETATM   17  O2  UNL     1     -16.945  -4.338   0.248  1.00  0.00    -0.258 OA
BRANCH  16  18
HETATM   18  O1  UNL     1     -15.087  -3.139   0.659  1.00  0.00    -0.317 OA
BRANCH  18  19
HETATM   19  C2  UNL     1     -13.942  -3.978   0.486  1.00  0.00     0.175 C 
HETATM   20  C1  UNL     1     -12.925  -3.522   1.521  1.00  0.00     0.034 C 
ENDBRANCH  18  19
ENDBRANCH  16  18
ENDBRANCH  11  16
BRANCH  13  21
HETATM   21  C22 UNL     1     -15.383  -4.978   3.703  1.00  0.00     0.125 C 
HETATM   22  C23 UNL     1     -15.895  -6.312   3.176  1.00  0.00     0.027 C 
ENDBRANCH  13  21
ENDBRANCH   1   9
BRANCH   6  23
HETATM   23  C11 UNL     1     -22.357  -3.789   7.254  1.00  0.00     0.311 C 
BRANCH  23  24
HETATM   24  C12 UNL     1     -23.580  -4.209   7.976  1.00  0.00    -0.030 A 
HETATM   25  C13 UNL     1     -23.539  -5.055   9.063  1.00  0.00     0.009 A 
HETATM   26  C14 UNL     1     -24.698  -5.426   9.713  1.00  0.00     0.001 A 
HETATM   27  C15 UNL     1     -25.930  -4.979   9.318  1.00  0.00     0.000 A 
HETATM   28  C16 UNL     1     -25.991  -4.128   8.228  1.00  0.00     0.001 A 
HETATM   29  C17 UNL     1     -24.831  -3.753   7.573  1.00  0.00     0.009 A 
ENDBRANCH  23  24
ENDBRANCH   6  23
TORSDOF 7
ENDMDL
