MODEL 1
REMARK VINA RESULT: -8.408358549      0.000      0.000
REMARK  7 active torsions:
REMARK  status: ('A' for Active; 'I' for Inactive)
REMARK    1  A    between atoms: C2_2  and  O1_3 
REMARK    2  A    between atoms: O1_3  and  C3_4 
REMARK    3  A    between atoms: C3_4  and  C4_6 
REMARK    4  A    between atoms: C7_9  and  C8_10 
REMARK       I    between atoms: C8_10  and  N1_12 
REMARK    5  A    between atoms: N2_15  and  C11_16 
REMARK    6  A    between atoms: C11_16  and  C12_17 
REMARK    7  A    between atoms: N3_27  and  C22_28 
ROOT
HETATM    1  C8  UNL     1     -20.102  -1.566   6.310  1.00  0.00     0.256 C 
HETATM    2  O3  UNL     1     -19.764  -0.903   7.318  1.00  0.00    -0.267 OA
HETATM    3  N1  UNL     1     -19.090  -2.274   5.623  1.00  0.00    -0.345 N 
HETATM    4  C9  UNL     1     -19.504  -3.042   4.447  1.00  0.00     0.156 C 
HETATM    5  C10 UNL     1     -18.613  -4.232   4.202  1.00  0.00     0.292 C 
HETATM    6  N2  UNL     1     -17.217  -3.855   4.305  1.00  0.00     0.095 N 
HETATM    7  C18 UNL     1     -16.868  -3.331   5.582  1.00  0.00     0.292 C 
HETATM    8  C19 UNL     1     -17.741  -2.226   6.075  1.00  0.00     0.156 C 
ENDROOT
BRANCH   1   9
HETATM    9  C7  UNL     1     -21.501  -1.572   5.902  1.00  0.00     0.062 A 
HETATM   10  C5  UNL     1     -22.102  -0.583   5.162  1.00  0.00    -0.011 A 
HETATM   11  C4  UNL     1     -23.423  -0.941   4.976  1.00  0.00     0.117 A 
HETATM   12  C6  UNL     1     -21.532   0.664   4.620  1.00  0.00     0.052 C 
HETATM   13  N3  UNL     1     -23.624  -2.119   5.589  1.00  0.00    -0.345 N 
HETATM   14  C20 UNL     1     -22.446  -2.512   6.158  1.00  0.00     0.024 A 
HETATM   15  C21 UNL     1     -22.257  -3.770   6.930  1.00  0.00     0.069 C 
BRANCH  11  16
HETATM   16  C3  UNL     1     -24.441  -0.158   4.233  1.00  0.00     0.310 C 
HETATM   17  O2  UNL     1     -25.260   0.594   4.788  1.00  0.00    -0.258 OA
BRANCH  16  18
HETATM   18  O1  UNL     1     -24.505  -0.249   2.844  1.00  0.00    -0.317 OA
BRANCH  18  19
HETATM   19  C2  UNL     1     -25.751  -0.371   2.153  1.00  0.00     0.175 C 
HETATM   20  C1  UNL     1     -26.171  -1.826   2.295  1.00  0.00     0.034 C 
ENDBRANCH  18  19
ENDBRANCH  16  18
ENDBRANCH  11  16
BRANCH  13  21
HETATM   21  C22 UNL     1     -24.874  -2.874   5.651  1.00  0.00     0.125 C 
HETATM   22  C23 UNL     1     -25.754  -2.373   6.789  1.00  0.00     0.027 C 
ENDBRANCH  13  21
ENDBRANCH   1   9
BRANCH   6  23
HETATM   23  C11 UNL     1     -16.869  -2.999   3.190  1.00  0.00     0.311 C 
BRANCH  23  24
HETATM   24  C12 UNL     1     -15.574  -3.381   2.581  1.00  0.00    -0.030 A 
HETATM   25  C13 UNL     1     -14.623  -2.449   2.228  1.00  0.00     0.009 A 
HETATM   26  C14 UNL     1     -13.427  -2.840   1.663  1.00  0.00     0.001 A 
HETATM   27  C15 UNL     1     -13.127  -4.154   1.428  1.00  0.00     0.000 A 
HETATM   28  C16 UNL     1     -14.071  -5.105   1.775  1.00  0.00     0.001 A 
HETATM   29  C17 UNL     1     -15.272  -4.718   2.342  1.00  0.00     0.009 A 
ENDBRANCH  23  24
ENDBRANCH   6  23
TORSDOF 7
ENDMDL
