MODEL 13
REMARK VINA RESULT: -6.213234779      3.129      8.365
REMARK  7 active torsions:
REMARK  status: ('A' for Active; 'I' for Inactive)
REMARK    1  A    between atoms: C2_2  and  O1_3 
REMARK    2  A    between atoms: O1_3  and  C3_4 
REMARK    3  A    between atoms: C3_4  and  C4_6 
REMARK    4  A    between atoms: C7_9  and  C8_10 
REMARK       I    between atoms: C8_10  and  N1_12 
REMARK    5  A    between atoms: N2_15  and  C11_16 
REMARK    6  A    between atoms: C11_16  and  C12_17 
REMARK    7  A    between atoms: N3_27  and  C22_28 
ROOT
HETATM    1  C8  UNL     1     -18.836  -1.665   4.833  1.00  0.00     0.256 C 
HETATM    2  O3  UNL     1     -18.483  -0.499   5.124  1.00  0.00    -0.267 OA
HETATM    3  N1  UNL     1     -20.092  -2.106   5.310  1.00  0.00    -0.345 N 
HETATM    4  C9  UNL     1     -20.489  -3.471   4.960  1.00  0.00     0.156 C 
HETATM    5  C10 UNL     1     -21.985  -3.629   4.886  1.00  0.00     0.292 C 
HETATM    6  N2  UNL     1     -22.620  -3.015   6.036  1.00  0.00     0.095 N 
HETATM    7  C18 UNL     1     -22.354  -1.620   6.149  1.00  0.00     0.292 C 
HETATM    8  C19 UNL     1     -20.912  -1.242   6.092  1.00  0.00     0.156 C 
ENDROOT
BRANCH   1   9
HETATM    9  C7  UNL     1     -17.949  -2.496   4.030  1.00  0.00     0.062 A 
HETATM   10  C5  UNL     1     -17.854  -2.438   2.661  1.00  0.00    -0.011 A 
HETATM   11  C4  UNL     1     -16.914  -3.370   2.265  1.00  0.00     0.117 A 
HETATM   12  C6  UNL     1     -18.575  -1.579   1.703  1.00  0.00     0.052 C 
HETATM   13  N3  UNL     1     -16.447  -3.981   3.366  1.00  0.00    -0.345 N 
HETATM   14  C20 UNL     1     -17.079  -3.447   4.454  1.00  0.00     0.024 A 
HETATM   15  C21 UNL     1     -16.836  -3.861   5.862  1.00  0.00     0.069 C 
BRANCH  11  16
HETATM   16  C3  UNL     1     -16.497  -3.646   0.869  1.00  0.00     0.310 C 
HETATM   17  O2  UNL     1     -15.328  -3.507   0.467  1.00  0.00    -0.258 OA
BRANCH  16  18
HETATM   18  O1  UNL     1     -17.438  -4.085  -0.060  1.00  0.00    -0.317 OA
BRANCH  18  19
HETATM   19  C2  UNL     1     -17.653  -3.399  -1.297  1.00  0.00     0.175 C 
HETATM   20  C1  UNL     1     -18.576  -4.289  -2.116  1.00  0.00     0.034 C 
ENDBRANCH  18  19
ENDBRANCH  16  18
ENDBRANCH  11  16
BRANCH  13  21
HETATM   21  C22 UNL     1     -15.439  -5.037   3.422  1.00  0.00     0.125 C 
HETATM   22  C23 UNL     1     -16.042  -6.385   3.049  1.00  0.00     0.027 C 
ENDBRANCH  13  21
ENDBRANCH   1   9
BRANCH   6  23
HETATM   23  C11 UNL     1     -22.307  -3.783   7.223  1.00  0.00     0.311 C 
BRANCH  23  24
HETATM   24  C12 UNL     1     -23.527  -4.204   7.949  1.00  0.00    -0.030 A 
HETATM   25  C13 UNL     1     -23.483  -5.062   9.027  1.00  0.00     0.009 A 
HETATM   26  C14 UNL     1     -24.640  -5.433   9.681  1.00  0.00     0.001 A 
HETATM   27  C15 UNL     1     -25.872  -4.975   9.299  1.00  0.00     0.000 A 
HETATM   28  C16 UNL     1     -25.936  -4.113   8.219  1.00  0.00     0.001 A 
HETATM   29  C17 UNL     1     -24.779  -3.738   7.560  1.00  0.00     0.009 A 
ENDBRANCH  23  24
ENDBRANCH   6  23
TORSDOF 7
ENDMDL
