MODEL 6
REMARK VINA RESULT: -6.728497604      3.386      9.316
REMARK  7 active torsions:
REMARK  status: ('A' for Active; 'I' for Inactive)
REMARK    1  A    between atoms: C2_2  and  O1_3 
REMARK    2  A    between atoms: O1_3  and  C3_4 
REMARK    3  A    between atoms: C3_4  and  C4_6 
REMARK    4  A    between atoms: C7_9  and  C8_10 
REMARK       I    between atoms: C8_10  and  N1_12 
REMARK    5  A    between atoms: N2_15  and  C11_16 
REMARK    6  A    between atoms: C11_16  and  C12_17 
REMARK    7  A    between atoms: N3_27  and  C22_28 
ROOT
HETATM    1  C8  UNL     1     -17.825  -4.208   3.017  1.00  0.00     0.256 C 
HETATM    2  O3  UNL     1     -18.703  -4.510   2.176  1.00  0.00    -0.267 OA
HETATM    3  N1  UNL     1     -18.261  -3.706   4.265  1.00  0.00    -0.345 N 
HETATM    4  C9  UNL     1     -17.221  -3.358   5.236  1.00  0.00     0.156 C 
HETATM    5  C10 UNL     1     -17.700  -3.496   6.657  1.00  0.00     0.292 C 
HETATM    6  N2  UNL     1     -19.005  -2.884   6.817  1.00  0.00     0.095 N 
HETATM    7  C18 UNL     1     -20.005  -3.463   5.985  1.00  0.00     0.292 C 
HETATM    8  C19 UNL     1     -19.650  -3.555   4.538  1.00  0.00     0.156 C 
ENDROOT
BRANCH   1   9
HETATM    9  C7  UNL     1     -16.421  -4.387   2.673  1.00  0.00     0.062 A 
HETATM   10  C5  UNL     1     -15.758  -5.590   2.703  1.00  0.00    -0.011 A 
HETATM   11  C4  UNL     1     -14.452  -5.359   2.314  1.00  0.00     0.117 A 
HETATM   12  C6  UNL     1     -16.255  -6.929   3.068  1.00  0.00     0.052 C 
HETATM   13  N3  UNL     1     -14.322  -4.048   2.053  1.00  0.00    -0.345 N 
HETATM   14  C20 UNL     1     -15.530  -3.446   2.271  1.00  0.00     0.024 A 
HETATM   15  C21 UNL     1     -15.796  -1.993   2.091  1.00  0.00     0.069 C 
BRANCH  11  16
HETATM   16  C3  UNL     1     -13.383  -6.382   2.207  1.00  0.00     0.310 C 
HETATM   17  O2  UNL     1     -13.109  -6.973   1.148  1.00  0.00    -0.258 OA
BRANCH  16  18
HETATM   18  O1  UNL     1     -12.631  -6.717   3.331  1.00  0.00    -0.317 OA
BRANCH  18  19
HETATM   19  C2  UNL     1     -11.205  -6.613   3.343  1.00  0.00     0.175 C 
HETATM   20  C1  UNL     1     -10.892  -5.125   3.400  1.00  0.00     0.034 C 
ENDBRANCH  18  19
ENDBRANCH  16  18
ENDBRANCH  11  16
BRANCH  13  21
HETATM   21  C22 UNL     1     -13.113  -3.358   1.611  1.00  0.00     0.125 C 
HETATM   22  C23 UNL     1     -12.692  -3.832   0.226  1.00  0.00     0.027 C 
ENDBRANCH  13  21
ENDBRANCH   1   9
BRANCH   6  23
HETATM   23  C11 UNL     1     -18.879  -1.447   6.693  1.00  0.00     0.311 C 
BRANCH  23  24
HETATM   24  C12 UNL     1     -19.922  -0.873   5.811  1.00  0.00    -0.030 A 
HETATM   25  C13 UNL     1     -19.623  -0.301   4.594  1.00  0.00     0.009 A 
HETATM   26  C14 UNL     1     -20.620   0.223   3.797  1.00  0.00     0.001 A 
HETATM   27  C15 UNL     1     -21.937   0.203   4.169  1.00  0.00     0.000 A 
HETATM   28  C16 UNL     1     -22.256  -0.368   5.388  1.00  0.00     0.001 A 
HETATM   29  C17 UNL     1     -21.261  -0.895   6.191  1.00  0.00     0.009 A 
ENDBRANCH  23  24
ENDBRANCH   6  23
TORSDOF 7
ENDMDL
