MODEL 2
REMARK VINA RESULT: -8.398944979      0.782      1.043
REMARK  7 active torsions:
REMARK  status: ('A' for Active; 'I' for Inactive)
REMARK    1  A    between atoms: C2_2  and  O1_3 
REMARK    2  A    between atoms: O1_3  and  C3_4 
REMARK    3  A    between atoms: C3_4  and  C4_6 
REMARK    4  A    between atoms: C7_9  and  C8_10 
REMARK       I    between atoms: C8_10  and  N1_12 
REMARK    5  A    between atoms: N2_15  and  C11_16 
REMARK    6  A    between atoms: C11_16  and  C12_17 
REMARK    7  A    between atoms: N3_27  and  C22_28 
ROOT
HETATM    1  C8  UNL     1     -20.119  -1.525   6.317  1.00  0.00     0.256 C 
HETATM    2  O3  UNL     1     -19.811  -0.837   7.317  1.00  0.00    -0.267 OA
HETATM    3  N1  UNL     1     -19.081  -2.226   5.660  1.00  0.00    -0.345 N 
HETATM    4  C9  UNL     1     -19.460  -3.025   4.493  1.00  0.00     0.156 C 
HETATM    5  C10 UNL     1     -18.542  -4.200   4.285  1.00  0.00     0.292 C 
HETATM    6  N2  UNL     1     -17.156  -3.792   4.403  1.00  0.00     0.095 N 
HETATM    7  C18 UNL     1     -16.837  -3.236   5.674  1.00  0.00     0.292 C 
HETATM    8  C19 UNL     1     -17.741  -2.140   6.132  1.00  0.00     0.156 C 
ENDROOT
BRANCH   1   9
HETATM    9  C7  UNL     1     -21.511  -1.569   5.887  1.00  0.00     0.062 A 
HETATM   10  C5  UNL     1     -22.117  -0.612   5.110  1.00  0.00    -0.011 A 
HETATM   11  C4  UNL     1     -23.429  -1.000   4.914  1.00  0.00     0.117 A 
HETATM   12  C6  UNL     1     -21.561   0.629   4.542  1.00  0.00     0.052 C 
HETATM   13  N3  UNL     1     -23.618  -2.164   5.557  1.00  0.00    -0.345 N 
HETATM   14  C20 UNL     1     -22.442  -2.519   6.156  1.00  0.00     0.024 A 
HETATM   15  C21 UNL     1     -22.243  -3.751   6.966  1.00  0.00     0.069 C 
BRANCH  11  16
HETATM   16  C3  UNL     1     -24.448  -0.257   4.133  1.00  0.00     0.310 C 
HETATM   17  O2  UNL     1     -24.516  -0.294   2.892  1.00  0.00    -0.258 OA
BRANCH  16  18
HETATM   18  O1  UNL     1     -25.390   0.528   4.795  1.00  0.00    -0.317 OA
BRANCH  18  19
HETATM   19  C2  UNL     1     -26.673   0.806   4.227  1.00  0.00     0.175 C 
HETATM   20  C1  UNL     1     -27.694   0.196   5.177  1.00  0.00     0.034 C 
ENDBRANCH  18  19
ENDBRANCH  16  18
ENDBRANCH  11  16
BRANCH  13  21
HETATM   21  C22 UNL     1     -24.855  -2.939   5.621  1.00  0.00     0.125 C 
HETATM   22  C23 UNL     1     -25.698  -2.519   6.818  1.00  0.00     0.027 C 
ENDBRANCH  13  21
ENDBRANCH   1   9
BRANCH   6  23
HETATM   23  C11 UNL     1     -16.807  -2.950   3.276  1.00  0.00     0.311 C 
BRANCH  23  24
HETATM   24  C12 UNL     1     -15.537  -3.371   2.642  1.00  0.00    -0.030 A 
HETATM   25  C13 UNL     1     -14.577  -2.465   2.247  1.00  0.00     0.009 A 
HETATM   26  C14 UNL     1     -13.404  -2.892   1.659  1.00  0.00     0.001 A 
HETATM   27  C15 UNL     1     -13.137  -4.216   1.442  1.00  0.00     0.000 A 
HETATM   28  C16 UNL     1     -14.090  -5.141   1.833  1.00  0.00     0.001 A 
HETATM   29  C17 UNL     1     -15.267  -4.718   2.422  1.00  0.00     0.009 A 
ENDBRANCH  23  24
ENDBRANCH   6  23
TORSDOF 7
ENDMDL
