MODEL 8
REMARK VINA RESULT: -8.813957514      3.666      8.288
REMARK  12 active torsions:
REMARK  status: ('A' for Active; 'I' for Inactive)
REMARK    1  A    between atoms: C2_2  and  C3_3 
REMARK    2  A    between atoms: C3_3  and  C4_4 
REMARK    3  A    between atoms: C4_4  and  N1_5 
REMARK    4  A    between atoms: C4_4  and  C19_30 
REMARK       I    between atoms: N1_5  and  C5_7 
REMARK       I    between atoms: C5_7  and  N2_9 
REMARK    5  A    between atoms: N2_9  and  C6_11 
REMARK    6  A    between atoms: C6_11  and  C7_12 
REMARK    7  A    between atoms: C6_11  and  C18_27 
REMARK    8  A    between atoms: C7_12  and  C8_13 
REMARK    9  A    between atoms: C8_13  and  C9_14 
REMARK   10  A    between atoms: C9_14  and  C10_15 
REMARK   11  A    between atoms: C10_15  and  N3_16 
REMARK       I    between atoms: N3_16  and  C11_18 
REMARK   12  A    between atoms: C11_18  and  C12_20 
ROOT
HETATM    1  C6  UNL     1      23.945  45.285  43.635  1.00  0.00     0.187 C 
ENDROOT
BRANCH   1   2
HETATM    2  N2  UNL     1      23.156  46.081  44.572  1.00  0.00    -0.329 N 
HETATM    3  C5  UNL     1      23.689  47.306  45.035  1.00  0.00     0.317 C 
HETATM    4  N1  UNL     1      22.967  48.137  45.957  1.00  0.00    -0.328 N 
HETATM    5  O1  UNL     1      24.814  47.712  44.656  1.00  0.00    -0.247 OA
ATOM      6  H1  UNL     1      22.046  47.850  46.290  1.00  0.00     0.165 HD
ATOM      7  H2  UNL     1      22.239  45.760  44.885  1.00  0.00     0.165 HD
BRANCH   4   8
HETATM    8  C4  UNL     1      23.540  49.371  46.408  1.00  0.00     0.190 C 
BRANCH   8   9
HETATM    9  C3  UNL     1      22.892  50.615  45.889  1.00  0.00     0.062 C 
BRANCH   9  10
HETATM   10  C2  UNL     1      22.500  50.585  44.472  1.00  0.00    -0.034 C 
HETATM   11  C1  UNL     1      21.248  50.501  44.099  1.00  0.00     0.007 C 
ENDBRANCH   9  10
ENDBRANCH   8   9
BRANCH   8  12
HETATM   12  C19 UNL     1      23.521  49.485  47.915  1.00  0.00     0.197 C 
HETATM   13  O5  UNL     1      23.120  48.515  48.569  1.00  0.00    -0.646 OA
HETATM   14  O6  UNL     1      23.933  50.626  48.541  1.00  0.00    -0.646 OA
ENDBRANCH   8  12
ENDBRANCH   4   8
ENDBRANCH   1   2
BRANCH   1  15
HETATM   15  C7  UNL     1      23.862  43.837  43.961  1.00  0.00     0.037 C 
BRANCH  15  16
HETATM   16  C8  UNL     1      23.678  43.575  45.431  1.00  0.00     0.008 C 
BRANCH  16  17
HETATM   17  C9  UNL     1      22.595  42.575  45.694  1.00  0.00     0.044 C 
BRANCH  17  18
HETATM   18  C10 UNL     1      21.232  43.040  45.901  1.00  0.00     0.064 C 
BRANCH  18  19
HETATM   19  N3  UNL     1      20.314  43.324  44.895  1.00  0.00    -0.337 N 
HETATM   20  C11 UNL     1      19.812  44.541  44.398  1.00  0.00     0.255 C 
HETATM   21  O2  UNL     1      20.252  45.584  44.906  1.00  0.00    -0.267 OA
ATOM     22  H3  UNL     1      19.934  42.498  44.434  1.00  0.00     0.168 HD
BRANCH  20  23
HETATM   23  C12 UNL     1      18.817  44.667  43.331  1.00  0.00     0.032 A 
HETATM   24  C13 UNL     1      17.789  43.782  43.119  1.00  0.00     0.018 A 
HETATM   25  C14 UNL     1      16.874  43.973  42.074  1.00  0.00     0.019 A 
HETATM   26  C15 UNL     1      16.968  45.051  41.223  1.00  0.00     0.006 A 
HETATM   27  I1  UNL     1      15.597  45.347  39.649  1.00  0.00    -0.045 I 
HETATM   28  C16 UNL     1      17.990  45.934  41.432  1.00  0.00     0.019 A 
HETATM   29  C17 UNL     1      18.883  45.737  42.459  1.00  0.00     0.018 A 
ENDBRANCH  20  23
ENDBRANCH  18  19
ENDBRANCH  17  18
ENDBRANCH  16  17
ENDBRANCH  15  16
ENDBRANCH   1  15
BRANCH   1  30
HETATM   30  C18 UNL     1      23.444  45.559  42.275  1.00  0.00     0.196 C 
HETATM   31  O3  UNL     1      24.276  45.998  41.406  1.00  0.00    -0.646 OA
HETATM   32  O4  UNL     1      22.130  45.365  41.894  1.00  0.00    -0.646 OA
ENDBRANCH   1  30
TORSDOF 12
ENDMDL
