MODEL 6
REMARK VINA RESULT: -8.836364038      3.671      8.202
REMARK  12 active torsions:
REMARK  status: ('A' for Active; 'I' for Inactive)
REMARK    1  A    between atoms: C2_2  and  C3_3 
REMARK    2  A    between atoms: C3_3  and  C4_4 
REMARK    3  A    between atoms: C4_4  and  N1_5 
REMARK    4  A    between atoms: C4_4  and  C19_30 
REMARK       I    between atoms: N1_5  and  C5_7 
REMARK       I    between atoms: C5_7  and  N2_9 
REMARK    5  A    between atoms: N2_9  and  C6_11 
REMARK    6  A    between atoms: C6_11  and  C7_12 
REMARK    7  A    between atoms: C6_11  and  C18_27 
REMARK    8  A    between atoms: C7_12  and  C8_13 
REMARK    9  A    between atoms: C8_13  and  C9_14 
REMARK   10  A    between atoms: C9_14  and  C10_15 
REMARK   11  A    between atoms: C10_15  and  N3_16 
REMARK       I    between atoms: N3_16  and  C11_18 
REMARK   12  A    between atoms: C11_18  and  C12_20 
ROOT
HETATM    1  C6  UNL     1      23.820  45.257  43.590  1.00  0.00     0.187 C 
ENDROOT
BRANCH   1   2
HETATM    2  N2  UNL     1      23.047  46.087  44.510  1.00  0.00    -0.329 N 
HETATM    3  C5  UNL     1      23.625  47.286  44.988  1.00  0.00     0.317 C 
HETATM    4  N1  UNL     1      22.921  48.149  45.895  1.00  0.00    -0.328 N 
HETATM    5  O1  UNL     1      24.776  47.640  44.635  1.00  0.00    -0.247 OA
ATOM      6  H1  UNL     1      21.981  47.904  46.206  1.00  0.00     0.165 HD
ATOM      7  H2  UNL     1      22.110  45.809  44.801  1.00  0.00     0.165 HD
BRANCH   4   8
HETATM    8  C4  UNL     1      23.541  49.354  46.362  1.00  0.00     0.190 C 
BRANCH   8   9
HETATM    9  C3  UNL     1      23.001  50.625  45.786  1.00  0.00     0.062 C 
BRANCH   9  10
HETATM   10  C2  UNL     1      22.521  50.542  44.398  1.00  0.00    -0.034 C 
HETATM   11  C1  UNL     1      21.245  50.528  44.105  1.00  0.00     0.007 C 
ENDBRANCH   9  10
ENDBRANCH   8   9
BRANCH   8  12
HETATM   12  C19 UNL     1      23.439  49.497  47.862  1.00  0.00     0.197 C 
HETATM   13  O5  UNL     1      23.897  50.522  48.383  1.00  0.00    -0.646 OA
HETATM   14  O6  UNL     1      22.859  48.525  48.626  1.00  0.00    -0.646 OA
ENDBRANCH   8  12
ENDBRANCH   4   8
ENDBRANCH   1   2
BRANCH   1  15
HETATM   15  C7  UNL     1      23.704  43.817  43.943  1.00  0.00     0.037 C 
BRANCH  15  16
HETATM   16  C8  UNL     1      23.621  43.581  45.426  1.00  0.00     0.008 C 
BRANCH  16  17
HETATM   17  C9  UNL     1      22.583  42.559  45.776  1.00  0.00     0.044 C 
BRANCH  17  18
HETATM   18  C10 UNL     1      21.197  42.973  45.921  1.00  0.00     0.064 C 
BRANCH  18  19
HETATM   19  N3  UNL     1      20.346  43.328  44.880  1.00  0.00    -0.337 N 
HETATM   20  C11 UNL     1      19.741  44.551  44.536  1.00  0.00     0.255 C 
HETATM   21  O2  UNL     1      19.995  45.530  45.254  1.00  0.00    -0.267 OA
ATOM     22  H3  UNL     1      20.118  42.560  44.249  1.00  0.00     0.168 HD
BRANCH  20  23
HETATM   23  C12 UNL     1      18.839  44.753  43.399  1.00  0.00     0.032 A 
HETATM   24  C13 UNL     1      18.895  45.825  42.544  1.00  0.00     0.018 A 
HETATM   25  C14 UNL     1      17.995  45.946  41.476  1.00  0.00     0.019 A 
HETATM   26  C15 UNL     1      17.024  44.998  41.241  1.00  0.00     0.006 A 
HETATM   27  I1  UNL     1      15.666  45.170  39.638  1.00  0.00    -0.045 I 
HETATM   28  C16 UNL     1      16.967  43.929  42.091  1.00  0.00     0.019 A 
HETATM   29  C17 UNL     1      17.854  43.820  43.137  1.00  0.00     0.018 A 
ENDBRANCH  20  23
ENDBRANCH  18  19
ENDBRANCH  17  18
ENDBRANCH  16  17
ENDBRANCH  15  16
ENDBRANCH   1  15
BRANCH   1  30
HETATM   30  C18 UNL     1      23.326  45.516  42.224  1.00  0.00     0.196 C 
HETATM   31  O3  UNL     1      22.075  45.356  41.998  1.00  0.00    -0.646 OA
HETATM   32  O4  UNL     1      24.140  45.920  41.183  1.00  0.00    -0.646 OA
ENDBRANCH   1  30
TORSDOF 12
ENDMDL
