MODEL 9
REMARK VINA RESULT: -8.012730716      3.930      7.762
REMARK  12 active torsions:
REMARK  status: ('A' for Active; 'I' for Inactive)
REMARK    1  A    between atoms: C2_2  and  C3_3 
REMARK    2  A    between atoms: C3_3  and  C4_4 
REMARK    3  A    between atoms: C4_4  and  N1_5 
REMARK    4  A    between atoms: C4_4  and  C19_30 
REMARK       I    between atoms: N1_5  and  C5_7 
REMARK       I    between atoms: C5_7  and  N2_9 
REMARK    5  A    between atoms: N2_9  and  C6_11 
REMARK    6  A    between atoms: C6_11  and  C7_12 
REMARK    7  A    between atoms: C6_11  and  C18_27 
REMARK    8  A    between atoms: C7_12  and  C8_13 
REMARK    9  A    between atoms: C8_13  and  C9_14 
REMARK   10  A    between atoms: C9_14  and  C10_15 
REMARK   11  A    between atoms: C10_15  and  N3_16 
REMARK       I    between atoms: N3_16  and  C11_18 
REMARK   12  A    between atoms: C11_18  and  C12_20 
ROOT
HETATM    1  C6  UNL     1      25.312  45.609  44.667  1.00  0.00     0.187 C 
ENDROOT
BRANCH   1   2
HETATM    2  N2  UNL     1      24.187  46.242  43.984  1.00  0.00    -0.329 N 
HETATM    3  C5  UNL     1      23.536  47.327  44.616  1.00  0.00     0.317 C 
HETATM    4  N1  UNL     1      22.423  47.995  44.002  1.00  0.00    -0.328 N 
HETATM    5  O1  UNL     1      23.910  47.747  45.738  1.00  0.00    -0.247 OA
ATOM      6  H1  UNL     1      22.086  47.690  43.089  1.00  0.00     0.165 HD
ATOM      7  H2  UNL     1      23.876  45.909  43.072  1.00  0.00     0.165 HD
BRANCH   4   8
HETATM    8  C4  UNL     1      21.785  49.089  44.674  1.00  0.00     0.190 C 
BRANCH   8   9
HETATM    9  C3  UNL     1      22.141  50.453  44.174  1.00  0.00     0.062 C 
BRANCH   9  10
HETATM   10  C2  UNL     1      22.988  51.258  45.067  1.00  0.00    -0.034 C 
HETATM   11  C1  UNL     1      23.136  50.964  46.335  1.00  0.00     0.007 C 
ENDBRANCH   9  10
ENDBRANCH   8   9
BRANCH   8  12
HETATM   12  C19 UNL     1      20.279  48.996  44.603  1.00  0.00     0.197 C 
HETATM   13  O5  UNL     1      19.661  49.927  44.073  1.00  0.00    -0.646 OA
HETATM   14  O6  UNL     1      19.615  47.915  45.108  1.00  0.00    -0.646 OA
ENDBRANCH   8  12
ENDBRANCH   4   8
ENDBRANCH   1   2
BRANCH   1  15
HETATM   15  C7  UNL     1      25.206  44.127  44.612  1.00  0.00     0.037 C 
BRANCH  15  16
HETATM   16  C8  UNL     1      23.808  43.648  44.329  1.00  0.00     0.008 C 
BRANCH  16  17
HETATM   17  C9  UNL     1      23.168  43.033  45.536  1.00  0.00     0.044 C 
BRANCH  17  18
HETATM   18  C10 UNL     1      21.758  42.678  45.490  1.00  0.00     0.064 C 
BRANCH  18  19
HETATM   19  N3  UNL     1      20.840  43.134  44.550  1.00  0.00    -0.337 N 
HETATM   20  C11 UNL     1      19.896  44.177  44.587  1.00  0.00     0.255 C 
HETATM   21  O2  UNL     1      19.846  44.857  45.624  1.00  0.00    -0.267 OA
ATOM     22  H3  UNL     1      20.853  42.616  43.671  1.00  0.00     0.168 HD
BRANCH  20  23
HETATM   23  C12 UNL     1      18.975  44.517  43.500  1.00  0.00     0.032 A 
HETATM   24  C13 UNL     1      19.138  45.580  42.648  1.00  0.00     0.018 A 
HETATM   25  C14 UNL     1      18.211  45.839  41.629  1.00  0.00     0.019 A 
HETATM   26  C15 UNL     1      17.105  45.041  41.442  1.00  0.00     0.006 A 
HETATM   27  I1  UNL     1      15.704  45.422  39.913  1.00  0.00    -0.045 I 
HETATM   28  C16 UNL     1      16.940  43.981  42.289  1.00  0.00     0.019 A 
HETATM   29  C17 UNL     1      17.855  43.736  43.286  1.00  0.00     0.018 A 
ENDBRANCH  20  23
ENDBRANCH  18  19
ENDBRANCH  17  18
ENDBRANCH  16  17
ENDBRANCH  15  16
ENDBRANCH   1  15
BRANCH   1  30
HETATM   30  C18 UNL     1      26.554  46.082  44.024  1.00  0.00     0.196 C 
HETATM   31  O3  UNL     1      26.476  46.526  42.825  1.00  0.00    -0.646 OA
HETATM   32  O4  UNL     1      27.786  46.071  44.648  1.00  0.00    -0.646 OA
ENDBRANCH   1  30
TORSDOF 12
ENDMDL
