MODEL 7
REMARK VINA RESULT: -8.818785849      1.346      1.789
REMARK  12 active torsions:
REMARK  status: ('A' for Active; 'I' for Inactive)
REMARK    1  A    between atoms: C2_2  and  C3_3 
REMARK    2  A    between atoms: C3_3  and  C4_4 
REMARK    3  A    between atoms: C4_4  and  N1_5 
REMARK    4  A    between atoms: C4_4  and  C19_30 
REMARK       I    between atoms: N1_5  and  C5_7 
REMARK       I    between atoms: C5_7  and  N2_9 
REMARK    5  A    between atoms: N2_9  and  C6_11 
REMARK    6  A    between atoms: C6_11  and  C7_12 
REMARK    7  A    between atoms: C6_11  and  C18_27 
REMARK    8  A    between atoms: C7_12  and  C8_13 
REMARK    9  A    between atoms: C8_13  and  C9_14 
REMARK   10  A    between atoms: C9_14  and  C10_15 
REMARK   11  A    between atoms: C10_15  and  N3_16 
REMARK       I    between atoms: N3_16  and  C11_18 
REMARK   12  A    between atoms: C11_18  and  C12_20 
ROOT
HETATM    1  C6  UNL     1      20.009  44.879  43.840  1.00  0.00     0.187 C 
ENDROOT
BRANCH   1   2
HETATM    2  N2  UNL     1      18.584  45.139  43.647  1.00  0.00    -0.329 N 
HETATM    3  C5  UNL     1      18.064  45.117  42.333  1.00  0.00     0.317 C 
HETATM    4  N1  UNL     1      16.674  45.364  42.071  1.00  0.00    -0.328 N 
HETATM    5  O1  UNL     1      18.800  44.879  41.345  1.00  0.00    -0.247 OA
ATOM      6  H1  UNL     1      16.036  45.559  42.844  1.00  0.00     0.165 HD
ATOM      7  H2  UNL     1      17.977  45.332  44.444  1.00  0.00     0.165 HD
BRANCH   4   8
HETATM    8  C4  UNL     1      16.183  45.337  40.725  1.00  0.00     0.190 C 
BRANCH   8   9
HETATM    9  C3  UNL     1      15.448  44.097  40.327  1.00  0.00     0.062 C 
BRANCH   9  10
HETATM   10  C2  UNL     1      15.967  43.403  39.139  1.00  0.00    -0.034 C 
HETATM   11  C1  UNL     1      15.603  42.183  38.832  1.00  0.00     0.007 C 
ENDBRANCH   9  10
ENDBRANCH   8   9
BRANCH   8  12
HETATM   12  C19 UNL     1      15.246  46.488  40.442  1.00  0.00     0.197 C 
HETATM   13  O5  UNL     1      15.719  47.516  39.941  1.00  0.00    -0.646 OA
HETATM   14  O6  UNL     1      13.914  46.401  40.730  1.00  0.00    -0.646 OA
ENDBRANCH   8  12
ENDBRANCH   4   8
ENDBRANCH   1   2
BRANCH   1  15
HETATM   15  C7  UNL     1      20.834  45.988  43.292  1.00  0.00     0.037 C 
BRANCH  15  16
HETATM   16  C8  UNL     1      22.253  45.580  43.008  1.00  0.00     0.008 C 
BRANCH  16  17
HETATM   17  C9  UNL     1      22.910  46.482  42.008  1.00  0.00     0.044 C 
BRANCH  17  18
HETATM   18  C10 UNL     1      23.665  47.633  42.477  1.00  0.00     0.064 C 
BRANCH  18  19
HETATM   19  N3  UNL     1      23.695  48.102  43.786  1.00  0.00    -0.337 N 
HETATM   20  C11 UNL     1      22.993  49.138  44.429  1.00  0.00     0.255 C 
HETATM   21  O2  UNL     1      22.171  49.771  43.749  1.00  0.00    -0.267 OA
ATOM     22  H3  UNL     1      24.346  47.603  44.392  1.00  0.00     0.168 HD
BRANCH  20  23
HETATM   23  C12 UNL     1      23.160  49.522  45.833  1.00  0.00     0.032 A 
HETATM   24  C13 UNL     1      23.227  50.818  46.281  1.00  0.00     0.018 A 
HETATM   25  C14 UNL     1      23.387  51.104  47.644  1.00  0.00     0.019 A 
HETATM   26  C15 UNL     1      23.482  50.103  48.584  1.00  0.00     0.006 A 
HETATM   27  I1  UNL     1      23.722  50.523  50.636  1.00  0.00    -0.045 I 
HETATM   28  C16 UNL     1      23.415  48.811  48.140  1.00  0.00     0.019 A 
HETATM   29  C17 UNL     1      23.259  48.541  46.801  1.00  0.00     0.018 A 
ENDBRANCH  20  23
ENDBRANCH  18  19
ENDBRANCH  17  18
ENDBRANCH  16  17
ENDBRANCH  15  16
ENDBRANCH   1  15
BRANCH   1  30
HETATM   30  C18 UNL     1      20.244  44.700  45.285  1.00  0.00     0.196 C 
HETATM   31  O3  UNL     1      20.427  43.509  45.720  1.00  0.00    -0.646 OA
HETATM   32  O4  UNL     1      20.277  45.746  46.188  1.00  0.00    -0.646 OA
ENDBRANCH   1  30
TORSDOF 12
ENDMDL
