MODEL 1
REMARK VINA RESULT: -10.627409789      0.000      0.000
REMARK  12 active torsions:
REMARK  status: ('A' for Active; 'I' for Inactive)
REMARK    1  A    between atoms: C2_2  and  C3_3 
REMARK    2  A    between atoms: C3_3  and  C4_4 
REMARK    3  A    between atoms: C4_4  and  N1_5 
REMARK    4  A    between atoms: C4_4  and  C19_30 
REMARK       I    between atoms: N1_5  and  C5_7 
REMARK       I    between atoms: C5_7  and  N2_9 
REMARK    5  A    between atoms: N2_9  and  C6_11 
REMARK    6  A    between atoms: C6_11  and  C7_12 
REMARK    7  A    between atoms: C6_11  and  C18_27 
REMARK    8  A    between atoms: C7_12  and  C8_13 
REMARK    9  A    between atoms: C8_13  and  C9_14 
REMARK   10  A    between atoms: C9_14  and  C10_15 
REMARK   11  A    between atoms: C10_15  and  N3_16 
REMARK       I    between atoms: N3_16  and  C11_18 
REMARK   12  A    between atoms: C11_18  and  C12_20 
ROOT
HETATM    1  C6  UNL     1      20.602  44.519  44.119  1.00  0.00     0.187 C 
ENDROOT
BRANCH   1   2
HETATM    2  N2  UNL     1      19.577  45.315  43.447  1.00  0.00    -0.329 N 
HETATM    3  C5  UNL     1      18.573  44.645  42.711  1.00  0.00     0.317 C 
HETATM    4  N1  UNL     1      17.537  45.365  42.027  1.00  0.00    -0.328 N 
HETATM    5  O1  UNL     1      18.551  43.393  42.631  1.00  0.00    -0.247 OA
ATOM      6  H1  UNL     1      17.513  46.384  42.066  1.00  0.00     0.165 HD
ATOM      7  H2  UNL     1      19.586  46.334  43.507  1.00  0.00     0.165 HD
BRANCH   4   8
HETATM    8  C4  UNL     1      16.538  44.652  41.287  1.00  0.00     0.190 C 
BRANCH   8   9
HETATM    9  C3  UNL     1      15.180  45.279  41.259  1.00  0.00     0.062 C 
BRANCH   9  10
HETATM   10  C2  UNL     1      15.107  46.609  40.635  1.00  0.00    -0.034 C 
HETATM   11  C1  UNL     1      13.967  47.148  40.282  1.00  0.00     0.007 C 
ENDBRANCH   9  10
ENDBRANCH   8   9
BRANCH   8  12
HETATM   12  C19 UNL     1      16.937  44.452  39.844  1.00  0.00     0.197 C 
HETATM   13  O5  UNL     1      17.998  44.958  39.457  1.00  0.00    -0.646 OA
HETATM   14  O6  UNL     1      16.153  43.734  38.988  1.00  0.00    -0.646 OA
ENDBRANCH   8  12
ENDBRANCH   4   8
ENDBRANCH   1   2
BRANCH   1  15
HETATM   15  C7  UNL     1      21.960  44.870  43.627  1.00  0.00     0.037 C 
BRANCH  15  16
HETATM   16  C8  UNL     1      21.937  45.855  42.490  1.00  0.00     0.008 C 
BRANCH  16  17
HETATM   17  C9  UNL     1      23.314  46.182  42.000  1.00  0.00     0.044 C 
BRANCH  17  18
HETATM   18  C10 UNL     1      23.973  47.386  42.479  1.00  0.00     0.064 C 
BRANCH  18  19
HETATM   19  N3  UNL     1      23.926  47.869  43.783  1.00  0.00    -0.337 N 
HETATM   20  C11 UNL     1      23.357  49.032  44.335  1.00  0.00     0.255 C 
HETATM   21  O2  UNL     1      22.760  49.792  43.558  1.00  0.00    -0.267 OA
ATOM     22  H3  UNL     1      24.391  47.270  44.465  1.00  0.00     0.168 HD
BRANCH  20  23
HETATM   23  C12 UNL     1      23.417  49.407  45.750  1.00  0.00     0.032 A 
HETATM   24  C13 UNL     1      23.197  50.675  46.227  1.00  0.00     0.018 A 
HETATM   25  C14 UNL     1      23.271  50.955  47.599  1.00  0.00     0.019 A 
HETATM   26  C15 UNL     1      23.565  49.974  48.518  1.00  0.00     0.006 A 
HETATM   27  I1  UNL     1      23.679  50.384  50.583  1.00  0.00    -0.045 I 
HETATM   28  C16 UNL     1      23.784  48.710  48.046  1.00  0.00     0.019 A 
HETATM   29  C17 UNL     1      23.710  48.446  46.698  1.00  0.00     0.018 A 
ENDBRANCH  20  23
ENDBRANCH  18  19
ENDBRANCH  17  18
ENDBRANCH  16  17
ENDBRANCH  15  16
ENDBRANCH   1  15
BRANCH   1  30
HETATM   30  C18 UNL     1      20.479  44.756  45.570  1.00  0.00     0.196 C 
HETATM   31  O3  UNL     1      20.656  43.762  46.357  1.00  0.00    -0.646 OA
HETATM   32  O4  UNL     1      20.185  45.990  46.118  1.00  0.00    -0.646 OA
ENDBRANCH   1  30
TORSDOF 12
ENDMDL
