MODEL 14
REMARK VINA RESULT: -3.204763537      1.449      1.449
REMARK  3 active torsions:
REMARK  status: ('A' for Active; 'I' for Inactive)
REMARK    1  A    between atoms: C4_6  and  C5_7 
REMARK    2  A    between atoms: C5_7  and  N2_8 
REMARK    3  A    between atoms: N2_8  and  C6_10 
ROOT
HETATM    1  C1  UNL     1      63.368 100.345  48.315  1.00  0.00     0.089 C 
HETATM    2  C2  UNL     1      63.884  99.092  48.942  1.00  0.00     0.078 A 
HETATM    3  N1  UNL     1      64.407  99.068  50.177  1.00  0.00    -0.355 N 
ATOM      4  H1  UNL     1      64.454  99.937  50.708  1.00  0.00     0.166 HD
HETATM    5  C3  UNL     1      64.880  97.919  50.750  1.00  0.00     0.101 A 
HETATM    6  C4  UNL     1      64.830  96.735  50.056  1.00  0.00     0.016 A 
HETATM    7  C7  UNL     1      64.292  96.762  48.790  1.00  0.00     0.126 A 
HETATM    8  N3  UNL     1      64.234  95.546  48.066  1.00  0.00    -0.082 NA
HETATM    9  N4  UNL     1      63.833  97.935  48.263  1.00  0.00    -0.334 N 
ATOM     10  H4  UNL     1      63.439  97.932  47.322  1.00  0.00     0.168 HD
ENDROOT
BRANCH   6  11
HETATM   11  C5  UNL     1      65.297  95.437  50.598  1.00  0.00     0.165 C 
BRANCH  11  12
HETATM   12  N2  UNL     1      64.985  95.243  51.995  1.00  0.00    -0.364 N 
ATOM     13  H2  UNL     1      64.038  94.972  52.257  1.00  0.00     0.162 HD
BRANCH  12  14
HETATM   14  C6  UNL     1      65.962  95.419  53.020  1.00  0.00     0.348 C 
HETATM   15  O1  UNL     1      65.819  96.367  53.825  1.00  0.00    -0.284 OA
ENDBRANCH  12  14
ENDBRANCH  11  12
ENDBRANCH   6  11
TORSDOF 3
ENDMDL
