MODEL 2
REMARK VINA RESULT: -6.013125637      1.023      1.946
REMARK  3 active torsions:
REMARK  status: ('A' for Active; 'I' for Inactive)
REMARK    1  A    between atoms: C4_6  and  C5_7 
REMARK    2  A    between atoms: C5_7  and  N2_8 
REMARK    3  A    between atoms: N2_8  and  C6_10 
ROOT
HETATM    1  C1  UNL     1      63.531  99.592  47.731  1.00  0.00     0.089 C 
HETATM    2  C2  UNL     1      63.929  98.487  48.651  1.00  0.00     0.078 A 
HETATM    3  N1  UNL     1      63.852  97.195  48.300  1.00  0.00    -0.355 N 
ATOM      4  H1  UNL     1      63.508  96.958  47.369  1.00  0.00     0.166 HD
HETATM    5  C3  UNL     1      64.218  96.182  49.144  1.00  0.00     0.101 A 
HETATM    6  C4  UNL     1      64.684  96.473  50.403  1.00  0.00     0.016 A 
HETATM    7  C7  UNL     1      64.763  97.799  50.761  1.00  0.00     0.126 A 
HETATM    8  N3  UNL     1      65.243  98.110  52.057  1.00  0.00    -0.082 NA
HETATM    9  N4  UNL     1      64.386  98.773  49.881  1.00  0.00    -0.334 N 
ATOM     10  H4  UNL     1      64.453  99.750  50.168  1.00  0.00     0.168 HD
ENDROOT
BRANCH   6  11
HETATM   11  C5  UNL     1      65.123  95.450  51.380  1.00  0.00     0.165 C 
BRANCH  11  12
HETATM   12  N2  UNL     1      66.555  95.394  51.562  1.00  0.00    -0.364 N 
ATOM     13  H2  UNL     1      67.084  96.266  51.590  1.00  0.00     0.162 HD
BRANCH  12  14
HETATM   14  C6  UNL     1      67.253  94.158  51.704  1.00  0.00     0.348 C 
HETATM   15  O1  UNL     1      67.315  93.633  52.838  1.00  0.00    -0.284 OA
ENDBRANCH  12  14
ENDBRANCH  11  12
ENDBRANCH   6  11
TORSDOF 3
ENDMDL
