MODEL 1
REMARK VINA RESULT: -7.021693224      0.000      0.000
REMARK  3 active torsions:
REMARK  status: ('A' for Active; 'I' for Inactive)
REMARK    1  A    between atoms: C4_6  and  C5_7 
REMARK    2  A    between atoms: C5_7  and  N2_8 
REMARK    3  A    between atoms: N2_8  and  C6_10 
ROOT
HETATM    1  C1  UNL     1      63.772  99.985  47.808  1.00  0.00     0.089 C 
HETATM    2  C2  UNL     1      64.180  98.932  48.785  1.00  0.00     0.078 A 
HETATM    3  N1  UNL     1      64.892  99.211  49.886  1.00  0.00    -0.355 N 
ATOM      4  H1  UNL     1      65.166 100.177  50.064  1.00  0.00     0.166 HD
HETATM    5  C3  UNL     1      65.266  98.245  50.781  1.00  0.00     0.101 A 
HETATM    6  C4  UNL     1      64.911  96.936  50.566  1.00  0.00     0.016 A 
HETATM    7  C7  UNL     1      64.179  96.653  49.436  1.00  0.00     0.126 A 
HETATM    8  N3  UNL     1      63.807  95.306  49.205  1.00  0.00    -0.082 NA
HETATM    9  N4  UNL     1      63.831  97.653  48.574  1.00  0.00    -0.334 N 
ATOM     10  H4  UNL     1      63.288  97.420  47.742  1.00  0.00     0.168 HD
ENDROOT
BRANCH   6  11
HETATM   11  C5  UNL     1      65.250  95.824  51.485  1.00  0.00     0.165 C 
BRANCH  11  12
HETATM   12  N2  UNL     1      66.205  94.888  50.939  1.00  0.00    -0.364 N 
ATOM     13  H2  UNL     1      66.186  94.690  49.939  1.00  0.00     0.162 HD
BRANCH  12  14
HETATM   14  C6  UNL     1      67.174  94.232  51.756  1.00  0.00     0.348 C 
HETATM   15  O1  UNL     1      68.338  94.692  51.788  1.00  0.00    -0.284 OA
ENDBRANCH  12  14
ENDBRANCH  11  12
ENDBRANCH   6  11
TORSDOF 3
ENDMDL
