MODEL 5
REMARK VINA RESULT: -5.345162349      2.759      4.856
REMARK  3 active torsions:
REMARK  status: ('A' for Active; 'I' for Inactive)
REMARK    1  A    between atoms: C4_6  and  C5_7 
REMARK    2  A    between atoms: C5_7  and  N2_8 
REMARK    3  A    between atoms: N2_8  and  C6_10 
ROOT
HETATM    1  C1  UNL     1      65.925  94.746  51.698  1.00  0.00     0.089 C 
HETATM    2  C2  UNL     1      65.363  95.980  51.077  1.00  0.00     0.078 A 
HETATM    3  N1  UNL     1      65.377  97.169  51.698  1.00  0.00    -0.355 N 
ATOM      4  H1  UNL     1      65.788  97.232  52.630  1.00  0.00     0.166 HD
HETATM    5  C3  UNL     1      64.861  98.301  51.129  1.00  0.00     0.101 A 
HETATM    6  C4  UNL     1      64.302  98.244  49.875  1.00  0.00     0.016 A 
HETATM    7  C7  UNL     1      64.289  97.024  49.239  1.00  0.00     0.126 A 
HETATM    8  N3  UNL     1      63.715  96.954  47.946  1.00  0.00    -0.082 NA
HETATM    9  N4  UNL     1      64.817  95.924  49.851  1.00  0.00    -0.334 N 
ATOM     10  H4  UNL     1      64.797  95.029  49.361  1.00  0.00     0.168 HD
ENDROOT
BRANCH   6  11
HETATM   11  C5  UNL     1      63.736  99.416  49.167  1.00  0.00     0.165 C 
BRANCH  11  12
HETATM   12  N2  UNL     1      64.685 100.095  48.315  1.00  0.00    -0.364 N 
ATOM     13  H2  UNL     1      65.617 100.298  48.676  1.00  0.00     0.162 HD
BRANCH  12  14
HETATM   14  C6  UNL     1      64.359 100.491  46.983  1.00  0.00     0.348 C 
HETATM   15  O1  UNL     1      64.279  99.608  46.100  1.00  0.00    -0.284 OA
ENDBRANCH  12  14
ENDBRANCH  11  12
ENDBRANCH   6  11
TORSDOF 3
ENDMDL
