MODEL 3
REMARK VINA RESULT: -5.928968840      2.674      4.884
REMARK  3 active torsions:
REMARK  status: ('A' for Active; 'I' for Inactive)
REMARK    1  A    between atoms: C4_6  and  C5_7 
REMARK    2  A    between atoms: C5_7  and  N2_8 
REMARK    3  A    between atoms: N2_8  and  C6_10 
ROOT
HETATM    1  C1  UNL     1      66.346  94.641  52.882  1.00  0.00     0.089 C 
HETATM    2  C2  UNL     1      65.704  95.560  51.897  1.00  0.00     0.078 A 
HETATM    3  N1  UNL     1      65.519  96.865  52.146  1.00  0.00    -0.355 N 
ATOM      4  H1  UNL     1      65.827  97.244  53.041  1.00  0.00     0.166 HD
HETATM    5  C3  UNL     1      64.930  97.708  51.242  1.00  0.00     0.101 A 
HETATM    6  C4  UNL     1      64.505  97.224  50.029  1.00  0.00     0.016 A 
HETATM    7  C7  UNL     1      64.697  95.885  49.775  1.00  0.00     0.126 A 
HETATM    8  N3  UNL     1      64.262  95.376  48.527  1.00  0.00    -0.082 NA
HETATM    9  N4  UNL     1      65.290  95.086  50.711  1.00  0.00    -0.334 N 
ATOM     10  H4  UNL     1      65.422  94.097  50.501  1.00  0.00     0.168 HD
ENDROOT
BRANCH   6  11
HETATM   11  C5  UNL     1      63.876  98.059  48.979  1.00  0.00     0.165 C 
BRANCH  11  12
HETATM   12  N2  UNL     1      64.220  99.459  49.065  1.00  0.00    -0.364 N 
ATOM     13  H2  UNL     1      64.642  99.813  49.923  1.00  0.00     0.162 HD
BRANCH  12  14
HETATM   14  C6  UNL     1      63.988 100.363  47.985  1.00  0.00     0.348 C 
HETATM   15  O1  UNL     1      63.912  99.901  46.824  1.00  0.00    -0.284 OA
ENDBRANCH  12  14
ENDBRANCH  11  12
ENDBRANCH   6  11
TORSDOF 3
ENDMDL
