MODEL 4
REMARK VINA RESULT: -5.586083568      2.913      5.117
REMARK  3 active torsions:
REMARK  status: ('A' for Active; 'I' for Inactive)
REMARK    1  A    between atoms: C4_6  and  C5_7 
REMARK    2  A    between atoms: C5_7  and  N2_8 
REMARK    3  A    between atoms: N2_8  and  C6_10 
ROOT
HETATM    1  C1  UNL     1      65.909  95.154  52.182  1.00  0.00     0.089 C 
HETATM    2  C2  UNL     1      65.296  95.931  51.065  1.00  0.00     0.078 A 
HETATM    3  N1  UNL     1      64.590  95.347  50.085  1.00  0.00    -0.355 N 
ATOM      4  H1  UNL     1      64.468  94.334  50.103  1.00  0.00     0.166 HD
HETATM    5  C3  UNL     1      64.028  96.060  49.060  1.00  0.00     0.101 A 
HETATM    6  C4  UNL     1      64.178  97.424  49.012  1.00  0.00     0.016 A 
HETATM    7  C7  UNL     1      64.901  98.021  50.019  1.00  0.00     0.126 A 
HETATM    8  N3  UNL     1      65.061  99.428  49.978  1.00  0.00    -0.082 NA
HETATM    9  N4  UNL     1      65.442  97.265  51.019  1.00  0.00    -0.334 N 
ATOM     10  H4  UNL     1      65.974  97.728  51.755  1.00  0.00     0.168 HD
ENDROOT
BRANCH   6  11
HETATM   11  C5  UNL     1      63.591  98.284  47.958  1.00  0.00     0.165 C 
BRANCH  11  12
HETATM   12  N2  UNL     1      63.335  97.591  46.716  1.00  0.00    -0.364 N 
ATOM     13  H2  UNL     1      62.635  96.849  46.700  1.00  0.00     0.162 HD
BRANCH  12  14
HETATM   14  C6  UNL     1      64.029  97.912  45.512  1.00  0.00     0.348 C 
HETATM   15  O1  UNL     1      64.398  99.094  45.332  1.00  0.00    -0.284 OA
ENDBRANCH  12  14
ENDBRANCH  11  12
ENDBRANCH   6  11
TORSDOF 3
ENDMDL
