MODEL 1
REMARK VINA RESULT: -9.073433657      0.000      0.000
REMARK  9 active torsions:
REMARK  status: ('A' for Active; 'I' for Inactive)
REMARK    1  A    between atoms: N1_2  and  C2_3 
REMARK    2  A    between atoms: N1_2  and  C9_20 
REMARK    3  A    between atoms: C2_3  and  C3_4 
REMARK    4  A    between atoms: C12_23  and  C13_24 
REMARK       I    between atoms: C13_24  and  N8_26 
REMARK    5  A    between atoms: N8_26  and  C14_28 
REMARK    6  A    between atoms: C14_28  and  C15_29 
REMARK    7  A    between atoms: C14_28  and  C18_34 
REMARK    8  A    between atoms: C15_29  and  C16_30 
REMARK    9  A    between atoms: C16_30  and  C17_31 
ROOT
HETATM    1  C9  UNL     1     -10.308  -1.985 -16.984  1.00  0.00     0.030 A 
HETATM    2  C10 UNL     1     -10.265  -0.729 -16.427  1.00  0.00     0.030 A 
HETATM    3  C11 UNL     1      -9.170   0.103 -16.631  1.00  0.00     0.019 A 
HETATM    4  C12 UNL     1      -8.086  -0.271 -17.389  1.00  0.00     0.032 A 
HETATM    5  C19 UNL     1      -8.136  -1.531 -17.945  1.00  0.00     0.019 A 
HETATM    6  C20 UNL     1      -9.206  -2.380 -17.762  1.00  0.00     0.030 A 
ENDROOT
BRANCH   1   7
HETATM    7  N1  UNL     1     -11.401  -2.865 -16.799  1.00  0.00    -0.380 N 
HETATM    8  C1  UNL     1     -11.480  -3.584 -15.520  1.00  0.00     0.150 C 
BRANCH   7   9
HETATM    9  C2  UNL     1     -12.435  -3.123 -17.737  1.00  0.00     0.181 C 
BRANCH   9  10
HETATM   10  C3  UNL     1     -13.755  -2.540 -17.348  1.00  0.00     0.043 A 
HETATM   11  C4  UNL     1     -14.849  -3.369 -17.216  1.00  0.00     0.116 A 
HETATM   12  N2  UNL     1     -16.065  -2.873 -16.862  1.00  0.00    -0.348 N 
HETATM   13  C5  UNL     1     -16.240  -1.561 -16.629  1.00  0.00     0.138 A 
ATOM     14  H2  UNL     1     -16.857  -3.508 -16.772  1.00  0.00     0.167 HD
HETATM   15  N3  UNL     1     -17.442  -1.036 -16.275  1.00  0.00    -0.315 N 
HETATM   16  C8  UNL     1     -15.157  -0.730 -16.758  1.00  0.00     0.119 A 
HETATM   17  C6  UNL     1     -17.619   0.278 -16.042  1.00  0.00     0.195 A 
ATOM     18  H3  UNL     1     -18.242  -1.662 -16.181  1.00  0.00     0.170 HD
HETATM   19  N4  UNL     1     -18.909   0.773 -15.672  1.00  0.00    -0.063 NA
HETATM   20  N5  UNL     1     -16.555   1.079 -16.170  1.00  0.00    -0.317 N 
HETATM   21  C7  UNL     1     -15.338   0.617 -16.518  1.00  0.00     0.149 A 
ATOM     22  H5  UNL     1     -16.669   2.078 -15.998  1.00  0.00     0.169 HD
HETATM   23  N6  UNL     1     -14.205   1.461 -16.653  1.00  0.00    -0.080 NA
HETATM   24  N7  UNL     1     -13.947  -1.231 -17.111  1.00  0.00    -0.351 N 
ATOM     25  H7  UNL     1     -13.156  -0.594 -17.200  1.00  0.00     0.166 HD
ENDBRANCH   9  10
ENDBRANCH   7   9
ENDBRANCH   1   7
BRANCH   4  26
HETATM   26  C13 UNL     1      -6.943   0.598 -17.627  1.00  0.00     0.252 C 
HETATM   27  O1  UNL     1      -5.751   0.205 -17.375  1.00  0.00    -0.268 OA
HETATM   28  N8  UNL     1      -7.038   1.913 -18.143  1.00  0.00    -0.342 N 
ATOM     29  H8  UNL     1      -7.965   2.274 -18.370  1.00  0.00     0.163 HD
BRANCH  28  30
HETATM   30  C14 UNL     1      -5.901   2.768 -18.365  1.00  0.00     0.186 C 
BRANCH  30  31
HETATM   31  C15 UNL     1      -5.893   3.442 -19.703  1.00  0.00     0.046 C 
BRANCH  31  32
HETATM   32  C16 UNL     1      -4.872   2.956 -20.670  1.00  0.00     0.116 C 
BRANCH  32  33
HETATM   33  C17 UNL     1      -5.382   1.902 -21.575  1.00  0.00     0.172 C 
HETATM   34  O2  UNL     1      -5.277   2.025 -22.821  1.00  0.00    -0.648 OA
HETATM   35  O3  UNL     1      -6.000   0.727 -21.119  1.00  0.00    -0.648 OA
ENDBRANCH  32  33
ENDBRANCH  31  32
ENDBRANCH  30  31
BRANCH  30  36
HETATM   36  C18 UNL     1      -5.666   3.706 -17.253  1.00  0.00     0.196 C 
HETATM   37  O4  UNL     1      -6.417   4.697 -17.018  1.00  0.00    -0.646 OA
HETATM   38  O5  UNL     1      -4.589   3.541 -16.394  1.00  0.00    -0.646 OA
ENDBRANCH  30  36
ENDBRANCH  28  30
ENDBRANCH   4  26
TORSDOF 9
ENDMDL
