MODEL 5
REMARK VINA RESULT: -8.564033073      5.978      9.299
REMARK  9 active torsions:
REMARK  status: ('A' for Active; 'I' for Inactive)
REMARK    1  A    between atoms: N1_2  and  C2_3 
REMARK    2  A    between atoms: N1_2  and  C9_20 
REMARK    3  A    between atoms: C2_3  and  C3_4 
REMARK    4  A    between atoms: C12_23  and  C13_24 
REMARK       I    between atoms: C13_24  and  N8_26 
REMARK    5  A    between atoms: N8_26  and  C14_28 
REMARK    6  A    between atoms: C14_28  and  C15_29 
REMARK    7  A    between atoms: C14_28  and  C18_34 
REMARK    8  A    between atoms: C15_29  and  C16_30 
REMARK    9  A    between atoms: C16_30  and  C17_31 
ROOT
HETATM    1  C9  UNL     1     -13.421   2.257 -17.787  1.00  0.00     0.030 A 
HETATM    2  C10 UNL     1     -13.866   3.205 -18.677  1.00  0.00     0.030 A 
HETATM    3  C11 UNL     1     -15.072   3.864 -18.472  1.00  0.00     0.019 A 
HETATM    4  C12 UNL     1     -15.879   3.613 -17.387  1.00  0.00     0.032 A 
HETATM    5  C19 UNL     1     -15.428   2.662 -16.498  1.00  0.00     0.019 A 
HETATM    6  C20 UNL     1     -14.237   1.991 -16.672  1.00  0.00     0.030 A 
ENDROOT
BRANCH   1   7
HETATM    7  N1  UNL     1     -12.202   1.561 -17.958  1.00  0.00    -0.380 N 
HETATM    8  C1  UNL     1     -11.047   2.017 -17.172  1.00  0.00     0.150 C 
BRANCH   7   9
HETATM    9  C2  UNL     1     -11.982   0.458 -18.824  1.00  0.00     0.181 C 
BRANCH   9  10
HETATM   10  C3  UNL     1     -12.920  -0.682 -18.592  1.00  0.00     0.043 A 
HETATM   11  C4  UNL     1     -14.065  -0.783 -19.353  1.00  0.00     0.116 A 
HETATM   12  N2  UNL     1     -14.940  -1.808 -19.170  1.00  0.00    -0.348 N 
HETATM   13  C5  UNL     1     -14.718  -2.755 -18.243  1.00  0.00     0.138 A 
ATOM     14  H2  UNL     1     -15.779  -1.859 -19.747  1.00  0.00     0.167 HD
HETATM   15  N3  UNL     1     -15.573  -3.790 -18.036  1.00  0.00    -0.315 N 
HETATM   16  C8  UNL     1     -13.581  -2.663 -17.482  1.00  0.00     0.119 A 
HETATM   17  C6  UNL     1     -15.352  -4.739 -17.107  1.00  0.00     0.195 A 
ATOM     18  H3  UNL     1     -16.415  -3.851 -18.608  1.00  0.00     0.170 HD
HETATM   19  N4  UNL     1     -16.289  -5.805 -16.935  1.00  0.00    -0.063 NA
HETATM   20  N5  UNL     1     -14.239  -4.638 -16.371  1.00  0.00    -0.317 N 
HETATM   21  C7  UNL     1     -13.354  -3.635 -16.530  1.00  0.00     0.149 A 
ATOM     22  H5  UNL     1     -14.055  -5.348 -15.661  1.00  0.00     0.169 HD
HETATM   23  N6  UNL     1     -12.171  -3.525 -15.754  1.00  0.00    -0.080 NA
HETATM   24  N7  UNL     1     -12.712  -1.637 -17.669  1.00  0.00    -0.351 N 
ATOM     25  H7  UNL     1     -11.873  -1.590 -17.091  1.00  0.00     0.166 HD
ENDBRANCH   9  10
ENDBRANCH   7   9
ENDBRANCH   1   7
BRANCH   4  26
HETATM   26  C13 UNL     1     -17.135   4.311 -17.151  1.00  0.00     0.252 C 
HETATM   27  O1  UNL     1     -17.306   5.025 -16.103  1.00  0.00    -0.268 OA
HETATM   28  N8  UNL     1     -18.245   4.267 -18.028  1.00  0.00    -0.342 N 
ATOM     29  H8  UNL     1     -18.160   3.719 -18.884  1.00  0.00     0.163 HD
BRANCH  28  30
HETATM   30  C14 UNL     1     -19.487   4.952 -17.780  1.00  0.00     0.186 C 
BRANCH  30  31
HETATM   31  C15 UNL     1     -19.947   5.816 -18.914  1.00  0.00     0.046 C 
BRANCH  31  32
HETATM   32  C16 UNL     1     -19.227   5.635 -20.204  1.00  0.00     0.116 C 
BRANCH  32  33
HETATM   33  C17 UNL     1     -17.936   6.360 -20.255  1.00  0.00     0.172 C 
HETATM   34  O2  UNL     1     -17.169   6.227 -21.240  1.00  0.00    -0.648 OA
HETATM   35  O3  UNL     1     -17.495   7.220 -19.237  1.00  0.00    -0.648 OA
ENDBRANCH  32  33
ENDBRANCH  31  32
ENDBRANCH  30  31
BRANCH  30  36
HETATM   36  C18 UNL     1     -20.544   4.056 -17.279  1.00  0.00     0.196 C 
HETATM   37  O4  UNL     1     -20.656   3.739 -16.060  1.00  0.00    -0.646 OA
HETATM   38  O5  UNL     1     -21.485   3.510 -18.140  1.00  0.00    -0.646 OA
ENDBRANCH  30  36
ENDBRANCH  28  30
ENDBRANCH   4  26
TORSDOF 9
ENDMDL
