MODEL 13
REMARK VINA RESULT: -4.450672654      1.233      1.627
REMARK  6 active torsions:
REMARK  status: ('A' for Active; 'I' for Inactive)
REMARK    1  A    between atoms: N1_1  and  C1_5 
REMARK    2  A    between atoms: C1_5  and  C2_6 
REMARK    3  A    between atoms: C2_6  and  C3_7 
REMARK    4  A    between atoms: C3_7  and  C4_8 
REMARK    5  A    between atoms: C4_8  and  N2_9 
REMARK    6  A    between atoms: C4_8  and  C5_13 
ROOT
HETATM    1  C4  UNL     1      43.924  72.497  16.424  1.00  0.00     0.283 C 
ENDROOT
BRANCH   1   2
HETATM    2  C3  UNL     1      45.136  71.613  16.259  1.00  0.00     0.045 C 
BRANCH   2   3
HETATM    3  C2  UNL     1      44.909  70.226  16.812  1.00  0.00     0.030 C 
BRANCH   3   4
HETATM    4  C1  UNL     1      45.834  70.017  17.985  1.00  0.00     0.230 C 
BRANCH   4   5
HETATM    5  N1  UNL     1      46.811  71.052  18.124  1.00  0.00    -0.079 N 
ATOM      6  H13 UNL     1      47.024  71.474  17.220  1.00  0.00     0.274 HD
ATOM      7  H12 UNL     1      46.415  71.863  18.599  1.00  0.00     0.274 HD
ATOM      8  H11 UNL     1      47.664  70.740  18.588  1.00  0.00     0.274 HD
ENDBRANCH   4   5
ENDBRANCH   3   4
ENDBRANCH   2   3
ENDBRANCH   1   2
BRANCH   1   9
HETATM    9  N2  UNL     1      43.434  73.021  15.193  1.00  0.00    -0.065 N 
ATOM     10  H23 UNL     1      42.499  73.412  15.313  1.00  0.00     0.275 HD
ATOM     11  H22 UNL     1      43.939  73.869  14.935  1.00  0.00     0.275 HD
ATOM     12  H21 UNL     1      43.449  72.344  14.431  1.00  0.00     0.275 HD
ENDBRANCH   1   9
BRANCH   1  13
HETATM   13  C5  UNL     1      44.109  73.561  17.407  1.00  0.00     0.204 C 
HETATM   14  O1  UNL     1      44.451  73.365  18.604  1.00  0.00    -0.646 OA
HETATM   15  O2  UNL     1      43.900  74.874  17.015  1.00  0.00    -0.646 OA
ENDBRANCH   1  13
TORSDOF 6
ENDMDL
