MODEL 10
REMARK VINA RESULT: -4.464155130      3.691      4.448
REMARK  6 active torsions:
REMARK  status: ('A' for Active; 'I' for Inactive)
REMARK    1  A    between atoms: N1_1  and  C1_5 
REMARK    2  A    between atoms: C1_5  and  C2_6 
REMARK    3  A    between atoms: C2_6  and  C3_7 
REMARK    4  A    between atoms: C3_7  and  C4_8 
REMARK    5  A    between atoms: C4_8  and  N2_9 
REMARK    6  A    between atoms: C4_8  and  C5_13 
ROOT
HETATM    1  C4  UNL     1      45.543  75.083  15.248  1.00  0.00     0.283 C 
ENDROOT
BRANCH   1   2
HETATM    2  C3  UNL     1      44.859  74.283  16.330  1.00  0.00     0.045 C 
BRANCH   2   3
HETATM    3  C2  UNL     1      43.718  73.454  15.789  1.00  0.00     0.030 C 
BRANCH   3   4
HETATM    4  C1  UNL     1      43.429  73.893  14.375  1.00  0.00     0.230 C 
BRANCH   4   5
HETATM    5  N1  UNL     1      42.061  73.713  13.998  1.00  0.00    -0.079 N 
ATOM      6  H13 UNL     1      41.934  72.832  13.501  1.00  0.00     0.274 HD
ATOM      7  H12 UNL     1      41.480  73.530  14.817  1.00  0.00     0.274 HD
ATOM      8  H11 UNL     1      41.688  74.493  13.456  1.00  0.00     0.274 HD
ENDBRANCH   4   5
ENDBRANCH   3   4
ENDBRANCH   2   3
ENDBRANCH   1   2
BRANCH   1   9
HETATM    9  N2  UNL     1      46.871  74.645  14.975  1.00  0.00    -0.065 N 
ATOM     10  H23 UNL     1      46.885  74.014  14.174  1.00  0.00     0.275 HD
ATOM     11  H22 UNL     1      47.433  75.408  14.598  1.00  0.00     0.275 HD
ATOM     12  H21 UNL     1      47.330  74.220  15.780  1.00  0.00     0.275 HD
ENDBRANCH   1   9
BRANCH   1  13
HETATM   13  C5  UNL     1      45.507  76.524  15.481  1.00  0.00     0.204 C 
HETATM   14  O1  UNL     1      46.245  77.354  14.886  1.00  0.00    -0.646 OA
HETATM   15  O2  UNL     1      44.612  77.027  16.412  1.00  0.00    -0.646 OA
ENDBRANCH   1  13
TORSDOF 6
ENDMDL
