MODEL 3
REMARK VINA RESULT: -4.590987706      3.471      4.772
REMARK  6 active torsions:
REMARK  status: ('A' for Active; 'I' for Inactive)
REMARK    1  A    between atoms: N1_1  and  C1_5 
REMARK    2  A    between atoms: C1_5  and  C2_6 
REMARK    3  A    between atoms: C2_6  and  C3_7 
REMARK    4  A    between atoms: C3_7  and  C4_8 
REMARK    5  A    between atoms: C4_8  and  N2_9 
REMARK    6  A    between atoms: C4_8  and  C5_13 
ROOT
HETATM    1  C4  UNL     1      43.569  74.014  14.850  1.00  0.00     0.283 C 
ENDROOT
BRANCH   1   2
HETATM    2  C3  UNL     1      44.031  75.432  15.082  1.00  0.00     0.045 C 
BRANCH   2   3
HETATM    3  C2  UNL     1      45.536  75.554  15.040  1.00  0.00     0.030 C 
BRANCH   3   4
HETATM    4  C1  UNL     1      45.917  76.964  15.416  1.00  0.00     0.230 C 
BRANCH   4   5
HETATM    5  N1  UNL     1      47.294  77.261  15.164  1.00  0.00    -0.079 N 
ATOM      6  H13 UNL     1      47.837  77.226  16.027  1.00  0.00     0.274 HD
ATOM      7  H12 UNL     1      47.741  76.500  14.652  1.00  0.00     0.274 HD
ATOM      8  H11 UNL     1      47.431  78.151  14.684  1.00  0.00     0.274 HD
ENDBRANCH   4   5
ENDBRANCH   3   4
ENDBRANCH   2   3
ENDBRANCH   1   2
BRANCH   1   9
HETATM    9  N2  UNL     1      42.382  73.928  14.065  1.00  0.00    -0.065 N 
ATOM     10  H23 UNL     1      41.715  73.284  14.489  1.00  0.00     0.275 HD
ATOM     11  H22 UNL     1      41.845  74.792  14.126  1.00  0.00     0.275 HD
ATOM     12  H21 UNL     1      42.558  73.678  13.092  1.00  0.00     0.275 HD
ENDBRANCH   1   9
BRANCH   1  13
HETATM   13  C5  UNL     1      43.439  73.236  16.078  1.00  0.00     0.204 C 
HETATM   14  O1  UNL     1      43.257  71.990  16.108  1.00  0.00    -0.646 OA
HETATM   15  O2  UNL     1      43.517  73.894  17.296  1.00  0.00    -0.646 OA
ENDBRANCH   1  13
TORSDOF 6
ENDMDL
