MODEL 18
REMARK VINA RESULT: -4.396745481      1.653      1.809
REMARK  6 active torsions:
REMARK  status: ('A' for Active; 'I' for Inactive)
REMARK    1  A    between atoms: N1_1  and  C1_5 
REMARK    2  A    between atoms: C1_5  and  C2_6 
REMARK    3  A    between atoms: C2_6  and  C3_7 
REMARK    4  A    between atoms: C3_7  and  C4_8 
REMARK    5  A    between atoms: C4_8  and  N2_9 
REMARK    6  A    between atoms: C4_8  and  C5_13 
ROOT
HETATM    1  C4  UNL     1      44.607  73.243  17.309  1.00  0.00     0.283 C 
ENDROOT
BRANCH   1   2
HETATM    2  C3  UNL     1      44.602  71.879  16.661  1.00  0.00     0.045 C 
BRANCH   2   3
HETATM    3  C2  UNL     1      45.974  71.248  16.653  1.00  0.00     0.030 C 
BRANCH   3   4
HETATM    4  C1  UNL     1      45.990  70.115  17.649  1.00  0.00     0.230 C 
BRANCH   4   5
HETATM    5  N1  UNL     1      45.073  69.066  17.324  1.00  0.00    -0.079 N 
ATOM      6  H13 UNL     1      44.187  69.193  17.814  1.00  0.00     0.274 HD
ATOM      7  H12 UNL     1      44.747  69.155  16.362  1.00  0.00     0.274 HD
ATOM      8  H11 UNL     1      45.452  68.134  17.495  1.00  0.00     0.274 HD
ENDBRANCH   4   5
ENDBRANCH   3   4
ENDBRANCH   2   3
ENDBRANCH   1   2
BRANCH   1   9
HETATM    9  N2  UNL     1      43.961  73.268  18.579  1.00  0.00    -0.065 N 
ATOM     10  H23 UNL     1      44.256  72.476  19.150  1.00  0.00     0.275 HD
ATOM     11  H22 UNL     1      44.319  74.032  19.152  1.00  0.00     0.275 HD
ATOM     12  H21 UNL     1      42.944  73.309  18.514  1.00  0.00     0.275 HD
ENDBRANCH   1   9
BRANCH   1  13
HETATM   13  C5  UNL     1      44.095  74.300  16.443  1.00  0.00     0.204 C 
HETATM   14  O1  UNL     1      43.133  74.154  15.643  1.00  0.00    -0.646 OA
HETATM   15  O2  UNL     1      44.695  75.549  16.491  1.00  0.00    -0.646 OA
ENDBRANCH   1  13
TORSDOF 6
ENDMDL
