MODEL 8
REMARK VINA RESULT: -4.474762149      3.165      5.007
REMARK  6 active torsions:
REMARK  status: ('A' for Active; 'I' for Inactive)
REMARK    1  A    between atoms: N1_1  and  C1_5 
REMARK    2  A    between atoms: C1_5  and  C2_6 
REMARK    3  A    between atoms: C2_6  and  C3_7 
REMARK    4  A    between atoms: C3_7  and  C4_8 
REMARK    5  A    between atoms: C4_8  and  N2_9 
REMARK    6  A    between atoms: C4_8  and  C5_13 
ROOT
HETATM    1  C4  UNL     1      45.319  74.538  15.675  1.00  0.00     0.283 C 
ENDROOT
BRANCH   1   2
HETATM    2  C3  UNL     1      44.984  75.816  14.944  1.00  0.00     0.045 C 
BRANCH   2   3
HETATM    3  C2  UNL     1      44.291  76.817  15.838  1.00  0.00     0.030 C 
BRANCH   3   4
HETATM    4  C1  UNL     1      43.099  77.377  15.103  1.00  0.00     0.230 C 
BRANCH   4   5
HETATM    5  N1  UNL     1      42.352  76.380  14.399  1.00  0.00    -0.079 N 
ATOM      6  H13 UNL     1      41.679  76.811  13.765  1.00  0.00     0.274 HD
ATOM      7  H12 UNL     1      42.941  75.899  13.719  1.00  0.00     0.274 HD
ATOM      8  H11 UNL     1      41.892  75.712  15.017  1.00  0.00     0.274 HD
ENDBRANCH   4   5
ENDBRANCH   3   4
ENDBRANCH   2   3
ENDBRANCH   1   2
BRANCH   1   9
HETATM    9  N2  UNL     1      45.815  73.512  14.820  1.00  0.00    -0.065 N 
ATOM     10  H23 UNL     1      45.085  73.185  14.187  1.00  0.00     0.275 HD
ATOM     11  H22 UNL     1      46.471  73.893  14.139  1.00  0.00     0.275 HD
ATOM     12  H21 UNL     1      46.232  72.731  15.326  1.00  0.00     0.275 HD
ENDBRANCH   1   9
BRANCH   1  13
HETATM   13  C5  UNL     1      44.228  74.041  16.508  1.00  0.00     0.204 C 
HETATM   14  O1  UNL     1      44.280  73.958  17.764  1.00  0.00    -0.646 OA
HETATM   15  O2  UNL     1      43.055  73.629  15.895  1.00  0.00    -0.646 OA
ENDBRANCH   1  13
TORSDOF 6
ENDMDL
