MODEL 1
REMARK VINA RESULT: -4.637857488      0.000      0.000
REMARK  6 active torsions:
REMARK  status: ('A' for Active; 'I' for Inactive)
REMARK    1  A    between atoms: N1_1  and  C1_5 
REMARK    2  A    between atoms: C1_5  and  C2_6 
REMARK    3  A    between atoms: C2_6  and  C3_7 
REMARK    4  A    between atoms: C3_7  and  C4_8 
REMARK    5  A    between atoms: C4_8  and  N2_9 
REMARK    6  A    between atoms: C4_8  and  C5_13 
ROOT
HETATM    1  C4  UNL     1      44.506  72.292  16.811  1.00  0.00     0.283 C 
ENDROOT
BRANCH   1   2
HETATM    2  C3  UNL     1      45.958  72.152  16.423  1.00  0.00     0.045 C 
BRANCH   2   3
HETATM    3  C2  UNL     1      46.456  70.736  16.584  1.00  0.00     0.030 C 
BRANCH   3   4
HETATM    4  C1  UNL     1      45.755  70.107  17.762  1.00  0.00     0.230 C 
BRANCH   4   5
HETATM    5  N1  UNL     1      45.019  68.930  17.417  1.00  0.00    -0.079 N 
ATOM      6  H13 UNL     1      44.154  69.172  16.932  1.00  0.00     0.274 HD
ATOM      7  H12 UNL     1      45.489  68.413  16.674  1.00  0.00     0.274 HD
ATOM      8  H11 UNL     1      44.829  68.326  18.217  1.00  0.00     0.274 HD
ENDBRANCH   4   5
ENDBRANCH   3   4
ENDBRANCH   2   3
ENDBRANCH   1   2
BRANCH   1   9
HETATM    9  N2  UNL     1      43.614  72.219  15.702  1.00  0.00    -0.065 N 
ATOM     10  H23 UNL     1      43.621  73.092  15.175  1.00  0.00     0.275 HD
ATOM     11  H22 UNL     1      43.977  71.587  14.988  1.00  0.00     0.275 HD
ATOM     12  H21 UNL     1      42.663  71.961  15.965  1.00  0.00     0.275 HD
ENDBRANCH   1   9
BRANCH   1  13
HETATM   13  C5  UNL     1      44.232  73.474  17.623  1.00  0.00     0.204 C 
HETATM   14  O1  UNL     1      43.885  74.590  17.151  1.00  0.00    -0.646 OA
HETATM   15  O2  UNL     1      44.357  73.382  19.000  1.00  0.00    -0.646 OA
ENDBRANCH   1  13
TORSDOF 6
ENDMDL
