MODEL 1
REMARK VINA RESULT: -8.919901634      0.000      0.000
REMARK  1 active torsions:
REMARK  status: ('A' for Active; 'I' for Inactive)
REMARK    1  A    between atoms: C3_4  and  C4_5 
ROOT
HETATM    1  N1  UNL     1      -0.895  -7.685  41.935  1.00  0.00    -0.191 NA
HETATM    2  C1  UNL     1       0.184  -8.081  41.897  1.00  0.00     0.103 C 
HETATM    3  C2  UNL     1       1.538  -8.559  41.825  1.00  0.00     0.091 A 
HETATM    4  C3  UNL     1       2.219  -9.466  42.580  1.00  0.00     0.066 A 
HETATM    5  N2  UNL     1       3.477  -9.553  42.089  1.00  0.00    -0.340 N 
ATOM      6  H2  UNL     1       4.198 -10.165  42.472  1.00  0.00     0.167 HD
HETATM    7  C11 UNL     1       3.663  -8.741  41.042  1.00  0.00     0.125 A 
HETATM    8  N3  UNL     1       4.707  -8.464  40.224  1.00  0.00    -0.316 N 
ATOM      9  H3  UNL     1       5.596  -8.941  40.372  1.00  0.00     0.170 HD
HETATM   10  C12 UNL     1       4.596  -7.574  39.223  1.00  0.00     0.196 A 
HETATM   11  N4  UNL     1       5.709  -7.282  38.354  1.00  0.00    -0.063 NA
HETATM   12  N5  UNL     1       3.409  -6.965  39.061  1.00  0.00    -0.297 N 
ATOM     13  H5  UNL     1       3.315  -6.288  38.305  1.00  0.00     0.171 HD
HETATM   14  C13 UNL     1       2.339  -7.197  39.838  1.00  0.00     0.263 A 
HETATM   15  O3  UNL     1       1.228  -6.606  39.662  1.00  0.00    -0.267 OA
HETATM   16  C14 UNL     1       2.457  -8.111  40.864  1.00  0.00     0.099 A 
ENDROOT
BRANCH   4  17
HETATM   17  C4  UNL     1       1.695 -10.220  43.717  1.00  0.00    -0.005 A 
HETATM   18  C5  UNL     1       1.432 -11.555  43.708  1.00  0.00     0.017 A 
HETATM   19  C6  UNL     1       0.928 -12.239  44.829  1.00  0.00     0.040 A 
HETATM   20  C7  UNL     1       0.683 -11.531  45.999  1.00  0.00     0.105 A 
HETATM   21  C8  UNL     1       0.945 -10.178  46.015  1.00  0.00     0.105 A 
HETATM   22  O2  UNL     1       0.194 -11.944  47.232  1.00  0.00    -0.323 OA
HETATM   23  C9  UNL     1       1.437  -9.550  44.900  1.00  0.00     0.053 A 
HETATM   24  O1  UNL     1       0.602  -9.767  47.302  1.00  0.00    -0.323 OA
HETATM   25  C10 UNL     1      -0.268 -10.747  47.877  1.00  0.00     0.352 C 
ENDBRANCH   4  17
TORSDOF 1
ENDMDL
