MODEL 3
REMARK VINA RESULT: -8.813314173      3.560      7.758
REMARK  1 active torsions:
REMARK  status: ('A' for Active; 'I' for Inactive)
REMARK    1  A    between atoms: C3_4  and  C4_5 
ROOT
HETATM    1  N1  UNL     1       1.604 -12.771  44.062  1.00  0.00    -0.191 NA
HETATM    2  C1  UNL     1       1.189 -11.908  44.699  1.00  0.00     0.103 C 
HETATM    3  C2  UNL     1       0.660 -10.850  45.516  1.00  0.00     0.091 A 
HETATM    4  C3  UNL     1       0.605  -9.502  45.326  1.00  0.00     0.066 A 
HETATM    5  N2  UNL     1       0.001  -8.955  46.406  1.00  0.00    -0.340 N 
ATOM      6  H2  UNL     1      -0.170  -7.956  46.520  1.00  0.00     0.167 HD
HETATM    7  C11 UNL     1      -0.347  -9.882  47.308  1.00  0.00     0.125 A 
HETATM    8  N3  UNL     1      -0.956  -9.854  48.517  1.00  0.00    -0.316 N 
ATOM      9  H3  UNL     1      -1.250  -8.958  48.906  1.00  0.00     0.170 HD
HETATM   10  C12 UNL     1      -1.180 -10.980  49.215  1.00  0.00     0.196 A 
HETATM   11  N4  UNL     1      -1.829 -10.947  50.502  1.00  0.00    -0.063 NA
HETATM   12  N5  UNL     1      -0.776 -12.140  48.670  1.00  0.00    -0.297 N 
ATOM     13  H5  UNL     1      -0.941 -13.000  49.193  1.00  0.00     0.171 HD
HETATM   14  C13 UNL     1      -0.168 -12.232  47.476  1.00  0.00     0.263 A 
HETATM   15  O3  UNL     1       0.204 -13.344  46.985  1.00  0.00    -0.267 OA
HETATM   16  C14 UNL     1       0.060 -11.074  46.764  1.00  0.00     0.099 A 
ENDROOT
BRANCH   4  17
HETATM   17  C4  UNL     1       1.103  -8.765  44.166  1.00  0.00    -0.005 A 
HETATM   18  C5  UNL     1       2.414  -8.498  43.921  1.00  0.00     0.017 A 
HETATM   19  C6  UNL     1       2.846  -7.784  42.789  1.00  0.00     0.040 A 
HETATM   20  C7  UNL     1       1.904  -7.326  41.877  1.00  0.00     0.105 A 
HETATM   21  C8  UNL     1       0.572  -7.592  42.119  1.00  0.00     0.105 A 
HETATM   22  O2  UNL     1       2.046  -6.609  40.696  1.00  0.00    -0.323 OA
HETATM   23  C9  UNL     1       0.194  -8.292  43.235  1.00  0.00     0.053 A 
HETATM   24  O1  UNL     1      -0.103  -7.014  41.046  1.00  0.00    -0.323 OA
HETATM   25  C10 UNL     1       0.752  -6.042  40.437  1.00  0.00     0.352 C 
ENDBRANCH   4  17
TORSDOF 1
ENDMDL
