MODEL 2
REMARK VINA RESULT: -8.898665339      3.704      7.898
REMARK  1 active torsions:
REMARK  status: ('A' for Active; 'I' for Inactive)
REMARK    1  A    between atoms: C3_4  and  C4_5 
ROOT
HETATM    1  N1  UNL     1       1.504 -11.902  44.027  1.00  0.00    -0.191 NA
HETATM    2  C1  UNL     1       0.831 -11.236  44.681  1.00  0.00     0.103 C 
HETATM    3  C2  UNL     1      -0.010 -10.427  45.520  1.00  0.00     0.091 A 
HETATM    4  C3  UNL     1      -0.539  -9.184  45.341  1.00  0.00     0.066 A 
HETATM    5  N2  UNL     1      -1.264  -8.880  46.442  1.00  0.00    -0.340 N 
ATOM      6  H2  UNL     1      -1.770  -8.003  46.568  1.00  0.00     0.167 HD
HETATM    7  C11 UNL     1      -1.240  -9.867  47.346  1.00  0.00     0.125 A 
HETATM    8  N3  UNL     1      -1.786 -10.050  48.572  1.00  0.00    -0.316 N 
ATOM      9  H3  UNL     1      -2.363  -9.312  48.976  1.00  0.00     0.170 HD
HETATM   10  C12 UNL     1      -1.582 -11.180  49.269  1.00  0.00     0.196 A 
HETATM   11  N4  UNL     1      -2.164 -11.373  50.574  1.00  0.00    -0.063 NA
HETATM   12  N5  UNL     1      -0.814 -12.128  48.704  1.00  0.00    -0.297 N 
ATOM     13  H5  UNL     1      -0.653 -12.990  49.225  1.00  0.00     0.171 HD
HETATM   14  C13 UNL     1      -0.246 -12.006  47.493  1.00  0.00     0.263 A 
HETATM   15  O3  UNL     1       0.476 -12.919  46.984  1.00  0.00    -0.267 OA
HETATM   16  C14 UNL     1      -0.458 -10.843  46.783  1.00  0.00     0.099 A 
ENDROOT
BRANCH   4  17
HETATM   17  C4  UNL     1      -0.363  -8.323  44.173  1.00  0.00    -0.005 A 
HETATM   18  C5  UNL     1      -1.097  -8.406  43.031  1.00  0.00     0.017 A 
HETATM   19  C6  UNL     1      -0.892  -7.555  41.931  1.00  0.00     0.040 A 
HETATM   20  C7  UNL     1       0.100  -6.585  42.002  1.00  0.00     0.105 A 
HETATM   21  C8  UNL     1       0.849  -6.496  43.156  1.00  0.00     0.105 A 
HETATM   22  O2  UNL     1       0.513  -5.629  41.083  1.00  0.00    -0.323 OA
HETATM   23  C9  UNL     1       0.615  -7.345  44.206  1.00  0.00     0.053 A 
HETATM   24  O1  UNL     1       1.740  -5.450  42.919  1.00  0.00    -0.323 OA
HETATM   25  C10 UNL     1       1.828  -5.237  41.507  1.00  0.00     0.352 C 
ENDBRANCH   4  17
TORSDOF 1
ENDMDL
