MODEL 1
REMARK VINA RESULT: -8.547259633      0.000      0.000
REMARK  3 active torsions:
REMARK  status: ('A' for Active; 'I' for Inactive)
REMARK    1  A    between atoms: C4_9  and  C5_10 
REMARK    2  A    between atoms: C5_10  and  C6_11 
REMARK    3  A    between atoms: C6_11  and  C7_12 
ROOT
HETATM    1  N1  UNL     1       6.211 -10.799  29.138  1.00  0.00    -0.063 NA
HETATM    2  C1  UNL     1       6.913 -10.981  27.921  1.00  0.00     0.196 A 
HETATM    3  N2  UNL     1       7.524  -9.972  27.278  1.00  0.00    -0.316 N 
ATOM      4  H2  UNL     1       7.493  -9.027  27.659  1.00  0.00     0.170 HD
HETATM    5  C2  UNL     1       8.176 -10.218  26.125  1.00  0.00     0.123 A 
HETATM    6  N3  UNL     1       8.876  -9.420  25.276  1.00  0.00    -0.351 N 
ATOM      7  H3  UNL     1       9.022  -8.418  25.392  1.00  0.00     0.166 HD
HETATM    8  C3  UNL     1       9.346 -10.161  24.258  1.00  0.00     0.098 A 
HETATM    9  C4  UNL     1       8.957 -11.479  24.421  1.00  0.00    -0.023 A 
HETATM   10  C13 UNL     1       8.233 -11.490  25.588  1.00  0.00     0.084 A 
HETATM   11  C14 UNL     1       7.607 -12.502  26.257  1.00  0.00     0.262 A 
HETATM   12  O1  UNL     1       7.659 -13.666  25.769  1.00  0.00    -0.267 OA
HETATM   13  N4  UNL     1       6.962 -12.237  27.404  1.00  0.00    -0.297 N 
ATOM     14  H4  UNL     1       6.497 -12.998  27.899  1.00  0.00     0.171 HD
ENDROOT
BRANCH   9  15
HETATM   15  C5  UNL     1       9.253 -12.608  23.513  1.00  0.00     0.045 C 
BRANCH  15  16
HETATM   16  C6  UNL     1      10.443 -12.277  22.617  1.00  0.00     0.043 C 
BRANCH  16  17
HETATM   17  C7  UNL     1      11.417 -13.393  22.588  1.00  0.00    -0.058 A 
HETATM   18  C8  UNL     1      12.699 -13.199  22.118  1.00  0.00     0.007 A 
HETATM   19  C9  UNL     1      13.619 -14.247  22.089  1.00  0.00     0.001 A 
HETATM   20  C10 UNL     1      13.224 -15.484  22.540  1.00  0.00     0.000 A 
HETATM   21  C11 UNL     1      11.959 -15.717  23.014  1.00  0.00     0.001 A 
HETATM   22  C12 UNL     1      11.081 -14.674  23.032  1.00  0.00     0.007 A 
ENDBRANCH  16  17
ENDBRANCH  15  16
ENDBRANCH   9  15
TORSDOF 3
ENDMDL
