MODEL 3
REMARK VINA RESULT: -8.350408556      1.569      2.308
REMARK  3 active torsions:
REMARK  status: ('A' for Active; 'I' for Inactive)
REMARK    1  A    between atoms: C4_9  and  C5_10 
REMARK    2  A    between atoms: C5_10  and  C6_11 
REMARK    3  A    between atoms: C6_11  and  C7_12 
ROOT
HETATM    1  N1  UNL     1       6.186 -11.080  29.091  1.00  0.00    -0.063 NA
HETATM    2  C1  UNL     1       7.162 -11.052  28.064  1.00  0.00     0.196 A 
HETATM    3  N2  UNL     1       7.409  -9.957  27.326  1.00  0.00    -0.316 N 
ATOM      4  H2  UNL     1       6.884  -9.099  27.491  1.00  0.00     0.170 HD
HETATM    5  C2  UNL     1       8.354 -10.001  26.368  1.00  0.00     0.123 A 
HETATM    6  N3  UNL     1       8.819  -9.074  25.490  1.00  0.00    -0.351 N 
ATOM      7  H3  UNL     1       8.486  -8.113  25.415  1.00  0.00     0.166 HD
HETATM    8  C3  UNL     1       9.787  -9.622  24.737  1.00  0.00     0.098 A 
HETATM    9  C4  UNL     1       9.979 -10.940  25.111  1.00  0.00    -0.023 A 
HETATM   10  C13 UNL     1       9.080 -11.152  26.125  1.00  0.00     0.084 A 
HETATM   11  C14 UNL     1       8.814 -12.255  26.886  1.00  0.00     0.262 A 
HETATM   12  O1  UNL     1       9.477 -13.308  26.667  1.00  0.00    -0.267 OA
HETATM   13  N4  UNL     1       7.868 -12.191  27.836  1.00  0.00    -0.297 N 
ATOM     14  H4  UNL     1       7.675 -13.018  28.401  1.00  0.00     0.171 HD
ENDROOT
BRANCH   9  15
HETATM   15  C5  UNL     1      10.938 -11.897  24.517  1.00  0.00     0.045 C 
BRANCH  15  16
HETATM   16  C6  UNL     1      10.478 -12.324  23.127  1.00  0.00     0.043 C 
BRANCH  16  17
HETATM   17  C7  UNL     1       9.734 -13.604  23.179  1.00  0.00    -0.058 A 
HETATM   18  C8  UNL     1      10.403 -14.806  23.275  1.00  0.00     0.007 A 
HETATM   19  C9  UNL     1       9.706 -16.013  23.324  1.00  0.00     0.001 A 
HETATM   20  C10 UNL     1       8.332 -15.984  23.276  1.00  0.00     0.000 A 
HETATM   21  C11 UNL     1       7.632 -14.810  23.180  1.00  0.00     0.001 A 
HETATM   22  C12 UNL     1       8.339 -13.645  23.134  1.00  0.00     0.007 A 
ENDBRANCH  16  17
ENDBRANCH  15  16
ENDBRANCH   9  15
TORSDOF 3
ENDMDL
