MODEL 2
REMARK VINA RESULT: -8.537660269      0.049      1.097
REMARK  3 active torsions:
REMARK  status: ('A' for Active; 'I' for Inactive)
REMARK    1  A    between atoms: C4_9  and  C5_10 
REMARK    2  A    between atoms: C5_10  and  C6_11 
REMARK    3  A    between atoms: C6_11  and  C7_12 
ROOT
HETATM    1  N1  UNL     1       6.216 -10.787  29.125  1.00  0.00    -0.063 NA
HETATM    2  C1  UNL     1       6.920 -10.964  27.909  1.00  0.00     0.196 A 
HETATM    3  N2  UNL     1       7.524  -9.950  27.266  1.00  0.00    -0.316 N 
ATOM      4  H2  UNL     1       7.486  -9.006  27.648  1.00  0.00     0.170 HD
HETATM    5  C2  UNL     1       8.180 -10.191  26.114  1.00  0.00     0.123 A 
HETATM    6  N3  UNL     1       8.875  -9.389  25.266  1.00  0.00    -0.351 N 
ATOM      7  H3  UNL     1       9.014  -8.385  25.383  1.00  0.00     0.166 HD
HETATM    8  C3  UNL     1       9.350 -10.126  24.248  1.00  0.00     0.098 A 
HETATM    9  C4  UNL     1       8.971 -11.446  24.411  1.00  0.00    -0.023 A 
HETATM   10  C13 UNL     1       8.246 -11.462  25.576  1.00  0.00     0.084 A 
HETATM   11  C14 UNL     1       7.625 -12.479  26.244  1.00  0.00     0.262 A 
HETATM   12  O1  UNL     1       7.686 -13.643  25.756  1.00  0.00    -0.267 OA
HETATM   13  N4  UNL     1       6.978 -12.219  27.391  1.00  0.00    -0.297 N 
ATOM     14  H4  UNL     1       6.517 -12.983  27.886  1.00  0.00     0.171 HD
ENDROOT
BRANCH   9  15
HETATM   15  C5  UNL     1       9.275 -12.573  23.502  1.00  0.00     0.045 C 
BRANCH  15  16
HETATM   16  C6  UNL     1      10.474 -12.240  22.619  1.00  0.00     0.043 C 
BRANCH  16  17
HETATM   17  C7  UNL     1      11.450 -13.355  22.600  1.00  0.00    -0.058 A 
HETATM   18  C8  UNL     1      11.092 -14.614  23.037  1.00  0.00     0.007 A 
HETATM   19  C9  UNL     1      12.008 -15.666  23.021  1.00  0.00     0.001 A 
HETATM   20  C10 UNL     1      13.280 -15.426  22.559  1.00  0.00     0.000 A 
HETATM   21  C11 UNL     1      13.673 -14.189  22.117  1.00  0.00     0.001 A 
HETATM   22  C12 UNL     1      12.758 -13.179  22.144  1.00  0.00     0.007 A 
ENDBRANCH  16  17
ENDBRANCH  15  16
ENDBRANCH   9  15
TORSDOF 3
ENDMDL
