MODEL 3
REMARK VINA RESULT: -7.409623332      0.788      1.182
REMARK  10 active torsions:
REMARK  status: ('A' for Active; 'I' for Inactive)
REMARK    1  A    between atoms: N4_10  and  C5_11 
REMARK    2  A    between atoms: C6_13  and  C7_14 
REMARK    3  A    between atoms: C7_14  and  O2_15 
REMARK    4  A    between atoms: O2_15  and  P1_16 
REMARK    5  A    between atoms: P1_16  and  O5_19 
REMARK    6  A    between atoms: O5_19  and  P2_20 
REMARK    7  A    between atoms: P2_20  and  O8_23 
REMARK    8  A    between atoms: O8_23  and  P3_24 
REMARK    9  A    between atoms: C8_28  and  O12_29 
REMARK   10  A    between atoms: C9_31  and  O13_32 
ROOT
HETATM    1  C5  UNL     1       2.116 -27.247  95.440  1.00  0.00     0.262 C 
HETATM    2  O1  UNL     1       1.454 -27.504  96.638  1.00  0.00    -0.353 OA
HETATM    3  C6  UNL     1       2.148 -26.821  97.626  1.00  0.00     0.180 C 
HETATM    4  C8  UNL     1       2.391 -25.487  96.953  1.00  0.00     0.182 C 
HETATM    5  C9  UNL     1       2.853 -25.982  95.578  1.00  0.00     0.198 C 
ENDROOT
BRANCH   1   6
HETATM    6  N4  UNL     1       1.190 -27.342  94.369  1.00  0.00    -0.297 N 
HETATM    7  C2  UNL     1      -0.083 -26.924  94.268  1.00  0.00     0.146 A 
HETATM    8  N2  UNL     1      -0.843 -26.294  95.154  1.00  0.00    -0.314 N 
HETATM    9  C3  UNL     1      -0.564 -27.241  93.039  1.00  0.00     0.146 A 
HETATM   10  C1  UNL     1      -2.113 -25.949  94.870  1.00  0.00     0.196 A 
ATOM     11  H2  UNL     1      -0.457 -26.066  96.070  1.00  0.00     0.170 HD
HETATM   12  N1  UNL     1      -2.959 -25.275  95.795  1.00  0.00    -0.063 NA
HETATM   13  N5  UNL     1      -2.624 -26.248  93.660  1.00  0.00    -0.295 N 
HETATM   14  C10 UNL     1      -1.883 -26.886  92.736  1.00  0.00     0.278 A 
ATOM     15  H5  UNL     1      -3.586 -25.989  93.442  1.00  0.00     0.171 HD
HETATM   16  O14 UNL     1      -2.320 -27.182  91.600  1.00  0.00    -0.265 OA
HETATM   17  N3  UNL     1       0.414 -27.858  92.376  1.00  0.00    -0.345 N 
HETATM   18  C4  UNL     1       1.465 -27.915  93.182  1.00  0.00     0.188 A 
ATOM     19  H3  UNL     1       0.363 -28.220  91.424  1.00  0.00     0.167 HD
ENDBRANCH   1   6
BRANCH   5  20
HETATM   20  O13 UNL     1       4.245 -26.194  95.723  1.00  0.00    -0.388 OA
ATOM     21  H13 UNL     1       4.745 -25.413  95.517  1.00  0.00     0.210 HD
ENDBRANCH   5  20
BRANCH   3  22
HETATM   22  C7  UNL     1       1.285 -26.691  98.857  1.00  0.00     0.216 C 
BRANCH  22  23
HETATM   23  O2  UNL     1       0.767 -25.388  98.845  1.00  0.00    -0.287 OA
BRANCH  23  24
HETATM   24  P1  UNL     1      -0.583 -25.221  99.810  1.00  0.00     0.417 P 
HETATM   25  O3  UNL     1      -0.887 -23.746  99.980  1.00  0.00    -0.624 OA
HETATM   26  O4  UNL     1      -0.401 -25.943 101.324  1.00  0.00    -0.624 OA
BRANCH  24  27
HETATM   27  O5  UNL     1      -1.906 -25.886  98.970  1.00  0.00    -0.180 OA
BRANCH  27  28
HETATM   28  P2  UNL     1      -3.354 -25.467  99.754  1.00  0.00     0.428 P 
HETATM   29  O6  UNL     1      -3.134 -25.277 101.227  1.00  0.00    -0.624 OA
HETATM   30  O7  UNL     1      -4.535 -26.644  99.435  1.00  0.00    -0.624 OA
BRANCH  28  31
HETATM   31  O8  UNL     1      -3.908 -24.026  99.024  1.00  0.00    -0.173 OA
BRANCH  31  32
HETATM   32  P3  UNL     1      -4.899 -23.177 100.121  1.00  0.00     0.431 P 
HETATM   33  O9  UNL     1      -5.822 -22.221  99.400  1.00  0.00    -0.616 OA
HETATM   34  O10 UNL     1      -3.975 -22.313 101.229  1.00  0.00    -0.616 OA
HETATM   35  O11 UNL     1      -5.870 -24.299 100.947  1.00  0.00    -0.616 OA
ENDBRANCH  31  32
ENDBRANCH  28  31
ENDBRANCH  27  28
ENDBRANCH  24  27
ENDBRANCH  23  24
ENDBRANCH  22  23
ENDBRANCH   3  22
BRANCH   4  36
HETATM   36  O12 UNL     1       3.374 -24.752  97.583  1.00  0.00    -0.390 OA
ATOM     37  H12 UNL     1       4.243 -25.099  97.423  1.00  0.00     0.210 HD
ENDBRANCH   4  36
TORSDOF 10
ENDMDL
