MODEL 1
REMARK VINA RESULT: -7.636832614      0.000      0.000
REMARK  10 active torsions:
REMARK  status: ('A' for Active; 'I' for Inactive)
REMARK    1  A    between atoms: N4_10  and  C5_11 
REMARK    2  A    between atoms: C6_13  and  C7_14 
REMARK    3  A    between atoms: C7_14  and  O2_15 
REMARK    4  A    between atoms: O2_15  and  P1_16 
REMARK    5  A    between atoms: P1_16  and  O5_19 
REMARK    6  A    between atoms: O5_19  and  P2_20 
REMARK    7  A    between atoms: P2_20  and  O8_23 
REMARK    8  A    between atoms: O8_23  and  P3_24 
REMARK    9  A    between atoms: C8_28  and  O12_29 
REMARK   10  A    between atoms: C9_31  and  O13_32 
ROOT
HETATM    1  C5  UNL     1       2.143 -27.223  95.630  1.00  0.00     0.262 C 
HETATM    2  O1  UNL     1       1.471 -27.503  96.818  1.00  0.00    -0.353 OA
HETATM    3  C6  UNL     1       2.087 -26.750  97.806  1.00  0.00     0.180 C 
HETATM    4  C8  UNL     1       2.246 -25.415  97.108  1.00  0.00     0.182 C 
HETATM    5  C9  UNL     1       2.779 -25.904  95.756  1.00  0.00     0.198 C 
ENDROOT
BRANCH   1   6
HETATM    6  N4  UNL     1       1.255 -27.411  94.540  1.00  0.00    -0.297 N 
HETATM    7  C2  UNL     1      -0.006 -26.987  94.351  1.00  0.00     0.146 A 
HETATM    8  N2  UNL     1      -0.787 -26.263  95.142  1.00  0.00    -0.314 N 
HETATM    9  C3  UNL     1      -0.449 -27.417  93.142  1.00  0.00     0.146 A 
HETATM   10  C1  UNL     1      -2.040 -25.930  94.779  1.00  0.00     0.196 A 
ATOM     11  H2  UNL     1      -0.430 -25.951  96.045  1.00  0.00     0.170 HD
HETATM   12  N1  UNL     1      -2.906 -25.156  95.601  1.00  0.00    -0.063 NA
HETATM   13  N5  UNL     1      -2.512 -26.340  93.586  1.00  0.00    -0.295 N 
HETATM   14  C10 UNL     1      -1.750 -27.076  92.757  1.00  0.00     0.278 A 
ATOM     15  H5  UNL     1      -3.462 -26.090  93.308  1.00  0.00     0.171 HD
HETATM   16  O14 UNL     1      -2.151 -27.476  91.640  1.00  0.00    -0.265 OA
HETATM   17  N3  UNL     1       0.541 -28.110  92.581  1.00  0.00    -0.345 N 
HETATM   18  C4  UNL     1       1.561 -28.102  93.427  1.00  0.00     0.188 A 
ATOM     19  H3  UNL     1       0.518 -28.564  91.668  1.00  0.00     0.167 HD
ENDBRANCH   1   6
BRANCH   5  20
HETATM   20  O13 UNL     1       4.179 -26.006  95.939  1.00  0.00    -0.388 OA
ATOM     21  H13 UNL     1       4.534 -25.249  96.390  1.00  0.00     0.210 HD
ENDBRANCH   5  20
BRANCH   3  22
HETATM   22  C7  UNL     1       1.186 -26.658  99.014  1.00  0.00     0.216 C 
BRANCH  22  23
HETATM   23  O2  UNL     1      -0.088 -27.069  98.592  1.00  0.00    -0.287 OA
BRANCH  23  24
HETATM   24  P1  UNL     1      -1.275 -25.954  98.949  1.00  0.00     0.417 P 
HETATM   25  O3  UNL     1      -1.021 -24.691  98.152  1.00  0.00    -0.624 OA
HETATM   26  O4  UNL     1      -1.355 -25.584 100.593  1.00  0.00    -0.624 OA
BRANCH  24  27
HETATM   27  O5  UNL     1      -2.758 -26.579  98.391  1.00  0.00    -0.180 OA
BRANCH  27  28
HETATM   28  P2  UNL     1      -4.045 -25.736  99.111  1.00  0.00     0.428 P 
HETATM   29  O6  UNL     1      -4.546 -26.455 100.330  1.00  0.00    -0.624 OA
HETATM   30  O7  UNL     1      -5.275 -25.491  97.967  1.00  0.00    -0.624 OA
BRANCH  28  31
HETATM   31  O8  UNL     1      -3.452 -24.185  99.513  1.00  0.00    -0.173 OA
BRANCH  31  32
HETATM   32  P3  UNL     1      -4.715 -23.244 100.164  1.00  0.00     0.431 P 
HETATM   33  O9  UNL     1      -5.725 -24.106 100.887  1.00  0.00    -0.616 OA
HETATM   34  O10 UNL     1      -5.503 -22.371  98.962  1.00  0.00    -0.616 OA
HETATM   35  O11 UNL     1      -4.054 -22.171 101.301  1.00  0.00    -0.616 OA
ENDBRANCH  31  32
ENDBRANCH  28  31
ENDBRANCH  27  28
ENDBRANCH  24  27
ENDBRANCH  23  24
ENDBRANCH  22  23
ENDBRANCH   3  22
BRANCH   4  36
HETATM   36  O12 UNL     1       3.155 -24.595  97.744  1.00  0.00    -0.390 OA
ATOM     37  H12 UNL     1       3.191 -23.727  97.359  1.00  0.00     0.210 HD
ENDBRANCH   4  36
TORSDOF 10
ENDMDL
