MODEL 2
REMARK VINA RESULT: -7.411198216      2.751      4.254
REMARK  10 active torsions:
REMARK  status: ('A' for Active; 'I' for Inactive)
REMARK    1  A    between atoms: N4_10  and  C5_11 
REMARK    2  A    between atoms: C6_13  and  C7_14 
REMARK    3  A    between atoms: C7_14  and  O2_15 
REMARK    4  A    between atoms: O2_15  and  P1_16 
REMARK    5  A    between atoms: P1_16  and  O5_19 
REMARK    6  A    between atoms: O5_19  and  P2_20 
REMARK    7  A    between atoms: P2_20  and  O8_23 
REMARK    8  A    between atoms: O8_23  and  P3_24 
REMARK    9  A    between atoms: C8_28  and  O12_29 
REMARK   10  A    between atoms: C9_31  and  O13_32 
ROOT
HETATM    1  C5  UNL     1      -0.382 -25.644  93.335  1.00  0.00     0.262 C 
HETATM    2  O1  UNL     1      -0.002 -24.801  94.377  1.00  0.00    -0.353 OA
HETATM    3  C6  UNL     1      -1.058 -24.785  95.275  1.00  0.00     0.180 C 
HETATM    4  C8  UNL     1      -1.420 -26.254  95.338  1.00  0.00     0.182 C 
HETATM    5  C9  UNL     1      -1.396 -26.580  93.841  1.00  0.00     0.198 C 
ENDROOT
BRANCH   1   6
HETATM    6  N4  UNL     1       0.781 -26.206  92.747  1.00  0.00    -0.297 N 
HETATM    7  C2  UNL     1       1.697 -25.670  91.924  1.00  0.00     0.146 A 
HETATM    8  N2  UNL     1       1.774 -24.445  91.421  1.00  0.00    -0.314 N 
HETATM    9  C3  UNL     1       2.636 -26.604  91.626  1.00  0.00     0.146 A 
HETATM   10  C1  UNL     1       2.779 -24.083  90.602  1.00  0.00     0.196 A 
ATOM     11  H2  UNL     1       1.056 -23.761  91.661  1.00  0.00     0.170 HD
HETATM   12  N1  UNL     1       2.894 -22.779  90.043  1.00  0.00    -0.063 NA
HETATM   13  N5  UNL     1       3.729 -24.984  90.285  1.00  0.00    -0.295 N 
HETATM   14  C10 UNL     1       3.684 -26.237  90.775  1.00  0.00     0.278 A 
ATOM     15  H5  UNL     1       4.492 -24.714  89.664  1.00  0.00     0.171 HD
HETATM   16  O14 UNL     1       4.547 -27.103  90.505  1.00  0.00    -0.265 OA
HETATM   17  N3  UNL     1       2.301 -27.723  92.268  1.00  0.00    -0.345 N 
HETATM   18  C4  UNL     1       1.185 -27.476  92.939  1.00  0.00     0.188 A 
ATOM     19  H3  UNL     1       2.809 -28.607  92.246  1.00  0.00     0.167 HD
ENDBRANCH   1   6
BRANCH   5  20
HETATM   20  O13 UNL     1      -2.695 -26.252  93.382  1.00  0.00    -0.388 OA
ATOM     21  H13 UNL     1      -2.782 -26.377  92.445  1.00  0.00     0.210 HD
ENDBRANCH   5  20
BRANCH   3  22
HETATM   22  C7  UNL     1      -0.586 -24.256  96.608  1.00  0.00     0.216 C 
BRANCH  22  23
HETATM   23  O2  UNL     1      -0.678 -25.322  97.515  1.00  0.00    -0.287 OA
BRANCH  23  24
HETATM   24  P1  UNL     1      -1.008 -24.818  99.070  1.00  0.00     0.417 P 
HETATM   25  O3  UNL     1      -0.178 -23.588  99.376  1.00  0.00    -0.624 OA
HETATM   26  O4  UNL     1      -0.703 -26.011 100.225  1.00  0.00    -0.624 OA
BRANCH  24  27
HETATM   27  O5  UNL     1      -2.636 -24.321  99.121  1.00  0.00    -0.180 OA
BRANCH  27  28
HETATM   28  P2  UNL     1      -3.653 -25.681  99.106  1.00  0.00     0.428 P 
HETATM   29  O6  UNL     1      -4.270 -25.908 100.457  1.00  0.00    -0.624 OA
HETATM   30  O7  UNL     1      -2.782 -27.036  98.570  1.00  0.00    -0.624 OA
BRANCH  28  31
HETATM   31  O8  UNL     1      -4.850 -25.386  97.925  1.00  0.00    -0.173 OA
BRANCH  31  32
HETATM   32  P3  UNL     1      -5.552 -23.857  98.196  1.00  0.00     0.431 P 
HETATM   33  O9  UNL     1      -4.700 -22.751  97.616  1.00  0.00    -0.616 OA
HETATM   34  O10 UNL     1      -5.771 -23.573  99.838  1.00  0.00    -0.616 OA
HETATM   35  O11 UNL     1      -7.056 -23.809  97.408  1.00  0.00    -0.616 OA
ENDBRANCH  31  32
ENDBRANCH  28  31
ENDBRANCH  27  28
ENDBRANCH  24  27
ENDBRANCH  23  24
ENDBRANCH  22  23
ENDBRANCH   3  22
BRANCH   4  36
HETATM   36  O12 UNL     1      -2.670 -26.465  95.883  1.00  0.00    -0.390 OA
ATOM     37  H12 UNL     1      -2.687 -27.208  96.474  1.00  0.00     0.210 HD
ENDBRANCH   4  36
TORSDOF 10
ENDMDL
