MODEL 10
REMARK VINA RESULT: -6.977822826      2.001      6.355
REMARK  6 active torsions:
REMARK  status: ('A' for Active; 'I' for Inactive)
REMARK    1  A    between atoms: C4_4  and  O1_5 
REMARK    2  A    between atoms: C9_11  and  O2_12 
REMARK    3  A    between atoms: C9_11  and  C10_14 
REMARK    4  A    between atoms: C11_15  and  C12_16 
REMARK    5  A    between atoms: C12_16  and  C14_18 
REMARK    6  A    between atoms: C14_18  and  C15_19 
ROOT
HETATM    1  C1  UNL     1      30.724 -19.481  20.264  1.00  0.00     0.047 C 
HETATM    2  C2  UNL     1      30.537 -18.060  20.640  1.00  0.00    -0.042 A 
HETATM    3  C3  UNL     1      30.663 -17.723  21.897  1.00  0.00     0.042 A 
HETATM    4  C4  UNL     1      30.482 -16.310  22.308  1.00  0.00     0.063 A 
HETATM    5  C5  UNL     1      30.199 -15.420  21.405  1.00  0.00     0.022 A 
HETATM    6  C6  UNL     1      30.040 -15.695  20.004  1.00  0.00     0.011 A 
HETATM    7  C7  UNL     1      28.615 -15.256  19.604  1.00  0.00     0.023 C 
HETATM    8  C8  UNL     1      30.937 -14.790  19.136  1.00  0.00     0.023 C 
HETATM    9  C9  UNL     1      30.224 -17.093  19.587  1.00  0.00     0.109 A 
ENDROOT
BRANCH   9  10
HETATM   10  O2  UNL     1      29.061 -17.497  18.886  1.00  0.00    -0.380 OA
ATOM     11  H2  UNL     1      28.883 -16.894  18.173  1.00  0.00     0.211 HD
ENDBRANCH   9  10
BRANCH   9  12
HETATM   12  C10 UNL     1      31.405 -17.226  18.624  1.00  0.00     0.013 C 
HETATM   13  C11 UNL     1      31.334 -17.856  17.483  1.00  0.00    -0.023 C 
BRANCH  13  14
HETATM   14  C12 UNL     1      32.453 -18.008  16.521  1.00  0.00     0.014 C 
HETATM   15  C13 UNL     1      33.217 -16.702  16.524  1.00  0.00     0.015 C 
BRANCH  14  16
HETATM   16  C14 UNL     1      33.387 -19.117  16.878  1.00  0.00     0.121 C 
BRANCH  16  17
HETATM   17  C15 UNL     1      34.399 -19.259  15.801  1.00  0.00     0.173 C 
HETATM   18  O3  UNL     1      34.030 -19.699  14.679  1.00  0.00    -0.648 OA
HETATM   19  O4  UNL     1      35.738 -18.940  15.940  1.00  0.00    -0.648 OA
ENDBRANCH  16  17
ENDBRANCH  14  16
ENDBRANCH  13  14
ENDBRANCH   9  12
BRANCH   4  20
HETATM   20  O1  UNL     1      30.621 -15.960  23.664  1.00  0.00    -0.361 OA
ATOM     21  H1  UNL     1      30.912 -15.085  23.893  1.00  0.00     0.217 HD
ENDBRANCH   4  20
TORSDOF 6
ENDMDL
