MODEL 2
REMARK VINA RESULT: -7.393668242      1.663      2.148
REMARK  6 active torsions:
REMARK  status: ('A' for Active; 'I' for Inactive)
REMARK    1  A    between atoms: C4_4  and  O1_5 
REMARK    2  A    between atoms: C9_11  and  O2_12 
REMARK    3  A    between atoms: C9_11  and  C10_14 
REMARK    4  A    between atoms: C11_15  and  C12_16 
REMARK    5  A    between atoms: C12_16  and  C14_18 
REMARK    6  A    between atoms: C14_18  and  C15_19 
ROOT
HETATM    1  C1  UNL     1      31.815 -15.315  18.010  1.00  0.00     0.047 C 
HETATM    2  C2  UNL     1      31.996 -16.742  17.657  1.00  0.00    -0.042 A 
HETATM    3  C3  UNL     1      32.933 -17.063  16.803  1.00  0.00     0.042 A 
HETATM    4  C4  UNL     1      33.140 -18.482  16.427  1.00  0.00     0.063 A 
HETATM    5  C5  UNL     1      32.381 -19.393  16.954  1.00  0.00     0.022 A 
HETATM    6  C6  UNL     1      31.327 -19.138  17.897  1.00  0.00     0.011 A 
HETATM    7  C7  UNL     1      30.015 -19.670  17.280  1.00  0.00     0.023 C 
HETATM    8  C8  UNL     1      31.479 -19.990  19.173  1.00  0.00     0.023 C 
HETATM    9  C9  UNL     1      31.119 -17.734  18.281  1.00  0.00     0.109 A 
ENDROOT
BRANCH   9  10
HETATM   10  O2  UNL     1      29.763 -17.410  18.033  1.00  0.00    -0.380 OA
ATOM     11  H2  UNL     1      29.349 -18.099  17.526  1.00  0.00     0.211 HD
ENDBRANCH   9  10
BRANCH   9  12
HETATM   12  C10 UNL     1      31.368 -17.533  19.776  1.00  0.00     0.013 C 
HETATM   13  C11 UNL     1      30.463 -17.080  20.601  1.00  0.00    -0.023 C 
BRANCH  13  14
HETATM   14  C12 UNL     1      30.663 -16.870  22.056  1.00  0.00     0.014 C 
HETATM   15  C13 UNL     1      31.182 -18.174  22.622  1.00  0.00     0.015 C 
BRANCH  14  16
HETATM   16  C14 UNL     1      31.641 -15.785  22.364  1.00  0.00     0.121 C 
BRANCH  16  17
HETATM   17  C15 UNL     1      31.017 -14.830  23.313  1.00  0.00     0.173 C 
HETATM   18  O3  UNL     1      30.779 -13.656  22.921  1.00  0.00    -0.648 OA
HETATM   19  O4  UNL     1      30.672 -15.137  24.617  1.00  0.00    -0.648 OA
ENDBRANCH  16  17
ENDBRANCH  14  16
ENDBRANCH  13  14
ENDBRANCH   9  12
BRANCH   4  20
HETATM   20  O1  UNL     1      34.153 -18.813  15.508  1.00  0.00    -0.361 OA
ATOM     21  H1  UNL     1      35.044 -18.932  15.817  1.00  0.00     0.217 HD
ENDBRANCH   4  20
TORSDOF 6
ENDMDL
