MODEL 5
REMARK VINA RESULT: -7.164931974      1.585      5.683
REMARK  6 active torsions:
REMARK  status: ('A' for Active; 'I' for Inactive)
REMARK    1  A    between atoms: C4_4  and  O1_5 
REMARK    2  A    between atoms: C9_11  and  O2_12 
REMARK    3  A    between atoms: C9_11  and  C10_14 
REMARK    4  A    between atoms: C11_15  and  C12_16 
REMARK    5  A    between atoms: C12_16  and  C14_18 
REMARK    6  A    between atoms: C14_18  and  C15_19 
ROOT
HETATM    1  C1  UNL     1      31.066 -18.565  22.581  1.00  0.00     0.047 C 
HETATM    2  C2  UNL     1      30.838 -17.202  22.047  1.00  0.00    -0.042 A 
HETATM    3  C3  UNL     1      30.940 -16.185  22.863  1.00  0.00     0.042 A 
HETATM    4  C4  UNL     1      30.719 -14.807  22.363  1.00  0.00     0.063 A 
HETATM    5  C5  UNL     1      30.424 -14.629  21.111  1.00  0.00     0.022 A 
HETATM    6  C6  UNL     1      30.289 -15.681  20.142  1.00  0.00     0.011 A 
HETATM    7  C7  UNL     1      28.858 -15.602  19.568  1.00  0.00     0.023 C 
HETATM    8  C8  UNL     1      31.172 -15.437  18.902  1.00  0.00     0.023 C 
HETATM    9  C9  UNL     1      30.513 -17.050  20.629  1.00  0.00     0.109 A 
ENDROOT
BRANCH   9  10
HETATM   10  O2  UNL     1      29.370 -17.822  20.306  1.00  0.00    -0.380 OA
ATOM     11  H2  UNL     1      28.970 -17.496  19.509  1.00  0.00     0.211 HD
ENDBRANCH   9  10
BRANCH   9  12
HETATM   12  C10 UNL     1      31.708 -17.692  19.923  1.00  0.00     0.013 C 
HETATM   13  C11 UNL     1      31.593 -18.644  19.036  1.00  0.00    -0.023 C 
BRANCH  13  14
HETATM   14  C12 UNL     1      32.724 -19.294  18.329  1.00  0.00     0.014 C 
HETATM   15  C13 UNL     1      32.629 -20.777  18.615  1.00  0.00     0.015 C 
BRANCH  14  16
HETATM   16  C14 UNL     1      32.691 -19.082  16.852  1.00  0.00     0.121 C 
BRANCH  16  17
HETATM   17  C15 UNL     1      33.052 -17.672  16.560  1.00  0.00     0.173 C 
HETATM   18  O3  UNL     1      34.191 -17.255  16.904  1.00  0.00    -0.648 OA
HETATM   19  O4  UNL     1      32.218 -16.766  15.930  1.00  0.00    -0.648 OA
ENDBRANCH  16  17
ENDBRANCH  14  16
ENDBRANCH  13  14
ENDBRANCH   9  12
BRANCH   4  20
HETATM   20  O1  UNL     1      30.832 -13.721  23.251  1.00  0.00    -0.361 OA
ATOM     21  H1  UNL     1      30.775 -12.835  22.914  1.00  0.00     0.217 HD
ENDBRANCH   4  20
TORSDOF 6
ENDMDL
