MODEL 8
REMARK VINA RESULT: -7.090672885      1.352      5.732
REMARK  6 active torsions:
REMARK  status: ('A' for Active; 'I' for Inactive)
REMARK    1  A    between atoms: C4_4  and  O1_5 
REMARK    2  A    between atoms: C9_11  and  O2_12 
REMARK    3  A    between atoms: C9_11  and  C10_14 
REMARK    4  A    between atoms: C11_15  and  C12_16 
REMARK    5  A    between atoms: C12_16  and  C14_18 
REMARK    6  A    between atoms: C14_18  and  C15_19 
ROOT
HETATM    1  C1  UNL     1      33.776 -17.823  23.035  1.00  0.00     0.047 C 
HETATM    2  C2  UNL     1      32.702 -16.847  22.738  1.00  0.00    -0.042 A 
HETATM    3  C3  UNL     1      32.708 -15.699  23.364  1.00  0.00     0.042 A 
HETATM    4  C4  UNL     1      31.647 -14.700  23.091  1.00  0.00     0.063 A 
HETATM    5  C5  UNL     1      30.720 -14.982  22.227  1.00  0.00     0.022 A 
HETATM    6  C6  UNL     1      30.630 -16.214  21.493  1.00  0.00     0.011 A 
HETATM    7  C7  UNL     1      29.266 -16.854  21.828  1.00  0.00     0.023 C 
HETATM    8  C8  UNL     1      30.533 -15.971  19.973  1.00  0.00     0.023 C 
HETATM    9  C9  UNL     1      31.682 -17.208  21.753  1.00  0.00     0.109 A 
ENDROOT
BRANCH   9  10
HETATM   10  O2  UNL     1      31.053 -18.421  22.125  1.00  0.00    -0.380 OA
ATOM     11  H2  UNL     1      30.841 -18.409  23.051  1.00  0.00     0.211 HD
ENDBRANCH   9  10
BRANCH   9  12
HETATM   12  C10 UNL     1      32.495 -17.486  20.488  1.00  0.00     0.013 C 
HETATM   13  C11 UNL     1      32.350 -18.563  19.763  1.00  0.00    -0.023 C 
BRANCH  13  14
HETATM   14  C12 UNL     1      33.118 -18.872  18.531  1.00  0.00     0.014 C 
HETATM   15  C13 UNL     1      33.365 -20.365  18.530  1.00  0.00     0.015 C 
BRANCH  14  16
HETATM   16  C14 UNL     1      32.394 -18.500  17.280  1.00  0.00     0.121 C 
BRANCH  16  17
HETATM   17  C15 UNL     1      32.778 -17.118  16.896  1.00  0.00     0.173 C 
HETATM   18  O3  UNL     1      32.028 -16.477  16.111  1.00  0.00    -0.648 OA
HETATM   19  O4  UNL     1      33.916 -16.471  17.342  1.00  0.00    -0.648 OA
ENDBRANCH  16  17
ENDBRANCH  14  16
ENDBRANCH  13  14
ENDBRANCH   9  12
BRANCH   4  20
HETATM   20  O1  UNL     1      31.666 -13.468  23.771  1.00  0.00    -0.361 OA
ATOM     21  H1  UNL     1      31.154 -12.741  23.435  1.00  0.00     0.217 HD
ENDBRANCH   4  20
TORSDOF 6
ENDMDL
