MODEL 16
REMARK VINA RESULT: -6.878049672      1.898      3.311
REMARK  6 active torsions:
REMARK  status: ('A' for Active; 'I' for Inactive)
REMARK    1  A    between atoms: C4_4  and  O1_5 
REMARK    2  A    between atoms: C9_11  and  O2_12 
REMARK    3  A    between atoms: C9_11  and  C10_14 
REMARK    4  A    between atoms: C11_15  and  C12_16 
REMARK    5  A    between atoms: C12_16  and  C14_18 
REMARK    6  A    between atoms: C14_18  and  C15_19 
ROOT
HETATM    1  C1  UNL     1      33.867 -17.301  18.051  1.00  0.00     0.047 C 
HETATM    2  C2  UNL     1      33.085 -18.553  18.173  1.00  0.00    -0.042 A 
HETATM    3  C3  UNL     1      33.727 -19.691  18.210  1.00  0.00     0.042 A 
HETATM    4  C4  UNL     1      32.975 -20.964  18.331  1.00  0.00     0.063 A 
HETATM    5  C5  UNL     1      31.679 -20.928  18.398  1.00  0.00     0.022 A 
HETATM    6  C6  UNL     1      30.888 -19.729  18.365  1.00  0.00     0.011 A 
HETATM    7  C7  UNL     1      29.931 -19.840  17.158  1.00  0.00     0.023 C 
HETATM    8  C8  UNL     1      29.924 -19.643  19.564  1.00  0.00     0.023 C 
HETATM    9  C9  UNL     1      31.627 -18.463  18.251  1.00  0.00     0.109 A 
ENDROOT
BRANCH   9  10
HETATM   10  O2  UNL     1      31.121 -17.761  17.129  1.00  0.00    -0.380 OA
ATOM     11  H2  UNL     1      30.524 -17.079  17.412  1.00  0.00     0.211 HD
ENDBRANCH   9  10
BRANCH   9  12
HETATM   12  C10 UNL     1      31.393 -17.582  19.480  1.00  0.00     0.013 C 
HETATM   13  C11 UNL     1      30.754 -16.444  19.437  1.00  0.00    -0.023 C 
BRANCH  13  14
HETATM   14  C12 UNL     1      30.507 -15.560  20.603  1.00  0.00     0.014 C 
HETATM   15  C13 UNL     1      29.067 -15.772  21.019  1.00  0.00     0.015 C 
BRANCH  14  16
HETATM   16  C14 UNL     1      31.396 -15.859  21.765  1.00  0.00     0.121 C 
BRANCH  16  17
HETATM   17  C15 UNL     1      31.006 -14.991  22.904  1.00  0.00     0.173 C 
HETATM   18  O3  UNL     1      30.778 -15.526  24.023  1.00  0.00    -0.648 OA
HETATM   19  O4  UNL     1      30.872 -13.616  22.829  1.00  0.00    -0.648 OA
ENDBRANCH  16  17
ENDBRANCH  14  16
ENDBRANCH  13  14
ENDBRANCH   9  12
BRANCH   4  20
HETATM   20  O1  UNL     1      33.679 -22.182  18.370  1.00  0.00    -0.361 OA
ATOM     21  H1  UNL     1      34.029 -22.544  17.564  1.00  0.00     0.217 HD
ENDBRANCH   4  20
TORSDOF 6
ENDMDL
