MODEL 3
REMARK VINA RESULT: -8.254961184      1.651      2.178
REMARK  6 active torsions:
REMARK  status: ('A' for Active; 'I' for Inactive)
REMARK    1  A    between atoms: O1_2  and  C2_3 
REMARK    2  A    between atoms: C7_8  and  C8_9 
REMARK    3  A    between atoms: C17_20  and  O4_21 
REMARK    4  A    between atoms: C23_29  and  O6_30 
REMARK    5  A    between atoms: C27_34  and  O7_35 
REMARK    6  A    between atoms: C28_37  and  O8_38 
ROOT
HETATM    1  C2  UNL     1     -42.255  26.663 -19.546  1.00  0.00     0.153 C 
HETATM    2  C3  UNL     1     -42.791  26.626 -18.133  1.00  0.00     0.035 C 
HETATM    3  C4  UNL     1     -41.772  25.928 -17.251  1.00  0.00     0.003 C 
HETATM    4  C5  UNL     1     -42.303  25.879 -15.836  1.00  0.00     0.003 C 
HETATM    5  C6  UNL     1     -42.211  24.491 -15.309  1.00  0.00     0.037 C 
HETATM    6  C7  UNL     1     -43.547  24.045 -14.668  1.00  0.00     0.165 C 
HETATM    7  O2  UNL     1     -44.477  24.239 -15.622  1.00  0.00    -0.311 OA
HETATM    8  C14 UNL     1     -45.186  23.721 -16.600  1.00  0.00     0.268 C 
HETATM    9  O3  UNL     1     -44.835  23.132 -17.674  1.00  0.00    -0.265 OA
HETATM   10  C15 UNL     1     -46.702  23.793 -16.519  1.00  0.00     0.146 C 
HETATM   11  C16 UNL     1     -47.109  24.960 -15.645  1.00  0.00     0.026 C 
HETATM   12  C17 UNL     1     -47.299  24.013 -17.881  1.00  0.00     0.203 C 
HETATM   13  O5  UNL     1     -46.441  24.680 -18.745  1.00  0.00    -0.346 OA
HETATM   14  C18 UNL     1     -47.159  25.232 -19.803  1.00  0.00     0.138 C 
HETATM   15  C19 UNL     1     -46.182  26.058 -20.593  1.00  0.00     0.033 C 
HETATM   16  C20 UNL     1     -46.773  26.644 -21.845  1.00  0.00     0.017 C 
HETATM   17  C21 UNL     1     -45.736  27.184 -19.724  1.00  0.00    -0.021 C 
HETATM   18  C22 UNL     1     -44.499  27.656 -19.680  1.00  0.00     0.004 C 
HETATM   19  C23 UNL     1     -43.351  27.174 -20.457  1.00  0.00     0.172 C 
HETATM   20  C25 UNL     1     -47.863  24.189 -20.626  1.00  0.00     0.043 C 
HETATM   21  C26 UNL     1     -46.968  23.459 -21.581  1.00  0.00     0.015 C 
HETATM   22  C27 UNL     1     -48.604  23.226 -19.758  1.00  0.00     0.158 C 
HETATM   23  C28 UNL     1     -47.760  22.761 -18.560  1.00  0.00     0.212 C 
ENDROOT
BRANCH   6  24
HETATM   24  C8  UNL     1     -43.750  24.708 -13.374  1.00  0.00    -0.029 A 
HETATM   25  C9  UNL     1     -44.972  25.191 -12.992  1.00  0.00     0.010 A 
HETATM   26  C10 UNL     1     -45.124  25.822 -11.750  1.00  0.00     0.001 A 
HETATM   27  C11 UNL     1     -44.045  25.960 -10.904  1.00  0.00     0.000 A 
HETATM   28  C12 UNL     1     -42.826  25.475 -11.294  1.00  0.00     0.001 A 
HETATM   29  C13 UNL     1     -42.700  24.861 -12.514  1.00  0.00     0.010 A 
ENDBRANCH   6  24
BRANCH  12  30
HETATM   30  O4  UNL     1     -48.426  24.817 -17.719  1.00  0.00    -0.362 OA
ATOM     31  H4  UNL     1     -48.703  25.098 -18.583  1.00  0.00     0.213 HD
ENDBRANCH  12  30
BRANCH   1  32
HETATM   32  O1  UNL     1     -41.148  27.516 -19.557  1.00  0.00    -0.388 OA
HETATM   33  C1  UNL     1     -40.031  26.852 -20.053  1.00  0.00     0.202 C 
ENDBRANCH   1  32
BRANCH  23  34
HETATM   34  O8  UNL     1     -46.725  22.028 -19.139  1.00  0.00    -0.383 OA
HETATM   35  C29 UNL     1     -46.869  20.659 -18.901  1.00  0.00     0.202 C 
ENDBRANCH  23  34
BRANCH  19  36
HETATM   36  O6  UNL     1     -42.792  28.194 -21.251  1.00  0.00    -0.384 OA
HETATM   37  C24 UNL     1     -43.091  28.046 -22.592  1.00  0.00     0.202 C 
ENDBRANCH  19  36
BRANCH  22  38
HETATM   38  O7  UNL     1     -49.839  23.704 -19.335  1.00  0.00    -0.392 OA
ATOM     39  H7  UNL     1     -50.387  23.034 -18.942  1.00  0.00     0.210 HD
ENDBRANCH  22  38
TORSDOF 6
ENDMDL
