MODEL 1
REMARK VINA RESULT: -9.217123708      0.000      0.000
REMARK  6 active torsions:
REMARK  status: ('A' for Active; 'I' for Inactive)
REMARK    1  A    between atoms: O1_2  and  C2_3 
REMARK    2  A    between atoms: C7_8  and  C8_9 
REMARK    3  A    between atoms: C17_20  and  O4_21 
REMARK    4  A    between atoms: C23_29  and  O6_30 
REMARK    5  A    between atoms: C27_34  and  O7_35 
REMARK    6  A    between atoms: C28_37  and  O8_38 
ROOT
HETATM    1  C2  UNL     1     -42.474  25.003 -18.718  1.00  0.00     0.153 C 
HETATM    2  C3  UNL     1     -43.121  25.393 -17.408  1.00  0.00     0.035 C 
HETATM    3  C4  UNL     1     -42.134  25.127 -16.287  1.00  0.00     0.003 C 
HETATM    4  C5  UNL     1     -42.775  25.506 -14.971  1.00  0.00     0.003 C 
HETATM    5  C6  UNL     1     -42.634  24.389 -13.999  1.00  0.00     0.037 C 
HETATM    6  C7  UNL     1     -43.986  24.063 -13.319  1.00  0.00     0.165 C 
HETATM    7  O2  UNL     1     -44.845  23.840 -14.331  1.00  0.00    -0.311 OA
HETATM    8  C14 UNL     1     -45.434  22.963 -15.112  1.00  0.00     0.268 C 
HETATM    9  O3  UNL     1     -44.956  22.082 -15.900  1.00  0.00    -0.265 OA
HETATM   10  C15 UNL     1     -46.952  22.919 -15.144  1.00  0.00     0.146 C 
HETATM   11  C16 UNL     1     -47.509  24.269 -14.743  1.00  0.00     0.026 C 
HETATM   12  C17 UNL     1     -47.448  22.615 -16.530  1.00  0.00     0.203 C 
HETATM   13  O5  UNL     1     -46.569  23.029 -17.520  1.00  0.00    -0.346 OA
HETATM   14  C18 UNL     1     -47.233  23.127 -18.741  1.00  0.00     0.138 C 
HETATM   15  C19 UNL     1     -46.252  23.727 -19.710  1.00  0.00     0.033 C 
HETATM   16  C20 UNL     1     -46.776  23.803 -21.117  1.00  0.00     0.017 C 
HETATM   17  C21 UNL     1     -45.956  25.115 -19.254  1.00  0.00    -0.021 C 
HETATM   18  C22 UNL     1     -44.761  25.685 -19.305  1.00  0.00     0.004 C 
HETATM   19  C23 UNL     1     -43.524  25.078 -19.807  1.00  0.00     0.172 C 
HETATM   20  C25 UNL     1     -47.795  21.809 -19.197  1.00  0.00     0.043 C 
HETATM   21  C26 UNL     1     -46.777  20.887 -19.796  1.00  0.00     0.015 C 
HETATM   22  C27 UNL     1     -48.538  21.129 -18.095  1.00  0.00     0.158 C 
HETATM   23  C28 UNL     1     -47.766  21.171 -16.766  1.00  0.00     0.212 C 
ENDROOT
BRANCH   6  24
HETATM   24  C8  UNL     1     -44.339  25.100 -12.341  1.00  0.00    -0.029 A 
HETATM   25  C9  UNL     1     -43.424  25.596 -11.452  1.00  0.00     0.010 A 
HETATM   26  C10 UNL     1     -43.801  26.582 -10.530  1.00  0.00     0.001 A 
HETATM   27  C11 UNL     1     -45.094  27.059 -10.513  1.00  0.00     0.000 A 
HETATM   28  C12 UNL     1     -46.001  26.558 -11.405  1.00  0.00     0.001 A 
HETATM   29  C13 UNL     1     -45.611  25.593 -12.298  1.00  0.00     0.010 A 
ENDBRANCH   6  24
BRANCH  12  30
HETATM   30  O4  UNL     1     -48.636  23.320 -16.713  1.00  0.00    -0.362 OA
ATOM     31  H4  UNL     1     -48.497  23.934 -17.424  1.00  0.00     0.213 HD
ENDBRANCH  12  30
BRANCH   1  32
HETATM   32  O1  UNL     1     -41.431  25.900 -18.957  1.00  0.00    -0.388 OA
HETATM   33  C1  UNL     1     -40.357  25.246 -19.553  1.00  0.00     0.202 C 
ENDBRANCH   1  32
BRANCH  23  34
HETATM   34  O8  UNL     1     -46.640  20.384 -17.003  1.00  0.00    -0.383 OA
HETATM   35  C29 UNL     1     -46.825  19.074 -16.555  1.00  0.00     0.202 C 
ENDBRANCH  23  34
BRANCH  19  36
HETATM   36  O6  UNL     1     -42.970  25.819 -20.869  1.00  0.00    -0.384 OA
HETATM   37  C24 UNL     1     -43.356  25.341 -22.107  1.00  0.00     0.202 C 
ENDBRANCH  19  36
BRANCH  22  38
HETATM   38  O7  UNL     1     -49.833  21.606 -17.929  1.00  0.00    -0.392 OA
ATOM     39  H7  UNL     1     -49.874  22.424 -17.447  1.00  0.00     0.210 HD
ENDBRANCH  22  38
TORSDOF 6
ENDMDL
