MODEL 2
REMARK VINA RESULT: -8.617887075      1.035      1.065
REMARK  6 active torsions:
REMARK  status: ('A' for Active; 'I' for Inactive)
REMARK    1  A    between atoms: O1_2  and  C2_3 
REMARK    2  A    between atoms: C7_8  and  C8_9 
REMARK    3  A    between atoms: C17_20  and  O4_21 
REMARK    4  A    between atoms: C23_29  and  O6_30 
REMARK    5  A    between atoms: C27_34  and  O7_35 
REMARK    6  A    between atoms: C28_37  and  O8_38 
ROOT
HETATM    1  C2  UNL     1     -42.546  25.754 -19.178  1.00  0.00     0.153 C 
HETATM    2  C3  UNL     1     -43.109  25.949 -17.788  1.00  0.00     0.035 C 
HETATM    3  C4  UNL     1     -42.108  25.406 -16.784  1.00  0.00     0.003 C 
HETATM    4  C5  UNL     1     -42.665  25.588 -15.391  1.00  0.00     0.003 C 
HETATM    5  C6  UNL     1     -42.586  24.305 -14.642  1.00  0.00     0.037 C 
HETATM    6  C7  UNL     1     -43.935  23.969 -13.962  1.00  0.00     0.165 C 
HETATM    7  O2  UNL     1     -44.846  24.003 -14.952  1.00  0.00    -0.311 OA
HETATM    8  C14 UNL     1     -45.538  23.332 -15.845  1.00  0.00     0.268 C 
HETATM    9  O3  UNL     1     -45.168  22.574 -16.801  1.00  0.00    -0.265 OA
HETATM   10  C15 UNL     1     -47.055  23.414 -15.806  1.00  0.00     0.146 C 
HETATM   11  C16 UNL     1     -47.476  24.708 -15.142  1.00  0.00     0.026 C 
HETATM   12  C17 UNL     1     -47.626  23.407 -17.196  1.00  0.00     0.203 C 
HETATM   13  O5  UNL     1     -46.750  23.924 -18.141  1.00  0.00    -0.346 OA
HETATM   14  C18 UNL     1     -47.448  24.295 -19.289  1.00  0.00     0.138 C 
HETATM   15  C19 UNL     1     -46.455  24.982 -20.185  1.00  0.00     0.033 C 
HETATM   16  C20 UNL     1     -47.021  25.354 -21.527  1.00  0.00     0.017 C 
HETATM   17  C21 UNL     1     -46.023  26.236 -19.504  1.00  0.00    -0.021 C 
HETATM   18  C22 UNL     1     -44.785  26.709 -19.514  1.00  0.00     0.004 C 
HETATM   19  C23 UNL     1     -43.625  26.109 -20.180  1.00  0.00     0.172 C 
HETATM   20  C25 UNL     1     -48.138  23.131 -19.943  1.00  0.00     0.043 C 
HETATM   21  C26 UNL     1     -47.227  22.255 -20.748  1.00  0.00     0.015 C 
HETATM   22  C27 UNL     1     -48.897  22.322 -18.943  1.00  0.00     0.158 C 
HETATM   23  C28 UNL     1     -48.076  22.060 -17.669  1.00  0.00     0.212 C 
ENDROOT
BRANCH   6  24
HETATM   24  C8  UNL     1     -44.160  24.835 -12.798  1.00  0.00    -0.029 A 
HETATM   25  C9  UNL     1     -43.141  25.200 -11.960  1.00  0.00     0.010 A 
HETATM   26  C10 UNL     1     -43.397  26.025 -10.856  1.00  0.00     0.001 A 
HETATM   27  C11 UNL     1     -44.676  26.474 -10.606  1.00  0.00     0.000 A 
HETATM   28  C12 UNL     1     -45.689  26.104 -11.448  1.00  0.00     0.001 A 
HETATM   29  C13 UNL     1     -45.416  25.296 -12.523  1.00  0.00     0.010 A 
ENDBRANCH   6  24
BRANCH  12  30
HETATM   30  O4  UNL     1     -48.754  24.226 -17.189  1.00  0.00    -0.362 OA
ATOM     31  H4  UNL     1     -49.417  23.803 -17.721  1.00  0.00     0.213 HD
ENDBRANCH  12  30
BRANCH   1  32
HETATM   32  O1  UNL     1     -41.438  26.595 -19.307  1.00  0.00    -0.388 OA
HETATM   33  C1  UNL     1     -40.338  25.878 -19.767  1.00  0.00     0.202 C 
ENDBRANCH   1  32
BRANCH  23  34
HETATM   34  O8  UNL     1     -47.033  21.244 -18.101  1.00  0.00    -0.383 OA
HETATM   35  C29 UNL     1     -47.362  19.890 -17.996  1.00  0.00     0.202 C 
ENDBRANCH  23  34
BRANCH  19  36
HETATM   36  O6  UNL     1     -43.048  26.985 -21.120  1.00  0.00    -0.384 OA
HETATM   37  C24 UNL     1     -42.986  26.437 -22.388  1.00  0.00     0.202 C 
ENDBRANCH  19  36
BRANCH  22  38
HETATM   38  O7  UNL     1     -50.139  22.861 -18.627  1.00  0.00    -0.392 OA
ATOM     39  H7  UNL     1     -50.674  22.286 -18.092  1.00  0.00     0.210 HD
ENDBRANCH  22  38
TORSDOF 6
ENDMDL
