MODEL 2
REMARK VINA RESULT: -10.510796602      5.332      8.060
REMARK  3 active torsions:
REMARK  status: ('A' for Active; 'I' for Inactive)
REMARK    1  A    between atoms: C6_8  and  C7_9 
REMARK    2  A    between atoms: C7_9  and  C8_10 
REMARK    3  A    between atoms: C18_20  and  O3_21 
ROOT
HETATM    1  C1  UNL     1      18.206 -12.354  30.436  1.00  0.00     0.049 C 
HETATM    2  C2  UNL     1      17.716 -11.181  31.203  1.00  0.00    -0.053 A 
HETATM    3  C3  UNL     1      16.827 -11.345  32.262  1.00  0.00     0.045 A 
HETATM    4  C4  UNL     1      16.384 -10.234  32.978  1.00  0.00     0.093 A 
HETATM    5  O1  UNL     1      15.544 -10.350  33.978  1.00  0.00    -0.274 OA
HETATM    6  C5  UNL     1      15.089  -9.363  34.685  1.00  0.00     0.297 A 
HETATM    7  O2  UNL     1      14.300  -9.610  35.617  1.00  0.00    -0.259 OA
HETATM    8  C6  UNL     1      15.491  -8.014  34.411  1.00  0.00     0.056 A 
HETATM    9  C18 UNL     1      16.357  -7.904  33.377  1.00  0.00     0.091 A 
HETATM   10  C19 UNL     1      16.843  -8.992  32.616  1.00  0.00     0.032 A 
HETATM   11  C20 UNL     1      17.723  -8.807  31.573  1.00  0.00     0.024 A 
HETATM   12  C21 UNL     1      18.160  -9.915  30.863  1.00  0.00    -0.055 A 
HETATM   13  C22 UNL     1      19.099  -9.800  29.723  1.00  0.00     0.049 C 
ENDROOT
BRANCH   8  14
HETATM   14  C7  UNL     1      14.898  -6.942  35.236  1.00  0.00     0.087 C 
BRANCH  14  15
HETATM   15  C8  UNL     1      13.959  -6.050  34.530  1.00  0.00    -0.043 A 
HETATM   16  C9  UNL     1      12.764  -6.544  34.028  1.00  0.00     0.008 A 
HETATM   17  C10 UNL     1      11.944  -5.736  33.263  1.00  0.00     0.001 A 
HETATM   18  C11 UNL     1      12.267  -4.431  32.973  1.00  0.00     0.012 A 
HETATM   19  C12 UNL     1      13.448  -3.915  33.465  1.00  0.00    -0.025 A 
HETATM   20  C13 UNL     1      13.721  -2.573  33.209  1.00  0.00     0.012 A 
HETATM   21  C17 UNL     1      14.266  -4.718  34.224  1.00  0.00    -0.019 A 
HETATM   22  C14 UNL     1      14.853  -1.970  33.726  1.00  0.00     0.001 A 
HETATM   23  C15 UNL     1      15.671  -2.757  34.486  1.00  0.00     0.001 A 
HETATM   24  C16 UNL     1      15.389  -4.103  34.736  1.00  0.00     0.013 A 
ENDBRANCH  14  15
ENDBRANCH   8  14
BRANCH   9  25
HETATM   25  O3  UNL     1      16.869  -6.692  32.950  1.00  0.00    -0.359 OA
ATOM     26  H3  UNL     1      16.381  -6.090  32.399  1.00  0.00     0.217 HD
ENDBRANCH   9  25
TORSDOF 3
ENDMDL
