MODEL 3
REMARK VINA RESULT: -10.505168911      4.205      7.488
REMARK  3 active torsions:
REMARK  status: ('A' for Active; 'I' for Inactive)
REMARK    1  A    between atoms: C6_8  and  C7_9 
REMARK    2  A    between atoms: C7_9  and  C8_10 
REMARK    3  A    between atoms: C18_20  and  O3_21 
ROOT
HETATM    1  C1  UNL     1      18.408 -12.402  31.570  1.00  0.00     0.049 C 
HETATM    2  C2  UNL     1      17.460 -11.267  31.691  1.00  0.00    -0.053 A 
HETATM    3  C3  UNL     1      16.396 -11.322  32.588  1.00  0.00     0.045 A 
HETATM    4  C4  UNL     1      15.519 -10.243  32.696  1.00  0.00     0.093 A 
HETATM    5  O1  UNL     1      14.506 -10.262  33.527  1.00  0.00    -0.274 OA
HETATM    6  C5  UNL     1      13.651  -9.299  33.679  1.00  0.00     0.297 A 
HETATM    7  O2  UNL     1      12.735  -9.440  34.511  1.00  0.00    -0.259 OA
HETATM    8  C6  UNL     1      13.760  -8.091  32.914  1.00  0.00     0.056 A 
HETATM    9  C18 UNL     1      14.809  -8.081  32.059  1.00  0.00     0.091 A 
HETATM   10  C19 UNL     1      15.732  -9.141  31.906  1.00  0.00     0.032 A 
HETATM   11  C20 UNL     1      16.777  -9.065  31.013  1.00  0.00     0.024 A 
HETATM   12  C21 UNL     1      17.646 -10.141  30.908  1.00  0.00    -0.055 A 
HETATM   13  C22 UNL     1      18.789 -10.141  29.966  1.00  0.00     0.049 C 
ENDROOT
BRANCH   8  14
HETATM   14  C7  UNL     1      12.725  -7.057  33.116  1.00  0.00     0.087 C 
BRANCH  14  15
HETATM   15  C8  UNL     1      13.153  -5.882  33.900  1.00  0.00    -0.043 A 
HETATM   16  C9  UNL     1      13.623  -6.037  35.196  1.00  0.00     0.008 A 
HETATM   17  C10 UNL     1      13.908  -4.927  35.969  1.00  0.00     0.001 A 
HETATM   18  C11 UNL     1      13.744  -3.645  35.497  1.00  0.00     0.012 A 
HETATM   19  C12 UNL     1      13.283  -3.466  34.209  1.00  0.00    -0.025 A 
HETATM   20  C13 UNL     1      13.186  -2.159  33.736  1.00  0.00     0.012 A 
HETATM   21  C17 UNL     1      12.997  -4.569  33.441  1.00  0.00    -0.019 A 
HETATM   22  C14 UNL     1      12.794  -1.906  32.435  1.00  0.00     0.001 A 
HETATM   23  C15 UNL     1      12.511  -2.994  31.658  1.00  0.00     0.001 A 
HETATM   24  C16 UNL     1      12.610  -4.302  32.144  1.00  0.00     0.013 A 
ENDBRANCH  14  15
ENDBRANCH   8  14
BRANCH   9  25
HETATM   25  O3  UNL     1      15.094  -7.011  31.230  1.00  0.00    -0.359 OA
ATOM     26  H3  UNL     1      15.586  -7.100  30.421  1.00  0.00     0.217 HD
ENDBRANCH   9  25
TORSDOF 3
ENDMDL
