MODEL 5
REMARK VINA RESULT: -10.361334547      0.681      2.107
REMARK  3 active torsions:
REMARK  status: ('A' for Active; 'I' for Inactive)
REMARK    1  A    between atoms: C6_8  and  C7_9 
REMARK    2  A    between atoms: C7_9  and  C8_10 
REMARK    3  A    between atoms: C18_20  and  O3_21 
ROOT
HETATM    1  C1  UNL     1      13.486  -4.219  36.344  1.00  0.00     0.049 C 
HETATM    2  C2  UNL     1      13.264  -4.139  34.879  1.00  0.00    -0.053 A 
HETATM    3  C3  UNL     1      13.389  -2.926  34.207  1.00  0.00     0.045 A 
HETATM    4  C4  UNL     1      13.185  -2.870  32.828  1.00  0.00     0.093 A 
HETATM    5  O1  UNL     1      13.291  -1.745  32.164  1.00  0.00    -0.274 OA
HETATM    6  C5  UNL     1      13.113  -1.617  30.886  1.00  0.00     0.297 A 
HETATM    7  O2  UNL     1      13.252  -0.491  30.373  1.00  0.00    -0.259 OA
HETATM    8  C6  UNL     1      12.775  -2.750  30.073  1.00  0.00     0.056 A 
HETATM    9  C18 UNL     1      12.668  -3.906  30.768  1.00  0.00     0.091 A 
HETATM   10  C19 UNL     1      12.864  -4.027  32.163  1.00  0.00     0.032 A 
HETATM   11  C20 UNL     1      12.736  -5.236  32.808  1.00  0.00     0.024 A 
HETATM   12  C21 UNL     1      12.938  -5.287  34.179  1.00  0.00    -0.055 A 
HETATM   13  C22 UNL     1      12.812  -6.548  34.947  1.00  0.00     0.049 C 
ENDROOT
BRANCH   8  14
HETATM   14  C7  UNL     1      12.552  -2.515  28.631  1.00  0.00     0.087 C 
BRANCH  14  15
HETATM   15  C8  UNL     1      11.324  -1.769  28.297  1.00  0.00    -0.043 A 
HETATM   16  C9  UNL     1      10.406  -1.449  29.287  1.00  0.00     0.008 A 
HETATM   17  C10 UNL     1       9.202  -0.857  28.952  1.00  0.00     0.001 A 
HETATM   18  C11 UNL     1       8.867  -0.564  27.651  1.00  0.00     0.012 A 
HETATM   19  C12 UNL     1       9.766  -0.869  26.650  1.00  0.00    -0.025 A 
HETATM   20  C13 UNL     1       9.428  -0.503  25.349  1.00  0.00     0.012 A 
HETATM   21  C17 UNL     1      10.963  -1.458  26.981  1.00  0.00    -0.019 A 
HETATM   22  C14 UNL     1      10.308  -0.718  24.303  1.00  0.00     0.001 A 
HETATM   23  C15 UNL     1      11.503  -1.299  24.619  1.00  0.00     0.001 A 
HETATM   24  C16 UNL     1      11.831  -1.663  25.929  1.00  0.00     0.013 A 
ENDBRANCH  14  15
ENDBRANCH   8  14
BRANCH   9  25
HETATM   25  O3  UNL     1      12.351  -5.114  30.174  1.00  0.00    -0.359 OA
ATOM     26  H3  UNL     1      12.969  -5.612  29.652  1.00  0.00     0.217 HD
ENDBRANCH   9  25
TORSDOF 3
ENDMDL
