MODEL 4
REMARK VINA RESULT: -10.429141163      6.043      8.146
REMARK  3 active torsions:
REMARK  status: ('A' for Active; 'I' for Inactive)
REMARK    1  A    between atoms: C6_8  and  C7_9 
REMARK    2  A    between atoms: C7_9  and  C8_10 
REMARK    3  A    between atoms: C18_20  and  O3_21 
ROOT
HETATM    1  C1  UNL     1      18.476 -12.729  31.542  1.00  0.00     0.049 C 
HETATM    2  C2  UNL     1      17.679 -11.478  31.565  1.00  0.00    -0.053 A 
HETATM    3  C3  UNL     1      16.528 -11.383  32.342  1.00  0.00     0.045 A 
HETATM    4  C4  UNL     1      15.795 -10.196  32.360  1.00  0.00     0.093 A 
HETATM    5  O1  UNL     1      14.704 -10.072  33.076  1.00  0.00    -0.274 OA
HETATM    6  C5  UNL     1      13.974  -9.003  33.139  1.00  0.00     0.297 A 
HETATM    7  O2  UNL     1      12.963  -9.013  33.867  1.00  0.00    -0.259 OA
HETATM    8  C6  UNL     1      14.324  -7.828  32.395  1.00  0.00     0.056 A 
HETATM    9  C18 UNL     1      15.450  -7.965  31.659  1.00  0.00     0.091 A 
HETATM   10  C19 UNL     1      16.236  -9.140  31.602  1.00  0.00     0.032 A 
HETATM   11  C20 UNL     1      17.371  -9.212  30.827  1.00  0.00     0.024 A 
HETATM   12  C21 UNL     1      18.096 -10.395  30.812  1.00  0.00    -0.055 A 
HETATM   13  C22 UNL     1      19.324 -10.555  29.999  1.00  0.00     0.049 C 
ENDROOT
BRANCH   8  14
HETATM   14  C7  UNL     1      13.419  -6.663  32.490  1.00  0.00     0.087 C 
BRANCH  14  15
HETATM   15  C8  UNL     1      13.538  -5.872  33.729  1.00  0.00    -0.043 A 
HETATM   16  C9  UNL     1      12.573  -5.970  34.720  1.00  0.00     0.008 A 
HETATM   17  C10 UNL     1      12.624  -5.139  35.824  1.00  0.00     0.001 A 
HETATM   18  C11 UNL     1      13.614  -4.199  35.987  1.00  0.00     0.012 A 
HETATM   19  C12 UNL     1      14.589  -4.086  35.017  1.00  0.00    -0.025 A 
HETATM   20  C13 UNL     1      15.614  -3.170  35.238  1.00  0.00     0.012 A 
HETATM   21  C17 UNL     1      14.538  -4.910  33.918  1.00  0.00    -0.019 A 
HETATM   22  C14 UNL     1      16.660  -3.049  34.341  1.00  0.00     0.001 A 
HETATM   23  C15 UNL     1      16.624  -3.866  33.247  1.00  0.00     0.001 A 
HETATM   24  C16 UNL     1      15.589  -4.781  33.034  1.00  0.00     0.013 A 
ENDBRANCH  14  15
ENDBRANCH   8  14
BRANCH   9  25
HETATM   25  O3  UNL     1      15.963  -6.951  30.871  1.00  0.00    -0.359 OA
ATOM     26  H3  UNL     1      16.577  -6.303  31.196  1.00  0.00     0.217 HD
ENDBRANCH   9  25
TORSDOF 3
ENDMDL
