MODEL 3
REMARK VINA RESULT: -9.441489618      3.646      6.233
REMARK  15 active torsions:
REMARK  status: ('A' for Active; 'I' for Inactive)
REMARK    1  A    between atoms: N1_5  and  C4_6 
REMARK    2  A    between atoms: C5_8  and  C6_9 
REMARK    3  A    between atoms: C6_9  and  O3_10 
REMARK    4  A    between atoms: O3_10  and  P1_11 
REMARK    5  A    between atoms: P1_11  and  O6_14 
REMARK    6  A    between atoms: O6_14  and  P2_15 
REMARK    7  A    between atoms: P2_15  and  O9_18 
REMARK    8  A    between atoms: O9_18  and  C7_19 
REMARK    9  A    between atoms: C8_21  and  C9_22 
REMARK   10  A    between atoms: C9_22  and  O11_23 
REMARK   11  A    between atoms: C10_25  and  O12_26 
REMARK   12  A    between atoms: C11_28  and  O13_29 
REMARK   13  A    between atoms: C12_31  and  O14_32 
REMARK   14  A    between atoms: C13_34  and  O15_35 
REMARK   15  A    between atoms: C14_37  and  O16_38 
ROOT
HETATM    1  P1  UNL     1      57.885  42.561  57.421  1.00  0.00     0.417 P 
HETATM    2  O4  UNL     1      56.772  41.630  58.139  1.00  0.00    -0.624 OA
HETATM    3  O5  UNL     1      56.884  43.586  57.018  1.00  0.00    -0.624 OA
ENDROOT
BRANCH   1   4
HETATM    4  O3  UNL     1      58.874  43.600  58.253  1.00  0.00    -0.287 OA
BRANCH   4   5
HETATM    5  C6  UNL     1      60.134  43.698  57.677  1.00  0.00     0.216 C 
BRANCH   5   6
HETATM    6  C5  UNL     1      60.370  45.156  57.404  1.00  0.00     0.180 C 
HETATM    7  O2  UNL     1      59.387  46.025  57.610  1.00  0.00    -0.353 OA
HETATM    8  C4  UNL     1      59.913  47.055  58.435  1.00  0.00     0.263 C 
HETATM    9  C14 UNL     1      61.352  47.089  58.135  1.00  0.00     0.198 C 
HETATM   10  C13 UNL     1      61.665  45.586  57.994  1.00  0.00     0.182 C 
BRANCH   8  11
HETATM   11  N1  UNL     1      59.526  46.720  59.789  1.00  0.00    -0.280 N 
HETATM   12  C3  UNL     1      60.525  46.523  60.657  1.00  0.00     0.104 A 
HETATM   13  C2  UNL     1      60.271  46.195  61.998  1.00  0.00     0.092 A 
HETATM   14  C1  UNL     1      58.914  46.099  62.326  1.00  0.00     0.250 A 
HETATM   15  O1  UNL     1      58.637  45.801  63.537  1.00  0.00    -0.268 OA
HETATM   16  N2  UNL     1      57.956  46.308  61.415  1.00  0.00    -0.275 N 
HETATM   17  C15 UNL     1      58.239  46.626  60.121  1.00  0.00     0.331 A 
ATOM     18  H2  UNL     1      56.981  46.226  61.700  1.00  0.00     0.173 HD
HETATM   19  O17 UNL     1      57.265  46.809  59.314  1.00  0.00    -0.246 OA
ENDBRANCH   8  11
BRANCH   9  20
HETATM   20  O16 UNL     1      61.485  47.603  56.818  1.00  0.00    -0.388 OA
ATOM     21  H16 UNL     1      61.836  48.481  56.900  1.00  0.00     0.210 HD
ENDBRANCH   9  20
BRANCH  10  22
HETATM   22  O15 UNL     1      62.742  45.388  57.122  1.00  0.00    -0.390 OA
ATOM     23  H15 UNL     1      63.440  46.018  57.258  1.00  0.00     0.210 HD
ENDBRANCH  10  22
ENDBRANCH   5   6
ENDBRANCH   4   5
ENDBRANCH   1   4
BRANCH   1  24
HETATM   24  O6  UNL     1      58.413  42.283  55.856  1.00  0.00    -0.180 OA
BRANCH  24  25
HETATM   25  P2  UNL     1      58.187  43.196  54.679  1.00  0.00     0.420 P 
HETATM   26  O7  UNL     1      57.309  42.031  53.884  1.00  0.00    -0.624 OA
HETATM   27  O8  UNL     1      59.866  43.170  54.485  1.00  0.00    -0.624 OA
BRANCH  25  28
HETATM   28  O9  UNL     1      58.165  44.082  53.418  1.00  0.00    -0.255 OA
BRANCH  28  29
HETATM   29  C7  UNL     1      57.663  45.363  53.414  1.00  0.00     0.304 C 
HETATM   30  O10 UNL     1      57.269  45.650  54.768  1.00  0.00    -0.348 OA
HETATM   31  C8  UNL     1      56.968  46.987  54.906  1.00  0.00     0.179 C 
HETATM   32  C10 UNL     1      58.036  47.947  54.508  1.00  0.00     0.180 C 
HETATM   33  C11 UNL     1      59.260  47.076  54.201  1.00  0.00     0.183 C 
HETATM   34  C12 UNL     1      58.791  46.249  52.987  1.00  0.00     0.205 C 
BRANCH  31  35
HETATM   35  C9  UNL     1      55.625  47.437  54.478  1.00  0.00     0.198 C 
BRANCH  35  36
HETATM   36  O11 UNL     1      55.092  48.359  55.421  1.00  0.00    -0.398 OA
ATOM     37  H11 UNL     1      55.653  48.406  56.187  1.00  0.00     0.209 HD
ENDBRANCH  35  36
ENDBRANCH  31  35
BRANCH  32  38
HETATM   38  O12 UNL     1      58.325  48.860  55.532  1.00  0.00    -0.390 OA
ATOM     39  H12 UNL     1      58.092  49.749  55.289  1.00  0.00     0.210 HD
ENDBRANCH  32  38
BRANCH  33  40
HETATM   40  O13 UNL     1      60.335  47.853  53.848  1.00  0.00    -0.390 OA
ATOM     41  H13 UNL     1      60.617  48.393  54.578  1.00  0.00     0.210 HD
ENDBRANCH  33  40
BRANCH  34  42
HETATM   42  O14 UNL     1      59.930  45.497  52.619  1.00  0.00    -0.388 OA
ATOM     43  H14 UNL     1      59.829  45.110  51.758  1.00  0.00     0.210 HD
ENDBRANCH  34  42
ENDBRANCH  28  29
ENDBRANCH  25  28
ENDBRANCH  24  25
ENDBRANCH   1  24
TORSDOF 15
ENDMDL
