MODEL 2
REMARK VINA RESULT: -9.498608622      1.060      1.407
REMARK  15 active torsions:
REMARK  status: ('A' for Active; 'I' for Inactive)
REMARK    1  A    between atoms: N1_5  and  C4_6 
REMARK    2  A    between atoms: C5_8  and  C6_9 
REMARK    3  A    between atoms: C6_9  and  O3_10 
REMARK    4  A    between atoms: O3_10  and  P1_11 
REMARK    5  A    between atoms: P1_11  and  O6_14 
REMARK    6  A    between atoms: O6_14  and  P2_15 
REMARK    7  A    between atoms: P2_15  and  O9_18 
REMARK    8  A    between atoms: O9_18  and  C7_19 
REMARK    9  A    between atoms: C8_21  and  C9_22 
REMARK   10  A    between atoms: C9_22  and  O11_23 
REMARK   11  A    between atoms: C10_25  and  O12_26 
REMARK   12  A    between atoms: C11_28  and  O13_29 
REMARK   13  A    between atoms: C12_31  and  O14_32 
REMARK   14  A    between atoms: C13_34  and  O15_35 
REMARK   15  A    between atoms: C14_37  and  O16_38 
ROOT
HETATM    1  P1  UNL     1      57.870  43.813  55.815  1.00  0.00     0.417 P 
HETATM    2  O4  UNL     1      57.015  45.105  55.348  1.00  0.00    -0.624 OA
HETATM    3  O5  UNL     1      57.886  43.228  54.447  1.00  0.00    -0.624 OA
ENDROOT
BRANCH   1   4
HETATM    4  O3  UNL     1      59.516  43.836  56.015  1.00  0.00    -0.287 OA
BRANCH   4   5
HETATM    5  C6  UNL     1      59.881  44.144  57.319  1.00  0.00     0.216 C 
BRANCH   5   6
HETATM    6  C5  UNL     1      60.259  45.598  57.328  1.00  0.00     0.180 C 
HETATM    7  O2  UNL     1      59.386  46.495  57.772  1.00  0.00    -0.353 OA
HETATM    8  C4  UNL     1      60.060  47.278  58.748  1.00  0.00     0.263 C 
HETATM    9  C14 UNL     1      61.477  47.236  58.361  1.00  0.00     0.198 C 
HETATM   10  C13 UNL     1      61.621  45.771  57.900  1.00  0.00     0.182 C 
BRANCH   8  11
HETATM   11  N1  UNL     1      59.706  46.708  60.031  1.00  0.00    -0.280 N 
HETATM   12  C3  UNL     1      60.725  46.385  60.835  1.00  0.00     0.104 A 
HETATM   13  C2  UNL     1      60.503  45.828  62.105  1.00  0.00     0.092 A 
HETATM   14  C1  UNL     1      59.156  45.651  62.434  1.00  0.00     0.250 A 
HETATM   15  O1  UNL     1      58.907  45.145  63.581  1.00  0.00    -0.268 OA
HETATM   16  N2  UNL     1      58.176  45.993  61.589  1.00  0.00    -0.275 N 
HETATM   17  C15 UNL     1      58.427  46.534  60.364  1.00  0.00     0.331 A 
ATOM     18  H2  UNL     1      57.208  45.845  61.872  1.00  0.00     0.173 HD
HETATM   19  O17 UNL     1      57.435  46.833  59.618  1.00  0.00    -0.246 OA
ENDBRANCH   8  11
BRANCH   9  20
HETATM   20  O16 UNL     1      61.600  47.995  57.168  1.00  0.00    -0.388 OA
ATOM     21  H16 UNL     1      62.133  47.484  56.571  1.00  0.00     0.210 HD
ENDBRANCH   9  20
BRANCH  10  22
HETATM   22  O15 UNL     1      62.626  45.656  56.933  1.00  0.00    -0.390 OA
ATOM     23  H15 UNL     1      62.916  46.501  56.609  1.00  0.00     0.210 HD
ENDBRANCH  10  22
ENDBRANCH   5   6
ENDBRANCH   4   5
ENDBRANCH   1   4
BRANCH   1  24
HETATM   24  O6  UNL     1      57.155  42.469  56.514  1.00  0.00    -0.180 OA
BRANCH  24  25
HETATM   25  P2  UNL     1      57.747  41.085  56.562  1.00  0.00     0.420 P 
HETATM   26  O7  UNL     1      56.492  40.466  55.665  1.00  0.00    -0.624 OA
HETATM   27  O8  UNL     1      57.534  41.177  58.236  1.00  0.00    -0.624 OA
BRANCH  25  28
HETATM   28  O9  UNL     1      58.275  39.659  56.817  1.00  0.00    -0.255 OA
BRANCH  28  29
HETATM   29  C7  UNL     1      59.195  39.046  55.998  1.00  0.00     0.304 C 
HETATM   30  O10 UNL     1      60.378  38.846  56.792  1.00  0.00    -0.348 OA
HETATM   31  C8  UNL     1      61.271  38.035  56.128  1.00  0.00     0.179 C 
HETATM   32  C10 UNL     1      60.757  36.704  55.699  1.00  0.00     0.180 C 
HETATM   33  C11 UNL     1      59.356  36.600  56.314  1.00  0.00     0.183 C 
HETATM   34  C12 UNL     1      58.589  37.735  55.604  1.00  0.00     0.205 C 
BRANCH  31  35
HETATM   35  C9  UNL     1      62.133  38.658  55.099  1.00  0.00     0.198 C 
BRANCH  35  36
HETATM   36  O11 UNL     1      62.393  37.733  54.051  1.00  0.00    -0.398 OA
ATOM     37  H11 UNL     1      62.189  38.125  53.210  1.00  0.00     0.209 HD
ENDBRANCH  35  36
ENDBRANCH  31  35
BRANCH  32  38
HETATM   38  O12 UNL     1      61.573  35.658  56.152  1.00  0.00    -0.390 OA
ATOM     39  H12 UNL     1      62.003  35.208  55.435  1.00  0.00     0.210 HD
ENDBRANCH  32  38
BRANCH  33  40
HETATM   40  O13 UNL     1      58.780  35.391  56.015  1.00  0.00    -0.390 OA
ATOM     41  H13 UNL     1      58.888  34.777  56.733  1.00  0.00     0.210 HD
ENDBRANCH  33  40
BRANCH  34  42
HETATM   42  O14 UNL     1      57.266  37.610  56.082  1.00  0.00    -0.388 OA
ATOM     43  H14 UNL     1      57.244  37.233  56.953  1.00  0.00     0.210 HD
ENDBRANCH  34  42
ENDBRANCH  28  29
ENDBRANCH  25  28
ENDBRANCH  24  25
ENDBRANCH   1  24
TORSDOF 15
ENDMDL
