MODEL 1
REMARK VINA RESULT: -9.797635400      0.000      0.000
REMARK  15 active torsions:
REMARK  status: ('A' for Active; 'I' for Inactive)
REMARK    1  A    between atoms: N1_5  and  C4_6 
REMARK    2  A    between atoms: C5_8  and  C6_9 
REMARK    3  A    between atoms: C6_9  and  O3_10 
REMARK    4  A    between atoms: O3_10  and  P1_11 
REMARK    5  A    between atoms: P1_11  and  O6_14 
REMARK    6  A    between atoms: O6_14  and  P2_15 
REMARK    7  A    between atoms: P2_15  and  O9_18 
REMARK    8  A    between atoms: O9_18  and  C7_19 
REMARK    9  A    between atoms: C8_21  and  C9_22 
REMARK   10  A    between atoms: C9_22  and  O11_23 
REMARK   11  A    between atoms: C10_25  and  O12_26 
REMARK   12  A    between atoms: C11_28  and  O13_29 
REMARK   13  A    between atoms: C12_31  and  O14_32 
REMARK   14  A    between atoms: C13_34  and  O15_35 
REMARK   15  A    between atoms: C14_37  and  O16_38 
ROOT
HETATM    1  P1  UNL     1      58.187  43.174  58.780  1.00  0.00     0.417 P 
HETATM    2  O4  UNL     1      57.687  43.083  60.317  1.00  0.00    -0.624 OA
HETATM    3  O5  UNL     1      57.316  44.345  58.482  1.00  0.00    -0.624 OA
ENDROOT
BRANCH   1   4
HETATM    4  O3  UNL     1      59.610  43.896  58.328  1.00  0.00    -0.287 OA
BRANCH   4   5
HETATM    5  C6  UNL     1      59.472  44.643  57.166  1.00  0.00     0.216 C 
BRANCH   5   6
HETATM    6  C5  UNL     1      60.154  45.958  57.416  1.00  0.00     0.180 C 
HETATM    7  O2  UNL     1      59.495  46.923  58.047  1.00  0.00    -0.353 OA
HETATM    8  C4  UNL     1      60.324  47.356  59.117  1.00  0.00     0.263 C 
HETATM    9  C14 UNL     1      61.699  47.087  58.670  1.00  0.00     0.198 C 
HETATM   10  C13 UNL     1      61.522  45.733  57.952  1.00  0.00     0.182 C 
BRANCH   8  11
HETATM   11  N1  UNL     1      59.859  46.650  60.294  1.00  0.00    -0.280 N 
HETATM   12  C3  UNL     1      60.797  46.032  61.020  1.00  0.00     0.104 A 
HETATM   13  C2  UNL     1      60.465  45.319  62.183  1.00  0.00     0.092 A 
HETATM   14  C1  UNL     1      59.102  45.320  62.496  1.00  0.00     0.250 A 
HETATM   15  O1  UNL     1      58.754  44.680  63.546  1.00  0.00    -0.268 OA
HETATM   16  N2  UNL     1      58.207  45.957  61.732  1.00  0.00    -0.275 N 
HETATM   17  C15 UNL     1      58.565  46.642  60.609  1.00  0.00     0.331 A 
ATOM     18  H2  UNL     1      57.224  45.930  61.999  1.00  0.00     0.173 HD
HETATM   19  O17 UNL     1      57.648  47.224  59.935  1.00  0.00    -0.246 OA
ENDBRANCH   8  11
BRANCH   9  20
HETATM   20  O16 UNL     1      61.979  48.006  57.627  1.00  0.00    -0.388 OA
ATOM     21  H16 UNL     1      62.804  47.740  57.240  1.00  0.00     0.210 HD
ENDBRANCH   9  20
BRANCH  10  22
HETATM   22  O15 UNL     1      62.476  45.586  56.940  1.00  0.00    -0.390 OA
ATOM     23  H15 UNL     1      63.359  45.763  57.244  1.00  0.00     0.210 HD
ENDBRANCH  10  22
ENDBRANCH   5   6
ENDBRANCH   4   5
ENDBRANCH   1   4
BRANCH   1  24
HETATM   24  O6  UNL     1      57.532  42.224  57.566  1.00  0.00    -0.180 OA
BRANCH  24  25
HETATM   25  P2  UNL     1      57.930  40.806  57.251  1.00  0.00     0.420 P 
HETATM   26  O7  UNL     1      57.799  41.082  55.617  1.00  0.00    -0.624 OA
HETATM   27  O8  UNL     1      56.527  40.351  58.076  1.00  0.00    -0.624 OA
BRANCH  25  28
HETATM   28  O9  UNL     1      58.131  39.300  56.986  1.00  0.00    -0.255 OA
BRANCH  28  29
HETATM   29  C7  UNL     1      59.101  38.814  56.140  1.00  0.00     0.304 C 
HETATM   30  O10 UNL     1      60.266  38.577  56.950  1.00  0.00    -0.348 OA
HETATM   31  C8  UNL     1      61.213  37.877  56.237  1.00  0.00     0.179 C 
HETATM   32  C10 UNL     1      60.769  36.580  55.652  1.00  0.00     0.180 C 
HETATM   33  C11 UNL     1      59.356  36.357  56.202  1.00  0.00     0.183 C 
HETATM   34  C12 UNL     1      58.564  37.530  55.589  1.00  0.00     0.205 C 
BRANCH  31  35
HETATM   35  C9  UNL     1      62.079  38.639  55.311  1.00  0.00     0.198 C 
BRANCH  35  36
HETATM   36  O11 UNL     1      62.451  37.826  54.205  1.00  0.00    -0.398 OA
ATOM     37  H11 UNL     1      62.608  38.366  53.439  1.00  0.00     0.209 HD
ENDBRANCH  35  36
ENDBRANCH  31  35
BRANCH  32  38
HETATM   38  O12 UNL     1      61.614  35.524  56.021  1.00  0.00    -0.390 OA
ATOM     39  H12 UNL     1      61.858  34.988  55.275  1.00  0.00     0.210 HD
ENDBRANCH  32  38
BRANCH  33  40
HETATM   40  O13 UNL     1      58.841  35.165  55.757  1.00  0.00    -0.390 OA
ATOM     41  H13 UNL     1      58.019  34.968  56.191  1.00  0.00     0.210 HD
ENDBRANCH  33  40
BRANCH  34  42
HETATM   42  O14 UNL     1      57.232  37.304  56.004  1.00  0.00    -0.388 OA
ATOM     43  H14 UNL     1      57.198  36.938  56.879  1.00  0.00     0.210 HD
ENDBRANCH  34  42
ENDBRANCH  28  29
ENDBRANCH  25  28
ENDBRANCH  24  25
ENDBRANCH   1  24
TORSDOF 15
ENDMDL
