MODEL 1
REMARK VINA RESULT: -7.953746553      0.000      0.000
REMARK  3 active torsions:
REMARK  status: ('A' for Active; 'I' for Inactive)
REMARK    1  A    between atoms: C1_2  and  C2_4 
REMARK    2  A    between atoms: C7_10  and  N1_11 
REMARK    3  A    between atoms: N1_11  and  C8_13 
ROOT
HETATM    1  C2  UNL     1      42.915  -2.458  92.142  1.00  0.00     0.068 A 
HETATM    2  C3  UNL     1      41.526  -2.377  92.065  1.00  0.00     0.040 A 
HETATM    3  C4  UNL     1      40.814  -1.295  92.520  1.00  0.00     0.012 A 
HETATM    4 BR1  UNL     1      38.915  -1.300  92.358  1.00  0.00    -0.051 Br
HETATM    5  C5  UNL     1      41.501  -0.249  93.076  1.00  0.00     0.021 A 
HETATM    6  C6  UNL     1      42.866  -0.260  93.184  1.00  0.00     0.031 A 
HETATM    7  C7  UNL     1      43.568  -1.375  92.713  1.00  0.00     0.045 A 
ENDROOT
BRANCH   7   8
HETATM    8  N1  UNL     1      44.970  -1.399  92.791  1.00  0.00    -0.383 N 
ATOM      9  H1  UNL     1      45.444  -2.276  92.579  1.00  0.00     0.160 HD
BRANCH   8  10
HETATM   10  C8  UNL     1      45.797  -0.243  93.159  1.00  0.00     0.099 C 
HETATM   11  C9  UNL     1      45.855   0.667  91.987  1.00  0.00     0.028 C 
HETATM   12  C10 UNL     1      47.118   1.411  91.753  1.00  0.00     0.021 C 
HETATM   13  C11 UNL     1      48.041   1.411  92.949  1.00  0.00     0.114 C 
HETATM   14  N2  UNL     1      48.244   0.083  93.471  1.00  0.00    -0.419 N 
HETATM   15  C12 UNL     1      47.064  -0.613  93.833  1.00  0.00     0.138 C 
ATOM     16  H2  UNL     1      49.172  -0.326  93.572  1.00  0.00     0.153 HD
ENDBRANCH   8  10
ENDBRANCH   7   8
BRANCH   1  17
HETATM   17  C1  UNL     1      43.534  -3.659  91.640  1.00  0.00     0.211 C 
HETATM   18  O1  UNL     1      44.048  -4.467  92.481  1.00  0.00    -0.644 OA
HETATM   19  O2  UNL     1      43.636  -4.038  90.328  1.00  0.00    -0.644 OA
ENDBRANCH   1  17
TORSDOF 3
ENDMDL
