MODEL 4
REMARK VINA RESULT: -7.826032570      3.117      5.609
REMARK  3 active torsions:
REMARK  status: ('A' for Active; 'I' for Inactive)
REMARK    1  A    between atoms: C1_2  and  C2_4 
REMARK    2  A    between atoms: C7_10  and  N1_11 
REMARK    3  A    between atoms: N1_11  and  C8_13 
ROOT
HETATM    1  C2  UNL     1      44.939  -1.982  92.730  1.00  0.00     0.068 A 
HETATM    2  C3  UNL     1      46.202  -1.534  93.115  1.00  0.00     0.040 A 
HETATM    3  C4  UNL     1      46.581  -0.217  93.046  1.00  0.00     0.012 A 
HETATM    4 BR1  UNL     1      48.337   0.273  93.603  1.00  0.00    -0.051 Br
HETATM    5  C5  UNL     1      45.677   0.698  92.577  1.00  0.00     0.021 A 
HETATM    6  C6  UNL     1      44.419   0.331  92.182  1.00  0.00     0.031 A 
HETATM    7  C7  UNL     1      44.057  -1.019  92.262  1.00  0.00     0.045 A 
ENDROOT
BRANCH   7   8
HETATM    8  N1  UNL     1      42.764  -1.416  91.885  1.00  0.00    -0.383 N 
ATOM      9  H1  UNL     1      42.676  -2.130  91.162  1.00  0.00     0.160 HD
BRANCH   8  10
HETATM   10  C8  UNL     1      41.530  -0.871  92.465  1.00  0.00     0.099 C 
HETATM   11  C9  UNL     1      40.594  -2.001  92.688  1.00  0.00     0.028 C 
HETATM   12  C10 UNL     1      39.144  -1.745  92.497  1.00  0.00     0.021 C 
HETATM   13  C11 UNL     1      38.799  -0.275  92.456  1.00  0.00     0.114 C 
HETATM   14  N2  UNL     1      39.637   0.448  91.533  1.00  0.00    -0.419 N 
HETATM   15  C12 UNL     1      41.031   0.336  91.764  1.00  0.00     0.138 C 
ATOM     16  H2  UNL     1      39.254   1.001  90.767  1.00  0.00     0.153 HD
ENDBRANCH   8  10
ENDBRANCH   7   8
BRANCH   1  17
HETATM   17  C1  UNL     1      44.679  -3.395  92.841  1.00  0.00     0.211 C 
HETATM   18  O1  UNL     1      45.615  -4.204  92.533  1.00  0.00    -0.644 OA
HETATM   19  O2  UNL     1      43.510  -3.981  93.247  1.00  0.00    -0.644 OA
ENDBRANCH   1  17
TORSDOF 3
ENDMDL
