MODEL 5
REMARK VINA RESULT: -7.666266717      0.915      1.153
REMARK  3 active torsions:
REMARK  status: ('A' for Active; 'I' for Inactive)
REMARK    1  A    between atoms: C1_2  and  C2_4 
REMARK    2  A    between atoms: C7_10  and  N1_11 
REMARK    3  A    between atoms: N1_11  and  C8_13 
ROOT
HETATM    1  C2  UNL     1      42.962  -1.675  91.425  1.00  0.00     0.068 A 
HETATM    2  C3  UNL     1      41.614  -1.498  91.121  1.00  0.00     0.040 A 
HETATM    3  C4  UNL     1      40.755  -0.781  91.917  1.00  0.00     0.012 A 
HETATM    4 BR1  UNL     1      38.930  -0.609  91.394  1.00  0.00    -0.051 Br
HETATM    5  C5  UNL     1      41.248  -0.215  93.062  1.00  0.00     0.021 A 
HETATM    6  C6  UNL     1      42.561  -0.347  93.424  1.00  0.00     0.031 A 
HETATM    7  C7  UNL     1      43.416  -1.083  92.595  1.00  0.00     0.045 A 
ENDROOT
BRANCH   7   8
HETATM    8  N1  UNL     1      44.773  -1.212  92.933  1.00  0.00    -0.383 N 
ATOM      9  H1  UNL     1      45.160  -2.153  92.999  1.00  0.00     0.160 HD
BRANCH   8  10
HETATM   10  C8  UNL     1      45.670  -0.080  93.197  1.00  0.00     0.099 C 
HETATM   11  C9  UNL     1      45.704   0.768  91.979  1.00  0.00     0.028 C 
HETATM   12  C10 UNL     1      46.983   1.439  91.640  1.00  0.00     0.021 C 
HETATM   13  C11 UNL     1      47.971   1.453  92.784  1.00  0.00     0.114 C 
HETATM   14  N2  UNL     1      48.142   0.144  93.361  1.00  0.00    -0.419 N 
HETATM   15  C12 UNL     1      46.955  -0.477  93.820  1.00  0.00     0.138 C 
ATOM     16  H2  UNL     1      49.056  -0.304  93.433  1.00  0.00     0.153 HD
ENDBRANCH   8  10
ENDBRANCH   7   8
BRANCH   1  17
HETATM   17  C1  UNL     1      43.746  -2.464  90.509  1.00  0.00     0.211 C 
HETATM   18  O1  UNL     1      44.610  -1.866  89.788  1.00  0.00    -0.644 OA
HETATM   19  O2  UNL     1      43.665  -3.818  90.321  1.00  0.00    -0.644 OA
ENDBRANCH   1  17
TORSDOF 3
ENDMDL
