MODEL 3
REMARK VINA RESULT: -7.826922974      1.478      1.722
REMARK  3 active torsions:
REMARK  status: ('A' for Active; 'I' for Inactive)
REMARK    1  A    between atoms: C1_2  and  C2_4 
REMARK    2  A    between atoms: C7_10  and  N1_11 
REMARK    3  A    between atoms: N1_11  and  C8_13 
ROOT
HETATM    1  C2  UNL     1      43.121  -0.913  91.206  1.00  0.00     0.068 A 
HETATM    2  C3  UNL     1      41.835  -1.396  91.439  1.00  0.00     0.040 A 
HETATM    3  C4  UNL     1      40.920  -0.738  92.222  1.00  0.00     0.012 A 
HETATM    4 BR1  UNL     1      39.189  -1.500  92.465  1.00  0.00    -0.051 Br
HETATM    5  C5  UNL     1      41.289   0.446  92.801  1.00  0.00     0.021 A 
HETATM    6  C6  UNL     1      42.535   0.981  92.617  1.00  0.00     0.031 A 
HETATM    7  C7  UNL     1      43.450   0.291  91.814  1.00  0.00     0.045 A 
ENDROOT
BRANCH   7   8
HETATM    8  N1  UNL     1      44.726   0.831  91.589  1.00  0.00    -0.383 N 
ATOM      9  H1  UNL     1      44.937   1.185  90.657  1.00  0.00     0.160 HD
BRANCH   8  10
HETATM   10  C8  UNL     1      45.777   0.920  92.611  1.00  0.00     0.099 C 
HETATM   11  C9  UNL     1      46.975   1.530  91.980  1.00  0.00     0.028 C 
HETATM   12  C10 UNL     1      48.308   1.058  92.429  1.00  0.00     0.021 C 
HETATM   13  C11 UNL     1      48.261   0.281  93.724  1.00  0.00     0.114 C 
HETATM   14  N2  UNL     1      47.263  -0.758  93.691  1.00  0.00    -0.419 N 
HETATM   15  C12 UNL     1      45.946  -0.326  93.396  1.00  0.00     0.138 C 
ATOM     16  H2  UNL     1      47.490  -1.736  93.867  1.00  0.00     0.153 HD
ENDBRANCH   8  10
ENDBRANCH   7   8
BRANCH   1  17
HETATM   17  C1  UNL     1      43.986  -1.713  90.376  1.00  0.00     0.211 C 
HETATM   18  O1  UNL     1      43.972  -2.977  90.536  1.00  0.00    -0.644 OA
HETATM   19  O2  UNL     1      44.842  -1.256  89.410  1.00  0.00    -0.644 OA
ENDBRANCH   1  17
TORSDOF 3
ENDMDL
