MODEL 9
REMARK VINA RESULT: -7.440373132      3.530      5.827
REMARK  3 active torsions:
REMARK  status: ('A' for Active; 'I' for Inactive)
REMARK    1  A    between atoms: C1_2  and  C2_4 
REMARK    2  A    between atoms: C7_10  and  N1_11 
REMARK    3  A    between atoms: N1_11  and  C8_13 
ROOT
HETATM    1  C2  UNL     1      40.033   2.075  93.281  1.00  0.00     0.068 A 
HETATM    2  C3  UNL     1      39.772   0.793  92.733  1.00  0.00     0.040 A 
HETATM    3  C4  UNL     1      40.715  -0.196  92.779  1.00  0.00     0.012 A 
HETATM    4 BR1  UNL     1      40.310  -1.902  92.028  1.00  0.00    -0.051 Br
HETATM    5  C5  UNL     1      41.933   0.062  93.365  1.00  0.00     0.021 A 
HETATM    6  C6  UNL     1      42.208   1.301  93.903  1.00  0.00     0.031 A 
HETATM    7  C7  UNL     1      41.241   2.303  93.853  1.00  0.00     0.045 A 
ENDROOT
BRANCH   7   8
HETATM    8  N1  UNL     1      41.558   3.555  94.440  1.00  0.00    -0.383 N 
ATOM      9  H1  UNL     1      41.289   3.756  95.403  1.00  0.00     0.160 HD
BRANCH   8  10
HETATM   10  C8  UNL     1      42.279   4.564  93.644  1.00  0.00     0.107 C 
HETATM   11  C9  UNL     1      42.634   5.774  94.466  1.00  0.00     0.028 C 
HETATM   12  C10 UNL     1      44.160   5.718  94.639  1.00  0.00     0.029 C 
HETATM   13  C11 UNL     1      44.733   5.973  93.261  1.00  0.00     0.232 C 
HETATM   14  N2  UNL     1      44.353   4.885  92.407  1.00  0.00    -0.073 N 
HETATM   15  C12 UNL     1      43.497   3.909  93.043  1.00  0.00     0.257 C 
ATOM     16  H22 UNL     1      43.921   5.235  91.551  1.00  0.00     0.277 HD
ATOM     17  H21 UNL     1      45.178   4.433  92.012  1.00  0.00     0.277 HD
ENDBRANCH   8  10
ENDBRANCH   7   8
BRANCH   1  18
HETATM   18  C1  UNL     1      38.984   3.059  93.175  1.00  0.00     0.211 C 
HETATM   19  O1  UNL     1      38.153   2.972  92.218  1.00  0.00    -0.644 OA
HETATM   20  O2  UNL     1      38.823   4.093  94.045  1.00  0.00    -0.644 OA
ENDBRANCH   1  18
TORSDOF 3
ENDMDL
