MODEL 14
REMARK VINA RESULT: -7.072010379      3.372      5.445
REMARK  3 active torsions:
REMARK  status: ('A' for Active; 'I' for Inactive)
REMARK    1  A    between atoms: C1_2  and  C2_4 
REMARK    2  A    between atoms: C7_10  and  N1_11 
REMARK    3  A    between atoms: N1_11  and  C8_13 
ROOT
HETATM    1  C2  UNL     1      43.812  -0.747  91.897  1.00  0.00     0.068 A 
HETATM    2  C3  UNL     1      44.132  -2.024  91.368  1.00  0.00     0.040 A 
HETATM    3  C4  UNL     1      43.359  -3.116  91.650  1.00  0.00     0.012 A 
HETATM    4 BR1  UNL     1      43.836  -4.808  90.911  1.00  0.00    -0.051 Br
HETATM    5  C5  UNL     1      42.256  -2.969  92.459  1.00  0.00     0.021 A 
HETATM    6  C6  UNL     1      41.927  -1.737  92.984  1.00  0.00     0.031 A 
HETATM    7  C7  UNL     1      42.719  -0.629  92.691  1.00  0.00     0.045 A 
ENDROOT
BRANCH   7   8
HETATM    8  N1  UNL     1      42.330   0.623  93.233  1.00  0.00    -0.383 N 
ATOM      9  H1  UNL     1      43.024   1.242  93.651  1.00  0.00     0.160 HD
BRANCH   8  10
HETATM   10  C8  UNL     1      40.912   1.021  93.186  1.00  0.00     0.107 C 
HETATM   11  C9  UNL     1      40.660   2.283  93.966  1.00  0.00     0.028 C 
HETATM   12  C10 UNL     1      40.357   3.361  92.912  1.00  0.00     0.029 C 
HETATM   13  C11 UNL     1      39.023   2.975  92.309  1.00  0.00     0.232 C 
HETATM   14  N2  UNL     1      39.185   1.727  91.620  1.00  0.00    -0.073 N 
HETATM   15  C12 UNL     1      40.507   1.156  91.740  1.00  0.00     0.257 C 
ATOM     16  H22 UNL     1      38.477   1.057  91.921  1.00  0.00     0.277 HD
ATOM     17  H21 UNL     1      38.925   1.824  90.638  1.00  0.00     0.277 HD
ENDBRANCH   8  10
ENDBRANCH   7   8
BRANCH   1  18
HETATM   18  C1  UNL     1      44.693   0.344  91.556  1.00  0.00     0.211 C 
HETATM   19  O1  UNL     1      44.230   1.323  90.892  1.00  0.00    -0.644 OA
HETATM   20  O2  UNL     1      46.008   0.394  91.903  1.00  0.00    -0.644 OA
ENDBRANCH   1  18
TORSDOF 3
ENDMDL
