MODEL 3
REMARK VINA RESULT: -7.586500953      2.066      2.597
REMARK  3 active torsions:
REMARK  status: ('A' for Active; 'I' for Inactive)
REMARK    1  A    between atoms: C1_2  and  C2_4 
REMARK    2  A    between atoms: C7_10  and  N1_11 
REMARK    3  A    between atoms: N1_11  and  C8_13 
ROOT
HETATM    1  C2  UNL     1      40.863   2.780  92.796  1.00  0.00     0.068 A 
HETATM    2  C3  UNL     1      41.075   3.964  93.549  1.00  0.00     0.040 A 
HETATM    3  C4  UNL     1      42.330   4.481  93.707  1.00  0.00     0.012 A 
HETATM    4 BR1  UNL     1      42.556   6.076  94.728  1.00  0.00    -0.051 Br
HETATM    5  C5  UNL     1      43.401   3.840  93.128  1.00  0.00     0.021 A 
HETATM    6  C6  UNL     1      43.218   2.688  92.393  1.00  0.00     0.031 A 
HETATM    7  C7  UNL     1      41.935   2.168  92.235  1.00  0.00     0.045 A 
ENDROOT
BRANCH   7   8
HETATM    8  N1  UNL     1      41.791   0.994  91.451  1.00  0.00    -0.383 N 
ATOM      9  H1  UNL     1      41.174   0.989  90.639  1.00  0.00     0.160 HD
BRANCH   8  10
HETATM   10  C8  UNL     1      42.541  -0.219  91.822  1.00  0.00     0.107 C 
HETATM   11  C9  UNL     1      42.061  -0.796  93.126  1.00  0.00     0.028 C 
HETATM   12  C10 UNL     1      41.341  -2.103  92.755  1.00  0.00     0.029 C 
HETATM   13  C11 UNL     1      42.427  -3.038  92.265  1.00  0.00     0.232 C 
HETATM   14  N2  UNL     1      42.982  -2.491  91.061  1.00  0.00    -0.073 N 
HETATM   15  C12 UNL     1      42.431  -1.208  90.689  1.00  0.00     0.257 C 
ATOM     16  H22 UNL     1      43.999  -2.438  91.128  1.00  0.00     0.277 HD
ATOM     17  H21 UNL     1      42.894  -3.155  90.292  1.00  0.00     0.277 HD
ENDBRANCH   8  10
ENDBRANCH   7   8
BRANCH   1  18
HETATM   18  C1  UNL     1      39.506   2.301  92.694  1.00  0.00     0.211 C 
HETATM   19  O1  UNL     1      38.567   3.143  92.548  1.00  0.00    -0.644 OA
HETATM   20  O2  UNL     1      39.160   0.986  92.746  1.00  0.00    -0.644 OA
ENDBRANCH   1  18
TORSDOF 3
ENDMDL
