MODEL 2
REMARK VINA RESULT: -7.735293667      2.180      2.696
REMARK  3 active torsions:
REMARK  status: ('A' for Active; 'I' for Inactive)
REMARK    1  A    between atoms: C1_2  and  C2_4 
REMARK    2  A    between atoms: C7_10  and  N1_11 
REMARK    3  A    between atoms: N1_11  and  C8_13 
ROOT
HETATM    1  C2  UNL     1      41.048   3.414  93.295  1.00  0.00     0.068 A 
HETATM    2  C3  UNL     1      41.997   4.433  93.565  1.00  0.00     0.040 A 
HETATM    3  C4  UNL     1      43.179   4.493  92.880  1.00  0.00     0.012 A 
HETATM    4 BR1  UNL     1      44.418   5.885  93.285  1.00  0.00    -0.051 Br
HETATM    5  C5  UNL     1      43.446   3.549  91.916  1.00  0.00     0.021 A 
HETATM    6  C6  UNL     1      42.538   2.550  91.637  1.00  0.00     0.031 A 
HETATM    7  C7  UNL     1      41.336   2.496  92.339  1.00  0.00     0.045 A 
ENDROOT
BRANCH   7   8
HETATM    8  N1  UNL     1      40.420   1.466  92.003  1.00  0.00    -0.383 N 
ATOM      9  H1  UNL     1      39.728   1.611  91.269  1.00  0.00     0.160 HD
BRANCH   8  10
HETATM   10  C8  UNL     1      40.481   0.182  92.725  1.00  0.00     0.107 C 
HETATM   11  C9  UNL     1      39.710  -0.896  92.012  1.00  0.00     0.028 C 
HETATM   12  C10 UNL     1      40.772  -1.862  91.462  1.00  0.00     0.029 C 
HETATM   13  C11 UNL     1      41.382  -2.527  92.678  1.00  0.00     0.232 C 
HETATM   14  N2  UNL     1      42.063  -1.524  93.445  1.00  0.00    -0.073 N 
HETATM   15  C12 UNL     1      41.930  -0.186  92.913  1.00  0.00     0.257 C 
ATOM     16  H22 UNL     1      41.763  -1.553  94.420  1.00  0.00     0.277 HD
ATOM     17  H21 UNL     1      43.047  -1.767  93.559  1.00  0.00     0.277 HD
ENDBRANCH   8  10
ENDBRANCH   7   8
BRANCH   1  18
HETATM   18  C1  UNL     1      39.836   3.423  94.077  1.00  0.00     0.211 C 
HETATM   19  O1  UNL     1      38.717   3.458  93.476  1.00  0.00    -0.644 OA
HETATM   20  O2  UNL     1      39.810   3.397  95.437  1.00  0.00    -0.644 OA
ENDBRANCH   1  18
TORSDOF 3
ENDMDL
