MODEL 11
REMARK VINA RESULT: -7.138031161      3.540      5.866
REMARK  3 active torsions:
REMARK  status: ('A' for Active; 'I' for Inactive)
REMARK    1  A    between atoms: C1_2  and  C2_4 
REMARK    2  A    between atoms: C7_10  and  N1_11 
REMARK    3  A    between atoms: N1_11  and  C8_13 
ROOT
HETATM    1  C2  UNL     1      41.230  -1.050  91.406  1.00  0.00     0.068 A 
HETATM    2  C3  UNL     1      41.801  -2.347  91.348  1.00  0.00     0.040 A 
HETATM    3  C4  UNL     1      43.156  -2.517  91.284  1.00  0.00     0.012 A 
HETATM    4 BR1  UNL     1      43.868  -4.285  91.208  1.00  0.00    -0.051 Br
HETATM    5  C5  UNL     1      43.974  -1.410  91.276  1.00  0.00     0.021 A 
HETATM    6  C6  UNL     1      43.440  -0.141  91.332  1.00  0.00     0.031 A 
HETATM    7  C7  UNL     1      42.058   0.024  91.397  1.00  0.00     0.045 A 
ENDROOT
BRANCH   7   8
HETATM    8  N1  UNL     1      41.554   1.348  91.477  1.00  0.00    -0.383 N 
ATOM      9  H1  UNL     1      41.370   1.881  90.627  1.00  0.00     0.160 HD
BRANCH   8  10
HETATM   10  C8  UNL     1      41.299   1.945  92.799  1.00  0.00     0.107 C 
HETATM   11  C9  UNL     1      42.526   2.619  93.353  1.00  0.00     0.028 C 
HETATM   12  C10 UNL     1      42.224   4.125  93.301  1.00  0.00     0.029 C 
HETATM   13  C11 UNL     1      41.130   4.355  94.322  1.00  0.00     0.232 C 
HETATM   14  N2  UNL     1      39.953   3.660  93.885  1.00  0.00    -0.073 N 
HETATM   15  C12 UNL     1      40.137   2.897  92.672  1.00  0.00     0.257 C 
ATOM     16  H22 UNL     1      39.591   3.065  94.631  1.00  0.00     0.277 HD
ATOM     17  H21 UNL     1      39.171   4.308  93.785  1.00  0.00     0.277 HD
ENDBRANCH   8  10
ENDBRANCH   7   8
BRANCH   1  18
HETATM   18  C1  UNL     1      39.791  -0.968  91.458  1.00  0.00     0.211 C 
HETATM   19  O1  UNL     1      39.181  -0.296  90.570  1.00  0.00    -0.644 OA
HETATM   20  O2  UNL     1      39.031  -1.572  92.412  1.00  0.00    -0.644 OA
ENDBRANCH   1  18
TORSDOF 3
ENDMDL
