MODEL 10
REMARK VINA RESULT: -7.165591930      2.537      3.373
REMARK  3 active torsions:
REMARK  status: ('A' for Active; 'I' for Inactive)
REMARK    1  A    between atoms: C1_2  and  C2_4 
REMARK    2  A    between atoms: C7_10  and  N1_11 
REMARK    3  A    between atoms: N1_11  and  C8_13 
ROOT
HETATM    1  C2  UNL     1      41.357   3.430  94.069  1.00  0.00     0.068 A 
HETATM    2  C3  UNL     1      42.140   4.608  93.968  1.00  0.00     0.040 A 
HETATM    3  C4  UNL     1      43.392   4.576  93.420  1.00  0.00     0.012 A 
HETATM    4 BR1  UNL     1      44.401   6.191  93.310  1.00  0.00    -0.051 Br
HETATM    5  C5  UNL     1      43.896   3.380  92.963  1.00  0.00     0.021 A 
HETATM    6  C6  UNL     1      43.152   2.222  93.051  1.00  0.00     0.031 A 
HETATM    7  C7  UNL     1      41.876   2.264  93.609  1.00  0.00     0.045 A 
ENDROOT
BRANCH   7   8
HETATM    8  N1  UNL     1      41.137   1.054  93.658  1.00  0.00    -0.383 N 
ATOM      9  H1  UNL     1      40.795   0.695  94.549  1.00  0.00     0.160 HD
BRANCH   8  10
HETATM   10  C8  UNL     1      40.868   0.321  92.408  1.00  0.00     0.107 C 
HETATM   11  C9  UNL     1      40.533  -1.123  92.669  1.00  0.00     0.028 C 
HETATM   12  C10 UNL     1      39.036  -1.260  92.346  1.00  0.00     0.029 C 
HETATM   13  C11 UNL     1      38.927  -1.075  90.847  1.00  0.00     0.232 C 
HETATM   14  N2  UNL     1      39.318   0.268  90.530  1.00  0.00    -0.073 N 
HETATM   15  C12 UNL     1      39.764   1.036  91.670  1.00  0.00     0.257 C 
ATOM     16  H22 UNL     1      40.028   0.271  89.797  1.00  0.00     0.277 HD
ATOM     17  H21 UNL     1      38.565   0.755  90.044  1.00  0.00     0.277 HD
ENDBRANCH   8  10
ENDBRANCH   7   8
BRANCH   1  18
HETATM   18  C1  UNL     1      40.053   3.558  94.672  1.00  0.00     0.211 C 
HETATM   19  O1  UNL     1      39.866   3.091  95.838  1.00  0.00    -0.644 OA
HETATM   20  O2  UNL     1      38.991   4.156  94.064  1.00  0.00    -0.644 OA
ENDBRANCH   1  18
TORSDOF 3
ENDMDL
