MODEL 4
REMARK VINA RESULT: -7.295940699      0.891      1.953
REMARK  4 active torsions:
REMARK  status: ('A' for Active; 'I' for Inactive)
REMARK    1  A    between atoms: C2_2  and  O1_3 
REMARK    2  A    between atoms: C2_2  and  C10_16 
REMARK    3  A    between atoms: O1_3  and  C3_4 
REMARK       I    between atoms: C3_4  and  N1_6 
REMARK    4  A    between atoms: N1_6  and  C4_8 
ROOT
HETATM    1  C1  UNL     1      29.484  -4.674  17.687  1.00  0.00     0.048 C 
HETATM    2  C2  UNL     1      30.923  -5.094  17.892  1.00  0.00     0.197 C 
ENDROOT
BRANCH   2   3
HETATM    3  O1  UNL     1      31.037  -5.665  19.174  1.00  0.00    -0.291 OA
BRANCH   3   4
HETATM    4  C3  UNL     1      30.025  -5.502  20.141  1.00  0.00     0.365 C 
HETATM    5  O2  UNL     1      29.232  -6.451  20.235  1.00  0.00    -0.238 OA
HETATM    6  N1  UNL     1      29.950  -4.334  20.926  1.00  0.00    -0.303 N 
ATOM      7  H1  UNL     1      30.657  -3.616  20.770  1.00  0.00     0.171 HD
BRANCH   6   8
HETATM    8  C4  UNL     1      28.972  -4.081  21.911  1.00  0.00     0.038 A 
HETATM    9  C5  UNL     1      27.772  -3.503  21.599  1.00  0.00     0.031 A 
HETATM   10  C6  UNL     1      26.838  -3.294  22.612  1.00  0.00     0.028 A 
HETATM   11  C7  UNL     1      27.120  -3.660  23.895  1.00  0.00     0.055 A 
HETATM   12 CL1  UNL     1      25.928  -3.387  25.163  1.00  0.00    -0.083 Cl
HETATM   13  C8  UNL     1      28.333  -4.242  24.206  1.00  0.00     0.058 A 
HETATM   14 CL2  UNL     1      28.637  -4.689  25.869  1.00  0.00    -0.082 Cl
HETATM   15  C9  UNL     1      29.256  -4.454  23.231  1.00  0.00     0.055 A 
ENDBRANCH   6   8
ENDBRANCH   3   4
ENDBRANCH   2   3
BRANCH   2  16
HETATM   16  C10 UNL     1      31.855  -3.922  17.753  1.00  0.00     0.112 A 
HETATM   17  N2  UNL     1      31.499  -2.627  17.682  1.00  0.00    -0.342 N 
HETATM   18  C11 UNL     1      32.591  -1.851  17.560  1.00  0.00     0.060 A 
ATOM     19  H2  UNL     1      30.539  -2.283  17.715  1.00  0.00     0.167 HD
HETATM   20  C12 UNL     1      32.822  -0.495  17.449  1.00  0.00     0.032 A 
HETATM   21  C16 UNL     1      33.688  -2.688  17.553  1.00  0.00     0.060 A 
HETATM   22  C13 UNL     1      34.102   0.025  17.335  1.00  0.00     0.002 A 
HETATM   23  C14 UNL     1      35.195  -0.817  17.330  1.00  0.00     0.002 A 
HETATM   24  C15 UNL     1      34.984  -2.174  17.440  1.00  0.00     0.032 A 
HETATM   25  N3  UNL     1      33.197  -3.937  17.672  1.00  0.00    -0.342 N 
ATOM     26  H3  UNL     1      33.768  -4.781  17.698  1.00  0.00     0.167 HD
ENDBRANCH   2  16
TORSDOF 4
ENDMDL
