MODEL 3
REMARK VINA RESULT: -7.301815585      0.895      1.558
REMARK  4 active torsions:
REMARK  status: ('A' for Active; 'I' for Inactive)
REMARK    1  A    between atoms: C2_2  and  O1_3 
REMARK    2  A    between atoms: C2_2  and  C10_16 
REMARK    3  A    between atoms: O1_3  and  C3_4 
REMARK       I    between atoms: C3_4  and  N1_6 
REMARK    4  A    between atoms: N1_6  and  C4_8 
ROOT
HETATM    1  C1  UNL     1      29.468  -4.709  17.700  1.00  0.00     0.048 C 
HETATM    2  C2  UNL     1      30.911  -5.121  17.899  1.00  0.00     0.197 C 
ENDROOT
BRANCH   2   3
HETATM    3  O1  UNL     1      31.033  -5.693  19.179  1.00  0.00    -0.291 OA
BRANCH   3   4
HETATM    4  C3  UNL     1      30.030  -5.526  20.156  1.00  0.00     0.365 C 
HETATM    5  O2  UNL     1      29.251  -6.484  20.275  1.00  0.00    -0.238 OA
HETATM    6  N1  UNL     1      29.947  -4.345  20.920  1.00  0.00    -0.303 N 
ATOM      7  H1  UNL     1      30.643  -3.620  20.743  1.00  0.00     0.171 HD
BRANCH   6   8
HETATM    8  C4  UNL     1      28.978  -4.087  21.911  1.00  0.00     0.038 A 
HETATM    9  C5  UNL     1      27.781  -3.496  21.609  1.00  0.00     0.031 A 
HETATM   10  C6  UNL     1      26.855  -3.283  22.628  1.00  0.00     0.028 A 
HETATM   11  C7  UNL     1      27.141  -3.659  23.908  1.00  0.00     0.055 A 
HETATM   12 CL1  UNL     1      25.957  -3.381  25.183  1.00  0.00    -0.083 Cl
HETATM   13  C8  UNL     1      28.349  -4.255  24.208  1.00  0.00     0.058 A 
HETATM   14 CL2  UNL     1      28.657  -4.714  25.868  1.00  0.00    -0.082 Cl
HETATM   15  C9  UNL     1      29.265  -4.471  23.228  1.00  0.00     0.055 A 
ENDBRANCH   6   8
ENDBRANCH   3   4
ENDBRANCH   2   3
BRANCH   2  16
HETATM   16  C10 UNL     1      31.835  -3.943  17.757  1.00  0.00     0.112 A 
HETATM   17  N2  UNL     1      33.176  -3.989  17.671  1.00  0.00    -0.342 N 
HETATM   18  C11 UNL     1      33.677  -2.746  17.553  1.00  0.00     0.060 A 
ATOM     19  H2  UNL     1      33.732  -4.843  17.693  1.00  0.00     0.167 HD
HETATM   20  C12 UNL     1      34.942  -2.207  17.432  1.00  0.00     0.032 A 
HETATM   21  C16 UNL     1      32.609  -1.872  17.564  1.00  0.00     0.060 A 
HETATM   22  C13 UNL     1      35.150  -0.841  17.325  1.00  0.00     0.002 A 
HETATM   23  C14 UNL     1      34.079   0.028  17.335  1.00  0.00     0.002 A 
HETATM   24  C15 UNL     1      32.808  -0.492  17.454  1.00  0.00     0.032 A 
HETATM   25  N3  UNL     1      31.509  -2.639  17.689  1.00  0.00    -0.342 N 
ATOM     26  H3  UNL     1      30.555  -2.280  17.727  1.00  0.00     0.167 HD
ENDBRANCH   2  16
TORSDOF 4
ENDMDL
