MODEL 10
REMARK VINA RESULT: -6.524122072      4.158      7.719
REMARK  4 active torsions:
REMARK  status: ('A' for Active; 'I' for Inactive)
REMARK    1  A    between atoms: C2_2  and  O1_3 
REMARK    2  A    between atoms: C2_2  and  C10_16 
REMARK    3  A    between atoms: O1_3  and  C3_4 
REMARK       I    between atoms: C3_4  and  N1_6 
REMARK    4  A    between atoms: N1_6  and  C4_8 
ROOT
HETATM    1  C1  UNL     1      32.023  -5.596  18.251  1.00  0.00     0.048 C 
HETATM    2  C2  UNL     1      30.540  -5.380  18.044  1.00  0.00     0.197 C 
ENDROOT
BRANCH   2   3
HETATM    3  O1  UNL     1      30.369  -4.242  17.233  1.00  0.00    -0.291 OA
BRANCH   3   4
HETATM    4  C3  UNL     1      31.451  -3.391  16.927  1.00  0.00     0.365 C 
HETATM    5  O2  UNL     1      31.954  -3.566  15.806  1.00  0.00    -0.238 OA
HETATM    6  N1  UNL     1      31.901  -2.425  17.848  1.00  0.00    -0.303 N 
ATOM      7  H1  UNL     1      31.411  -2.363  18.741  1.00  0.00     0.171 HD
BRANCH   6   8
HETATM    8  C4  UNL     1      32.975  -1.538  17.633  1.00  0.00     0.038 A 
HETATM    9  C5  UNL     1      32.772  -0.200  17.429  1.00  0.00     0.031 A 
HETATM   10  C6  UNL     1      33.875   0.631  17.239  1.00  0.00     0.028 A 
HETATM   11  C7  UNL     1      35.137   0.113  17.255  1.00  0.00     0.055 A 
HETATM   12 CL1  UNL     1      36.520   1.179  17.013  1.00  0.00    -0.083 Cl
HETATM   13  C8  UNL     1      35.338  -1.237  17.461  1.00  0.00     0.058 A 
HETATM   14 CL2  UNL     1      36.979  -1.840  17.471  1.00  0.00    -0.082 Cl
HETATM   15  C9  UNL     1      34.274  -2.063  17.648  1.00  0.00     0.055 A 
ENDBRANCH   6   8
ENDBRANCH   3   4
ENDBRANCH   2   3
BRANCH   2  16
HETATM   16  C10 UNL     1      29.831  -5.201  19.359  1.00  0.00     0.112 A 
HETATM   17  N2  UNL     1      29.777  -6.095  20.362  1.00  0.00    -0.342 N 
HETATM   18  C11 UNL     1      29.058  -5.602  21.386  1.00  0.00     0.060 A 
ATOM     19  H2  UNL     1      30.219  -7.014  20.348  1.00  0.00     0.167 HD
HETATM   20  C12 UNL     1      28.683  -6.062  22.632  1.00  0.00     0.032 A 
HETATM   21  C16 UNL     1      28.636  -4.340  21.018  1.00  0.00     0.060 A 
HETATM   22  C13 UNL     1      27.913  -5.299  23.496  1.00  0.00     0.002 A 
HETATM   23  C14 UNL     1      27.495  -4.038  23.123  1.00  0.00     0.002 A 
HETATM   24  C15 UNL     1      27.860  -3.561  21.882  1.00  0.00     0.032 A 
HETATM   25  N3  UNL     1      29.127  -4.135  19.781  1.00  0.00    -0.342 N 
ATOM     26  H3  UNL     1      28.984  -3.285  19.236  1.00  0.00     0.167 HD
ENDBRANCH   2  16
TORSDOF 4
ENDMDL
