MODEL 1
REMARK VINA RESULT: -7.779673929      0.000      0.000
REMARK  4 active torsions:
REMARK  status: ('A' for Active; 'I' for Inactive)
REMARK    1  A    between atoms: C2_2  and  O1_3 
REMARK    2  A    between atoms: C2_2  and  C10_16 
REMARK    3  A    between atoms: O1_3  and  C3_4 
REMARK       I    between atoms: C3_4  and  N1_6 
REMARK    4  A    between atoms: N1_6  and  C4_8 
ROOT
HETATM    1  C1  UNL     1      30.571  -5.936  16.507  1.00  0.00     0.048 C 
HETATM    2  C2  UNL     1      30.853  -5.306  17.854  1.00  0.00     0.197 C 
ENDROOT
BRANCH   2   3
HETATM    3  O1  UNL     1      29.629  -4.896  18.415  1.00  0.00    -0.291 OA
BRANCH   3   4
HETATM    4  C3  UNL     1      29.430  -4.880  19.810  1.00  0.00     0.365 C 
HETATM    5  O2  UNL     1      29.873  -5.869  20.414  1.00  0.00    -0.238 OA
HETATM    6  N1  UNL     1      28.774  -3.803  20.440  1.00  0.00    -0.303 N 
ATOM      7  H1  UNL     1      28.454  -3.037  19.848  1.00  0.00     0.171 HD
BRANCH   6   8
HETATM    8  C4  UNL     1      28.526  -3.704  21.825  1.00  0.00     0.038 A 
HETATM    9  C5  UNL     1      29.522  -3.877  22.747  1.00  0.00     0.031 A 
HETATM   10  C6  UNL     1      29.219  -3.749  24.102  1.00  0.00     0.028 A 
HETATM   11  C7  UNL     1      27.947  -3.456  24.498  1.00  0.00     0.055 A 
HETATM   12 CL1  UNL     1      27.583  -3.297  26.215  1.00  0.00    -0.083 Cl
HETATM   13  C8  UNL     1      26.946  -3.282  23.564  1.00  0.00     0.058 A 
HETATM   14 CL2  UNL     1      25.336  -2.907  24.134  1.00  0.00    -0.082 Cl
HETATM   15  C9  UNL     1      27.222  -3.403  22.239  1.00  0.00     0.055 A 
ENDBRANCH   6   8
ENDBRANCH   3   4
ENDBRANCH   2   3
BRANCH   2  16
HETATM   16  C10 UNL     1      31.789  -4.137  17.720  1.00  0.00     0.112 A 
HETATM   17  N2  UNL     1      33.131  -4.195  17.651  1.00  0.00    -0.342 N 
HETATM   18  C11 UNL     1      33.645  -2.957  17.535  1.00  0.00     0.060 A 
ATOM     19  H2  UNL     1      33.679  -5.055  17.683  1.00  0.00     0.167 HD
HETATM   20  C12 UNL     1      34.916  -2.430  17.428  1.00  0.00     0.032 A 
HETATM   21  C16 UNL     1      32.585  -2.074  17.528  1.00  0.00     0.060 A 
HETATM   22  C13 UNL     1      35.138  -1.066  17.318  1.00  0.00     0.002 A 
HETATM   23  C14 UNL     1      34.074  -0.188  17.312  1.00  0.00     0.002 A 
HETATM   24  C15 UNL     1      32.797  -0.696  17.417  1.00  0.00     0.032 A 
HETATM   25  N3  UNL     1      31.476  -2.831  17.643  1.00  0.00    -0.342 N 
ATOM     26  H3  UNL     1      30.526  -2.462  17.667  1.00  0.00     0.167 HD
ENDBRANCH   2  16
TORSDOF 4
ENDMDL
