MODEL 8
REMARK VINA RESULT: -6.768865458      6.714      9.093
REMARK  4 active torsions:
REMARK  status: ('A' for Active; 'I' for Inactive)
REMARK    1  A    between atoms: C2_2  and  O1_3 
REMARK    2  A    between atoms: C2_2  and  C10_16 
REMARK    3  A    between atoms: O1_3  and  C3_4 
REMARK       I    between atoms: C3_4  and  N1_6 
REMARK    4  A    between atoms: N1_6  and  C4_8 
ROOT
HETATM    1  C1  UNL     1      30.828  -6.954  23.620  1.00  0.00     0.048 C 
HETATM    2  C2  UNL     1      30.609  -5.876  24.660  1.00  0.00     0.197 C 
ENDROOT
BRANCH   2   3
HETATM    3  O1  UNL     1      30.528  -6.492  25.923  1.00  0.00    -0.291 OA
BRANCH   3   4
HETATM    4  C3  UNL     1      31.685  -6.915  26.608  1.00  0.00     0.365 C 
HETATM    5  O2  UNL     1      31.637  -8.072  27.053  1.00  0.00    -0.238 OA
HETATM    6  N1  UNL     1      32.796  -6.061  26.757  1.00  0.00    -0.303 N 
ATOM      7  H1  UNL     1      32.732  -5.130  26.346  1.00  0.00     0.171 HD
BRANCH   6   8
HETATM    8  C4  UNL     1      33.990  -6.394  27.429  1.00  0.00     0.038 A 
HETATM    9  C5  UNL     1      35.059  -6.937  26.769  1.00  0.00     0.031 A 
HETATM   10  C6  UNL     1      36.219  -7.230  27.485  1.00  0.00     0.028 A 
HETATM   11  C7  UNL     1      36.283  -6.977  28.824  1.00  0.00     0.055 A 
HETATM   12 CL1  UNL     1      37.758  -7.353  29.712  1.00  0.00    -0.083 Cl
HETATM   13  C8  UNL     1      35.203  -6.430  29.486  1.00  0.00     0.058 A 
HETATM   14 CL2  UNL     1      35.347  -6.129  31.203  1.00  0.00    -0.082 Cl
HETATM   15  C9  UNL     1      34.063  -6.138  28.805  1.00  0.00     0.055 A 
ENDBRANCH   6   8
ENDBRANCH   3   4
ENDBRANCH   2   3
BRANCH   2  16
HETATM   16  C10 UNL     1      29.357  -5.094  24.373  1.00  0.00     0.112 A 
HETATM   17  N2  UNL     1      28.394  -4.781  25.258  1.00  0.00    -0.342 N 
HETATM   18  C11 UNL     1      27.420  -4.075  24.656  1.00  0.00     0.060 A 
ATOM     19  H2  UNL     1      28.401  -5.042  26.244  1.00  0.00     0.167 HD
HETATM   20  C12 UNL     1      26.229  -3.507  25.058  1.00  0.00     0.032 A 
HETATM   21  C16 UNL     1      27.780  -3.932  23.331  1.00  0.00     0.060 A 
HETATM   22  C13 UNL     1      25.411  -2.815  24.178  1.00  0.00     0.002 A 
HETATM   23  C14 UNL     1      25.776  -2.675  22.856  1.00  0.00     0.002 A 
HETATM   24  C15 UNL     1      26.963  -3.235  22.435  1.00  0.00     0.032 A 
HETATM   25  N3  UNL     1      28.962  -4.565  23.201  1.00  0.00    -0.342 N 
ATOM     26  H3  UNL     1      29.488  -4.634  22.330  1.00  0.00     0.167 HD
ENDBRANCH   2  16
TORSDOF 4
ENDMDL
