MODEL 5
REMARK VINA RESULT: -7.160909402      1.220      1.741
REMARK  4 active torsions:
REMARK  status: ('A' for Active; 'I' for Inactive)
REMARK    1  A    between atoms: C2_2  and  O1_3 
REMARK    2  A    between atoms: C2_2  and  C10_16 
REMARK    3  A    between atoms: O1_3  and  C3_4 
REMARK       I    between atoms: C3_4  and  N1_6 
REMARK    4  A    between atoms: N1_6  and  C4_8 
ROOT
HETATM    1  C1  UNL     1      31.477  -5.272  16.397  1.00  0.00     0.048 C 
HETATM    2  C2  UNL     1      31.476  -4.521  17.711  1.00  0.00     0.197 C 
ENDROOT
BRANCH   2   3
HETATM    3  O1  UNL     1      30.144  -4.210  18.041  1.00  0.00    -0.291 OA
BRANCH   3   4
HETATM    4  C3  UNL     1      29.533  -4.739  19.196  1.00  0.00     0.365 C 
HETATM    5  O2  UNL     1      29.386  -5.971  19.195  1.00  0.00    -0.238 OA
HETATM    6  N1  UNL     1      29.131  -3.901  20.255  1.00  0.00    -0.303 N 
ATOM      7  H1  UNL     1      29.304  -2.900  20.155  1.00  0.00     0.171 HD
BRANCH   6   8
HETATM    8  C4  UNL     1      28.508  -4.337  21.443  1.00  0.00     0.038 A 
HETATM    9  C5  UNL     1      28.878  -5.500  22.061  1.00  0.00     0.031 A 
HETATM   10  C6  UNL     1      28.238  -5.871  23.243  1.00  0.00     0.028 A 
HETATM   11  C7  UNL     1      27.257  -5.084  23.771  1.00  0.00     0.055 A 
HETATM   12 CL1  UNL     1      26.460  -5.568  25.266  1.00  0.00    -0.083 Cl
HETATM   13  C8  UNL     1      26.888  -3.911  23.144  1.00  0.00     0.058 A 
HETATM   14 CL2  UNL     1      25.625  -2.944  23.870  1.00  0.00    -0.082 Cl
HETATM   15  C9  UNL     1      27.500  -3.533  21.991  1.00  0.00     0.055 A 
ENDBRANCH   6   8
ENDBRANCH   3   4
ENDBRANCH   2   3
BRANCH   2  16
HETATM   16  C10 UNL     1      32.302  -3.267  17.618  1.00  0.00     0.112 A 
HETATM   17  N2  UNL     1      31.835  -2.006  17.595  1.00  0.00    -0.342 N 
HETATM   18  C11 UNL     1      32.855  -1.134  17.506  1.00  0.00     0.060 A 
ATOM     19  H2  UNL     1      30.849  -1.749  17.640  1.00  0.00     0.167 HD
HETATM   20  C12 UNL     1      32.968   0.240  17.447  1.00  0.00     0.032 A 
HETATM   21  C16 UNL     1      34.021  -1.872  17.470  1.00  0.00     0.060 A 
HETATM   22  C13 UNL     1      34.197   0.873  17.356  1.00  0.00     0.002 A 
HETATM   23  C14 UNL     1      35.359   0.131  17.322  1.00  0.00     0.002 A 
HETATM   24  C15 UNL     1      35.267  -1.243  17.379  1.00  0.00     0.032 A 
HETATM   25  N3  UNL     1      33.641  -3.162  17.541  1.00  0.00    -0.342 N 
ATOM     26  H3  UNL     1      34.283  -3.954  17.536  1.00  0.00     0.167 HD
ENDBRANCH   2  16
TORSDOF 4
ENDMDL
