MODEL 9
REMARK VINA RESULT: -6.713121594      6.912      9.204
REMARK  4 active torsions:
REMARK  status: ('A' for Active; 'I' for Inactive)
REMARK    1  A    between atoms: C2_2  and  O1_3 
REMARK    2  A    between atoms: C2_2  and  C10_16 
REMARK    3  A    between atoms: O1_3  and  C3_4 
REMARK       I    between atoms: C3_4  and  N1_6 
REMARK    4  A    between atoms: N1_6  and  C4_8 
ROOT
HETATM    1  C1  UNL     1      30.863  -6.980  23.838  1.00  0.00     0.048 C 
HETATM    2  C2  UNL     1      30.635  -5.854  24.822  1.00  0.00     0.197 C 
ENDROOT
BRANCH   2   3
HETATM    3  O1  UNL     1      30.541  -6.408  26.112  1.00  0.00    -0.291 OA
BRANCH   3   4
HETATM    4  C3  UNL     1      31.688  -6.830  26.814  1.00  0.00     0.365 C 
HETATM    5  O2  UNL     1      31.686  -8.023  27.155  1.00  0.00    -0.238 OA
HETATM    6  N1  UNL     1      32.742  -5.936  27.091  1.00  0.00    -0.303 N 
ATOM      7  H1  UNL     1      32.643  -4.976  26.761  1.00  0.00     0.171 HD
BRANCH   6   8
HETATM    8  C4  UNL     1      33.922  -6.265  27.790  1.00  0.00     0.038 A 
HETATM    9  C5  UNL     1      34.020  -6.108  29.146  1.00  0.00     0.031 A 
HETATM   10  C6  UNL     1      35.207  -6.467  29.784  1.00  0.00     0.028 A 
HETATM   11  C7  UNL     1      36.252  -6.967  29.064  1.00  0.00     0.055 A 
HETATM   12 CL1  UNL     1      37.743  -7.415  29.887  1.00  0.00    -0.083 Cl
HETATM   13  C8  UNL     1      36.147  -7.123  27.696  1.00  0.00     0.058 A 
HETATM   14 CL2  UNL     1      37.521  -7.769  26.828  1.00  0.00    -0.082 Cl
HETATM   15  C9  UNL     1      34.999  -6.778  27.056  1.00  0.00     0.055 A 
ENDBRANCH   6   8
ENDBRANCH   3   4
ENDBRANCH   2   3
BRANCH   2  16
HETATM   16  C10 UNL     1      29.385  -5.086  24.486  1.00  0.00     0.112 A 
HETATM   17  N2  UNL     1      29.061  -4.582  23.283  1.00  0.00    -0.342 N 
HETATM   18  C11 UNL     1      27.872  -3.955  23.346  1.00  0.00     0.060 A 
ATOM     19  H2  UNL     1      29.634  -4.663  22.443  1.00  0.00     0.167 HD
HETATM   20  C12 UNL     1      27.072  -3.277  22.449  1.00  0.00     0.032 A 
HETATM   21  C16 UNL     1      27.421  -4.067  24.645  1.00  0.00     0.060 A 
HETATM   22  C13 UNL     1      25.858  -2.723  22.821  1.00  0.00     0.002 A 
HETATM   23  C14 UNL     1      25.412  -2.838  24.121  1.00  0.00     0.002 A 
HETATM   24  C15 UNL     1      26.197  -3.512  25.031  1.00  0.00     0.032 A 
HETATM   25  N3  UNL     1      28.369  -4.760  25.305  1.00  0.00    -0.342 N 
ATOM     26  H3  UNL     1      28.322  -5.006  26.293  1.00  0.00     0.167 HD
ENDBRANCH   2  16
TORSDOF 4
ENDMDL
