MODEL 2
REMARK VINA RESULT: -7.769911953      0.024      1.176
REMARK  4 active torsions:
REMARK  status: ('A' for Active; 'I' for Inactive)
REMARK    1  A    between atoms: C2_2  and  O1_3 
REMARK    2  A    between atoms: C2_2  and  C10_16 
REMARK    3  A    between atoms: O1_3  and  C3_4 
REMARK       I    between atoms: C3_4  and  N1_6 
REMARK    4  A    between atoms: N1_6  and  C4_8 
ROOT
HETATM    1  C1  UNL     1      30.575  -5.934  16.506  1.00  0.00     0.048 C 
HETATM    2  C2  UNL     1      30.860  -5.308  17.855  1.00  0.00     0.197 C 
ENDROOT
BRANCH   2   3
HETATM    3  O1  UNL     1      29.638  -4.888  18.413  1.00  0.00    -0.291 OA
BRANCH   3   4
HETATM    4  C3  UNL     1      29.435  -4.876  19.808  1.00  0.00     0.365 C 
HETATM    5  O2  UNL     1      29.875  -5.867  20.410  1.00  0.00    -0.238 OA
HETATM    6  N1  UNL     1      28.778  -3.800  20.439  1.00  0.00    -0.303 N 
ATOM      7  H1  UNL     1      28.460  -3.032  19.848  1.00  0.00     0.171 HD
BRANCH   6   8
HETATM    8  C4  UNL     1      28.526  -3.704  21.823  1.00  0.00     0.038 A 
HETATM    9  C5  UNL     1      29.517  -3.887  22.748  1.00  0.00     0.031 A 
HETATM   10  C6  UNL     1      29.211  -3.762  24.102  1.00  0.00     0.028 A 
HETATM   11  C7  UNL     1      27.939  -3.463  24.495  1.00  0.00     0.055 A 
HETATM   12 CL1  UNL     1      27.571  -3.308  26.211  1.00  0.00    -0.083 Cl
HETATM   13  C8  UNL     1      26.942  -3.280  23.558  1.00  0.00     0.058 A 
HETATM   14 CL2  UNL     1      25.332  -2.898  24.125  1.00  0.00    -0.082 Cl
HETATM   15  C9  UNL     1      27.222  -3.398  22.233  1.00  0.00     0.055 A 
ENDBRANCH   6   8
ENDBRANCH   3   4
ENDBRANCH   2   3
BRANCH   2  16
HETATM   16  C10 UNL     1      31.806  -4.147  17.723  1.00  0.00     0.112 A 
HETATM   17  N2  UNL     1      31.467  -2.848  17.646  1.00  0.00    -0.342 N 
HETATM   18  C11 UNL     1      32.569  -2.085  17.535  1.00  0.00     0.060 A 
ATOM     19  H2  UNL     1      30.510  -2.493  17.668  1.00  0.00     0.167 HD
HETATM   20  C12 UNL     1      32.817  -0.732  17.425  1.00  0.00     0.032 A 
HETATM   21  C16 UNL     1      33.656  -2.935  17.543  1.00  0.00     0.060 A 
HETATM   22  C13 UNL     1      34.104  -0.227  17.324  1.00  0.00     0.002 A 
HETATM   23  C14 UNL     1      35.187  -1.081  17.333  1.00  0.00     0.002 A 
HETATM   24  C15 UNL     1      34.959  -2.436  17.443  1.00  0.00     0.032 A 
HETATM   25  N3  UNL     1      33.150  -4.178  17.659  1.00  0.00    -0.342 N 
ATOM     26  H3  UNL     1      33.710  -5.029  17.693  1.00  0.00     0.167 HD
ENDBRANCH   2  16
TORSDOF 4
ENDMDL
