MODEL 11
REMARK VINA RESULT: -6.999626433      1.640      2.116
REMARK  5 active torsions:
REMARK  status: ('A' for Active; 'I' for Inactive)
REMARK    1  A    between atoms: C2_2  and  C5_5 
REMARK    2  A    between atoms: C8_8  and  C9_9 
REMARK       I    between atoms: C9_9  and  N1_11 
REMARK    3  A    between atoms: N1_11  and  N2_13 
REMARK       I    between atoms: N2_13  and  C10_15 
REMARK       I    between atoms: C10_15  and  N3_17 
REMARK    4  A    between atoms: N3_17  and  C11_19 
REMARK    5  A    between atoms: C22_30  and  N4_31 
ROOT
HETATM    1  C9  UNL     1      30.192  -4.396  17.637  1.00  0.00     0.270 C 
HETATM    2  O1  UNL     1      29.291  -5.085  17.130  1.00  0.00    -0.266 OA
HETATM    3  N1  UNL     1      30.423  -4.462  19.053  1.00  0.00    -0.262 N 
ATOM      4  H1  UNL     1      31.169  -3.879  19.432  1.00  0.00     0.190 HD
ENDROOT
BRANCH   3   5
HETATM    5  N2  UNL     1      29.727  -5.243  19.938  1.00  0.00    -0.248 N 
HETATM    6  C10 UNL     1      29.504  -4.843  21.317  1.00  0.00     0.339 C 
HETATM    7  O2  UNL     1      29.949  -3.753  21.727  1.00  0.00    -0.245 OA
HETATM    8  N3  UNL     1      28.787  -5.683  22.195  1.00  0.00    -0.307 N 
ATOM      9  H3  UNL     1      28.449  -6.568  21.817  1.00  0.00     0.170 HD
ATOM     10  H2  UNL     1      29.351  -6.136  19.617  1.00  0.00     0.192 HD
BRANCH   8  11
HETATM   11  C11 UNL     1      28.494  -5.410  23.549  1.00  0.00     0.047 A 
HETATM   12  C12 UNL     1      29.191  -5.910  24.609  1.00  0.00     0.030 A 
HETATM   13  C13 UNL     1      28.857  -5.552  25.904  1.00  0.00     0.003 A 
HETATM   14  C14 UNL     1      27.831  -4.696  26.203  1.00  0.00     0.012 A 
HETATM   15  C15 UNL     1      27.111  -4.181  25.146  1.00  0.00    -0.024 A 
HETATM   16  C16 UNL     1      26.060  -3.317  25.423  1.00  0.00     0.012 A 
HETATM   17  C20 UNL     1      27.438  -4.533  23.833  1.00  0.00     0.001 A 
HETATM   18  C17 UNL     1      25.322  -2.795  24.397  1.00  0.00     0.001 A 
HETATM   19  C18 UNL     1      25.620  -3.123  23.105  1.00  0.00     0.001 A 
HETATM   20  C19 UNL     1      26.683  -3.996  22.831  1.00  0.00     0.014 A 
ENDBRANCH   8  11
ENDBRANCH   3   5
BRANCH   1  21
HETATM   21  C8  UNL     1      31.031  -3.516  16.841  1.00  0.00     0.036 A 
HETATM   22  C7  UNL     1      31.126  -3.675  15.463  1.00  0.00     0.018 A 
HETATM   23  C6  UNL     1      31.934  -2.856  14.710  1.00  0.00     0.011 A 
HETATM   24  C5  UNL     1      32.686  -1.839  15.302  1.00  0.00    -0.018 A 
HETATM   25  C22 UNL     1      32.603  -1.672  16.674  1.00  0.00     0.111 A 
HETATM   26  C21 UNL     1      31.761  -2.527  17.433  1.00  0.00     0.053 A 
BRANCH  24  27
HETATM   27  C2  UNL     1      33.479  -0.980  14.406  1.00  0.00    -0.022 C 
HETATM   28  C1  UNL     1      33.106  -1.310  12.950  1.00  0.00     0.019 C 
HETATM   29  C3  UNL     1      34.953  -1.114  14.534  1.00  0.00     0.019 C 
HETATM   30  C4  UNL     1      32.992   0.465  14.590  1.00  0.00     0.019 C 
ENDBRANCH  24  27
BRANCH  25  31
HETATM   31  N4  UNL     1      33.358  -0.734  17.385  1.00  0.00    -0.115 N 
HETATM   32  O3  UNL     1      34.540  -0.786  17.607  1.00  0.00    -0.532 OA
HETATM   33  O4  UNL     1      32.681   0.382  17.893  1.00  0.00    -0.532 OA
ENDBRANCH  25  31
ENDBRANCH   1  21
TORSDOF 5
ENDMDL
