MODEL 8
REMARK VINA RESULT: -7.076412178      3.865     10.250
REMARK  5 active torsions:
REMARK  status: ('A' for Active; 'I' for Inactive)
REMARK    1  A    between atoms: C2_2  and  C5_5 
REMARK    2  A    between atoms: C8_8  and  C9_9 
REMARK       I    between atoms: C9_9  and  N1_11 
REMARK    3  A    between atoms: N1_11  and  N2_13 
REMARK       I    between atoms: N2_13  and  C10_15 
REMARK       I    between atoms: C10_15  and  N3_17 
REMARK    4  A    between atoms: N3_17  and  C11_19 
REMARK    5  A    between atoms: C22_30  and  N4_31 
ROOT
HETATM    1  C9  UNL     1      29.661  -4.533  19.625  1.00  0.00     0.270 C 
HETATM    2  O1  UNL     1      30.724  -5.146  19.430  1.00  0.00    -0.266 OA
HETATM    3  N1  UNL     1      29.287  -3.466  18.738  1.00  0.00    -0.262 N 
ATOM      4  H1  UNL     1      28.409  -2.984  18.932  1.00  0.00     0.190 HD
ENDROOT
BRANCH   3   5
HETATM    5  N2  UNL     1      30.009  -3.042  17.654  1.00  0.00    -0.248 N 
HETATM    6  C10 UNL     1      30.048  -3.788  16.408  1.00  0.00     0.339 C 
HETATM    7  O2  UNL     1      29.405  -4.851  16.300  1.00  0.00    -0.245 OA
HETATM    8  N3  UNL     1      30.812  -3.316  15.319  1.00  0.00    -0.307 N 
ATOM      9  H3  UNL     1      31.328  -2.447  15.456  1.00  0.00     0.170 HD
ATOM     10  H2  UNL     1      30.537  -2.171  17.723  1.00  0.00     0.192 HD
BRANCH   8  11
HETATM   11  C11 UNL     1      30.928  -3.937  14.056  1.00  0.00     0.047 A 
HETATM   12  C12 UNL     1      31.356  -5.217  13.857  1.00  0.00     0.030 A 
HETATM   13  C13 UNL     1      31.396  -5.756  12.584  1.00  0.00     0.003 A 
HETATM   14  C14 UNL     1      31.019  -5.063  11.464  1.00  0.00     0.012 A 
HETATM   15  C15 UNL     1      30.585  -3.767  11.642  1.00  0.00    -0.024 A 
HETATM   16  C16 UNL     1      30.205  -3.040  10.521  1.00  0.00     0.012 A 
HETATM   17  C20 UNL     1      30.539  -3.209  12.923  1.00  0.00     0.001 A 
HETATM   18  C17 UNL     1      29.776  -1.748  10.664  1.00  0.00     0.001 A 
HETATM   19  C18 UNL     1      29.723  -1.179  11.904  1.00  0.00     0.001 A 
HETATM   20  C19 UNL     1      30.107  -1.919  13.032  1.00  0.00     0.014 A 
ENDBRANCH   8  11
ENDBRANCH   3   5
BRANCH   1  21
HETATM   21  C8  UNL     1      28.771  -4.858  20.726  1.00  0.00     0.036 A 
HETATM   22  C7  UNL     1      28.639  -6.169  21.171  1.00  0.00     0.018 A 
HETATM   23  C6  UNL     1      27.783  -6.483  22.202  1.00  0.00     0.011 A 
HETATM   24  C5  UNL     1      27.020  -5.499  22.834  1.00  0.00    -0.018 A 
HETATM   25  C22 UNL     1      27.142  -4.190  22.398  1.00  0.00     0.111 A 
HETATM   26  C21 UNL     1      28.031  -3.887  21.334  1.00  0.00     0.053 A 
BRANCH  24  27
HETATM   27  C2  UNL     1      26.174  -5.925  23.962  1.00  0.00    -0.022 C 
HETATM   28  C1  UNL     1      26.193  -7.462  24.038  1.00  0.00     0.019 C 
HETATM   29  C3  UNL     1      24.755  -5.495  23.892  1.00  0.00     0.019 C 
HETATM   30  C4  UNL     1      26.869  -5.486  25.259  1.00  0.00     0.019 C 
ENDBRANCH  24  27
BRANCH  25  31
HETATM   31  N4  UNL     1      26.381  -3.133  22.908  1.00  0.00    -0.115 N 
HETATM   32  O3  UNL     1      26.571  -2.548  23.941  1.00  0.00    -0.532 OA
HETATM   33  O4  UNL     1      25.285  -2.707  22.147  1.00  0.00    -0.532 OA
ENDBRANCH  25  31
ENDBRANCH   1  21
TORSDOF 5
ENDMDL
