MODEL 1
REMARK VINA RESULT: -7.365904944      0.000      0.000
REMARK  5 active torsions:
REMARK  status: ('A' for Active; 'I' for Inactive)
REMARK    1  A    between atoms: C2_2  and  C5_5 
REMARK    2  A    between atoms: C8_8  and  C9_9 
REMARK       I    between atoms: C9_9  and  N1_11 
REMARK    3  A    between atoms: N1_11  and  N2_13 
REMARK       I    between atoms: N2_13  and  C10_15 
REMARK       I    between atoms: C10_15  and  N3_17 
REMARK    4  A    between atoms: N3_17  and  C11_19 
REMARK    5  A    between atoms: C22_30  and  N4_31 
ROOT
HETATM    1  C9  UNL     1      31.537  -4.503  18.051  1.00  0.00     0.270 C 
HETATM    2  O1  UNL     1      31.363  -5.576  17.449  1.00  0.00    -0.266 OA
HETATM    3  N1  UNL     1      30.675  -4.157  19.147  1.00  0.00    -0.262 N 
ATOM      4  H1  UNL     1      30.847  -3.266  19.613  1.00  0.00     0.190 HD
ENDROOT
BRANCH   3   5
HETATM    5  N2  UNL     1      29.641  -4.922  19.618  1.00  0.00    -0.248 N 
HETATM    6  C10 UNL     1      29.281  -4.957  21.025  1.00  0.00     0.339 C 
HETATM    7  O2  UNL     1      29.918  -4.269  21.847  1.00  0.00    -0.245 OA
HETATM    8  N3  UNL     1      28.212  -5.766  21.467  1.00  0.00    -0.307 N 
ATOM      9  H3  UNL     1      27.725  -6.317  20.761  1.00  0.00     0.170 HD
ATOM     10  H2  UNL     1      29.105  -5.487  18.959  1.00  0.00     0.192 HD
BRANCH   8  11
HETATM   11  C11 UNL     1      27.755  -5.882  22.798  1.00  0.00     0.047 A 
HETATM   12  C12 UNL     1      28.093  -6.893  23.649  1.00  0.00     0.030 A 
HETATM   13  C13 UNL     1      27.630  -6.902  24.953  1.00  0.00     0.003 A 
HETATM   14  C14 UNL     1      26.822  -5.923  25.466  1.00  0.00     0.012 A 
HETATM   15  C15 UNL     1      26.465  -4.892  24.623  1.00  0.00    -0.024 A 
HETATM   16  C16 UNL     1      25.639  -3.892  25.118  1.00  0.00     0.012 A 
HETATM   17  C20 UNL     1      26.926  -4.871  23.304  1.00  0.00     0.001 A 
HETATM   18  C17 UNL     1      25.262  -2.859  24.303  1.00  0.00     0.001 A 
HETATM   19  C18 UNL     1      25.697  -2.815  23.010  1.00  0.00     0.001 A 
HETATM   20  C19 UNL     1      26.532  -3.828  22.517  1.00  0.00     0.014 A 
ENDBRANCH   8  11
ENDBRANCH   3   5
BRANCH   1  21
HETATM   21  C8  UNL     1      32.593  -3.575  17.685  1.00  0.00     0.036 A 
HETATM   22  C7  UNL     1      33.920  -3.987  17.639  1.00  0.00     0.018 A 
HETATM   23  C6  UNL     1      34.925  -3.106  17.311  1.00  0.00     0.011 A 
HETATM   24  C5  UNL     1      34.646  -1.771  17.015  1.00  0.00    -0.018 A 
HETATM   25  C22 UNL     1      33.329  -1.346  17.060  1.00  0.00     0.111 A 
HETATM   26  C21 UNL     1      32.307  -2.272  17.399  1.00  0.00     0.053 A 
BRANCH  24  27
HETATM   27  C2  UNL     1      35.782  -0.918  16.623  1.00  0.00    -0.022 C 
HETATM   28  C1  UNL     1      37.091  -1.651  16.969  1.00  0.00     0.019 C 
HETATM   29  C3  UNL     1      35.829   0.418  17.270  1.00  0.00     0.019 C 
HETATM   30  C4  UNL     1      35.801  -0.841  15.089  1.00  0.00     0.019 C 
ENDBRANCH  24  27
BRANCH  25  31
HETATM   31  N4  UNL     1      32.938  -0.020  16.850  1.00  0.00    -0.115 N 
HETATM   32  O3  UNL     1      32.775   0.518  15.786  1.00  0.00    -0.532 OA
HETATM   33  O4  UNL     1      32.711   0.769  17.985  1.00  0.00    -0.532 OA
ENDBRANCH  25  31
ENDBRANCH   1  21
TORSDOF 5
ENDMDL
