MODEL 4
REMARK VINA RESULT: -8.044008299      3.724      4.698
REMARK  3 active torsions:
REMARK  status: ('A' for Active; 'I' for Inactive)
REMARK    1  A    between atoms: C2_5  and  C3_6 
REMARK    2  A    between atoms: C3_6  and  N2_7 
REMARK    3  A    between atoms: C6_10  and  O2_11 
ROOT
HETATM    1  O1  UNL     1     -38.678  -3.756  -2.443  1.00  0.00    -0.267 OA
HETATM    2  C1  UNL     1     -39.253  -3.338  -1.414  1.00  0.00     0.266 A 
HETATM    3  N1  UNL     1     -38.516  -3.230  -0.279  1.00  0.00    -0.310 N 
ATOM      4  H1  UNL     1     -37.527  -3.475  -0.245  1.00  0.00     0.170 HD
HETATM    5  C2  UNL     1     -39.183  -2.775   0.797  1.00  0.00     0.113 A 
HETATM    6  N3  UNL     1     -40.455  -2.451   0.789  1.00  0.00    -0.342 N 
ATOM      7  H3  UNL     1     -40.870  -2.117   1.658  1.00  0.00     0.167 HD
HETATM    8  C8  UNL     1     -41.257  -2.534  -0.319  1.00  0.00     0.068 A 
HETATM    9  C9  UNL     1     -40.594  -2.994  -1.419  1.00  0.00     0.101 A 
HETATM   10  S1  UNL     1     -41.800  -3.000  -2.626  1.00  0.00    -0.082 SA
HETATM   11  C10 UNL     1     -43.111  -2.419  -1.701  1.00  0.00     0.018 A 
HETATM   12  C11 UNL     1     -44.445  -2.155  -2.007  1.00  0.00     0.021 A 
HETATM   13  C12 UNL     1     -45.299  -1.677  -1.027  1.00  0.00     0.025 A 
HETATM   14  C13 UNL     1     -44.770  -1.490   0.208  1.00  0.00     0.035 A 
HETATM   15 CL1  UNL     1     -45.882  -0.876   1.451  1.00  0.00    -0.084 Cl
HETATM   16  C14 UNL     1     -43.469  -1.750   0.493  1.00  0.00     0.039 A 
HETATM   17  C15 UNL     1     -42.564  -2.236  -0.464  1.00  0.00     0.011 A 
ENDROOT
BRANCH   5  18
HETATM   18  C3  UNL     1     -38.475  -2.606   2.111  1.00  0.00     0.348 C 
BRANCH  18  19
HETATM   19  N2  UNL     1     -38.946  -3.514   3.103  1.00  0.00     0.098 N 
HETATM   20  C4  UNL     1     -38.607  -3.047   4.410  1.00  0.00     0.275 C 
HETATM   21  C5  UNL     1     -37.553  -3.927   4.998  1.00  0.00     0.064 C 
HETATM   22  C6  UNL     1     -37.011  -4.674   3.803  1.00  0.00     0.148 C 
HETATM   23  C7  UNL     1     -38.253  -4.802   2.945  1.00  0.00     0.304 C 
BRANCH  22  24
HETATM   24  O2  UNL     1     -36.006  -3.970   3.162  1.00  0.00    -0.394 OA
ATOM     25  H2  UNL     1     -36.344  -3.432   2.455  1.00  0.00     0.210 HD
ENDBRANCH  22  24
ENDBRANCH  18  19
ENDBRANCH   5  18
TORSDOF 3
ENDMDL
