MODEL 14
REMARK VINA RESULT: -7.611040060      2.764      4.289
REMARK  3 active torsions:
REMARK  status: ('A' for Active; 'I' for Inactive)
REMARK    1  A    between atoms: C2_5  and  C3_6 
REMARK    2  A    between atoms: C3_6  and  N2_7 
REMARK    3  A    between atoms: C6_10  and  O2_11 
ROOT
HETATM    1  O1  UNL     1     -37.837  -2.492   3.672  1.00  0.00    -0.267 OA
HETATM    2  C1  UNL     1     -38.963  -2.313   3.157  1.00  0.00     0.266 A 
HETATM    3  N1  UNL     1     -39.965  -1.881   3.965  1.00  0.00    -0.310 N 
ATOM      4  H1  UNL     1     -39.826  -1.703   4.960  1.00  0.00     0.170 HD
HETATM    5  C2  UNL     1     -41.154  -1.704   3.360  1.00  0.00     0.113 A 
HETATM    6  N3  UNL     1     -41.367  -1.925   2.085  1.00  0.00    -0.342 N 
ATOM      7  H3  UNL     1     -42.306  -1.763   1.721  1.00  0.00     0.167 HD
HETATM    8  C8  UNL     1     -40.404  -2.360   1.213  1.00  0.00     0.068 A 
HETATM    9  C9  UNL     1     -39.193  -2.544   1.812  1.00  0.00     0.101 A 
HETATM   10  S1  UNL     1     -38.201  -3.075   0.528  1.00  0.00    -0.082 SA
HETATM   11  C10 UNL     1     -39.352  -3.049  -0.731  1.00  0.00     0.018 A 
HETATM   12  C11 UNL     1     -39.280  -3.358  -2.088  1.00  0.00     0.021 A 
HETATM   13  C12 UNL     1     -40.405  -3.240  -2.886  1.00  0.00     0.025 A 
HETATM   14  C13 UNL     1     -41.543  -2.817  -2.280  1.00  0.00     0.035 A 
HETATM   15 CL1  UNL     1     -42.976  -2.671  -3.322  1.00  0.00    -0.084 Cl
HETATM   16  C14 UNL     1     -41.600  -2.518  -0.958  1.00  0.00     0.039 A 
HETATM   17  C15 UNL     1     -40.488  -2.622  -0.107  1.00  0.00     0.011 A 
ENDROOT
BRANCH   5  18
HETATM   18  C3  UNL     1     -42.339  -1.223   4.148  1.00  0.00     0.348 C 
BRANCH  18  19
HETATM   19  N2  UNL     1     -43.453  -2.106   4.046  1.00  0.00     0.098 N 
HETATM   20  C4  UNL     1     -44.544  -1.460   3.385  1.00  0.00     0.275 C 
HETATM   21  C5  UNL     1     -45.638  -1.196   4.368  1.00  0.00     0.064 C 
HETATM   22  C6  UNL     1     -44.955  -1.349   5.706  1.00  0.00     0.148 C 
HETATM   23  C7  UNL     1     -43.937  -2.429   5.397  1.00  0.00     0.304 C 
BRANCH  22  24
HETATM   24  O2  UNL     1     -44.355  -0.172   6.120  1.00  0.00    -0.394 OA
ATOM     25  H2  UNL     1     -44.431  -0.046   7.059  1.00  0.00     0.210 HD
ENDBRANCH  22  24
ENDBRANCH  18  19
ENDBRANCH   5  18
TORSDOF 3
ENDMDL
