MODEL 13
REMARK VINA RESULT: -7.699521838      3.941      5.077
REMARK  3 active torsions:
REMARK  status: ('A' for Active; 'I' for Inactive)
REMARK    1  A    between atoms: C2_5  and  C3_6 
REMARK    2  A    between atoms: C3_6  and  N2_7 
REMARK    3  A    between atoms: C6_10  and  O2_11 
ROOT
HETATM    1  O1  UNL     1     -38.717  -3.696  -2.263  1.00  0.00    -0.267 OA
HETATM    2  C1  UNL     1     -39.319  -3.261  -1.256  1.00  0.00     0.266 A 
HETATM    3  N1  UNL     1     -38.606  -3.119  -0.109  1.00  0.00    -0.310 N 
ATOM      4  H1  UNL     1     -37.615  -3.352  -0.049  1.00  0.00     0.170 HD
HETATM    5  C2  UNL     1     -39.301  -2.647   0.942  1.00  0.00     0.113 A 
HETATM    6  N3  UNL     1     -40.576  -2.338   0.900  1.00  0.00    -0.342 N 
ATOM      7  H3  UNL     1     -41.013  -1.990   1.753  1.00  0.00     0.167 HD
HETATM    8  C8  UNL     1     -41.354  -2.456  -0.222  1.00  0.00     0.068 A 
HETATM    9  C9  UNL     1     -40.663  -2.933  -1.296  1.00  0.00     0.101 A 
HETATM   10  S1  UNL     1     -41.843  -2.980  -2.528  1.00  0.00    -0.082 SA
HETATM   11  C10 UNL     1     -43.179  -2.393  -1.644  1.00  0.00     0.018 A 
HETATM   12  C11 UNL     1     -44.509  -2.151  -1.984  1.00  0.00     0.021 A 
HETATM   13  C12 UNL     1     -45.389  -1.662  -1.033  1.00  0.00     0.025 A 
HETATM   14  C13 UNL     1     -44.888  -1.441   0.208  1.00  0.00     0.035 A 
HETATM   15 CL1  UNL     1     -46.033  -0.811   1.414  1.00  0.00    -0.084 Cl
HETATM   16  C14 UNL     1     -43.591  -1.679   0.527  1.00  0.00     0.039 A 
HETATM   17  C15 UNL     1     -42.660  -2.176  -0.401  1.00  0.00     0.011 A 
ENDROOT
BRANCH   5  18
HETATM   18  C3  UNL     1     -38.622  -2.440   2.267  1.00  0.00     0.348 C 
BRANCH  18  19
HETATM   19  N2  UNL     1     -37.313  -3.003   2.300  1.00  0.00     0.098 N 
HETATM   20  C4  UNL     1     -37.107  -3.719   3.519  1.00  0.00     0.275 C 
HETATM   21  C5  UNL     1     -36.135  -2.978   4.376  1.00  0.00     0.064 C 
HETATM   22  C6  UNL     1     -36.108  -1.597   3.768  1.00  0.00     0.148 C 
HETATM   23  C7  UNL     1     -36.322  -1.915   2.302  1.00  0.00     0.304 C 
BRANCH  22  24
HETATM   24  O2  UNL     1     -37.109  -0.786   4.275  1.00  0.00    -0.394 OA
ATOM     25  H2  UNL     1     -36.762   0.011   4.659  1.00  0.00     0.210 HD
ENDBRANCH  22  24
ENDBRANCH  18  19
ENDBRANCH   5  18
TORSDOF 3
ENDMDL
