MODEL 6
REMARK VINA RESULT: -7.970900335      3.771      4.838
REMARK  3 active torsions:
REMARK  status: ('A' for Active; 'I' for Inactive)
REMARK    1  A    between atoms: C2_5  and  C3_6 
REMARK    2  A    between atoms: C3_6  and  N2_7 
REMARK    3  A    between atoms: C6_10  and  O2_11 
ROOT
HETATM    1  O1  UNL     1     -39.811  -3.422  -3.437  1.00  0.00    -0.267 OA
HETATM    2  C1  UNL     1     -40.086  -3.125  -2.254  1.00  0.00     0.266 A 
HETATM    3  N1  UNL     1     -39.076  -3.151  -1.347  1.00  0.00    -0.310 N 
ATOM      4  H1  UNL     1     -38.120  -3.400  -1.600  1.00  0.00     0.170 HD
HETATM    5  C2  UNL     1     -39.426  -2.823  -0.089  1.00  0.00     0.113 A 
HETATM    6  N3  UNL     1     -40.645  -2.498   0.272  1.00  0.00    -0.342 N 
ATOM      7  H3  UNL     1     -40.810  -2.267   1.251  1.00  0.00     0.167 HD
HETATM    8  C8  UNL     1     -41.710  -2.451  -0.589  1.00  0.00     0.068 A 
HETATM    9  C9  UNL     1     -41.370  -2.782  -1.869  1.00  0.00     0.101 A 
HETATM   10  S1  UNL     1     -42.848  -2.645  -2.711  1.00  0.00    -0.082 SA
HETATM   11  C10 UNL     1     -43.854  -2.174  -1.416  1.00  0.00     0.018 A 
HETATM   12  C11 UNL     1     -45.213  -1.874  -1.331  1.00  0.00     0.021 A 
HETATM   13  C12 UNL     1     -45.768  -1.512  -0.115  1.00  0.00     0.025 A 
HETATM   14  C13 UNL     1     -44.930  -1.470   0.951  1.00  0.00     0.035 A 
HETATM   15 CL1  UNL     1     -45.661  -1.003   2.503  1.00  0.00    -0.084 Cl
HETATM   16  C14 UNL     1     -43.609  -1.764   0.856  1.00  0.00     0.039 A 
HETATM   17  C15 UNL     1     -42.999  -2.136  -0.354  1.00  0.00     0.011 A 
ENDROOT
BRANCH   5  18
HETATM   18  C3  UNL     1     -38.395  -2.808   1.004  1.00  0.00     0.348 C 
BRANCH  18  19
HETATM   19  N2  UNL     1     -38.956  -3.097   2.282  1.00  0.00     0.098 N 
HETATM   20  C4  UNL     1     -38.640  -2.059   3.212  1.00  0.00     0.275 C 
HETATM   21  C5  UNL     1     -37.662  -2.569   4.219  1.00  0.00     0.064 C 
HETATM   22  C6  UNL     1     -37.118  -3.824   3.577  1.00  0.00     0.148 C 
HETATM   23  C7  UNL     1     -38.332  -4.317   2.817  1.00  0.00     0.304 C 
BRANCH  22  24
HETATM   24  O2  UNL     1     -36.051  -3.557   2.737  1.00  0.00    -0.394 OA
ATOM     25  H2  UNL     1     -35.774  -2.650   2.790  1.00  0.00     0.210 HD
ENDBRANCH  22  24
ENDBRANCH  18  19
ENDBRANCH   5  18
TORSDOF 3
ENDMDL
