MODEL 3
REMARK VINA RESULT: -8.076900229      1.620      2.011
REMARK  3 active torsions:
REMARK  status: ('A' for Active; 'I' for Inactive)
REMARK    1  A    between atoms: C2_5  and  C3_6 
REMARK    2  A    between atoms: C3_6  and  N2_7 
REMARK    3  A    between atoms: C6_10  and  O2_11 
ROOT
HETATM    1  O1  UNL     1     -46.741  -0.808   1.491  1.00  0.00    -0.267 OA
HETATM    2  C1  UNL     1     -45.548  -1.158   1.633  1.00  0.00     0.266 A 
HETATM    3  N1  UNL     1     -45.032  -1.142   2.889  1.00  0.00    -0.310 N 
ATOM      4  H1  UNL     1     -45.580  -0.860   3.701  1.00  0.00     0.170 HD
HETATM    5  C2  UNL     1     -43.747  -1.528   2.985  1.00  0.00     0.113 A 
HETATM    6  N3  UNL     1     -43.013  -1.896   1.961  1.00  0.00    -0.342 N 
ATOM      7  H3  UNL     1     -42.046  -2.170   2.138  1.00  0.00     0.167 HD
HETATM    8  C8  UNL     1     -43.468  -1.936   0.670  1.00  0.00     0.068 A 
HETATM    9  C9  UNL     1     -44.771  -1.547   0.556  1.00  0.00     0.101 A 
HETATM   10  S1  UNL     1     -45.074  -1.688  -1.117  1.00  0.00    -0.082 SA
HETATM   11  C10 UNL     1     -43.539  -2.234  -1.625  1.00  0.00     0.018 A 
HETATM   12  C11 UNL     1     -43.017  -2.571  -2.873  1.00  0.00     0.021 A 
HETATM   13  C12 UNL     1     -41.703  -2.994  -2.983  1.00  0.00     0.025 A 
HETATM   14  C13 UNL     1     -40.983  -3.056  -1.835  1.00  0.00     0.035 A 
HETATM   15 CL1  UNL     1     -39.298  -3.601  -1.997  1.00  0.00    -0.084 Cl
HETATM   16  C14 UNL     1     -41.502  -2.726  -0.626  1.00  0.00     0.039 A 
HETATM   17  C15 UNL     1     -42.828  -2.292  -0.462  1.00  0.00     0.011 A 
ENDROOT
BRANCH   5  18
HETATM   18  C3  UNL     1     -43.064  -1.559   4.323  1.00  0.00     0.348 C 
BRANCH  18  19
HETATM   19  N2  UNL     1     -43.079  -2.858   4.910  1.00  0.00     0.098 N 
HETATM   20  C4  UNL     1     -44.421  -3.332   5.040  1.00  0.00     0.275 C 
HETATM   21  C5  UNL     1     -44.805  -3.356   6.484  1.00  0.00     0.064 C 
HETATM   22  C6  UNL     1     -43.762  -2.485   7.141  1.00  0.00     0.148 C 
HETATM   23  C7  UNL     1     -42.549  -2.773   6.280  1.00  0.00     0.304 C 
BRANCH  22  24
HETATM   24  O2  UNL     1     -44.112  -1.146   7.114  1.00  0.00    -0.394 OA
ATOM     25  H2  UNL     1     -43.647  -0.669   6.436  1.00  0.00     0.210 HD
ENDBRANCH  22  24
ENDBRANCH  18  19
ENDBRANCH   5  18
TORSDOF 3
ENDMDL
