MODEL 7
REMARK VINA RESULT: -7.885076134      3.667      4.743
REMARK  3 active torsions:
REMARK  status: ('A' for Active; 'I' for Inactive)
REMARK    1  A    between atoms: C2_5  and  C3_6 
REMARK    2  A    between atoms: C3_6  and  N2_7 
REMARK    3  A    between atoms: C6_10  and  O2_11 
ROOT
HETATM    1  O1  UNL     1     -38.711  -3.701  -2.257  1.00  0.00    -0.267 OA
HETATM    2  C1  UNL     1     -39.303  -3.290  -1.235  1.00  0.00     0.266 A 
HETATM    3  N1  UNL     1     -38.583  -3.192  -0.087  1.00  0.00    -0.310 N 
ATOM      4  H1  UNL     1     -37.595  -3.439  -0.039  1.00  0.00     0.170 HD
HETATM    5  C2  UNL     1     -39.268  -2.745   0.982  1.00  0.00     0.113 A 
HETATM    6  N3  UNL     1     -40.539  -2.419   0.955  1.00  0.00    -0.342 N 
ATOM      7  H3  UNL     1     -40.968  -2.092   1.821  1.00  0.00     0.167 HD
HETATM    8  C8  UNL     1     -41.323  -2.493  -0.166  1.00  0.00     0.068 A 
HETATM    9  C9  UNL     1     -40.643  -2.946  -1.258  1.00  0.00     0.101 A 
HETATM   10  S1  UNL     1     -41.830  -2.940  -2.485  1.00  0.00    -0.082 SA
HETATM   11  C10 UNL     1     -43.154  -2.365  -1.576  1.00  0.00     0.018 A 
HETATM   12  C11 UNL     1     -44.483  -2.097  -1.902  1.00  0.00     0.021 A 
HETATM   13  C12 UNL     1     -45.352  -1.626  -0.933  1.00  0.00     0.025 A 
HETATM   14  C13 UNL     1     -44.843  -1.449   0.312  1.00  0.00     0.035 A 
HETATM   15 CL1  UNL     1     -45.974  -0.843   1.542  1.00  0.00    -0.084 Cl
HETATM   16  C14 UNL     1     -43.547  -1.713   0.617  1.00  0.00     0.039 A 
HETATM   17  C15 UNL     1     -42.627  -2.192  -0.330  1.00  0.00     0.011 A 
ENDROOT
BRANCH   5  18
HETATM   18  C3  UNL     1     -38.580  -2.587   2.308  1.00  0.00     0.348 C 
BRANCH  18  19
HETATM   19  N2  UNL     1     -37.840  -3.747   2.678  1.00  0.00     0.098 N 
HETATM   20  C4  UNL     1     -38.679  -4.678   3.364  1.00  0.00     0.275 C 
HETATM   21  C5  UNL     1     -38.290  -4.733   4.805  1.00  0.00     0.064 C 
HETATM   22  C6  UNL     1     -37.460  -3.486   4.995  1.00  0.00     0.148 C 
HETATM   23  C7  UNL     1     -36.794  -3.364   3.639  1.00  0.00     0.304 C 
BRANCH  22  24
HETATM   24  O2  UNL     1     -38.241  -2.383   5.292  1.00  0.00    -0.394 OA
ATOM     25  H2  UNL     1     -38.207  -2.160   6.215  1.00  0.00     0.210 HD
ENDBRANCH  22  24
ENDBRANCH  18  19
ENDBRANCH   5  18
TORSDOF 3
ENDMDL
