MODEL 9
REMARK VINA RESULT: -7.854729743      3.492      4.522
REMARK  3 active torsions:
REMARK  status: ('A' for Active; 'I' for Inactive)
REMARK    1  A    between atoms: C2_5  and  C3_6 
REMARK    2  A    between atoms: C3_6  and  N2_7 
REMARK    3  A    between atoms: C6_10  and  O2_11 
ROOT
HETATM    1  O1  UNL     1     -38.663  -3.741  -2.222  1.00  0.00    -0.267 OA
HETATM    2  C1  UNL     1     -39.273  -3.300  -1.223  1.00  0.00     0.266 A 
HETATM    3  N1  UNL     1     -38.573  -3.158  -0.068  1.00  0.00    -0.310 N 
ATOM      4  H1  UNL     1     -37.584  -3.396   0.004  1.00  0.00     0.170 HD
HETATM    5  C2  UNL     1     -39.277  -2.680   0.974  1.00  0.00     0.113 A 
HETATM    6  N3  UNL     1     -40.550  -2.365   0.917  1.00  0.00    -0.342 N 
ATOM      7  H3  UNL     1     -40.995  -2.012   1.764  1.00  0.00     0.167 HD
HETATM    8  C8  UNL     1     -41.316  -2.483  -0.213  1.00  0.00     0.068 A 
HETATM    9  C9  UNL     1     -40.615  -2.966  -1.279  1.00  0.00     0.101 A 
HETATM   10  S1  UNL     1     -41.782  -3.011  -2.524  1.00  0.00    -0.082 SA
HETATM   11  C10 UNL     1     -43.125  -2.415  -1.656  1.00  0.00     0.018 A 
HETATM   12  C11 UNL     1     -44.450  -2.168  -2.011  1.00  0.00     0.021 A 
HETATM   13  C12 UNL     1     -45.338  -1.671  -1.072  1.00  0.00     0.025 A 
HETATM   14  C13 UNL     1     -44.849  -1.449   0.174  1.00  0.00     0.035 A 
HETATM   15 CL1  UNL     1     -46.005  -0.811   1.365  1.00  0.00    -0.084 Cl
HETATM   16  C14 UNL     1     -43.557  -1.693   0.508  1.00  0.00     0.039 A 
HETATM   17  C15 UNL     1     -42.619  -2.197  -0.408  1.00  0.00     0.011 A 
ENDROOT
BRANCH   5  18
HETATM   18  C3  UNL     1     -38.612  -2.473   2.305  1.00  0.00     0.348 C 
BRANCH  18  19
HETATM   19  N2  UNL     1     -39.551  -2.221   3.348  1.00  0.00     0.098 N 
HETATM   20  C4  UNL     1     -39.210  -1.024   4.050  1.00  0.00     0.275 C 
HETATM   21  C5  UNL     1     -38.724  -1.369   5.419  1.00  0.00     0.064 C 
HETATM   22  C6  UNL     1     -38.413  -2.843   5.323  1.00  0.00     0.148 C 
HETATM   23  C7  UNL     1     -39.470  -3.305   4.340  1.00  0.00     0.304 C 
BRANCH  22  24
HETATM   24  O2  UNL     1     -37.131  -3.075   4.855  1.00  0.00    -0.394 OA
ATOM     25  H2  UNL     1     -36.851  -3.969   5.012  1.00  0.00     0.210 HD
ENDBRANCH  22  24
ENDBRANCH  18  19
ENDBRANCH   5  18
TORSDOF 3
ENDMDL
