MODEL 1
REMARK VINA RESULT: -8.227607619      0.000      0.000
REMARK  3 active torsions:
REMARK  status: ('A' for Active; 'I' for Inactive)
REMARK    1  A    between atoms: C2_5  and  C3_6 
REMARK    2  A    between atoms: C3_6  and  N2_7 
REMARK    3  A    between atoms: C6_10  and  O2_11 
ROOT
HETATM    1  O1  UNL     1     -46.248  -0.970   1.872  1.00  0.00    -0.267 OA
HETATM    2  C1  UNL     1     -45.037  -1.283   1.871  1.00  0.00     0.266 A 
HETATM    3  N1  UNL     1     -44.378  -1.252   3.058  1.00  0.00    -0.310 N 
ATOM      4  H1  UNL     1     -44.834  -0.987   3.930  1.00  0.00     0.170 HD
HETATM    5  C2  UNL     1     -43.078  -1.598   3.000  1.00  0.00     0.113 A 
HETATM    6  N3  UNL     1     -42.459  -1.944   1.896  1.00  0.00    -0.342 N 
ATOM      7  H3  UNL     1     -41.471  -2.188   1.957  1.00  0.00     0.167 HD
HETATM    8  C8  UNL     1     -43.062  -1.998   0.667  1.00  0.00     0.068 A 
HETATM    9  C9  UNL     1     -44.380  -1.649   0.709  1.00  0.00     0.101 A 
HETATM   10  S1  UNL     1     -44.874  -1.798  -0.918  1.00  0.00    -0.082 SA
HETATM   11  C10 UNL     1     -43.394  -2.298  -1.605  1.00  0.00     0.018 A 
HETATM   12  C11 UNL     1     -43.012  -2.618  -2.906  1.00  0.00     0.021 A 
HETATM   13  C12 UNL     1     -41.708  -3.000  -3.172  1.00  0.00     0.025 A 
HETATM   14  C13 UNL     1     -40.856  -3.041  -2.117  1.00  0.00     0.035 A 
HETATM   15 CL1  UNL     1     -39.187  -3.534  -2.479  1.00  0.00    -0.084 Cl
HETATM   16  C14 UNL     1     -41.239  -2.727  -0.854  1.00  0.00     0.039 A 
HETATM   17  C15 UNL     1     -42.549  -2.334  -0.534  1.00  0.00     0.011 A 
ENDROOT
BRANCH   5  18
HETATM   18  C3  UNL     1     -42.242  -1.609   4.249  1.00  0.00     0.348 C 
BRANCH  18  19
HETATM   19  N2  UNL     1     -42.561  -2.702   5.106  1.00  0.00     0.098 N 
HETATM   20  C4  UNL     1     -41.545  -2.874   6.096  1.00  0.00     0.275 C 
HETATM   21  C5  UNL     1     -40.781  -4.126   5.816  1.00  0.00     0.064 C 
HETATM   22  C6  UNL     1     -41.141  -4.447   4.385  1.00  0.00     0.148 C 
HETATM   23  C7  UNL     1     -42.569  -3.945   4.319  1.00  0.00     0.304 C 
BRANCH  22  24
HETATM   24  O2  UNL     1     -40.318  -3.793   3.484  1.00  0.00    -0.394 OA
ATOM     25  H2  UNL     1     -40.625  -3.886   2.589  1.00  0.00     0.210 HD
ENDBRANCH  22  24
ENDBRANCH  18  19
ENDBRANCH   5  18
TORSDOF 3
ENDMDL
