MODEL 1
REMARK VINA RESULT: -8.384043686      0.000      0.000
REMARK  0 active torsions:
REMARK  status: ('A' for Active; 'I' for Inactive)
ROOT
HETATM    1  O1  UNL     1       3.362  82.737  -1.737  1.00  0.00    -0.267 OA
HETATM    2  C1  UNL     1       4.009  82.778  -0.673  1.00  0.00     0.265 A 
HETATM    3  N1  UNL     1       3.484  83.197   0.488  1.00  0.00    -0.319 N 
ATOM      4  H1  UNL     1       2.517  83.510   0.572  1.00  0.00     0.169 HD
HETATM    5  C2  UNL     1       4.325  83.175   1.532  1.00  0.00     0.184 A 
HETATM    6  N2  UNL     1       5.592  82.782   1.493  1.00  0.00    -0.350 N 
ATOM      7  H2  UNL     1       6.144  82.806   2.350  1.00  0.00     0.166 HD
HETATM    8  C3  UNL     1       6.186  82.339   0.323  1.00  0.00     0.069 A 
HETATM    9  C4  UNL     1       5.347  82.354  -0.754  1.00  0.00     0.101 A 
HETATM   10  S1  UNL     1       6.343  81.769  -2.018  1.00  0.00    -0.080 SA
HETATM   11  C5  UNL     1       7.781  81.527  -1.148  1.00  0.00     0.042 A 
HETATM   12  C6  UNL     1       9.041  81.060  -1.522  1.00  0.00     0.052 A 
HETATM   13 CL1  UNL     1       9.334  80.601  -3.183  1.00  0.00    -0.083 Cl
HETATM   14  C7  UNL     1      10.049  80.965  -0.582  1.00  0.00     0.027 A 
HETATM   15  C8  UNL     1       9.728  81.346   0.688  1.00  0.00     0.026 A 
HETATM   16  C9  UNL     1       8.505  81.799   1.051  1.00  0.00     0.048 A 
HETATM   17 CL2  UNL     1       8.283  82.242   2.731  1.00  0.00    -0.083 Cl
HETATM   18  C10 UNL     1       7.456  81.908   0.115  1.00  0.00     0.033 A 
ENDROOT
TORSDOF 0
ENDMDL
