MODEL 5
REMARK VINA RESULT: -7.816198739      2.911      4.654
REMARK  0 active torsions:
REMARK  status: ('A' for Active; 'I' for Inactive)
ROOT
HETATM    1  O1  UNL     1       9.223  80.612  -2.981  1.00  0.00    -0.267 OA
HETATM    2  C1  UNL     1       9.214  80.928  -1.776  1.00  0.00     0.265 A 
HETATM    3  N1  UNL     1      10.287  80.812  -0.980  1.00  0.00    -0.319 N 
ATOM      4  H1  UNL     1      11.182  80.456  -1.315  1.00  0.00     0.169 HD
HETATM    5  C2  UNL     1      10.097  81.200   0.290  1.00  0.00     0.184 A 
HETATM    6  N2  UNL     1       8.963  81.671   0.790  1.00  0.00    -0.350 N 
ATOM      7  H2  UNL     1       8.929  81.937   1.773  1.00  0.00     0.166 HD
HETATM    8  C3  UNL     1       7.824  81.813   0.015  1.00  0.00     0.069 A 
HETATM    9  C4  UNL     1       7.994  81.424  -1.282  1.00  0.00     0.101 A 
HETATM   10  S1  UNL     1       6.452  81.708  -1.969  1.00  0.00    -0.080 SA
HETATM   11  C5  UNL     1       5.645  82.307  -0.600  1.00  0.00     0.042 A 
HETATM   12  C6  UNL     1       4.339  82.753  -0.396  1.00  0.00     0.052 A 
HETATM   13 CL1  UNL     1       3.207  82.747  -1.727  1.00  0.00    -0.083 Cl
HETATM   14  C7  UNL     1       3.949  83.196   0.853  1.00  0.00     0.027 A 
HETATM   15  C8  UNL     1       4.899  83.164   1.830  1.00  0.00     0.026 A 
HETATM   16  C9  UNL     1       6.168  82.731   1.633  1.00  0.00     0.048 A 
HETATM   17 CL2  UNL     1       7.248  82.764   3.010  1.00  0.00    -0.083 Cl
HETATM   18  C10 UNL     1       6.597  82.273   0.369  1.00  0.00     0.033 A 
ENDROOT
TORSDOF 0
ENDMDL
