MODEL 3
REMARK VINA RESULT: -8.022257355      2.602      3.303
REMARK  0 active torsions:
REMARK  status: ('A' for Active; 'I' for Inactive)
ROOT
HETATM    1  O1  UNL     1       5.923  83.051   4.024  1.00  0.00    -0.267 OA
HETATM    2  C1  UNL     1       5.339  82.933   2.930  1.00  0.00     0.265 A 
HETATM    3  N1  UNL     1       4.026  83.157   2.772  1.00  0.00    -0.319 N 
ATOM      4  H1  UNL     1       3.422  83.441   3.543  1.00  0.00     0.169 HD
HETATM    5  C2  UNL     1       3.565  82.982   1.525  1.00  0.00     0.184 A 
HETATM    6  N2  UNL     1       4.294  82.614   0.479  1.00  0.00    -0.350 N 
ATOM      7  H2  UNL     1       3.840  82.509  -0.427  1.00  0.00     0.166 HD
HETATM    8  C3  UNL     1       5.653  82.370   0.583  1.00  0.00     0.069 A 
HETATM    9  C4  UNL     1       6.144  82.543   1.845  1.00  0.00     0.101 A 
HETATM   10  S1  UNL     1       7.806  82.175   1.659  1.00  0.00    -0.080 SA
HETATM   11  C5  UNL     1       7.827  81.816  -0.001  1.00  0.00     0.042 A 
HETATM   12  C6  UNL     1       8.848  81.430  -0.868  1.00  0.00     0.052 A 
HETATM   13 CL1  UNL     1      10.474  81.240  -0.257  1.00  0.00    -0.083 Cl
HETATM   14  C7  UNL     1       8.570  81.200  -2.202  1.00  0.00     0.027 A 
HETATM   15  C8  UNL     1       7.273  81.372  -2.588  1.00  0.00     0.026 A 
HETATM   16  C9  UNL     1       6.281  81.747  -1.745  1.00  0.00     0.048 A 
HETATM   17 CL2  UNL     1       4.676  81.918  -2.425  1.00  0.00    -0.083 Cl
HETATM   18  C10 UNL     1       6.533  81.990  -0.379  1.00  0.00     0.033 A 
ENDROOT
TORSDOF 0
ENDMDL
