MODEL 2
REMARK VINA RESULT: -8.080475645      1.776      3.233
REMARK  0 active torsions:
REMARK  status: ('A' for Active; 'I' for Inactive)
ROOT
HETATM    1  O1  UNL     1       2.675  83.368   0.201  1.00  0.00    -0.267 OA
HETATM    2  C1  UNL     1       3.505  82.904  -0.602  1.00  0.00     0.265 A 
HETATM    3  N1  UNL     1       3.216  82.639  -1.885  1.00  0.00    -0.319 N 
ATOM      4  H1  UNL     1       2.291  82.804  -2.284  1.00  0.00     0.169 HD
HETATM    5  C2  UNL     1       4.232  82.142  -2.606  1.00  0.00     0.184 A 
HETATM    6  N2  UNL     1       5.454  81.903  -2.151  1.00  0.00    -0.350 N 
ATOM      7  H2  UNL     1       6.153  81.522  -2.788  1.00  0.00     0.166 HD
HETATM    8  C3  UNL     1       5.810  82.157  -0.837  1.00  0.00     0.069 A 
HETATM    9  C4  UNL     1       4.790  82.664  -0.084  1.00  0.00     0.101 A 
HETATM   10  S1  UNL     1       5.518  82.867   1.452  1.00  0.00    -0.080 SA
HETATM   11  C5  UNL     1       7.082  82.306   1.095  1.00  0.00     0.042 A 
HETATM   12  C6  UNL     1       8.235  82.176   1.867  1.00  0.00     0.052 A 
HETATM   13 CL1  UNL     1       8.204  82.643   3.551  1.00  0.00    -0.083 Cl
HETATM   14  C7  UNL     1       9.393  81.678   1.300  1.00  0.00     0.027 A 
HETATM   15  C8  UNL     1       9.322  81.339  -0.018  1.00  0.00     0.026 A 
HETATM   16  C9  UNL     1       8.201  81.466  -0.769  1.00  0.00     0.048 A 
HETATM   17 CL2  UNL     1       8.304  80.978  -2.448  1.00  0.00    -0.083 Cl
HETATM   18  C10 UNL     1       7.005  81.971  -0.220  1.00  0.00     0.033 A 
ENDROOT
TORSDOF 0
ENDMDL
