MODEL 3
REMARK VINA RESULT: -9.243046694      2.697      4.231
REMARK  8 active torsions:
REMARK  status: ('A' for Active; 'I' for Inactive)
REMARK    1  A    between atoms: N5_13  and  C6_14 
REMARK    2  A    between atoms: C7_16  and  C8_17 
REMARK    3  A    between atoms: C8_17  and  O2_18 
REMARK    4  A    between atoms: O2_18  and  P1_19 
REMARK    5  A    between atoms: P1_19  and  O5_22 
REMARK    6  A    between atoms: O5_22  and  P2_23 
REMARK    7  A    between atoms: C9_27  and  O9_28 
REMARK    8  A    between atoms: C10_30  and  O10_31 
ROOT
HETATM    1  C6  UNL     1     -30.494 -64.207 -14.427  1.00  0.00     0.262 C 
HETATM    2  O1  UNL     1     -29.817 -63.476 -13.451  1.00  0.00    -0.353 OA
HETATM    3  C7  UNL     1     -28.593 -64.143 -13.429  1.00  0.00     0.180 C 
HETATM    4  C9  UNL     1     -28.193 -64.336 -14.867  1.00  0.00     0.182 C 
HETATM    5  C10 UNL     1     -29.531 -64.120 -15.589  1.00  0.00     0.198 C 
ENDROOT
BRANCH   1   6
HETATM    6  N5  UNL     1     -31.790 -63.670 -14.729  1.00  0.00    -0.297 N 
HETATM    7  C3  UNL     1     -32.716 -63.394 -13.786  1.00  0.00     0.142 A 
HETATM    8  N3  UNL     1     -32.693 -63.529 -12.438  1.00  0.00    -0.336 N 
HETATM    9  C4  UNL     1     -33.849 -62.892 -14.389  1.00  0.00     0.119 A 
HETATM   10  C2  UNL     1     -33.739 -63.192 -11.659  1.00  0.00     0.183 A 
ATOM     11  H3  UNL     1     -31.852 -63.901 -11.996  1.00  0.00     0.168 HD
HETATM   12  N2  UNL     1     -34.830 -62.709 -12.243  1.00  0.00    -0.339 N 
HETATM   13  C1  UNL     1     -34.908 -62.552 -13.586  1.00  0.00     0.148 A 
ATOM     14  H2  UNL     1     -35.630 -62.450 -11.665  1.00  0.00     0.167 HD
HETATM   15  N1  UNL     1     -36.077 -62.039 -14.156  1.00  0.00    -0.080 NA
HETATM   16  N4  UNL     1     -33.574 -62.876 -15.706  1.00  0.00    -0.346 N 
HETATM   17  C5  UNL     1     -32.329 -63.348 -15.898  1.00  0.00     0.188 A 
ATOM     18  H4  UNL     1     -34.208 -62.558 -16.440  1.00  0.00     0.167 HD
ENDBRANCH   1   6
BRANCH   5  19
HETATM   19  O10 UNL     1     -29.743 -65.079 -16.550  1.00  0.00    -0.388 OA
ATOM     20  H10 UNL     1     -29.514 -65.957 -16.268  1.00  0.00     0.210 HD
ENDBRANCH   5  19
BRANCH   3  21
HETATM   21  C8  UNL     1     -27.551 -63.391 -12.635  1.00  0.00     0.216 C 
BRANCH  21  22
HETATM   22  O2  UNL     1     -27.344 -64.060 -11.469  1.00  0.00    -0.287 OA
BRANCH  22  23
HETATM   23  P1  UNL     1     -28.117 -63.538 -10.125  1.00  0.00     0.418 P 
HETATM   24  O3  UNL     1     -28.150 -64.919  -9.474  1.00  0.00    -0.624 OA
HETATM   25  O4  UNL     1     -27.136 -63.011  -8.816  1.00  0.00    -0.624 OA
BRANCH  23  26
HETATM   26  O5  UNL     1     -29.709 -63.316 -10.073  1.00  0.00    -0.173 OA
BRANCH  26  27
HETATM   27  P2  UNL     1     -30.305 -61.835  -9.676  1.00  0.00     0.431 P 
HETATM   28  O6  UNL     1     -29.981 -61.175  -8.237  1.00  0.00    -0.616 OA
HETATM   29  O7  UNL     1     -31.449 -61.127 -10.700  1.00  0.00    -0.616 OA
HETATM   30  O8  UNL     1     -29.207 -61.141 -10.484  1.00  0.00    -0.616 OA
ENDBRANCH  26  27
ENDBRANCH  23  26
ENDBRANCH  22  23
ENDBRANCH  21  22
ENDBRANCH   3  21
BRANCH   4  31
HETATM   31  O9  UNL     1     -27.845 -65.672 -15.111  1.00  0.00    -0.390 OA
ATOM     32  H9  UNL     1     -27.391 -66.042 -14.364  1.00  0.00     0.210 HD
ENDBRANCH   4  31
TORSDOF 8
ENDMDL
