MODEL 5
REMARK VINA RESULT: -9.045846237      4.639      7.587
REMARK  8 active torsions:
REMARK  status: ('A' for Active; 'I' for Inactive)
REMARK    1  A    between atoms: N5_13  and  C6_14 
REMARK    2  A    between atoms: C7_16  and  C8_17 
REMARK    3  A    between atoms: C8_17  and  O2_18 
REMARK    4  A    between atoms: O2_18  and  P1_19 
REMARK    5  A    between atoms: P1_19  and  O5_22 
REMARK    6  A    between atoms: O5_22  and  P2_23 
REMARK    7  A    between atoms: C9_27  and  O9_28 
REMARK    8  A    between atoms: C10_30  and  O10_31 
ROOT
HETATM    1  C6  UNL     1     -30.761 -63.326 -10.835  1.00  0.00     0.262 C 
HETATM    2  O1  UNL     1     -31.615 -63.365 -11.938  1.00  0.00    -0.353 OA
HETATM    3  C7  UNL     1     -32.832 -63.055 -11.334  1.00  0.00     0.180 C 
HETATM    4  C9  UNL     1     -32.567 -61.886 -10.426  1.00  0.00     0.182 C 
HETATM    5  C10 UNL     1     -31.039 -61.944 -10.289  1.00  0.00     0.198 C 
ENDROOT
BRANCH   1   6
HETATM    6  N5  UNL     1     -29.384 -63.526 -11.187  1.00  0.00    -0.297 N 
HETATM    7  C3  UNL     1     -28.947 -63.603 -12.461  1.00  0.00     0.142 A 
HETATM    8  N3  UNL     1     -29.606 -63.524 -13.643  1.00  0.00    -0.336 N 
HETATM    9  C4  UNL     1     -27.583 -63.797 -12.468  1.00  0.00     0.119 A 
HETATM   10  C2  UNL     1     -28.979 -63.627 -14.830  1.00  0.00     0.183 A 
ATOM     11  H3  UNL     1     -30.616 -63.380 -13.633  1.00  0.00     0.168 HD
HETATM   12  N2  UNL     1     -27.664 -63.815 -14.833  1.00  0.00    -0.339 N 
HETATM   13  C1  UNL     1     -26.954 -63.901 -13.683  1.00  0.00     0.148 A 
ATOM     14  H2  UNL     1     -27.175 -63.896 -15.725  1.00  0.00     0.167 HD
HETATM   15  N1  UNL     1     -25.571 -64.097 -13.736  1.00  0.00    -0.080 NA
HETATM   16  N4  UNL     1     -27.222 -63.832 -11.173  1.00  0.00    -0.346 N 
HETATM   17  C5  UNL     1     -28.318 -63.668 -10.409  1.00  0.00     0.188 A 
ATOM     18  H4  UNL     1     -26.271 -63.963 -10.826  1.00  0.00     0.167 HD
ENDBRANCH   1   6
BRANCH   5  19
HETATM   19  O10 UNL     1     -30.645 -61.782  -8.982  1.00  0.00    -0.388 OA
ATOM     20  H10 UNL     1     -30.791 -60.904  -8.648  1.00  0.00     0.210 HD
ENDBRANCH   5  19
BRANCH   3  21
HETATM   21  C8  UNL     1     -33.911 -62.765 -12.352  1.00  0.00     0.216 C 
BRANCH  21  22
HETATM   22  O2  UNL     1     -35.005 -63.507 -12.031  1.00  0.00    -0.287 OA
BRANCH  22  23
HETATM   23  P1  UNL     1     -36.264 -62.759 -11.300  1.00  0.00     0.418 P 
HETATM   24  O3  UNL     1     -36.457 -61.746 -12.426  1.00  0.00    -0.624 OA
HETATM   25  O4  UNL     1     -37.837 -63.358 -11.649  1.00  0.00    -0.624 OA
BRANCH  23  26
HETATM   26  O5  UNL     1     -36.064 -61.657 -10.146  1.00  0.00    -0.173 OA
BRANCH  26  27
HETATM   27  P2  UNL     1     -36.503 -62.016  -8.602  1.00  0.00     0.431 P 
HETATM   28  O6  UNL     1     -37.981 -62.584  -8.276  1.00  0.00    -0.616 OA
HETATM   29  O7  UNL     1     -35.470 -61.559  -7.344  1.00  0.00    -0.616 OA
HETATM   30  O8  UNL     1     -35.768 -63.356  -8.669  1.00  0.00    -0.616 OA
ENDBRANCH  26  27
ENDBRANCH  23  26
ENDBRANCH  22  23
ENDBRANCH  21  22
ENDBRANCH   3  21
BRANCH   4  31
HETATM   31  O9  UNL     1     -33.070 -62.131  -9.140  1.00  0.00    -0.390 OA
ATOM     32  H9  UNL     1     -32.492 -61.770  -8.479  1.00  0.00     0.210 HD
ENDBRANCH   4  31
TORSDOF 8
ENDMDL
