MODEL 4
REMARK VINA RESULT: -9.060779558      4.579      6.127
REMARK  8 active torsions:
REMARK  status: ('A' for Active; 'I' for Inactive)
REMARK    1  A    between atoms: N5_13  and  C6_14 
REMARK    2  A    between atoms: C7_16  and  C8_17 
REMARK    3  A    between atoms: C8_17  and  O2_18 
REMARK    4  A    between atoms: O2_18  and  P1_19 
REMARK    5  A    between atoms: P1_19  and  O5_22 
REMARK    6  A    between atoms: O5_22  and  P2_23 
REMARK    7  A    between atoms: C9_27  and  O9_28 
REMARK    8  A    between atoms: C10_30  and  O10_31 
ROOT
HETATM    1  C6  UNL     1     -28.639 -64.596 -13.753  1.00  0.00     0.262 C 
HETATM    2  O1  UNL     1     -29.145 -63.623 -12.890  1.00  0.00    -0.353 OA
HETATM    3  C7  UNL     1     -27.963 -63.044 -12.430  1.00  0.00     0.180 C 
HETATM    4  C9  UNL     1     -27.099 -62.830 -13.643  1.00  0.00     0.182 C 
HETATM    5  C10 UNL     1     -27.764 -63.766 -14.663  1.00  0.00     0.198 C 
ENDROOT
BRANCH   1   6
HETATM    6  N5  UNL     1     -29.668 -65.309 -14.456  1.00  0.00    -0.297 N 
HETATM    7  C3  UNL     1     -30.847 -64.755 -14.807  1.00  0.00     0.142 A 
HETATM    8  N3  UNL     1     -31.345 -63.509 -14.620  1.00  0.00    -0.336 N 
HETATM    9  C4  UNL     1     -31.614 -65.691 -15.467  1.00  0.00     0.119 A 
HETATM   10  C2  UNL     1     -32.567 -63.145 -15.054  1.00  0.00     0.183 A 
ATOM     11  H3  UNL     1     -30.773 -62.820 -14.131  1.00  0.00     0.168 HD
HETATM   12  N2  UNL     1     -33.305 -64.049 -15.689  1.00  0.00    -0.339 N 
HETATM   13  C1  UNL     1     -32.857 -65.309 -15.905  1.00  0.00     0.148 A 
ATOM     14  H2  UNL     1     -34.233 -63.788 -16.022  1.00  0.00     0.167 HD
HETATM   15  N1  UNL     1     -33.669 -66.226 -16.579  1.00  0.00    -0.080 NA
HETATM   16  N4  UNL     1     -30.866 -66.807 -15.498  1.00  0.00    -0.346 N 
HETATM   17  C5  UNL     1     -29.693 -66.565 -14.885  1.00  0.00     0.188 A 
ATOM     18  H4  UNL     1     -31.142 -67.695 -15.919  1.00  0.00     0.167 HD
ENDBRANCH   1   6
BRANCH   5  19
HETATM   19  O10 UNL     1     -26.830 -64.504 -15.350  1.00  0.00    -0.388 OA
ATOM     20  H10 UNL     1     -26.266 -63.980 -15.906  1.00  0.00     0.210 HD
ENDBRANCH   5  19
BRANCH   3  21
HETATM   21  C8  UNL     1     -28.218 -61.765 -11.668  1.00  0.00     0.216 C 
BRANCH  21  22
HETATM   22  O2  UNL     1     -28.469 -62.089 -10.371  1.00  0.00    -0.287 OA
BRANCH  22  23
HETATM   23  P1  UNL     1     -29.868 -61.571  -9.697  1.00  0.00     0.418 P 
HETATM   24  O3  UNL     1     -30.336 -62.976  -9.326  1.00  0.00    -0.624 OA
HETATM   25  O4  UNL     1     -29.836 -61.203  -8.019  1.00  0.00    -0.624 OA
BRANCH  23  26
HETATM   26  O5  UNL     1     -31.169 -61.212 -10.572  1.00  0.00    -0.173 OA
BRANCH  26  27
HETATM   27  P2  UNL     1     -32.427 -62.271 -10.619  1.00  0.00     0.431 P 
HETATM   28  O6  UNL     1     -33.569 -62.245  -9.476  1.00  0.00    -0.616 OA
HETATM   29  O7  UNL     1     -32.375 -63.532 -11.743  1.00  0.00    -0.616 OA
HETATM   30  O8  UNL     1     -33.148 -61.418 -11.664  1.00  0.00    -0.616 OA
ENDBRANCH  26  27
ENDBRANCH  23  26
ENDBRANCH  22  23
ENDBRANCH  21  22
ENDBRANCH   3  21
BRANCH   4  31
HETATM   31  O9  UNL     1     -25.814 -63.352 -13.436  1.00  0.00    -0.390 OA
ATOM     32  H9  UNL     1     -25.172 -62.876 -13.949  1.00  0.00     0.210 HD
ENDBRANCH   4  31
TORSDOF 8
ENDMDL
