MODEL 3
REMARK VINA RESULT: -7.494643018      0.475      2.269
REMARK  12 active torsions:
REMARK  status: ('A' for Active; 'I' for Inactive)
REMARK    1  A    between atoms: C2_2  and  N1_3 
REMARK       I    between atoms: N1_3  and  C3_4 
REMARK    2  A    between atoms: N1_3  and  C7_18 
REMARK    3  A    between atoms: C3_4  and  O2_6 
REMARK    4  A    between atoms: O2_6  and  C4_7 
REMARK    5  A    between atoms: C4_7  and  C5_8 
REMARK    6  A    between atoms: C5_8  and  C6_9 
REMARK    7  A    between atoms: C5_8  and  O6_14 
REMARK    8  A    between atoms: C6_9  and  O3_10 
REMARK    9  A    between atoms: O3_10  and  N2_11 
REMARK   10  A    between atoms: O6_14  and  N3_15 
REMARK   11  A    between atoms: C12_27  and  S3_28 
REMARK   12  A    between atoms: S3_28  and  N4_29 
ROOT
HETATM    1  C7  UNL     1      -4.187   7.060  11.631  1.00  0.00     0.126 C 
HETATM    2  C8  UNL     1      -4.077   8.444  11.033  1.00  0.00     0.050 C 
HETATM    3  C9  UNL     1      -4.892   8.604   9.790  1.00  0.00     0.112 C 
HETATM    4  C10 UNL     1      -6.227   9.265  10.049  1.00  0.00     0.026 C 
HETATM    5  S1  UNL     1      -5.079   7.075   8.907  1.00  0.00     0.186 S 
HETATM    6  O9  UNL     1      -6.409   6.436   9.150  1.00  0.00    -0.222 OA
HETATM    7  O10 UNL     1      -4.943   7.277   7.425  1.00  0.00    -0.222 OA
HETATM    8  C11 UNL     1      -3.788   6.019   9.499  1.00  0.00     0.110 A 
HETATM    9  S2  UNL     1      -2.758   4.815   8.829  1.00  0.00    -0.064 SA
HETATM   10  C12 UNL     1      -1.884   4.403  10.233  1.00  0.00     0.121 A 
HETATM   11  C13 UNL     1      -2.426   5.220  11.188  1.00  0.00     0.044 A 
HETATM   12  C14 UNL     1      -3.406   6.053  10.810  1.00  0.00    -0.005 A 
ENDROOT
BRANCH   1  13
HETATM   13  N1  UNL     1      -3.826   7.034  13.020  1.00  0.00    -0.319 N 
HETATM   14  C3  UNL     1      -4.357   6.051  13.933  1.00  0.00     0.363 C 
HETATM   15  O1  UNL     1      -4.023   6.069  15.143  1.00  0.00    -0.238 OA
BRANCH  13  16
HETATM   16  C2  UNL     1      -2.911   8.004  13.572  1.00  0.00     0.124 C 
HETATM   17  C1  UNL     1      -1.537   7.355  13.682  1.00  0.00     0.026 C 
ENDBRANCH  13  16
BRANCH  14  18
HETATM   18  O2  UNL     1      -5.220   5.086  13.518  1.00  0.00    -0.301 OA
BRANCH  18  19
HETATM   19  C4  UNL     1      -5.666   3.969  14.192  1.00  0.00     0.217 C 
BRANCH  19  20
HETATM   20  C5  UNL     1      -5.212   2.641  13.662  1.00  0.00     0.209 C 
BRANCH  20  21
HETATM   21  C6  UNL     1      -4.868   2.893  12.179  1.00  0.00     0.244 C 
BRANCH  21  22
HETATM   22  O3  UNL     1      -5.456   1.838  11.462  1.00  0.00    -0.219 OA
BRANCH  22  23
HETATM   23  N2  UNL     1      -4.801   0.746  10.999  1.00  0.00     0.005 N 
HETATM   24  O4  UNL     1      -4.548  -0.185  11.787  1.00  0.00    -0.511 OA
HETATM   25  O5  UNL     1      -4.400   0.612   9.693  1.00  0.00    -0.511 OA
ENDBRANCH  22  23
ENDBRANCH  21  22
ENDBRANCH  20  21
BRANCH  20  26
HETATM   26  O6  UNL     1      -4.065   2.135  14.260  1.00  0.00    -0.211 OA
BRANCH  26  27
HETATM   27  N3  UNL     1      -4.109   1.256  15.293  1.00  0.00     0.005 N 
HETATM   28  O7  UNL     1      -3.447   1.516  16.316  1.00  0.00    -0.511 OA
HETATM   29  O8  UNL     1      -4.855   0.124  15.213  1.00  0.00    -0.511 OA
ENDBRANCH  26  27
ENDBRANCH  20  26
ENDBRANCH  19  20
ENDBRANCH  18  19
ENDBRANCH  14  18
ENDBRANCH   1  13
BRANCH  10  30
HETATM   30  S3  UNL     1      -0.599   3.210  10.402  1.00  0.00     0.263 S 
HETATM   31  O11 UNL     1      -1.159   1.879  10.076  1.00  0.00    -0.200 OA
HETATM   32  O12 UNL     1       0.575   3.561   9.537  1.00  0.00    -0.200 OA
BRANCH  30  33
HETATM   33  N4  UNL     1      -0.042   3.198  12.035  1.00  0.00    -0.324 N 
ATOM     34  H42 UNL     1       0.369   4.000  12.513  1.00  0.00     0.169 HD
ATOM     35  H41 UNL     1      -0.191   2.271  12.435  1.00  0.00     0.169 HD
ENDBRANCH  30  33
ENDBRANCH  10  30
TORSDOF 12
ENDMDL
