MODEL 2
REMARK VINA RESULT: -7.545944097      1.597      2.921
REMARK  12 active torsions:
REMARK  status: ('A' for Active; 'I' for Inactive)
REMARK    1  A    between atoms: C2_2  and  N1_3 
REMARK       I    between atoms: N1_3  and  C3_4 
REMARK    2  A    between atoms: N1_3  and  C7_18 
REMARK    3  A    between atoms: C3_4  and  O2_6 
REMARK    4  A    between atoms: O2_6  and  C4_7 
REMARK    5  A    between atoms: C4_7  and  C5_8 
REMARK    6  A    between atoms: C5_8  and  C6_9 
REMARK    7  A    between atoms: C5_8  and  O6_14 
REMARK    8  A    between atoms: C6_9  and  O3_10 
REMARK    9  A    between atoms: O3_10  and  N2_11 
REMARK   10  A    between atoms: O6_14  and  N3_15 
REMARK   11  A    between atoms: C12_27  and  S3_28 
REMARK   12  A    between atoms: S3_28  and  N4_29 
ROOT
HETATM    1  C7  UNL     1      -5.735   6.091  11.933  1.00  0.00     0.126 C 
HETATM    2  C8  UNL     1      -6.080   7.554  11.774  1.00  0.00     0.050 C 
HETATM    3  C9  UNL     1      -6.484   7.905  10.378  1.00  0.00     0.112 C 
HETATM    4  C10 UNL     1      -7.985   7.950  10.198  1.00  0.00     0.026 C 
HETATM    5  S1  UNL     1      -5.712   6.857   9.171  1.00  0.00     0.186 S 
HETATM    6  O9  UNL     1      -6.628   5.783   8.680  1.00  0.00    -0.222 OA
HETATM    7  O10 UNL     1      -5.257   7.640   7.974  1.00  0.00    -0.222 OA
HETATM    8  C11 UNL     1      -4.319   6.130   9.988  1.00  0.00     0.110 A 
HETATM    9  S2  UNL     1      -2.719   5.674   9.553  1.00  0.00    -0.064 SA
HETATM   10  C12 UNL     1      -2.200   5.062  11.057  1.00  0.00     0.121 A 
HETATM   11  C13 UNL     1      -3.298   5.232  11.858  1.00  0.00     0.044 A 
HETATM   12  C14 UNL     1      -4.389   5.783  11.307  1.00  0.00    -0.005 A 
ENDROOT
BRANCH   1  13
HETATM   13  N1  UNL     1      -5.817   5.656  13.298  1.00  0.00    -0.319 N 
HETATM   14  C3  UNL     1      -6.043   4.275  13.651  1.00  0.00     0.363 C 
HETATM   15  O1  UNL     1      -6.119   3.936  14.858  1.00  0.00    -0.238 OA
BRANCH  13  16
HETATM   16  C2  UNL     1      -5.684   6.589  14.390  1.00  0.00     0.124 C 
HETATM   17  C1  UNL     1      -4.207   6.698  14.748  1.00  0.00     0.026 C 
ENDBRANCH  13  16
BRANCH  14  18
HETATM   18  O2  UNL     1      -6.176   3.310  12.702  1.00  0.00    -0.301 OA
BRANCH  18  19
HETATM   19  C4  UNL     1      -5.198   2.577  12.064  1.00  0.00     0.217 C 
BRANCH  19  20
HETATM   20  C5  UNL     1      -4.590   1.448  12.843  1.00  0.00     0.209 C 
BRANCH  20  21
HETATM   21  C6  UNL     1      -3.489   0.872  11.928  1.00  0.00     0.244 C 
BRANCH  21  22
HETATM   22  O3  UNL     1      -3.819  -0.479  11.731  1.00  0.00    -0.219 OA
BRANCH  22  23
HETATM   23  N2  UNL     1      -3.255  -1.295  10.808  1.00  0.00     0.005 N 
HETATM   24  O4  UNL     1      -3.171  -0.906   9.628  1.00  0.00    -0.511 OA
HETATM   25  O5  UNL     1      -2.765  -2.542  11.111  1.00  0.00    -0.511 OA
ENDBRANCH  22  23
ENDBRANCH  21  22
ENDBRANCH  20  21
BRANCH  20  26
HETATM   26  O6  UNL     1      -3.972   1.823  14.029  1.00  0.00    -0.211 OA
BRANCH  26  27
HETATM   27  N3  UNL     1      -4.101   1.109  15.176  1.00  0.00     0.005 N 
HETATM   28  O7  UNL     1      -4.824   0.094  15.159  1.00  0.00    -0.511 OA
HETATM   29  O8  UNL     1      -3.460   1.491  16.309  1.00  0.00    -0.511 OA
ENDBRANCH  26  27
ENDBRANCH  20  26
ENDBRANCH  19  20
ENDBRANCH  18  19
ENDBRANCH  14  18
ENDBRANCH   1  13
BRANCH  10  30
HETATM   30  S3  UNL     1      -0.630   4.377  11.468  1.00  0.00     0.263 S 
HETATM   31  O11 UNL     1      -0.857   3.118  12.213  1.00  0.00    -0.200 OA
HETATM   32  O12 UNL     1       0.203   4.169  10.239  1.00  0.00    -0.200 OA
BRANCH  30  33
HETATM   33  N4  UNL     1       0.226   5.481  12.483  1.00  0.00    -0.324 N 
ATOM     34  H42 UNL     1      -0.098   5.797  13.397  1.00  0.00     0.169 HD
ATOM     35  H41 UNL     1       1.093   5.758  12.023  1.00  0.00     0.169 HD
ENDBRANCH  30  33
ENDBRANCH  10  30
TORSDOF 12
ENDMDL
