MODEL 1
REMARK VINA RESULT: -7.653759513      0.000      0.000
REMARK  12 active torsions:
REMARK  status: ('A' for Active; 'I' for Inactive)
REMARK    1  A    between atoms: C2_2  and  N1_3 
REMARK       I    between atoms: N1_3  and  C3_4 
REMARK    2  A    between atoms: N1_3  and  C7_18 
REMARK    3  A    between atoms: C3_4  and  O2_6 
REMARK    4  A    between atoms: O2_6  and  C4_7 
REMARK    5  A    between atoms: C4_7  and  C5_8 
REMARK    6  A    between atoms: C5_8  and  C6_9 
REMARK    7  A    between atoms: C5_8  and  O6_14 
REMARK    8  A    between atoms: C6_9  and  O3_10 
REMARK    9  A    between atoms: O3_10  and  N2_11 
REMARK   10  A    between atoms: O6_14  and  N3_15 
REMARK   11  A    between atoms: C12_27  and  S3_28 
REMARK   12  A    between atoms: S3_28  and  N4_29 
ROOT
HETATM    1  C7  UNL     1      -4.373   6.988  11.605  1.00  0.00     0.126 C 
HETATM    2  C8  UNL     1      -4.252   8.397  11.070  1.00  0.00     0.050 C 
HETATM    3  C9  UNL     1      -5.009   8.599   9.797  1.00  0.00     0.112 C 
HETATM    4  C10 UNL     1      -6.364   9.233  10.017  1.00  0.00     0.026 C 
HETATM    5  S1  UNL     1      -5.133   7.106   8.843  1.00  0.00     0.186 S 
HETATM    6  O9  UNL     1      -6.464   6.443   8.995  1.00  0.00    -0.222 OA
HETATM    7  O10 UNL     1      -4.929   7.370   7.380  1.00  0.00    -0.222 OA
HETATM    8  C11 UNL     1      -3.858   6.041   9.454  1.00  0.00     0.110 A 
HETATM    9  S2  UNL     1      -2.781   4.878   8.786  1.00  0.00    -0.064 SA
HETATM   10  C12 UNL     1      -1.970   4.417  10.213  1.00  0.00     0.121 A 
HETATM   11  C13 UNL     1      -2.568   5.189  11.173  1.00  0.00     0.044 A 
HETATM   12  C14 UNL     1      -3.540   6.025  10.782  1.00  0.00    -0.005 A 
ENDROOT
BRANCH   1  13
HETATM   13  N1  UNL     1      -4.078   6.909  13.007  1.00  0.00    -0.319 N 
HETATM   14  C3  UNL     1      -4.839   6.075  13.905  1.00  0.00     0.363 C 
HETATM   15  O1  UNL     1      -4.555   6.042  15.128  1.00  0.00    -0.238 OA
BRANCH  13  16
HETATM   16  C2  UNL     1      -3.000   7.672  13.588  1.00  0.00     0.124 C 
HETATM   17  C1  UNL     1      -1.877   6.711  13.954  1.00  0.00     0.026 C 
ENDBRANCH  13  16
BRANCH  14  18
HETATM   18  O2  UNL     1      -5.871   5.308  13.464  1.00  0.00    -0.301 OA
BRANCH  18  19
HETATM   19  C4  UNL     1      -5.991   3.935  13.451  1.00  0.00     0.217 C 
BRANCH  19  20
HETATM   20  C5  UNL     1      -5.056   3.188  12.545  1.00  0.00     0.209 C 
BRANCH  20  21
HETATM   21  C6  UNL     1      -4.014   2.543  13.482  1.00  0.00     0.244 C 
BRANCH  21  22
HETATM   22  O3  UNL     1      -4.740   2.014  14.562  1.00  0.00    -0.219 OA
BRANCH  22  23
HETATM   23  N2  UNL     1      -4.364   0.951  15.312  1.00  0.00     0.005 N 
HETATM   24  O4  UNL     1      -3.564   1.127  16.251  1.00  0.00    -0.511 OA
HETATM   25  O5  UNL     1      -4.824  -0.323  15.090  1.00  0.00    -0.511 OA
ENDBRANCH  22  23
ENDBRANCH  21  22
ENDBRANCH  20  21
BRANCH  20  26
HETATM   26  O6  UNL     1      -5.642   2.156  11.824  1.00  0.00    -0.211 OA
BRANCH  26  27
HETATM   27  N3  UNL     1      -4.916   1.276  11.089  1.00  0.00     0.005 N 
HETATM   28  O7  UNL     1      -4.444   1.665  10.004  1.00  0.00    -0.511 OA
HETATM   29  O8  UNL     1      -4.712   0.007  11.526  1.00  0.00    -0.511 OA
ENDBRANCH  26  27
ENDBRANCH  20  26
ENDBRANCH  19  20
ENDBRANCH  18  19
ENDBRANCH  14  18
ENDBRANCH   1  13
BRANCH  10  30
HETATM   30  S3  UNL     1      -0.678   3.234  10.395  1.00  0.00     0.263 S 
HETATM   31  O11 UNL     1      -1.213   1.906  10.017  1.00  0.00    -0.200 OA
HETATM   32  O12 UNL     1       0.520   3.617   9.578  1.00  0.00    -0.200 OA
BRANCH  30  33
HETATM   33  N4  UNL     1      -0.176   3.185  12.045  1.00  0.00    -0.324 N 
ATOM     34  H42 UNL     1       0.059   4.007  12.603  1.00  0.00     0.169 HD
ATOM     35  H41 UNL     1      -0.155   2.216  12.363  1.00  0.00     0.169 HD
ENDBRANCH  30  33
ENDBRANCH  10  30
TORSDOF 12
ENDMDL
