MODEL 3
REMARK VINA RESULT: -6.589575267      2.476      5.457
REMARK  7 active torsions:
REMARK  status: ('A' for Active; 'I' for Inactive)
REMARK    1  A    between atoms: C2_2  and  C3_3 
REMARK    2  A    between atoms: C3_3  and  C4_4 
REMARK    3  A    between atoms: C3_3  and  C6_6 
REMARK    4  A    between atoms: C6_6  and  N1_7 
REMARK       I    between atoms: N1_7  and  C7_9 
REMARK    5  A    between atoms: C10_13  and  O2_14 
REMARK    6  A    between atoms: C11_16  and  C12_17 
REMARK    7  A    between atoms: C14_21  and  N2_22 
ROOT
HETATM    1  C6  UNL     1     -13.996 -28.386  13.397  1.00  0.00     0.044 C 
HETATM    2  C9  UNL     1     -14.205 -29.603  12.666  1.00  0.00    -0.001 C 
HETATM    3  C10 UNL     1     -13.240 -30.596  12.266  1.00  0.00     0.166 C 
HETATM    4  C11 UNL     1     -14.204 -31.721  11.809  1.00  0.00     0.122 C 
HETATM    5  C13 UNL     1     -15.456 -31.012  11.342  1.00  0.00     0.048 C 
HETATM    6  C14 UNL     1     -15.097 -29.537  11.424  1.00  0.00     0.119 C 
ENDROOT
BRANCH   1   7
HETATM    7  C3  UNL     1     -13.141 -27.267  13.004  1.00  0.00    -0.053 C 
BRANCH   7   8
HETATM    8  C2  UNL     1     -13.686 -25.917  12.759  1.00  0.00     0.032 C 
HETATM    9  C1  UNL     1     -14.552 -25.643  11.613  1.00  0.00     0.010 C 
ENDBRANCH   7   8
BRANCH   7  10
HETATM   10  C4  UNL     1     -11.837 -27.206  13.797  1.00  0.00     0.032 C 
HETATM   11  C5  UNL     1     -10.784 -27.895  12.953  1.00  0.00     0.010 C 
ENDBRANCH   7  10
ENDBRANCH   1   7
BRANCH   1  12
HETATM   12  N1  UNL     1     -13.934 -28.577  14.836  1.00  0.00    -0.327 N 
HETATM   13  C7  UNL     1     -14.798 -29.411  15.591  1.00  0.00     0.218 C 
HETATM   14  C8  UNL     1     -14.681 -29.562  17.067  1.00  0.00     0.117 C 
HETATM   15  O1  UNL     1     -15.709 -30.050  14.961  1.00  0.00    -0.274 OA
ATOM     16  H1  UNL     1     -13.209 -28.071  15.345  1.00  0.00     0.169 HD
ENDBRANCH   1  12
BRANCH   3  17
HETATM   17  O2  UNL     1     -12.472 -30.367  11.149  1.00  0.00    -0.390 OA
ATOM     18  H2  UNL     1     -12.212 -31.106  10.611  1.00  0.00     0.210 HD
ENDBRANCH   3  17
BRANCH   6  19
HETATM   19  N2  UNL     1     -16.324 -28.820  11.683  1.00  0.00    -0.358 N 
HETATM   20  C15 UNL     1     -16.809 -28.130  10.706  1.00  0.00     0.197 C 
HETATM   21  N3  UNL     1     -18.026 -27.375  10.846  1.00  0.00    -0.067 NA
HETATM   22  N4  UNL     1     -16.193 -28.056   9.420  1.00  0.00    -0.067 NA
ATOM     23  H2  UNL     1     -16.783 -28.856  12.593  1.00  0.00     0.162 HD
ENDBRANCH   6  19
BRANCH   4  24
HETATM   24  C12 UNL     1     -14.412 -32.666  12.899  1.00  0.00     0.179 C 
HETATM   25  O3  UNL     1     -13.501 -33.491  13.171  1.00  0.00    -0.648 OA
HETATM   26  O4  UNL     1     -15.547 -32.758  13.698  1.00  0.00    -0.648 OA
ENDBRANCH   4  24
TORSDOF 7
ENDMDL
