MODEL 2
REMARK VINA RESULT: -6.819176948      0.461      1.522
REMARK  7 active torsions:
REMARK  status: ('A' for Active; 'I' for Inactive)
REMARK    1  A    between atoms: C2_2  and  C3_3 
REMARK    2  A    between atoms: C3_3  and  C4_4 
REMARK    3  A    between atoms: C3_3  and  C6_6 
REMARK    4  A    between atoms: C6_6  and  N1_7 
REMARK       I    between atoms: N1_7  and  C7_9 
REMARK    5  A    between atoms: C10_13  and  O2_14 
REMARK    6  A    between atoms: C11_16  and  C12_17 
REMARK    7  A    between atoms: C14_21  and  N2_22 
ROOT
HETATM    1  C6  UNL     1     -15.022 -29.725  11.344  1.00  0.00     0.044 C 
HETATM    2  C9  UNL     1     -14.090 -29.292  12.346  1.00  0.00    -0.001 C 
HETATM    3  C10 UNL     1     -12.650 -29.306  12.309  1.00  0.00     0.166 C 
HETATM    4  C11 UNL     1     -12.352 -28.439  13.559  1.00  0.00     0.122 C 
HETATM    5  C13 UNL     1     -13.529 -28.653  14.486  1.00  0.00     0.048 C 
HETATM    6  C14 UNL     1     -14.356 -29.722  13.790  1.00  0.00     0.119 C 
ENDROOT
BRANCH   1   7
HETATM    7  C3  UNL     1     -15.139 -31.070  10.782  1.00  0.00    -0.053 C 
BRANCH   7   8
HETATM    8  C2  UNL     1     -16.438 -31.628  10.358  1.00  0.00     0.032 C 
HETATM    9  C1  UNL     1     -16.817 -31.684   8.947  1.00  0.00     0.010 C 
ENDBRANCH   7   8
BRANCH   7  10
HETATM   10  C4  UNL     1     -14.038 -31.393   9.775  1.00  0.00     0.032 C 
HETATM   11  C5  UNL     1     -13.418 -32.703  10.216  1.00  0.00     0.010 C 
ENDBRANCH   7  10
ENDBRANCH   1   7
BRANCH   1  12
HETATM   12  N1  UNL     1     -15.264 -28.733  10.310  1.00  0.00    -0.327 N 
HETATM   13  C7  UNL     1     -16.401 -27.887  10.235  1.00  0.00     0.218 C 
HETATM   14  C8  UNL     1     -16.589 -26.889   9.147  1.00  0.00     0.117 C 
HETATM   15  O1  UNL     1     -17.288 -28.000  11.149  1.00  0.00    -0.274 OA
ATOM     16  H1  UNL     1     -14.559 -28.637   9.579  1.00  0.00     0.169 HD
ENDBRANCH   1  12
BRANCH   3  17
HETATM   17  O2  UNL     1     -11.988 -30.482  12.578  1.00  0.00    -0.390 OA
ATOM     18  H2  UNL     1     -11.234 -30.716  12.049  1.00  0.00     0.210 HD
ENDBRANCH   3  17
BRANCH   6  19
HETATM   19  N2  UNL     1     -15.732 -29.502  14.170  1.00  0.00    -0.358 N 
HETATM   20  C15 UNL     1     -16.495 -30.543  14.215  1.00  0.00     0.197 C 
HETATM   21  N3  UNL     1     -17.883 -30.446  14.580  1.00  0.00    -0.067 NA
HETATM   22  N4  UNL     1     -16.036 -31.860  13.910  1.00  0.00    -0.067 NA
ATOM     23  H2  UNL     1     -16.084 -28.571  14.392  1.00  0.00     0.162 HD
ENDBRANCH   6  19
BRANCH   4  24
HETATM   24  C12 UNL     1     -12.139 -27.054  13.159  1.00  0.00     0.179 C 
HETATM   25  O3  UNL     1     -11.128 -26.770  12.464  1.00  0.00    -0.648 OA
HETATM   26  O4  UNL     1     -12.959 -25.975  13.473  1.00  0.00    -0.648 OA
ENDBRANCH   4  24
TORSDOF 7
ENDMDL
