MODEL 1
REMARK VINA RESULT: -7.006519480      0.000      0.000
REMARK  7 active torsions:
REMARK  status: ('A' for Active; 'I' for Inactive)
REMARK    1  A    between atoms: C2_2  and  C3_3 
REMARK    2  A    between atoms: C3_3  and  C4_4 
REMARK    3  A    between atoms: C3_3  and  C6_6 
REMARK    4  A    between atoms: C6_6  and  N1_7 
REMARK       I    between atoms: N1_7  and  C7_9 
REMARK    5  A    between atoms: C10_13  and  O2_14 
REMARK    6  A    between atoms: C11_16  and  C12_17 
REMARK    7  A    between atoms: C14_21  and  N2_22 
ROOT
HETATM    1  C6  UNL     1     -15.009 -29.362  11.226  1.00  0.00     0.044 C 
HETATM    2  C9  UNL     1     -14.104 -28.921  12.249  1.00  0.00    -0.001 C 
HETATM    3  C10 UNL     1     -12.666 -28.830  12.209  1.00  0.00     0.166 C 
HETATM    4  C11 UNL     1     -12.424 -28.014  13.505  1.00  0.00     0.122 C 
HETATM    5  C13 UNL     1     -13.577 -28.364  14.420  1.00  0.00     0.048 C 
HETATM    6  C14 UNL     1     -14.330 -29.449  13.667  1.00  0.00     0.119 C 
ENDROOT
BRANCH   1   7
HETATM    7  C3  UNL     1     -15.033 -30.679  10.590  1.00  0.00    -0.053 C 
BRANCH   7   8
HETATM    8  C2  UNL     1     -14.009 -31.703  10.876  1.00  0.00     0.032 C 
HETATM    9  C1  UNL     1     -13.397 -32.486   9.804  1.00  0.00     0.010 C 
ENDBRANCH   7   8
BRANCH   7  10
HETATM   10  C4  UNL     1     -16.432 -31.288  10.536  1.00  0.00     0.032 C 
HETATM   11  C5  UNL     1     -16.851 -31.286   9.080  1.00  0.00     0.010 C 
ENDBRANCH   7  10
ENDBRANCH   1   7
BRANCH   1  12
HETATM   12  N1  UNL     1     -15.327 -28.334  10.250  1.00  0.00    -0.327 N 
HETATM   13  C7  UNL     1     -16.531 -27.584  10.212  1.00  0.00     0.218 C 
HETATM   14  C8  UNL     1     -16.795 -26.542   9.182  1.00  0.00     0.117 C 
HETATM   15  O1  UNL     1     -17.412 -27.827  11.105  1.00  0.00    -0.274 OA
ATOM     16  H1  UNL     1     -14.628 -28.134   9.534  1.00  0.00     0.169 HD
ENDBRANCH   1  12
BRANCH   3  17
HETATM   17  O2  UNL     1     -11.921 -29.968  12.410  1.00  0.00    -0.390 OA
ATOM     18  H2  UNL     1     -11.559 -30.419  11.656  1.00  0.00     0.210 HD
ENDBRANCH   3  17
BRANCH   6  19
HETATM   19  N2  UNL     1     -15.716 -29.349  14.062  1.00  0.00    -0.358 N 
HETATM   20  C15 UNL     1     -16.358 -30.459  14.209  1.00  0.00     0.197 C 
HETATM   21  N3  UNL     1     -17.742 -30.485  14.599  1.00  0.00    -0.067 NA
HETATM   22  N4  UNL     1     -15.761 -31.740  14.001  1.00  0.00    -0.067 NA
ATOM     23  H2  UNL     1     -16.165 -28.447  14.216  1.00  0.00     0.162 HD
ENDBRANCH   6  19
BRANCH   4  24
HETATM   24  C12 UNL     1     -12.313 -26.597  13.182  1.00  0.00     0.179 C 
HETATM   25  O3  UNL     1     -13.183 -25.803  13.627  1.00  0.00    -0.648 OA
HETATM   26  O4  UNL     1     -11.317 -26.008  12.410  1.00  0.00    -0.648 OA
ENDBRANCH   4  24
TORSDOF 7
ENDMDL
