MODEL 5
REMARK VINA RESULT: -5.762142698      2.268      5.489
REMARK  7 active torsions:
REMARK  status: ('A' for Active; 'I' for Inactive)
REMARK    1  A    between atoms: C2_2  and  N1_3 
REMARK    2  A    between atoms: C2_2  and  P1_7 
REMARK    3  A    between atoms: P1_7  and  C3_10 
REMARK    4  A    between atoms: C3_10  and  C4_11 
REMARK    5  A    between atoms: C4_11  and  C5_12 
REMARK    6  A    between atoms: C4_11  and  C7_16 
REMARK    7  A    between atoms: C5_12  and  C6_13 
ROOT
HETATM    1  P1  UNL     1     -27.553  31.211 -13.523  1.00  0.00     0.137 P 
HETATM    2  O1  UNL     1     -28.334  31.232 -11.958  1.00  0.00    -0.666 OA
HETATM    3  O2  UNL     1     -28.824  31.464 -14.721  1.00  0.00    -0.666 OA
ENDROOT
BRANCH   1   4
HETATM    4  C2  UNL     1     -26.855  29.587 -13.822  1.00  0.00     0.270 C 
HETATM    5  C1  UNL     1     -27.665  28.544 -13.097  1.00  0.00     0.051 C 
BRANCH   4   6
HETATM    6  N1  UNL     1     -25.487  29.488 -13.444  1.00  0.00    -0.066 N 
ATOM      7  H13 UNL     1     -24.892  30.107 -13.996  1.00  0.00     0.275 HD
ATOM      8  H12 UNL     1     -25.314  29.896 -12.525  1.00  0.00     0.275 HD
ATOM      9  H11 UNL     1     -25.181  28.517 -13.496  1.00  0.00     0.275 HD
ENDBRANCH   4   6
ENDBRANCH   1   4
BRANCH   1  10
HETATM   10  C3  UNL     1     -26.326  32.527 -13.690  1.00  0.00     0.121 C 
BRANCH  10  11
HETATM   11  C4  UNL     1     -26.052  32.897 -15.125  1.00  0.00     0.106 C 
BRANCH  11  12
HETATM   12  C5  UNL     1     -24.605  32.896 -15.468  1.00  0.00     0.129 C 
BRANCH  12  13
HETATM   13  C6  UNL     1     -24.138  31.511 -15.683  1.00  0.00     0.173 C 
HETATM   14  O3  UNL     1     -23.087  31.036 -15.192  1.00  0.00    -0.648 OA
HETATM   15  O4  UNL     1     -24.917  30.673 -16.484  1.00  0.00    -0.648 OA
ENDBRANCH  12  13
ENDBRANCH  11  12
BRANCH  11  16
HETATM   16  C7  UNL     1     -26.618  34.244 -15.346  1.00  0.00     0.178 C 
HETATM   17  O5  UNL     1     -25.971  35.094 -16.026  1.00  0.00    -0.648 OA
HETATM   18  O6  UNL     1     -27.837  34.690 -14.863  1.00  0.00    -0.648 OA
ENDBRANCH  11  16
ENDBRANCH  10  11
ENDBRANCH   1  10
TORSDOF 7
ENDMDL
