MODEL 4
REMARK VINA RESULT: -5.805106253      2.588      5.611
REMARK  7 active torsions:
REMARK  status: ('A' for Active; 'I' for Inactive)
REMARK    1  A    between atoms: C2_2  and  N1_3 
REMARK    2  A    between atoms: C2_2  and  P1_7 
REMARK    3  A    between atoms: P1_7  and  C3_10 
REMARK    4  A    between atoms: C3_10  and  C4_11 
REMARK    5  A    between atoms: C4_11  and  C5_12 
REMARK    6  A    between atoms: C4_11  and  C7_16 
REMARK    7  A    between atoms: C5_12  and  C6_13 
ROOT
HETATM    1  P1  UNL     1     -27.300  30.826 -14.127  1.00  0.00     0.137 P 
HETATM    2  O1  UNL     1     -28.868  31.415 -14.634  1.00  0.00    -0.666 OA
HETATM    3  O2  UNL     1     -26.737  29.742 -15.402  1.00  0.00    -0.666 OA
ENDROOT
BRANCH   1   4
HETATM    4  C2  UNL     1     -27.482  29.846 -12.637  1.00  0.00     0.270 C 
HETATM    5  C1  UNL     1     -28.715  30.283 -11.888  1.00  0.00     0.051 C 
BRANCH   4   6
HETATM    6  N1  UNL     1     -26.347  29.910 -11.783  1.00  0.00    -0.066 N 
ATOM      7  H13 UNL     1     -26.381  30.718 -11.162  1.00  0.00     0.275 HD
ATOM      8  H12 UNL     1     -26.361  29.177 -11.074  1.00  0.00     0.275 HD
ATOM      9  H11 UNL     1     -25.492  29.889 -12.339  1.00  0.00     0.275 HD
ENDBRANCH   4   6
ENDBRANCH   1   4
BRANCH   1  10
HETATM   10  C3  UNL     1     -26.100  32.162 -13.928  1.00  0.00     0.121 C 
BRANCH  10  11
HETATM   11  C4  UNL     1     -25.538  32.648 -15.238  1.00  0.00     0.106 C 
BRANCH  11  12
HETATM   12  C5  UNL     1     -24.064  32.841 -15.211  1.00  0.00     0.129 C 
BRANCH  12  13
HETATM   13  C6  UNL     1     -23.383  31.588 -15.594  1.00  0.00     0.173 C 
HETATM   14  O3  UNL     1     -23.933  30.645 -16.208  1.00  0.00    -0.648 OA
HETATM   15  O4  UNL     1     -22.035  31.443 -15.252  1.00  0.00    -0.648 OA
ENDBRANCH  12  13
ENDBRANCH  11  12
BRANCH  11  16
HETATM   16  C7  UNL     1     -26.206  33.928 -15.553  1.00  0.00     0.178 C 
HETATM   17  O5  UNL     1     -25.563  34.841 -16.151  1.00  0.00    -0.648 OA
HETATM   18  O6  UNL     1     -27.519  34.244 -15.248  1.00  0.00    -0.648 OA
ENDBRANCH  11  16
ENDBRANCH  10  11
ENDBRANCH   1  10
TORSDOF 7
ENDMDL
