MODEL 2
REMARK VINA RESULT: -5.878592788      2.251      5.522
REMARK  7 active torsions:
REMARK  status: ('A' for Active; 'I' for Inactive)
REMARK    1  A    between atoms: C2_2  and  N1_3 
REMARK    2  A    between atoms: C2_2  and  P1_7 
REMARK    3  A    between atoms: P1_7  and  C3_10 
REMARK    4  A    between atoms: C3_10  and  C4_11 
REMARK    5  A    between atoms: C4_11  and  C5_12 
REMARK    6  A    between atoms: C4_11  and  C7_16 
REMARK    7  A    between atoms: C5_12  and  C6_13 
ROOT
HETATM    1  P1  UNL     1     -28.018  31.717 -12.845  1.00  0.00     0.137 P 
HETATM    2  O1  UNL     1     -28.959  32.503 -11.596  1.00  0.00    -0.666 OA
HETATM    3  O2  UNL     1     -29.087  31.540 -14.239  1.00  0.00    -0.666 OA
ENDROOT
BRANCH   1   4
HETATM    4  C2  UNL     1     -27.567  30.068 -12.306  1.00  0.00     0.270 C 
HETATM    5  C1  UNL     1     -28.016  29.857 -10.883  1.00  0.00     0.051 C 
BRANCH   4   6
HETATM    6  N1  UNL     1     -26.174  29.804 -12.420  1.00  0.00    -0.066 N 
ATOM      7  H13 UNL     1     -25.976  28.803 -12.443  1.00  0.00     0.275 HD
ATOM      8  H12 UNL     1     -25.813  30.049 -13.342  1.00  0.00     0.275 HD
ATOM      9  H11 UNL     1     -25.668  30.277 -11.672  1.00  0.00     0.275 HD
ENDBRANCH   4   6
ENDBRANCH   1   4
BRANCH   1  10
HETATM   10  C3  UNL     1     -26.581  32.696 -13.335  1.00  0.00     0.121 C 
BRANCH  10  11
HETATM   11  C4  UNL     1     -26.258  32.574 -14.801  1.00  0.00     0.106 C 
BRANCH  11  12
HETATM   12  C5  UNL     1     -24.871  32.105 -15.062  1.00  0.00     0.129 C 
BRANCH  12  13
HETATM   13  C6  UNL     1     -24.900  30.793 -15.738  1.00  0.00     0.173 C 
HETATM   14  O3  UNL     1     -23.980  30.352 -16.466  1.00  0.00    -0.648 OA
HETATM   15  O4  UNL     1     -26.026  29.985 -15.555  1.00  0.00    -0.648 OA
ENDBRANCH  12  13
ENDBRANCH  11  12
BRANCH  11  16
HETATM   16  C7  UNL     1     -26.458  33.907 -15.407  1.00  0.00     0.178 C 
HETATM   17  O5  UNL     1     -25.488  34.491 -15.974  1.00  0.00    -0.648 OA
HETATM   18  O6  UNL     1     -27.650  34.613 -15.416  1.00  0.00    -0.648 OA
ENDBRANCH  11  16
ENDBRANCH  10  11
ENDBRANCH   1  10
TORSDOF 7
ENDMDL
