MODEL 10
REMARK VINA RESULT: -6.365014315      2.719      5.519
REMARK  8 active torsions:
REMARK  status: ('A' for Active; 'I' for Inactive)
REMARK       I    between atoms: C1_2  and  N1_3 
REMARK    1  A    between atoms: C1_2  and  C2_7 
REMARK    2  A    between atoms: N1_3  and  O2_5 
REMARK    3  A    between atoms: C2_7  and  O3_8 
REMARK    4  A    between atoms: C2_7  and  C3_10 
REMARK    5  A    between atoms: C3_10  and  O4_11 
REMARK    6  A    between atoms: C3_10  and  C4_13 
REMARK    7  A    between atoms: C4_13  and  O5_14 
REMARK    8  A    between atoms: O5_14  and  P1_15 
ROOT
HETATM    1  C2  UNL     1      39.643  29.267  12.523  1.00  0.00     0.242 C 
ENDROOT
BRANCH   1   2
HETATM    2  C1  UNL     1      40.994  29.862  12.587  1.00  0.00     0.272 C 
HETATM    3  O1  UNL     1      41.217  30.936  11.974  1.00  0.00    -0.268 OA
HETATM    4  N1  UNL     1      42.044  29.263  13.315  1.00  0.00    -0.235 N 
ATOM      5  H1  UNL     1      41.849  28.391  13.809  1.00  0.00     0.197 HD
BRANCH   4   6
HETATM    6  O2  UNL     1      43.295  29.776  13.398  1.00  0.00    -0.287 OA
ATOM      7  H2  UNL     1      43.936  29.509  14.047  1.00  0.00     0.244 HD
ENDBRANCH   4   6
ENDBRANCH   1   2
BRANCH   1   8
HETATM    8  O3  UNL     1      39.061  29.416  11.269  1.00  0.00    -0.383 OA
ATOM      9  H3  UNL     1      39.662  29.792  10.636  1.00  0.00     0.210 HD
ENDBRANCH   1   8
BRANCH   1  10
HETATM   10  C3  UNL     1      38.738  29.835  13.601  1.00  0.00     0.180 C 
BRANCH  10  11
HETATM   11  O4  UNL     1      39.530  30.428  14.579  1.00  0.00    -0.390 OA
ATOM     12  H4  UNL     1      39.580  31.360  14.406  1.00  0.00     0.210 HD
ENDBRANCH  10  11
BRANCH  10  13
HETATM   13  C4  UNL     1      37.891  28.717  14.166  1.00  0.00     0.217 C 
BRANCH  13  14
HETATM   14  O5  UNL     1      37.892  27.658  13.302  1.00  0.00    -0.280 OA
BRANCH  14  15
HETATM   15  P1  UNL     1      36.418  27.071  12.862  1.00  0.00     0.422 P 
HETATM   16  O6  UNL     1      35.042  27.608  13.511  1.00  0.00    -0.617 OA
HETATM   17  O7  UNL     1      36.367  25.689  11.875  1.00  0.00    -0.617 OA
HETATM   18  O8  UNL     1      36.397  27.922  11.594  1.00  0.00    -0.617 OA
ENDBRANCH  14  15
ENDBRANCH  13  14
ENDBRANCH  10  13
ENDBRANCH   1  10
TORSDOF 8
ENDMDL
