MODEL 2
REMARK VINA RESULT: -6.697699445      0.474      1.033
REMARK  8 active torsions:
REMARK  status: ('A' for Active; 'I' for Inactive)
REMARK       I    between atoms: C1_2  and  N1_3 
REMARK    1  A    between atoms: C1_2  and  C2_7 
REMARK    2  A    between atoms: N1_3  and  O2_5 
REMARK    3  A    between atoms: C2_7  and  O3_8 
REMARK    4  A    between atoms: C2_7  and  C3_10 
REMARK    5  A    between atoms: C3_10  and  O4_11 
REMARK    6  A    between atoms: C3_10  and  C4_13 
REMARK    7  A    between atoms: C4_13  and  O5_14 
REMARK    8  A    between atoms: O5_14  and  P1_15 
ROOT
HETATM    1  C2  UNL     1      38.280  28.203  13.385  1.00  0.00     0.242 C 
ENDROOT
BRANCH   1   2
HETATM    2  C1  UNL     1      36.870  27.970  13.010  1.00  0.00     0.272 C 
HETATM    3  O1  UNL     1      36.547  28.008  11.796  1.00  0.00    -0.268 OA
HETATM    4  N1  UNL     1      35.873  27.704  13.972  1.00  0.00    -0.235 N 
ATOM      5  H1  UNL     1      36.149  27.674  14.954  1.00  0.00     0.197 HD
BRANCH   4   6
HETATM    6  O2  UNL     1      34.570  27.485  13.669  1.00  0.00    -0.287 OA
ATOM      7  H2  UNL     1      33.877  27.431  14.318  1.00  0.00     0.244 HD
ENDBRANCH   4   6
ENDBRANCH   1   2
BRANCH   1   8
HETATM    8  O3  UNL     1      38.656  27.467  14.503  1.00  0.00    -0.383 OA
ATOM      9  H3  UNL     1      39.194  27.971  15.101  1.00  0.00     0.210 HD
ENDBRANCH   1   8
BRANCH   1  10
HETATM   10  C3  UNL     1      38.555  29.680  13.603  1.00  0.00     0.180 C 
BRANCH  10  11
HETATM   11  O4  UNL     1      37.551  30.416  12.984  1.00  0.00    -0.390 OA
ATOM     12  H4  UNL     1      37.811  30.591  12.087  1.00  0.00     0.210 HD
ENDBRANCH  10  11
BRANCH  10  13
HETATM   13  C4  UNL     1      39.920  30.010  13.041  1.00  0.00     0.217 C 
BRANCH  13  14
HETATM   14  O5  UNL     1      40.835  29.102  13.495  1.00  0.00    -0.280 OA
BRANCH  14  15
HETATM   15  P1  UNL     1      42.372  29.265  12.926  1.00  0.00     0.422 P 
HETATM   16  O6  UNL     1      43.539  29.987  13.775  1.00  0.00    -0.617 OA
HETATM   17  O7  UNL     1      42.670  28.879  11.298  1.00  0.00    -0.617 OA
HETATM   18  O8  UNL     1      42.716  27.821  13.285  1.00  0.00    -0.617 OA
ENDBRANCH  14  15
ENDBRANCH  13  14
ENDBRANCH  10  13
ENDBRANCH   1  10
TORSDOF 8
ENDMDL
