MODEL 6
REMARK VINA RESULT: -6.528684715      2.639      5.108
REMARK  8 active torsions:
REMARK  status: ('A' for Active; 'I' for Inactive)
REMARK       I    between atoms: C1_2  and  N1_3 
REMARK    1  A    between atoms: C1_2  and  C2_7 
REMARK    2  A    between atoms: N1_3  and  O2_5 
REMARK    3  A    between atoms: C2_7  and  O3_8 
REMARK    4  A    between atoms: C2_7  and  C3_10 
REMARK    5  A    between atoms: C3_10  and  O4_11 
REMARK    6  A    between atoms: C3_10  and  C4_13 
REMARK    7  A    between atoms: C4_13  and  O5_14 
REMARK    8  A    between atoms: O5_14  and  P1_15 
ROOT
HETATM    1  C2  UNL     1      39.097  29.754  14.314  1.00  0.00     0.242 C 
ENDROOT
BRANCH   1   2
HETATM    2  C1  UNL     1      39.649  29.896  12.951  1.00  0.00     0.272 C 
HETATM    3  O1  UNL     1      40.657  30.624  12.774  1.00  0.00    -0.268 OA
HETATM    4  N1  UNL     1      39.079  29.239  11.840  1.00  0.00    -0.235 N 
ATOM      5  H1  UNL     1      38.261  28.650  11.998  1.00  0.00     0.197 HD
BRANCH   4   6
HETATM    6  O2  UNL     1      39.554  29.343  10.574  1.00  0.00    -0.287 OA
ATOM      7  H2  UNL     1      40.049  28.660  10.136  1.00  0.00     0.244 HD
ENDBRANCH   4   6
ENDBRANCH   1   2
BRANCH   1   8
HETATM    8  O3  UNL     1      39.550  30.750  15.172  1.00  0.00    -0.383 OA
ATOM      9  H3  UNL     1      38.872  31.382  15.379  1.00  0.00     0.210 HD
ENDBRANCH   1   8
BRANCH   1  10
HETATM   10  C3  UNL     1      39.393  28.381  14.890  1.00  0.00     0.180 C 
BRANCH  10  11
HETATM   11  O4  UNL     1      40.447  27.818  14.177  1.00  0.00    -0.390 OA
ATOM     12  H4  UNL     1      41.097  27.503  14.794  1.00  0.00     0.210 HD
ENDBRANCH  10  11
BRANCH  10  13
HETATM   13  C4  UNL     1      38.143  27.534  14.802  1.00  0.00     0.217 C 
BRANCH  13  14
HETATM   14  O5  UNL     1      37.112  28.288  14.315  1.00  0.00    -0.280 OA
BRANCH  14  15
HETATM   15  P1  UNL     1      36.164  27.579  13.170  1.00  0.00     0.422 P 
HETATM   16  O6  UNL     1      34.572  27.393  13.356  1.00  0.00    -0.617 OA
HETATM   17  O7  UNL     1      36.927  26.802  11.866  1.00  0.00    -0.617 OA
HETATM   18  O8  UNL     1      36.129  28.855  12.332  1.00  0.00    -0.617 OA
ENDBRANCH  14  15
ENDBRANCH  13  14
ENDBRANCH  10  13
ENDBRANCH   1  10
TORSDOF 8
ENDMDL
