MODEL 5
REMARK VINA RESULT: -6.583647442      2.832      4.729
REMARK  8 active torsions:
REMARK  status: ('A' for Active; 'I' for Inactive)
REMARK       I    between atoms: C1_2  and  N1_3 
REMARK    1  A    between atoms: C1_2  and  C2_7 
REMARK    2  A    between atoms: N1_3  and  O2_5 
REMARK    3  A    between atoms: C2_7  and  O3_8 
REMARK    4  A    between atoms: C2_7  and  C3_10 
REMARK    5  A    between atoms: C3_10  and  O4_11 
REMARK    6  A    between atoms: C3_10  and  C4_13 
REMARK    7  A    between atoms: C4_13  and  O5_14 
REMARK    8  A    between atoms: O5_14  and  P1_15 
ROOT
HETATM    1  C2  UNL     1      36.741  28.364  14.329  1.00  0.00     0.242 C 
ENDROOT
BRANCH   1   2
HETATM    2  C1  UNL     1      37.652  29.454  13.925  1.00  0.00     0.272 C 
HETATM    3  O1  UNL     1      37.344  30.176  12.943  1.00  0.00    -0.268 OA
HETATM    4  N1  UNL     1      38.861  29.712  14.607  1.00  0.00    -0.235 N 
ATOM      5  H1  UNL     1      39.098  29.120  15.402  1.00  0.00     0.197 HD
BRANCH   4   6
HETATM    6  O2  UNL     1      39.724  30.700  14.268  1.00  0.00    -0.287 OA
ATOM      7  H2  UNL     1      40.613  30.548  13.967  1.00  0.00     0.244 HD
ENDBRANCH   4   6
ENDBRANCH   1   2
BRANCH   1   8
HETATM    8  O3  UNL     1      37.404  27.348  15.007  1.00  0.00    -0.383 OA
ATOM      9  H3  UNL     1      37.405  26.532  14.520  1.00  0.00     0.210 HD
ENDBRANCH   1   8
BRANCH   1  10
HETATM   10  C3  UNL     1      35.987  27.805  13.136  1.00  0.00     0.180 C 
BRANCH  10  11
HETATM   11  O4  UNL     1      34.716  27.423  13.552  1.00  0.00    -0.390 OA
ATOM     12  H4  UNL     1      34.254  27.046  12.812  1.00  0.00     0.210 HD
ENDBRANCH  10  11
BRANCH  10  13
HETATM   13  C4  UNL     1      36.766  26.638  12.571  1.00  0.00     0.217 C 
BRANCH  13  14
HETATM   14  O5  UNL     1      36.501  26.513  11.235  1.00  0.00    -0.280 OA
BRANCH  14  15
HETATM   15  P1  UNL     1      37.495  27.336  10.212  1.00  0.00     0.422 P 
HETATM   16  O6  UNL     1      38.775  28.169  10.731  1.00  0.00    -0.617 OA
HETATM   17  O7  UNL     1      37.012  27.513   8.593  1.00  0.00    -0.617 OA
HETATM   18  O8  UNL     1      38.227  26.058   9.808  1.00  0.00    -0.617 OA
ENDBRANCH  14  15
ENDBRANCH  13  14
ENDBRANCH  10  13
ENDBRANCH   1  10
TORSDOF 8
ENDMDL
