MODEL 3
REMARK VINA RESULT: -6.618707658      0.893      1.801
REMARK  8 active torsions:
REMARK  status: ('A' for Active; 'I' for Inactive)
REMARK       I    between atoms: C1_2  and  N1_3 
REMARK    1  A    between atoms: C1_2  and  C2_7 
REMARK    2  A    between atoms: N1_3  and  O2_5 
REMARK    3  A    between atoms: C2_7  and  O3_8 
REMARK    4  A    between atoms: C2_7  and  C3_10 
REMARK    5  A    between atoms: C3_10  and  O4_11 
REMARK    6  A    between atoms: C3_10  and  C4_13 
REMARK    7  A    between atoms: C4_13  and  O5_14 
REMARK    8  A    between atoms: O5_14  and  P1_15 
ROOT
HETATM    1  C2  UNL     1      37.863  29.568  13.497  1.00  0.00     0.242 C 
ENDROOT
BRANCH   1   2
HETATM    2  C1  UNL     1      36.689  28.754  13.119  1.00  0.00     0.272 C 
HETATM    3  O1  UNL     1      36.358  28.685  11.908  1.00  0.00    -0.268 OA
HETATM    4  N1  UNL     1      35.927  28.049  14.074  1.00  0.00    -0.235 N 
ATOM      5  H1  UNL     1      36.207  28.113  15.053  1.00  0.00     0.197 HD
BRANCH   4   6
HETATM    6  O2  UNL     1      34.845  27.292  13.769  1.00  0.00    -0.287 OA
ATOM      7  H2  UNL     1      34.854  26.342  13.736  1.00  0.00     0.244 HD
ENDBRANCH   4   6
ENDBRANCH   1   2
BRANCH   1   8
HETATM    8  O3  UNL     1      37.888  30.792  12.837  1.00  0.00    -0.383 OA
ATOM      9  H3  UNL     1      37.861  31.526  13.440  1.00  0.00     0.210 HD
ENDBRANCH   1   8
BRANCH   1  10
HETATM   10  C3  UNL     1      39.158  28.812  13.264  1.00  0.00     0.180 C 
BRANCH  10  11
HETATM   11  O4  UNL     1      39.237  27.772  14.184  1.00  0.00    -0.390 OA
ATOM     12  H4  UNL     1      38.366  27.416  14.316  1.00  0.00     0.210 HD
ENDBRANCH  10  11
BRANCH  10  13
HETATM   13  C4  UNL     1      40.317  29.774  13.404  1.00  0.00     0.217 C 
BRANCH  13  14
HETATM   14  O5  UNL     1      41.229  29.541  12.412  1.00  0.00    -0.280 OA
BRANCH  14  15
HETATM   15  P1  UNL     1      42.766  29.204  12.896  1.00  0.00     0.422 P 
HETATM   16  O6  UNL     1      43.523  30.060  14.034  1.00  0.00    -0.617 OA
HETATM   17  O7  UNL     1      43.663  28.078  11.993  1.00  0.00    -0.617 OA
HETATM   18  O8  UNL     1      42.293  28.052  13.780  1.00  0.00    -0.617 OA
ENDBRANCH  14  15
ENDBRANCH  13  14
ENDBRANCH  10  13
ENDBRANCH   1  10
TORSDOF 8
ENDMDL
