MODEL 1
REMARK VINA RESULT: -6.808093867      0.000      0.000
REMARK  8 active torsions:
REMARK  status: ('A' for Active; 'I' for Inactive)
REMARK       I    between atoms: C1_2  and  N1_3 
REMARK    1  A    between atoms: C1_2  and  C2_7 
REMARK    2  A    between atoms: N1_3  and  O2_5 
REMARK    3  A    between atoms: C2_7  and  O3_8 
REMARK    4  A    between atoms: C2_7  and  C3_10 
REMARK    5  A    between atoms: C3_10  and  O4_11 
REMARK    6  A    between atoms: C3_10  and  C4_13 
REMARK    7  A    between atoms: C4_13  and  O5_14 
REMARK    8  A    between atoms: O5_14  and  P1_15 
ROOT
HETATM    1  C2  UNL     1      38.310  28.307  13.281  1.00  0.00     0.242 C 
ENDROOT
BRANCH   1   2
HETATM    2  C1  UNL     1      36.906  28.003  12.937  1.00  0.00     0.272 C 
HETATM    3  O1  UNL     1      36.568  27.968  11.727  1.00  0.00    -0.268 OA
HETATM    4  N1  UNL     1      35.930  27.752  13.924  1.00  0.00    -0.235 N 
ATOM      5  H1  UNL     1      36.217  27.783  14.902  1.00  0.00     0.197 HD
BRANCH   4   6
HETATM    6  O2  UNL     1      34.633  27.470  13.650  1.00  0.00    -0.287 OA
ATOM      7  H2  UNL     1      33.992  28.123  13.390  1.00  0.00     0.244 HD
ENDBRANCH   4   6
ENDBRANCH   1   2
BRANCH   1   8
HETATM    8  O3  UNL     1      38.771  27.534  14.341  1.00  0.00    -0.383 OA
ATOM      9  H3  UNL     1      39.262  28.045  14.973  1.00  0.00     0.210 HD
ENDBRANCH   1   8
BRANCH   1  10
HETATM   10  C3  UNL     1      38.499  29.784  13.579  1.00  0.00     0.180 C 
BRANCH  10  11
HETATM   11  O4  UNL     1      37.410  30.483  13.069  1.00  0.00    -0.390 OA
ATOM     12  H4  UNL     1      36.614  30.026  13.314  1.00  0.00     0.210 HD
ENDBRANCH  10  11
BRANCH  10  13
HETATM   13  C4  UNL     1      39.800  30.244  12.961  1.00  0.00     0.217 C 
BRANCH  13  14
HETATM   14  O5  UNL     1      40.851  29.695  13.642  1.00  0.00    -0.280 OA
BRANCH  14  15
HETATM   15  P1  UNL     1      42.199  29.359  12.758  1.00  0.00     0.422 P 
HETATM   16  O6  UNL     1      42.716  30.316  11.567  1.00  0.00    -0.617 OA
HETATM   17  O7  UNL     1      42.923  27.833  12.948  1.00  0.00    -0.617 OA
HETATM   18  O8  UNL     1      43.118  29.882  13.860  1.00  0.00    -0.617 OA
ENDBRANCH  14  15
ENDBRANCH  13  14
ENDBRANCH  10  13
ENDBRANCH   1  10
TORSDOF 8
ENDMDL
