MODEL 7
REMARK VINA RESULT: -6.466763635      0.570      1.361
REMARK  8 active torsions:
REMARK  status: ('A' for Active; 'I' for Inactive)
REMARK       I    between atoms: C1_2  and  N1_3 
REMARK    1  A    between atoms: C1_2  and  C2_7 
REMARK    2  A    between atoms: N1_3  and  O2_5 
REMARK    3  A    between atoms: C2_7  and  O3_8 
REMARK    4  A    between atoms: C2_7  and  C3_10 
REMARK    5  A    between atoms: C3_10  and  O4_11 
REMARK    6  A    between atoms: C3_10  and  C4_13 
REMARK    7  A    between atoms: C4_13  and  O5_14 
REMARK    8  A    between atoms: O5_14  and  P1_15 
ROOT
HETATM    1  C2  UNL     1      38.237  28.328  13.256  1.00  0.00     0.242 C 
ENDROOT
BRANCH   1   2
HETATM    2  C1  UNL     1      36.830  28.011  12.935  1.00  0.00     0.272 C 
HETATM    3  O1  UNL     1      36.468  27.993  11.732  1.00  0.00    -0.268 OA
HETATM    4  N1  UNL     1      35.878  27.727  13.936  1.00  0.00    -0.235 N 
ATOM      5  H1  UNL     1      36.185  27.744  14.909  1.00  0.00     0.197 HD
BRANCH   4   6
HETATM    6  O2  UNL     1      34.579  27.432  13.683  1.00  0.00    -0.287 OA
ATOM      7  H2  UNL     1      33.846  27.918  14.043  1.00  0.00     0.244 HD
ENDBRANCH   4   6
ENDBRANCH   1   2
BRANCH   1   8
HETATM    8  O3  UNL     1      38.716  27.574  14.321  1.00  0.00    -0.383 OA
ATOM      9  H3  UNL     1      39.404  28.022  14.800  1.00  0.00     0.210 HD
ENDBRANCH   1   8
BRANCH   1  10
HETATM   10  C3  UNL     1      38.420  29.810  13.530  1.00  0.00     0.180 C 
BRANCH  10  11
HETATM   11  O4  UNL     1      37.315  30.494  13.033  1.00  0.00    -0.390 OA
ATOM     12  H4  UNL     1      37.609  31.103  12.366  1.00  0.00     0.210 HD
ENDBRANCH  10  11
BRANCH  10  13
HETATM   13  C4  UNL     1      39.704  30.272  12.878  1.00  0.00     0.217 C 
BRANCH  13  14
HETATM   14  O5  UNL     1      40.771  29.870  13.633  1.00  0.00    -0.280 OA
BRANCH  14  15
HETATM   15  P1  UNL     1      42.097  29.348  12.805  1.00  0.00     0.422 P 
HETATM   16  O6  UNL     1      42.836  27.955  13.143  1.00  0.00    -0.617 OA
HETATM   17  O7  UNL     1      42.848  30.430  11.731  1.00  0.00    -0.617 OA
HETATM   18  O8  UNL     1      41.242  28.854  11.640  1.00  0.00    -0.617 OA
ENDBRANCH  14  15
ENDBRANCH  13  14
ENDBRANCH  10  13
ENDBRANCH   1  10
TORSDOF 8
ENDMDL
