MODEL 4
REMARK VINA RESULT: -6.592732976      0.650      1.435
REMARK  8 active torsions:
REMARK  status: ('A' for Active; 'I' for Inactive)
REMARK       I    between atoms: C1_2  and  N1_3 
REMARK    1  A    between atoms: C1_2  and  C2_7 
REMARK    2  A    between atoms: N1_3  and  O2_5 
REMARK    3  A    between atoms: C2_7  and  O3_8 
REMARK    4  A    between atoms: C2_7  and  C3_10 
REMARK    5  A    between atoms: C3_10  and  O4_11 
REMARK    6  A    between atoms: C3_10  and  C4_13 
REMARK    7  A    between atoms: C4_13  and  O5_14 
REMARK    8  A    between atoms: O5_14  and  P1_15 
ROOT
HETATM    1  C2  UNL     1      37.565  29.479  13.688  1.00  0.00     0.242 C 
ENDROOT
BRANCH   1   2
HETATM    2  C1  UNL     1      36.512  28.580  13.172  1.00  0.00     0.272 C 
HETATM    3  O1  UNL     1      36.474  28.327  11.942  1.00  0.00    -0.268 OA
HETATM    4  N1  UNL     1      35.545  27.996  14.018  1.00  0.00    -0.235 N 
ATOM      5  H1  UNL     1      35.587  28.209  15.015  1.00  0.00     0.197 HD
BRANCH   4   6
HETATM    6  O2  UNL     1      34.563  27.168  13.585  1.00  0.00    -0.287 OA
ATOM      7  H2  UNL     1      34.115  26.541  14.141  1.00  0.00     0.244 HD
ENDBRANCH   4   6
ENDBRANCH   1   2
BRANCH   1   8
HETATM    8  O3  UNL     1      37.623  30.678  12.988  1.00  0.00    -0.383 OA
ATOM      9  H3  UNL     1      38.418  31.165  13.172  1.00  0.00     0.210 HD
ENDBRANCH   1   8
BRANCH   1  10
HETATM   10  C3  UNL     1      38.921  28.797  13.688  1.00  0.00     0.180 C 
BRANCH  10  11
HETATM   11  O4  UNL     1      39.384  28.726  14.998  1.00  0.00    -0.390 OA
ATOM     12  H4  UNL     1      38.900  28.049  15.455  1.00  0.00     0.210 HD
ENDBRANCH  10  11
BRANCH  10  13
HETATM   13  C4  UNL     1      39.863  29.582  12.802  1.00  0.00     0.217 C 
BRANCH  13  14
HETATM   14  O5  UNL     1      41.028  29.826  13.474  1.00  0.00    -0.280 OA
BRANCH  14  15
HETATM   15  P1  UNL     1      42.419  29.383  12.712  1.00  0.00     0.422 P 
HETATM   16  O6  UNL     1      43.114  30.295  11.577  1.00  0.00    -0.617 OA
HETATM   17  O7  UNL     1      42.999  27.804  12.955  1.00  0.00    -0.617 OA
HETATM   18  O8  UNL     1      43.274  29.832  13.894  1.00  0.00    -0.617 OA
ENDBRANCH  14  15
ENDBRANCH  13  14
ENDBRANCH  10  13
ENDBRANCH   1  10
TORSDOF 8
ENDMDL
