MODEL 13
REMARK VINA RESULT: -8.982470367      2.498      4.383
REMARK  10 active torsions:
REMARK  status: ('A' for Active; 'I' for Inactive)
REMARK    1  A    between atoms: N2_5  and  C4_6 
REMARK    2  A    between atoms: C5_8  and  C6_9 
REMARK    3  A    between atoms: C6_9  and  O2_10 
REMARK    4  A    between atoms: O2_10  and  P1_11 
REMARK    5  A    between atoms: P1_11  and  O5_14 
REMARK    6  A    between atoms: O5_14  and  P2_15 
REMARK    7  A    between atoms: P2_15  and  O8_18 
REMARK    8  A    between atoms: O8_18  and  P3_19 
REMARK    9  A    between atoms: C7_23  and  O12_24 
REMARK   10  A    between atoms: C8_26  and  O13_27 
ROOT
HETATM    1  C4  UNL     1     -14.293  65.580 109.396  1.00  0.00     0.263 C 
HETATM    2  O1  UNL     1     -13.033  66.020 109.697  1.00  0.00    -0.353 OA
HETATM    3  C5  UNL     1     -12.131  65.499 108.815  1.00  0.00     0.180 C 
HETATM    4  C7  UNL     1     -12.872  64.624 107.832  1.00  0.00     0.182 C 
HETATM    5  C8  UNL     1     -14.272  65.198 107.929  1.00  0.00     0.198 C 
ENDROOT
BRANCH   3   6
HETATM    6  C6  UNL     1     -11.437  66.580 108.003  1.00  0.00     0.216 C 
BRANCH   6   7
HETATM    7  O2  UNL     1     -11.026  66.087 106.763  1.00  0.00    -0.287 OA
BRANCH   7   8
HETATM    8  P1  UNL     1     -11.149  67.239 105.555  1.00  0.00     0.417 P 
HETATM    9  O3  UNL     1     -10.357  66.854 104.334  1.00  0.00    -0.624 OA
HETATM   10  O4  UNL     1     -10.570  68.709 106.173  1.00  0.00    -0.624 OA
BRANCH   8  11
HETATM   11  O5  UNL     1     -12.788  67.470 105.194  1.00  0.00    -0.180 OA
BRANCH  11  12
HETATM   12  P2  UNL     1     -13.322  66.385 104.032  1.00  0.00     0.428 P 
HETATM   13  O6  UNL     1     -12.921  64.978 104.459  1.00  0.00    -0.624 OA
HETATM   14  O7  UNL     1     -12.612  66.770 102.558  1.00  0.00    -0.624 OA
BRANCH  12  15
HETATM   15  O8  UNL     1     -15.001  66.417 103.843  1.00  0.00    -0.173 OA
BRANCH  15  16
HETATM   16  P3  UNL     1     -15.470  67.574 102.712  1.00  0.00     0.431 P 
HETATM   17  O9  UNL     1     -14.740  68.876 102.910  1.00  0.00    -0.616 OA
HETATM   18  O10 UNL     1     -15.231  67.076 101.130  1.00  0.00    -0.616 OA
HETATM   19  O11 UNL     1     -17.120  67.891 102.976  1.00  0.00    -0.616 OA
ENDBRANCH  15  16
ENDBRANCH  12  15
ENDBRANCH  11  12
ENDBRANCH   8  11
ENDBRANCH   7   8
ENDBRANCH   6   7
ENDBRANCH   3   6
BRANCH   4  20
HETATM   20  O12 UNL     1     -12.875  63.311 108.306  1.00  0.00    -0.390 OA
ATOM     21  H12 UNL     1     -12.130  63.189 108.882  1.00  0.00     0.210 HD
ENDBRANCH   4  20
BRANCH   1  22
HETATM   22  N2  UNL     1     -15.341  66.525 109.692  1.00  0.00    -0.280 N 
HETATM   23  C3  UNL     1     -15.261  67.841 109.446  1.00  0.00     0.102 A 
HETATM   24  C2  UNL     1     -16.297  68.707 109.749  1.00  0.00     0.062 A 
HETATM   25  C1  UNL     1     -17.452  68.202 110.323  1.00  0.00     0.121 A 
HETATM   26  N1  UNL     1     -18.519  69.080 110.637  1.00  0.00    -0.083 NA
HETATM   27  N3  UNL     1     -17.497  66.880 110.555  1.00  0.00    -0.297 N 
HETATM   28  C9  UNL     1     -16.469  66.048 110.250  1.00  0.00     0.329 A 
ATOM     29  H3  UNL     1     -18.338  66.486 110.977  1.00  0.00     0.171 HD
HETATM   30  O14 UNL     1     -16.571  64.805 110.494  1.00  0.00    -0.246 OA
ENDBRANCH   1  22
BRANCH   5  31
HETATM   31  O13 UNL     1     -15.241  64.252 107.620  1.00  0.00    -0.388 OA
ATOM     32  H13 UNL     1     -15.827  64.550 106.935  1.00  0.00     0.210 HD
ENDBRANCH   5  31
TORSDOF 10
ENDMDL
