MODEL 3
REMARK VINA RESULT: -9.849293758      1.076      1.837
REMARK  10 active torsions:
REMARK  status: ('A' for Active; 'I' for Inactive)
REMARK    1  A    between atoms: N2_5  and  C4_6 
REMARK    2  A    between atoms: C5_8  and  C6_9 
REMARK    3  A    between atoms: C6_9  and  O2_10 
REMARK    4  A    between atoms: O2_10  and  P1_11 
REMARK    5  A    between atoms: P1_11  and  O5_14 
REMARK    6  A    between atoms: O5_14  and  P2_15 
REMARK    7  A    between atoms: P2_15  and  O8_18 
REMARK    8  A    between atoms: O8_18  and  P3_19 
REMARK    9  A    between atoms: C7_23  and  O12_24 
REMARK   10  A    between atoms: C8_26  and  O13_27 
ROOT
HETATM    1  C4  UNL     1     -14.658  67.728 110.509  1.00  0.00     0.263 C 
HETATM    2  O1  UNL     1     -14.709  66.378 110.727  1.00  0.00    -0.353 OA
HETATM    3  C5  UNL     1     -15.998  65.938 110.643  1.00  0.00     0.180 C 
HETATM    4  C7  UNL     1     -16.889  67.119 110.339  1.00  0.00     0.182 C 
HETATM    5  C8  UNL     1     -15.898  68.077 109.710  1.00  0.00     0.198 C 
ENDROOT
BRANCH   3   6
HETATM    6  C6  UNL     1     -16.189  64.943 109.510  1.00  0.00     0.216 C 
BRANCH   6   7
HETATM    7  O2  UNL     1     -14.992  64.293 109.207  1.00  0.00    -0.287 OA
BRANCH   7   8
HETATM    8  P1  UNL     1     -14.596  64.422 107.587  1.00  0.00     0.417 P 
HETATM    9  O3  UNL     1     -15.296  63.380 106.756  1.00  0.00    -0.624 OA
HETATM   10  O4  UNL     1     -12.916  64.235 107.442  1.00  0.00    -0.624 OA
BRANCH   8  11
HETATM   11  O5  UNL     1     -14.961  65.992 107.064  1.00  0.00    -0.180 OA
BRANCH  11  12
HETATM   12  P2  UNL     1     -15.100  66.069 105.395  1.00  0.00     0.428 P 
HETATM   13  O6  UNL     1     -16.481  65.561 104.998  1.00  0.00    -0.624 OA
HETATM   14  O7  UNL     1     -13.906  65.108 104.703  1.00  0.00    -0.624 OA
BRANCH  12  15
HETATM   15  O8  UNL     1     -14.930  67.643 104.805  1.00  0.00    -0.173 OA
BRANCH  15  16
HETATM   16  P3  UNL     1     -15.284  67.725 103.160  1.00  0.00     0.431 P 
HETATM   17  O9  UNL     1     -14.823  66.492 102.428  1.00  0.00    -0.616 OA
HETATM   18  O10 UNL     1     -16.918  67.935 102.854  1.00  0.00    -0.616 OA
HETATM   19  O11 UNL     1     -14.403  69.033 102.524  1.00  0.00    -0.616 OA
ENDBRANCH  15  16
ENDBRANCH  12  15
ENDBRANCH  11  12
ENDBRANCH   8  11
ENDBRANCH   7   8
ENDBRANCH   6   7
ENDBRANCH   3   6
BRANCH   4  20
HETATM   20  O12 UNL     1     -17.357  67.656 111.540  1.00  0.00    -0.390 OA
ATOM     21  H12 UNL     1     -18.213  68.041 111.393  1.00  0.00     0.210 HD
ENDBRANCH   4  20
BRANCH   1  22
HETATM   22  N2  UNL     1     -13.453  68.181 109.860  1.00  0.00    -0.280 N 
HETATM   23  C3  UNL     1     -13.126  67.895 108.592  1.00  0.00     0.102 A 
HETATM   24  C2  UNL     1     -11.956  68.356 108.015  1.00  0.00     0.062 A 
HETATM   25  C1  UNL     1     -11.095  69.138 108.768  1.00  0.00     0.121 A 
HETATM   26  N1  UNL     1      -9.894  69.615 108.187  1.00  0.00    -0.083 NA
HETATM   27  N3  UNL     1     -11.454  69.404 110.034  1.00  0.00    -0.297 N 
HETATM   28  C9  UNL     1     -12.608  68.942 110.581  1.00  0.00     0.329 A 
ATOM     29  H3  UNL     1     -10.836  69.978 110.608  1.00  0.00     0.171 HD
HETATM   30  O14 UNL     1     -12.893  69.228 111.786  1.00  0.00    -0.246 OA
ENDBRANCH   1  22
BRANCH   5  31
HETATM   31  O13 UNL     1     -16.277  69.402 109.884  1.00  0.00    -0.388 OA
ATOM     32  H13 UNL     1     -16.753  69.740 109.135  1.00  0.00     0.210 HD
ENDBRANCH   5  31
TORSDOF 10
ENDMDL
