MODEL 17
REMARK VINA RESULT: -8.873441035      3.037      4.792
REMARK  10 active torsions:
REMARK  status: ('A' for Active; 'I' for Inactive)
REMARK    1  A    between atoms: N2_5  and  C4_6 
REMARK    2  A    between atoms: C5_8  and  C6_9 
REMARK    3  A    between atoms: C6_9  and  O2_10 
REMARK    4  A    between atoms: O2_10  and  P1_11 
REMARK    5  A    between atoms: P1_11  and  O5_14 
REMARK    6  A    between atoms: O5_14  and  P2_15 
REMARK    7  A    between atoms: P2_15  and  O8_18 
REMARK    8  A    between atoms: O8_18  and  P3_19 
REMARK    9  A    between atoms: C7_23  and  O12_24 
REMARK   10  A    between atoms: C8_26  and  O13_27 
ROOT
HETATM    1  C4  UNL     1     -14.278  66.458 109.745  1.00  0.00     0.263 C 
HETATM    2  O1  UNL     1     -14.084  65.142 109.426  1.00  0.00    -0.353 OA
HETATM    3  C5  UNL     1     -15.272  64.560 109.092  1.00  0.00     0.180 C 
HETATM    4  C7  UNL     1     -16.363  65.599 109.202  1.00  0.00     0.182 C 
HETATM    5  C8  UNL     1     -15.562  66.878 109.057  1.00  0.00     0.198 C 
ENDROOT
BRANCH   3   6
HETATM    6  C6  UNL     1     -15.282  64.067 107.654  1.00  0.00     0.216 C 
BRANCH   6   7
HETATM    7  O2  UNL     1     -14.028  64.227 107.061  1.00  0.00    -0.287 OA
BRANCH   7   8
HETATM    8  P1  UNL     1     -13.488  62.817 106.340  1.00  0.00     0.417 P 
HETATM    9  O3  UNL     1     -13.630  61.632 107.256  1.00  0.00    -0.624 OA
HETATM   10  O4  UNL     1     -11.856  63.032 105.930  1.00  0.00    -0.624 OA
BRANCH   8  11
HETATM   11  O5  UNL     1     -14.333  62.594 104.888  1.00  0.00    -0.180 OA
BRANCH  11  12
HETATM   12  P2  UNL     1     -15.002  61.059 104.794  1.00  0.00     0.428 P 
HETATM   13  O6  UNL     1     -13.877  60.034 104.867  1.00  0.00    -0.624 OA
HETATM   14  O7  UNL     1     -15.830  60.912 103.339  1.00  0.00    -0.624 OA
BRANCH  12  15
HETATM   15  O8  UNL     1     -16.079  60.747 106.059  1.00  0.00    -0.173 OA
BRANCH  15  16
HETATM   16  P3  UNL     1     -16.390  59.098 106.207  1.00  0.00     0.431 P 
HETATM   17  O9  UNL     1     -16.743  58.475 104.882  1.00  0.00    -0.616 OA
HETATM   18  O10 UNL     1     -15.103  58.247 106.859  1.00  0.00    -0.616 OA
HETATM   19  O11 UNL     1     -17.757  58.936 107.205  1.00  0.00    -0.616 OA
ENDBRANCH  15  16
ENDBRANCH  12  15
ENDBRANCH  11  12
ENDBRANCH   8  11
ENDBRANCH   7   8
ENDBRANCH   6   7
ENDBRANCH   3   6
BRANCH   4  20
HETATM   20  O12 UNL     1     -16.917  65.541 110.482  1.00  0.00    -0.390 OA
ATOM     21  H12 UNL     1     -17.401  64.728 110.572  1.00  0.00     0.210 HD
ENDBRANCH   4  20
BRANCH   1  22
HETATM   22  N2  UNL     1     -13.176  67.323 109.404  1.00  0.00    -0.280 N 
HETATM   23  C3  UNL     1     -12.410  67.173 108.314  1.00  0.00     0.102 A 
HETATM   24  C2  UNL     1     -11.362  68.032 108.031  1.00  0.00     0.062 A 
HETATM   25  C1  UNL     1     -11.096  69.079 108.897  1.00  0.00     0.121 A 
HETATM   26  N1  UNL     1     -10.026  69.965 108.617  1.00  0.00    -0.083 NA
HETATM   27  N3  UNL     1     -11.884  69.199 109.978  1.00  0.00    -0.297 N 
HETATM   28  C9  UNL     1     -12.907  68.345 110.237  1.00  0.00     0.329 A 
ATOM     29  H3  UNL     1     -11.707  69.963 110.630  1.00  0.00     0.171 HD
HETATM   30  O14 UNL     1     -13.618  68.510 111.278  1.00  0.00    -0.246 OA
ENDBRANCH   1  22
BRANCH   5  31
HETATM   31  O13 UNL     1     -16.175  67.947 109.699  1.00  0.00    -0.388 OA
ATOM     32  H13 UNL     1     -15.600  68.362 110.331  1.00  0.00     0.210 HD
ENDBRANCH   5  31
TORSDOF 10
ENDMDL
