MODEL 5
REMARK VINA RESULT: -9.509219348      0.913      1.408
REMARK  10 active torsions:
REMARK  status: ('A' for Active; 'I' for Inactive)
REMARK    1  A    between atoms: N2_5  and  C4_6 
REMARK    2  A    between atoms: C5_8  and  C6_9 
REMARK    3  A    between atoms: C6_9  and  O2_10 
REMARK    4  A    between atoms: O2_10  and  P1_11 
REMARK    5  A    between atoms: P1_11  and  O5_14 
REMARK    6  A    between atoms: O5_14  and  P2_15 
REMARK    7  A    between atoms: P2_15  and  O8_18 
REMARK    8  A    between atoms: O8_18  and  P3_19 
REMARK    9  A    between atoms: C7_23  and  O12_24 
REMARK   10  A    between atoms: C8_26  and  O13_27 
ROOT
HETATM    1  C4  UNL     1     -14.324  67.045 110.000  1.00  0.00     0.263 C 
HETATM    2  O1  UNL     1     -14.346  65.740 109.591  1.00  0.00    -0.353 OA
HETATM    3  C5  UNL     1     -15.632  65.341 109.366  1.00  0.00     0.180 C 
HETATM    4  C7  UNL     1     -16.553  66.503 109.656  1.00  0.00     0.182 C 
HETATM    5  C8  UNL     1     -15.606  67.674 109.488  1.00  0.00     0.198 C 
ENDROOT
BRANCH   3   6
HETATM    6  C6  UNL     1     -15.863  64.952 107.915  1.00  0.00     0.216 C 
BRANCH   6   7
HETATM    7  O2  UNL     1     -15.165  63.787 107.591  1.00  0.00    -0.287 OA
BRANCH   7   8
HETATM    8  P1  UNL     1     -14.114  64.018 106.310  1.00  0.00     0.417 P 
HETATM    9  O3  UNL     1     -14.520  63.213 105.104  1.00  0.00    -0.624 OA
HETATM   10  O4  UNL     1     -12.563  63.551 106.814  1.00  0.00    -0.624 OA
BRANCH   8  11
HETATM   11  O5  UNL     1     -14.039  65.675 105.963  1.00  0.00    -0.180 OA
BRANCH  11  12
HETATM   12  P2  UNL     1     -13.235  65.966 104.521  1.00  0.00     0.428 P 
HETATM   13  O6  UNL     1     -12.329  64.778 104.220  1.00  0.00    -0.624 OA
HETATM   14  O7  UNL     1     -12.321  67.368 104.678  1.00  0.00    -0.624 OA
BRANCH  12  15
HETATM   15  O8  UNL     1     -14.295  66.160 103.219  1.00  0.00    -0.173 OA
BRANCH  15  16
HETATM   16  P3  UNL     1     -15.549  67.218 103.601  1.00  0.00     0.431 P 
HETATM   17  O9  UNL     1     -16.666  66.518 104.329  1.00  0.00    -0.616 OA
HETATM   18  O10 UNL     1     -15.048  68.516 104.533  1.00  0.00    -0.616 OA
HETATM   19  O11 UNL     1     -16.196  67.777 102.130  1.00  0.00    -0.616 OA
ENDBRANCH  15  16
ENDBRANCH  12  15
ENDBRANCH  11  12
ENDBRANCH   8  11
ENDBRANCH   7   8
ENDBRANCH   6   7
ENDBRANCH   3   6
BRANCH   4  20
HETATM   20  O12 UNL     1     -16.969  66.430 110.986  1.00  0.00    -0.390 OA
ATOM     21  H12 UNL     1     -17.541  65.679 111.090  1.00  0.00     0.210 HD
ENDBRANCH   4  20
BRANCH   1  22
HETATM   22  N2  UNL     1     -13.158  67.781 109.580  1.00  0.00    -0.280 N 
HETATM   23  C3  UNL     1     -12.554  67.624 108.393  1.00  0.00     0.102 A 
HETATM   24  C2  UNL     1     -11.435  68.357 108.038  1.00  0.00     0.062 A 
HETATM   25  C1  UNL     1     -10.922  69.281 108.933  1.00  0.00     0.121 A 
HETATM   26  N1  UNL     1      -9.777  70.037 108.579  1.00  0.00    -0.083 NA
HETATM   27  N3  UNL     1     -11.552  69.412 110.111  1.00  0.00    -0.297 N 
HETATM   28  C9  UNL     1     -12.649  68.683 110.440  1.00  0.00     0.329 A 
ATOM     29  H3  UNL     1     -11.192  70.087 110.786  1.00  0.00     0.171 HD
HETATM   30  O14 UNL     1     -13.202  68.852 111.572  1.00  0.00    -0.246 OA
ENDBRANCH   1  22
BRANCH   5  31
HETATM   31  O13 UNL     1     -15.994  68.767 110.252  1.00  0.00    -0.388 OA
ATOM     32  H13 UNL     1     -15.580  68.772 111.106  1.00  0.00     0.210 HD
ENDBRANCH   5  31
TORSDOF 10
ENDMDL
