MODEL 2
REMARK VINA RESULT: -9.878606193      0.950      1.936
REMARK  10 active torsions:
REMARK  status: ('A' for Active; 'I' for Inactive)
REMARK    1  A    between atoms: N2_5  and  C4_6 
REMARK    2  A    between atoms: C5_8  and  C6_9 
REMARK    3  A    between atoms: C6_9  and  O2_10 
REMARK    4  A    between atoms: O2_10  and  P1_11 
REMARK    5  A    between atoms: P1_11  and  O5_14 
REMARK    6  A    between atoms: O5_14  and  P2_15 
REMARK    7  A    between atoms: P2_15  and  O8_18 
REMARK    8  A    between atoms: O8_18  and  P3_19 
REMARK    9  A    between atoms: C7_23  and  O12_24 
REMARK   10  A    between atoms: C8_26  and  O13_27 
ROOT
HETATM    1  C4  UNL     1     -14.497  67.553 110.448  1.00  0.00     0.263 C 
HETATM    2  O1  UNL     1     -14.507  66.190 110.560  1.00  0.00    -0.353 OA
HETATM    3  C5  UNL     1     -15.785  65.721 110.453  1.00  0.00     0.180 C 
HETATM    4  C7  UNL     1     -16.712  66.895 110.250  1.00  0.00     0.182 C 
HETATM    5  C8  UNL     1     -15.755  67.928 109.689  1.00  0.00     0.198 C 
ENDROOT
BRANCH   3   6
HETATM    6  C6  UNL     1     -15.959  64.812 109.247  1.00  0.00     0.216 C 
BRANCH   6   7
HETATM    7  O2  UNL     1     -16.090  65.557 108.073  1.00  0.00    -0.287 OA
BRANCH   7   8
HETATM    8  P1  UNL     1     -15.090  64.994 106.855  1.00  0.00     0.417 P 
HETATM    9  O3  UNL     1     -15.843  64.153 105.860  1.00  0.00    -0.624 OA
HETATM   10  O4  UNL     1     -13.862  64.070 107.573  1.00  0.00    -0.624 OA
BRANCH   8  11
HETATM   11  O5  UNL     1     -14.338  66.321 106.116  1.00  0.00    -0.180 OA
BRANCH  11  12
HETATM   12  P2  UNL     1     -15.461  67.381 105.464  1.00  0.00     0.428 P 
HETATM   13  O6  UNL     1     -16.020  68.248 106.587  1.00  0.00    -0.624 OA
HETATM   14  O7  UNL     1     -16.696  66.496 104.745  1.00  0.00    -0.624 OA
BRANCH  12  15
HETATM   15  O8  UNL     1     -14.785  68.402 104.300  1.00  0.00    -0.173 OA
BRANCH  15  16
HETATM   16  P3  UNL     1     -14.685  67.642 102.800  1.00  0.00     0.431 P 
HETATM   17  O9  UNL     1     -14.288  66.195 102.933  1.00  0.00    -0.616 OA
HETATM   18  O10 UNL     1     -16.118  67.714 101.935  1.00  0.00    -0.616 OA
HETATM   19  O11 UNL     1     -13.444  68.414 101.930  1.00  0.00    -0.616 OA
ENDBRANCH  15  16
ENDBRANCH  12  15
ENDBRANCH  11  12
ENDBRANCH   8  11
ENDBRANCH   7   8
ENDBRANCH   6   7
ENDBRANCH   3   6
BRANCH   4  20
HETATM   20  O12 UNL     1     -17.181  67.323 111.493  1.00  0.00    -0.390 OA
ATOM     21  H12 UNL     1     -17.913  67.914 111.360  1.00  0.00     0.210 HD
ENDBRANCH   4  20
BRANCH   1  22
HETATM   22  N2  UNL     1     -13.312  68.091 109.827  1.00  0.00    -0.280 N 
HETATM   23  C3  UNL     1     -12.917  67.800 108.579  1.00  0.00     0.102 A 
HETATM   24  C2  UNL     1     -11.770  68.344 108.028  1.00  0.00     0.062 A 
HETATM   25  C1  UNL     1     -11.006  69.216 108.786  1.00  0.00     0.121 A 
HETATM   26  N1  UNL     1      -9.830  69.779 108.232  1.00  0.00    -0.083 NA
HETATM   27  N3  UNL     1     -11.432  69.485 110.031  1.00  0.00    -0.297 N 
HETATM   28  C9  UNL     1     -12.560  68.940 110.552  1.00  0.00     0.329 A 
ATOM     29  H3  UNL     1     -10.885  70.124 110.608  1.00  0.00     0.171 HD
HETATM   30  O14 UNL     1     -12.912  69.233 111.738  1.00  0.00    -0.246 OA
ENDBRANCH   1  22
BRANCH   5  31
HETATM   31  O13 UNL     1     -16.169  69.224 109.971  1.00  0.00    -0.388 OA
ATOM     32  H13 UNL     1     -17.066  69.253 110.284  1.00  0.00     0.210 HD
ENDBRANCH   5  31
TORSDOF 10
ENDMDL
