MODEL 1
REMARK VINA RESULT: -10.143304210      0.000      0.000
REMARK  10 active torsions:
REMARK  status: ('A' for Active; 'I' for Inactive)
REMARK    1  A    between atoms: N2_5  and  C4_6 
REMARK    2  A    between atoms: C5_8  and  C6_9 
REMARK    3  A    between atoms: C6_9  and  O2_10 
REMARK    4  A    between atoms: O2_10  and  P1_11 
REMARK    5  A    between atoms: P1_11  and  O5_14 
REMARK    6  A    between atoms: O5_14  and  P2_15 
REMARK    7  A    between atoms: P2_15  and  O8_18 
REMARK    8  A    between atoms: O8_18  and  P3_19 
REMARK    9  A    between atoms: C7_23  and  O12_24 
REMARK   10  A    between atoms: C8_26  and  O13_27 
ROOT
HETATM    1  C4  UNL     1     -14.429  67.458 110.322  1.00  0.00     0.263 C 
HETATM    2  O1  UNL     1     -14.455  66.092 110.256  1.00  0.00    -0.353 OA
HETATM    3  C5  UNL     1     -15.737  65.655 110.088  1.00  0.00     0.180 C 
HETATM    4  C7  UNL     1     -16.651  66.856 110.038  1.00  0.00     0.182 C 
HETATM    5  C8  UNL     1     -15.681  67.942 109.617  1.00  0.00     0.198 C 
ENDROOT
BRANCH   3   6
HETATM    6  C6  UNL     1     -15.919  64.913 108.773  1.00  0.00     0.216 C 
BRANCH   6   7
HETATM    7  O2  UNL     1     -14.705  64.793 108.094  1.00  0.00    -0.287 OA
BRANCH   7   8
HETATM    8  P1  UNL     1     -14.830  65.263 106.493  1.00  0.00     0.417 P 
HETATM    9  O3  UNL     1     -15.330  66.677 106.364  1.00  0.00    -0.624 OA
HETATM   10  O4  UNL     1     -15.904  64.202 105.719  1.00  0.00    -0.624 OA
BRANCH   8  11
HETATM   11  O5  UNL     1     -13.320  65.059 105.750  1.00  0.00    -0.180 OA
BRANCH  11  12
HETATM   12  P2  UNL     1     -13.187  65.990 104.362  1.00  0.00     0.428 P 
HETATM   13  O6  UNL     1     -12.193  65.320 103.421  1.00  0.00    -0.624 OA
HETATM   14  O7  UNL     1     -12.646  67.525 104.783  1.00  0.00    -0.624 OA
BRANCH  12  15
HETATM   15  O8  UNL     1     -14.659  66.145 103.546  1.00  0.00    -0.173 OA
BRANCH  15  16
HETATM   16  P3  UNL     1     -14.777  67.637 102.771  1.00  0.00     0.431 P 
HETATM   17  O9  UNL     1     -14.894  68.770 103.757  1.00  0.00    -0.616 OA
HETATM   18  O10 UNL     1     -13.478  67.953 101.762  1.00  0.00    -0.616 OA
HETATM   19  O11 UNL     1     -16.219  67.619 101.870  1.00  0.00    -0.616 OA
ENDBRANCH  15  16
ENDBRANCH  12  15
ENDBRANCH  11  12
ENDBRANCH   8  11
ENDBRANCH   7   8
ENDBRANCH   6   7
ENDBRANCH   3   6
BRANCH   4  20
HETATM   20  O12 UNL     1     -17.119  67.124 111.326  1.00  0.00    -0.390 OA
ATOM     21  H12 UNL     1     -17.155  68.065 111.451  1.00  0.00     0.210 HD
ENDBRANCH   4  20
BRANCH   1  22
HETATM   22  N2  UNL     1     -13.237  68.059 109.778  1.00  0.00    -0.280 N 
HETATM   23  C3  UNL     1     -12.762  67.810 108.549  1.00  0.00     0.102 A 
HETATM   24  C2  UNL     1     -11.612  68.414 108.073  1.00  0.00     0.062 A 
HETATM   25  C1  UNL     1     -10.929  69.303 108.887  1.00  0.00     0.121 A 
HETATM   26  N1  UNL     1      -9.750  69.927 108.409  1.00  0.00    -0.083 NA
HETATM   27  N3  UNL     1     -11.434  69.528 110.111  1.00  0.00    -0.297 N 
HETATM   28  C9  UNL     1     -12.565  68.924 110.559  1.00  0.00     0.329 A 
ATOM     29  H3  UNL     1     -10.949  70.178 110.729  1.00  0.00     0.171 HD
HETATM   30  O14 UNL     1     -12.993  69.177 111.729  1.00  0.00    -0.246 OA
ENDBRANCH   1  22
BRANCH   5  31
HETATM   31  O13 UNL     1     -16.082  69.195 110.064  1.00  0.00    -0.388 OA
ATOM     32  H13 UNL     1     -16.129  69.829 109.358  1.00  0.00     0.210 HD
ENDBRANCH   5  31
TORSDOF 10
ENDMDL
