MODEL 4
REMARK VINA RESULT: -9.773005199      0.706      1.417
REMARK  10 active torsions:
REMARK  status: ('A' for Active; 'I' for Inactive)
REMARK    1  A    between atoms: N2_5  and  C4_6 
REMARK    2  A    between atoms: C5_8  and  C6_9 
REMARK    3  A    between atoms: C6_9  and  O2_10 
REMARK    4  A    between atoms: O2_10  and  P1_11 
REMARK    5  A    between atoms: P1_11  and  O5_14 
REMARK    6  A    between atoms: O5_14  and  P2_15 
REMARK    7  A    between atoms: P2_15  and  O8_18 
REMARK    8  A    between atoms: O8_18  and  P3_19 
REMARK    9  A    between atoms: C7_23  and  O12_24 
REMARK   10  A    between atoms: C8_26  and  O13_27 
ROOT
HETATM    1  C4  UNL     1     -14.486  67.534 110.376  1.00  0.00     0.263 C 
HETATM    2  O1  UNL     1     -14.494  66.169 110.473  1.00  0.00    -0.353 OA
HETATM    3  C5  UNL     1     -15.769  65.698 110.348  1.00  0.00     0.180 C 
HETATM    4  C7  UNL     1     -16.697  66.872 110.149  1.00  0.00     0.182 C 
HETATM    5  C8  UNL     1     -15.737  67.914 109.609  1.00  0.00     0.198 C 
ENDROOT
BRANCH   3   6
HETATM    6  C6  UNL     1     -15.929  64.802 109.130  1.00  0.00     0.216 C 
BRANCH   6   7
HETATM    7  O2  UNL     1     -16.163  65.558 107.980  1.00  0.00    -0.287 OA
BRANCH   7   8
HETATM    8  P1  UNL     1     -15.122  65.151 106.735  1.00  0.00     0.417 P 
HETATM    9  O3  UNL     1     -15.772  64.226 105.743  1.00  0.00    -0.624 OA
HETATM   10  O4  UNL     1     -13.763  64.398 107.416  1.00  0.00    -0.624 OA
BRANCH   8  11
HETATM   11  O5  UNL     1     -14.575  66.577 106.000  1.00  0.00    -0.180 OA
BRANCH  11  12
HETATM   12  P2  UNL     1     -13.576  66.252 104.693  1.00  0.00     0.428 P 
HETATM   13  O6  UNL     1     -12.935  64.884 104.899  1.00  0.00    -0.624 OA
HETATM   14  O7  UNL     1     -12.392  67.441 104.600  1.00  0.00    -0.624 OA
BRANCH  12  15
HETATM   15  O8  UNL     1     -14.420  66.220 103.229  1.00  0.00    -0.173 OA
BRANCH  15  16
HETATM   16  P3  UNL     1     -15.658  67.363 103.209  1.00  0.00     0.431 P 
HETATM   17  O9  UNL     1     -16.095  67.687 101.805  1.00  0.00    -0.616 OA
HETATM   18  O10 UNL     1     -17.006  66.879 104.079  1.00  0.00    -0.616 OA
HETATM   19  O11 UNL     1     -15.025  68.796 103.871  1.00  0.00    -0.616 OA
ENDBRANCH  15  16
ENDBRANCH  12  15
ENDBRANCH  11  12
ENDBRANCH   8  11
ENDBRANCH   7   8
ENDBRANCH   6   7
ENDBRANCH   3   6
BRANCH   4  20
HETATM   20  O12 UNL     1     -17.180  67.285 111.391  1.00  0.00    -0.390 OA
ATOM     21  H12 UNL     1     -18.066  67.612 111.285  1.00  0.00     0.210 HD
ENDBRANCH   4  20
BRANCH   1  22
HETATM   22  N2  UNL     1     -13.297  68.082 109.774  1.00  0.00    -0.280 N 
HETATM   23  C3  UNL     1     -12.888  67.806 108.527  1.00  0.00     0.102 A 
HETATM   24  C2  UNL     1     -11.737  68.359 107.994  1.00  0.00     0.062 A 
HETATM   25  C1  UNL     1     -10.983  69.225 108.768  1.00  0.00     0.121 A 
HETATM   26  N1  UNL     1      -9.803  69.797 108.232  1.00  0.00    -0.083 NA
HETATM   27  N3  UNL     1     -11.423  69.479 110.011  1.00  0.00    -0.297 N 
HETATM   28  C9  UNL     1     -12.555  68.925 110.516  1.00  0.00     0.329 A 
ATOM     29  H3  UNL     1     -10.885  70.114 110.601  1.00  0.00     0.171 HD
HETATM   30  O14 UNL     1     -12.920  69.204 111.701  1.00  0.00    -0.246 OA
ENDBRANCH   1  22
BRANCH   5  31
HETATM   31  O13 UNL     1     -16.159  69.205 109.901  1.00  0.00    -0.388 OA
ATOM     32  H13 UNL     1     -16.917  69.214 110.473  1.00  0.00     0.210 HD
ENDBRANCH   5  31
TORSDOF 10
ENDMDL
