MODEL 9
REMARK VINA RESULT: -9.184843993      2.964      4.235
REMARK  10 active torsions:
REMARK  status: ('A' for Active; 'I' for Inactive)
REMARK    1  A    between atoms: N2_5  and  C4_6 
REMARK    2  A    between atoms: C5_8  and  C6_9 
REMARK    3  A    between atoms: C6_9  and  O2_10 
REMARK    4  A    between atoms: O2_10  and  P1_11 
REMARK    5  A    between atoms: P1_11  and  O5_14 
REMARK    6  A    between atoms: O5_14  and  P2_15 
REMARK    7  A    between atoms: P2_15  and  O8_18 
REMARK    8  A    between atoms: O8_18  and  P3_19 
REMARK    9  A    between atoms: C7_23  and  O12_24 
REMARK   10  A    between atoms: C8_26  and  O13_27 
ROOT
HETATM    1  C4  UNL     1     -15.131  64.593 108.446  1.00  0.00     0.263 C 
HETATM    2  O1  UNL     1     -13.810  64.397 108.744  1.00  0.00    -0.353 OA
HETATM    3  C5  UNL     1     -13.225  63.618 107.788  1.00  0.00     0.180 C 
HETATM    4  C7  UNL     1     -14.267  63.264 106.753  1.00  0.00     0.182 C 
HETATM    5  C8  UNL     1     -15.265  64.387 106.950  1.00  0.00     0.198 C 
ENDROOT
BRANCH   3   6
HETATM    6  C6  UNL     1     -12.113  64.353 107.056  1.00  0.00     0.216 C 
BRANCH   6   7
HETATM    7  O2  UNL     1     -11.946  65.643 107.563  1.00  0.00    -0.287 OA
BRANCH   7   8
HETATM    8  P1  UNL     1     -11.910  66.797 106.353  1.00  0.00     0.417 P 
HETATM    9  O3  UNL     1     -10.669  66.682 105.509  1.00  0.00    -0.624 OA
HETATM   10  O4  UNL     1     -11.964  68.325 107.086  1.00  0.00    -0.624 OA
BRANCH   8  11
HETATM   11  O5  UNL     1     -13.319  66.649 105.422  1.00  0.00    -0.180 OA
BRANCH  11  12
HETATM   12  P2  UNL     1     -12.964  66.453 103.795  1.00  0.00     0.428 P 
HETATM   13  O6  UNL     1     -12.192  65.150 103.619  1.00  0.00    -0.624 OA
HETATM   14  O7  UNL     1     -12.034  67.754 103.278  1.00  0.00    -0.624 OA
BRANCH  12  15
HETATM   15  O8  UNL     1     -14.354  66.373 102.837  1.00  0.00    -0.173 OA
BRANCH  15  16
HETATM   16  P3  UNL     1     -15.597  67.312 103.479  1.00  0.00     0.431 P 
HETATM   17  O9  UNL     1     -16.485  66.513 104.395  1.00  0.00    -0.616 OA
HETATM   18  O10 UNL     1     -15.037  68.646 104.325  1.00  0.00    -0.616 OA
HETATM   19  O11 UNL     1     -16.565  67.818 102.175  1.00  0.00    -0.616 OA
ENDBRANCH  15  16
ENDBRANCH  12  15
ENDBRANCH  11  12
ENDBRANCH   8  11
ENDBRANCH   7   8
ENDBRANCH   6   7
ENDBRANCH   3   6
BRANCH   4  20
HETATM   20  O12 UNL     1     -14.859  62.050 107.102  1.00  0.00    -0.390 OA
ATOM     21  H12 UNL     1     -15.799  62.119 106.984  1.00  0.00     0.210 HD
ENDBRANCH   4  20
BRANCH   1  22
HETATM   22  N2  UNL     1     -15.652  65.871 108.864  1.00  0.00    -0.280 N 
HETATM   23  C3  UNL     1     -15.408  67.027 108.231  1.00  0.00     0.102 A 
HETATM   24  C2  UNL     1     -15.933  68.229 108.673  1.00  0.00     0.062 A 
HETATM   25  C1  UNL     1     -16.737  68.240 109.802  1.00  0.00     0.121 A 
HETATM   26  N1  UNL     1     -17.280  69.464 110.262  1.00  0.00    -0.083 NA
HETATM   27  N3  UNL     1     -16.960  67.063 110.409  1.00  0.00    -0.297 N 
HETATM   28  C9  UNL     1     -16.434  65.895 109.959  1.00  0.00     0.329 A 
ATOM     29  H3  UNL     1     -17.549  67.046 111.241  1.00  0.00     0.171 HD
HETATM   30  O14 UNL     1     -16.682  64.813 110.577  1.00  0.00    -0.246 OA
ENDBRANCH   1  22
BRANCH   5  31
HETATM   31  O13 UNL     1     -16.551  64.005 106.588  1.00  0.00    -0.388 OA
ATOM     32  H13 UNL     1     -16.581  63.113 106.264  1.00  0.00     0.210 HD
ENDBRANCH   5  31
TORSDOF 10
ENDMDL
