MODEL 5
REMARK VINA RESULT: -7.855309883      1.336      2.036
REMARK  9 active torsions:
REMARK  status: ('A' for Active; 'I' for Inactive)
REMARK    1  A    between atoms: C4_9  and  C5_10 
REMARK    2  A    between atoms: C5_10  and  N3_11 
REMARK    3  A    between atoms: N3_11  and  C6_14 
REMARK    4  A    between atoms: C6_14  and  C7_15 
REMARK    5  A    between atoms: C6_14  and  C8_18 
REMARK    6  A    between atoms: C7_15  and  O2_16 
REMARK    7  A    between atoms: C8_18  and  O3_19 
REMARK    8  A    between atoms: C8_18  and  C9_21 
REMARK    9  A    between atoms: C9_21  and  O4_22 
ROOT
HETATM    1  C5  UNL     1     -45.044   0.213  -3.711  1.00  0.00     0.275 C 
ENDROOT
BRANCH   1   2
HETATM    2  C4  UNL     1     -44.767   1.421  -2.876  1.00  0.00     0.012 A 
HETATM    3  C3  UNL     1     -43.603   2.192  -2.881  1.00  0.00     0.075 A 
HETATM    4  N2  UNL     1     -42.462   2.077  -3.593  1.00  0.00    -0.350 N 
HETATM    5  C11 UNL     1     -43.778   3.204  -1.961  1.00  0.00     0.128 A 
HETATM    6  C2  UNL     1     -41.470   2.973  -3.403  1.00  0.00     0.184 A 
ATOM      7  H2  UNL     1     -42.351   1.321  -4.269  1.00  0.00     0.166 HD
HETATM    8  N1  UNL     1     -41.625   3.958  -2.515  1.00  0.00    -0.318 N 
HETATM    9  C1  UNL     1     -42.756   4.106  -1.781  1.00  0.00     0.275 A 
ATOM     10  H1  UNL     1     -40.864   4.624  -2.384  1.00  0.00     0.169 HD
HETATM   11  O1  UNL     1     -42.903   5.032  -0.947  1.00  0.00    -0.266 OA
HETATM   12  N4  UNL     1     -44.988   3.094  -1.394  1.00  0.00    -0.359 N 
HETATM   13  C10 UNL     1     -45.573   2.035  -1.939  1.00  0.00     0.099 A 
ATOM     14  H4  UNL     1     -45.383   3.706  -0.680  1.00  0.00     0.165 HD
ENDBRANCH   1   2
BRANCH   1  15
HETATM   15  N3  UNL     1     -43.916  -0.676  -3.526  1.00  0.00    -0.062 N 
ATOM     16  H32 UNL     1     -43.112  -0.161  -3.169  1.00  0.00     0.278 HD
ATOM     17  H31 UNL     1     -44.083  -1.304  -2.739  1.00  0.00     0.278 HD
BRANCH  15  18
HETATM   18  C6  UNL     1     -43.559  -1.417  -4.687  1.00  0.00     0.240 C 
BRANCH  18  19
HETATM   19  C7  UNL     1     -44.500  -0.998  -5.803  1.00  0.00     0.199 C 
BRANCH  19  20
HETATM   20  O2  UNL     1     -43.849  -1.253  -7.010  1.00  0.00    -0.399 OA
ATOM     21  H2  UNL     1     -43.992  -0.501  -7.571  1.00  0.00     0.209 HD
ENDBRANCH  19  20
ENDBRANCH  18  19
BRANCH  18  22
HETATM   22  C8  UNL     1     -43.805  -2.899  -4.459  1.00  0.00     0.174 C 
BRANCH  22  23
HETATM   23  O3  UNL     1     -44.903  -3.292  -5.182  1.00  0.00    -0.391 OA
ATOM     24  H3  UNL     1     -44.886  -4.236  -5.290  1.00  0.00     0.210 HD
ENDBRANCH  22  23
BRANCH  22  25
HETATM   25  C9  UNL     1     -43.900  -3.256  -3.008  1.00  0.00     0.198 C 
BRANCH  25  26
HETATM   26  O4  UNL     1     -44.558  -4.475  -2.867  1.00  0.00    -0.398 OA
ATOM     27  H4  UNL     1     -43.952  -5.129  -2.536  1.00  0.00     0.209 HD
ENDBRANCH  25  26
ENDBRANCH  22  25
ENDBRANCH  18  22
ENDBRANCH  15  18
ENDBRANCH   1  15
TORSDOF 9
ENDMDL
