MODEL 10
REMARK VINA RESULT: -7.292288543      1.931      6.045
REMARK  9 active torsions:
REMARK  status: ('A' for Active; 'I' for Inactive)
REMARK    1  A    between atoms: C4_9  and  C5_10 
REMARK    2  A    between atoms: C5_10  and  N3_11 
REMARK    3  A    between atoms: N3_11  and  C6_14 
REMARK    4  A    between atoms: C6_14  and  C7_15 
REMARK    5  A    between atoms: C6_14  and  C8_18 
REMARK    6  A    between atoms: C7_15  and  O2_16 
REMARK    7  A    between atoms: C8_18  and  O3_19 
REMARK    8  A    between atoms: C8_18  and  C9_21 
REMARK    9  A    between atoms: C9_21  and  O4_22 
ROOT
HETATM    1  C5  UNL     1     -43.075  -0.106  -2.485  1.00  0.00     0.275 C 
ENDROOT
BRANCH   1   2
HETATM    2  C4  UNL     1     -44.317  -0.684  -3.084  1.00  0.00     0.012 A 
HETATM    3  C3  UNL     1     -44.561  -0.916  -4.439  1.00  0.00     0.075 A 
HETATM    4  N2  UNL     1     -43.799  -0.700  -5.531  1.00  0.00    -0.350 N 
HETATM    5  C11 UNL     1     -45.826  -1.456  -4.540  1.00  0.00     0.128 A 
HETATM    6  C2  UNL     1     -44.283  -1.019  -6.750  1.00  0.00     0.184 A 
ATOM      7  H2  UNL     1     -42.866  -0.298  -5.437  1.00  0.00     0.166 HD
HETATM    8  N1  UNL     1     -45.506  -1.542  -6.864  1.00  0.00    -0.318 N 
HETATM    9  C1  UNL     1     -46.302  -1.775  -5.790  1.00  0.00     0.275 A 
ATOM     10  H1  UNL     1     -45.856  -1.776  -7.793  1.00  0.00     0.169 HD
HETATM   11  O1  UNL     1     -47.452  -2.267  -5.895  1.00  0.00    -0.266 OA
HETATM   12  N4  UNL     1     -46.368  -1.567  -3.318  1.00  0.00    -0.359 N 
HETATM   13  C10 UNL     1     -45.470  -1.108  -2.456  1.00  0.00     0.099 A 
ATOM     14  H4  UNL     1     -47.294  -1.934  -3.094  1.00  0.00     0.165 HD
ENDBRANCH   1   2
BRANCH   1  15
HETATM   15  N3  UNL     1     -43.054   1.291  -2.863  1.00  0.00    -0.062 N 
ATOM     16  H32 UNL     1     -42.094   1.616  -2.972  1.00  0.00     0.278 HD
ATOM     17  H31 UNL     1     -43.386   1.406  -3.820  1.00  0.00     0.278 HD
BRANCH  15  18
HETATM   18  C6  UNL     1     -43.772   2.146  -1.981  1.00  0.00     0.240 C 
BRANCH  18  19
HETATM   19  C7  UNL     1     -45.054   2.554  -2.684  1.00  0.00     0.199 C 
BRANCH  19  20
HETATM   20  O2  UNL     1     -46.059   2.600  -1.717  1.00  0.00    -0.399 OA
ATOM     21  H2  UNL     1     -46.798   3.057  -2.100  1.00  0.00     0.209 HD
ENDBRANCH  19  20
ENDBRANCH  18  19
BRANCH  18  22
HETATM   22  C8  UNL     1     -42.992   3.429  -1.745  1.00  0.00     0.174 C 
BRANCH  22  23
HETATM   23  O3  UNL     1     -43.871   4.455  -1.500  1.00  0.00    -0.391 OA
ATOM     24  H3  UNL     1     -43.966   4.980  -2.286  1.00  0.00     0.210 HD
ENDBRANCH  22  23
BRANCH  22  25
HETATM   25  C9  UNL     1     -42.028   3.734  -2.850  1.00  0.00     0.198 C 
BRANCH  25  26
HETATM   26  O4  UNL     1     -40.846   3.025  -2.650  1.00  0.00    -0.398 OA
ATOM     27  H4  UNL     1     -40.437   2.843  -3.488  1.00  0.00     0.209 HD
ENDBRANCH  25  26
ENDBRANCH  22  25
ENDBRANCH  18  22
ENDBRANCH  15  18
ENDBRANCH   1  15
TORSDOF 9
ENDMDL
