MODEL 12
REMARK VINA RESULT: -7.247397736      2.052      5.961
REMARK  9 active torsions:
REMARK  status: ('A' for Active; 'I' for Inactive)
REMARK    1  A    between atoms: C4_9  and  C5_10 
REMARK    2  A    between atoms: C5_10  and  N3_11 
REMARK    3  A    between atoms: N3_11  and  C6_14 
REMARK    4  A    between atoms: C6_14  and  C7_15 
REMARK    5  A    between atoms: C6_14  and  C8_18 
REMARK    6  A    between atoms: C7_15  and  O2_16 
REMARK    7  A    between atoms: C8_18  and  O3_19 
REMARK    8  A    between atoms: C8_18  and  C9_21 
REMARK    9  A    between atoms: C9_21  and  O4_22 
ROOT
HETATM    1  C5  UNL     1     -45.605   1.516  -2.990  1.00  0.00     0.275 C 
ENDROOT
BRANCH   1   2
HETATM    2  C4  UNL     1     -45.197   0.078  -3.012  1.00  0.00     0.012 A 
HETATM    3  C3  UNL     1     -44.808  -0.663  -4.129  1.00  0.00     0.075 A 
HETATM    4  N2  UNL     1     -44.695  -0.322  -5.429  1.00  0.00    -0.350 N 
HETATM    5  C11 UNL     1     -44.519  -1.940  -3.693  1.00  0.00     0.128 A 
HETATM    6  C2  UNL     1     -44.290  -1.247  -6.325  1.00  0.00     0.184 A 
ATOM      7  H2  UNL     1     -44.914   0.627  -5.733  1.00  0.00     0.166 HD
HETATM    8  N1  UNL     1     -44.008  -2.487  -5.917  1.00  0.00    -0.318 N 
HETATM    9  C1  UNL     1     -44.109  -2.868  -4.619  1.00  0.00     0.275 A 
ATOM     10  H1  UNL     1     -43.705  -3.173  -6.608  1.00  0.00     0.169 HD
HETATM   11  O1  UNL     1     -43.844  -4.033  -4.235  1.00  0.00    -0.266 OA
HETATM   12  N4  UNL     1     -44.712  -2.017  -2.367  1.00  0.00    -0.359 N 
HETATM   13  C10 UNL     1     -45.113  -0.818  -1.966  1.00  0.00     0.099 A 
ATOM     14  H4  UNL     1     -44.575  -2.841  -1.781  1.00  0.00     0.165 HD
ENDBRANCH   1   2
BRANCH   1  15
HETATM   15  N3  UNL     1     -44.406   2.283  -3.257  1.00  0.00    -0.062 N 
ATOM     16  H32 UNL     1     -43.886   1.872  -4.032  1.00  0.00     0.278 HD
ATOM     17  H31 UNL     1     -44.645   3.185  -3.668  1.00  0.00     0.278 HD
BRANCH  15  18
HETATM   18  C6  UNL     1     -43.561   2.459  -2.127  1.00  0.00     0.240 C 
BRANCH  18  19
HETATM   19  C7  UNL     1     -44.317   3.305  -1.118  1.00  0.00     0.199 C 
BRANCH  19  20
HETATM   20  O2  UNL     1     -43.415   4.236  -0.602  1.00  0.00    -0.399 OA
ATOM     21  H2  UNL     1     -43.562   4.281   0.335  1.00  0.00     0.209 HD
ENDBRANCH  19  20
ENDBRANCH  18  19
BRANCH  18  22
HETATM   22  C8  UNL     1     -42.328   3.260  -2.514  1.00  0.00     0.174 C 
BRANCH  22  23
HETATM   23  O3  UNL     1     -42.715   4.380  -3.206  1.00  0.00    -0.391 OA
ATOM     24  H3  UNL     1     -42.193   5.121  -2.920  1.00  0.00     0.210 HD
ENDBRANCH  22  23
BRANCH  22  25
HETATM   25  C9  UNL     1     -41.310   2.442  -3.245  1.00  0.00     0.198 C 
BRANCH  25  26
HETATM   26  O4  UNL     1     -40.535   3.270  -4.053  1.00  0.00    -0.398 OA
ATOM     27  H4  UNL     1     -41.052   3.569  -4.793  1.00  0.00     0.209 HD
ENDBRANCH  25  26
ENDBRANCH  22  25
ENDBRANCH  18  22
ENDBRANCH  15  18
ENDBRANCH   1  15
TORSDOF 9
ENDMDL
