MODEL 8
REMARK VINA RESULT: -7.447265787      1.982      5.626
REMARK  9 active torsions:
REMARK  status: ('A' for Active; 'I' for Inactive)
REMARK    1  A    between atoms: C4_9  and  C5_10 
REMARK    2  A    between atoms: C5_10  and  N3_11 
REMARK    3  A    between atoms: N3_11  and  C6_14 
REMARK    4  A    between atoms: C6_14  and  C7_15 
REMARK    5  A    between atoms: C6_14  and  C8_18 
REMARK    6  A    between atoms: C7_15  and  O2_16 
REMARK    7  A    between atoms: C8_18  and  O3_19 
REMARK    8  A    between atoms: C8_18  and  C9_21 
REMARK    9  A    between atoms: C9_21  and  O4_22 
ROOT
HETATM    1  C5  UNL     1     -42.841  -0.595  -2.434  1.00  0.00     0.275 C 
ENDROOT
BRANCH   1   2
HETATM    2  C4  UNL     1     -44.154  -0.893  -3.083  1.00  0.00     0.012 A 
HETATM    3  C3  UNL     1     -44.356  -1.389  -4.373  1.00  0.00     0.075 A 
HETATM    4  N2  UNL     1     -43.482  -1.721  -5.346  1.00  0.00    -0.350 N 
HETATM    5  C11 UNL     1     -45.717  -1.512  -4.556  1.00  0.00     0.128 A 
HETATM    6  C2  UNL     1     -43.948  -2.185  -6.524  1.00  0.00     0.184 A 
ATOM      7  H2  UNL     1     -42.478  -1.621  -5.192  1.00  0.00     0.166 HD
HETATM    8  N1  UNL     1     -45.263  -2.310  -6.717  1.00  0.00    -0.318 N 
HETATM    9  C1  UNL     1     -46.173  -1.987  -5.763  1.00  0.00     0.275 A 
ATOM     10  H1  UNL     1     -45.597  -2.661  -7.614  1.00  0.00     0.169 HD
HETATM   11  O1  UNL     1     -47.410  -2.103  -5.942  1.00  0.00    -0.266 OA
HETATM   12  N4  UNL     1     -46.359  -1.118  -3.446  1.00  0.00    -0.359 N 
HETATM   13  C10 UNL     1     -45.429  -0.751  -2.574  1.00  0.00     0.099 A 
ATOM     14  H4  UNL     1     -47.369  -1.103  -3.300  1.00  0.00     0.165 HD
ENDBRANCH   1   2
BRANCH   1  15
HETATM   15  N3  UNL     1     -42.900   0.790  -2.015  1.00  0.00    -0.062 N 
ATOM     16  H32 UNL     1     -43.798   0.992  -1.578  1.00  0.00     0.278 HD
ATOM     17  H31 UNL     1     -42.281   0.948  -1.221  1.00  0.00     0.278 HD
BRANCH  15  18
HETATM   18  C6  UNL     1     -42.629   1.726  -3.052  1.00  0.00     0.240 C 
BRANCH  18  19
HETATM   19  C7  UNL     1     -41.271   2.342  -2.767  1.00  0.00     0.199 C 
BRANCH  19  20
HETATM   20  O2  UNL     1     -40.643   2.544  -3.996  1.00  0.00    -0.399 OA
ATOM     21  H2  UNL     1     -39.820   2.070  -3.973  1.00  0.00     0.209 HD
ENDBRANCH  19  20
ENDBRANCH  18  19
BRANCH  18  22
HETATM   22  C8  UNL     1     -43.631   2.868  -3.002  1.00  0.00     0.174 C 
BRANCH  22  23
HETATM   23  O3  UNL     1     -42.963   4.061  -3.114  1.00  0.00    -0.391 OA
ATOM     24  H3  UNL     1     -42.040   3.922  -2.934  1.00  0.00     0.210 HD
ENDBRANCH  22  23
BRANCH  22  25
HETATM   25  C9  UNL     1     -44.522   2.805  -1.801  1.00  0.00     0.198 C 
BRANCH  25  26
HETATM   26  O4  UNL     1     -45.841   3.042  -2.183  1.00  0.00    -0.398 OA
ATOM     27  H4  UNL     1     -45.860   3.403  -3.062  1.00  0.00     0.209 HD
ENDBRANCH  25  26
ENDBRANCH  22  25
ENDBRANCH  18  22
ENDBRANCH  15  18
ENDBRANCH   1  15
TORSDOF 9
ENDMDL
