MODEL 12
REMARK VINA RESULT: -6.725426582      1.990      6.092
REMARK  7 active torsions:
REMARK  status: ('A' for Active; 'I' for Inactive)
REMARK    1  A    between atoms: C4_9  and  C5_10 
REMARK    2  A    between atoms: C5_10  and  N3_11 
REMARK    3  A    between atoms: N3_11  and  C6_14 
REMARK    4  A    between atoms: C6_14  and  C7_15 
REMARK    5  A    between atoms: C6_14  and  C8_18 
REMARK    6  A    between atoms: C7_15  and  O2_16 
REMARK    7  A    between atoms: C8_18  and  O3_19 
ROOT
HETATM    1  O1  UNL     1      13.182  16.833  61.034  1.00  0.00    -0.266 OA
HETATM    2  C1  UNL     1      12.874  15.619  60.991  1.00  0.00     0.275 A 
HETATM    3  N1  UNL     1      11.659  15.270  61.450  1.00  0.00    -0.318 N 
ATOM      4  H1  UNL     1      11.012  15.966  61.819  1.00  0.00     0.169 HD
HETATM    5  C2  UNL     1      11.328  13.966  61.404  1.00  0.00     0.184 A 
HETATM    6  N2  UNL     1      12.178  13.031  60.918  1.00  0.00    -0.350 N 
ATOM      7  H2  UNL     1      11.882  12.056  60.905  1.00  0.00     0.166 HD
HETATM    8  C3  UNL     1      13.399  13.345  60.451  1.00  0.00     0.075 A 
HETATM    9  C4  UNL     1      14.440  12.618  59.914  1.00  0.00     0.012 A 
HETATM   10  C9  UNL     1      15.443  13.519  59.622  1.00  0.00     0.099 A 
HETATM   11  N4  UNL     1      15.008  14.749  59.978  1.00  0.00    -0.359 N 
ATOM     12  H4  UNL     1      15.547  15.609  59.874  1.00  0.00     0.165 HD
HETATM   13  C10 UNL     1      13.765  14.681  60.487  1.00  0.00     0.128 A 
ENDROOT
BRANCH   9  14
HETATM   14  C5  UNL     1      14.477  11.139  59.691  1.00  0.00     0.275 C 
BRANCH  14  15
HETATM   15  N3  UNL     1      13.432  10.710  58.811  1.00  0.00    -0.063 N 
ATOM     16  H32 UNL     1      12.873   9.973  59.241  1.00  0.00     0.278 HD
ATOM     17  H31 UNL     1      12.715  11.430  58.718  1.00  0.00     0.278 HD
BRANCH  15  18
HETATM   18  C6  UNL     1      13.921  10.298  57.517  1.00  0.00     0.233 C 
BRANCH  18  19
HETATM   19  C7  UNL     1      14.069  11.465  56.567  1.00  0.00     0.199 C 
BRANCH  19  20
HETATM   20  O2  UNL     1      15.156  11.293  55.714  1.00  0.00    -0.399 OA
ATOM     21  H2  UNL     1      15.093  10.479  55.229  1.00  0.00     0.209 HD
ENDBRANCH  19  20
ENDBRANCH  18  19
BRANCH  18  22
HETATM   22  C8  UNL     1      12.990   9.240  56.931  1.00  0.00     0.199 C 
BRANCH  22  23
HETATM   23  O3  UNL     1      13.217   9.142  55.553  1.00  0.00    -0.399 OA
ATOM     24  H3  UNL     1      13.143   8.232  55.289  1.00  0.00     0.209 HD
ENDBRANCH  22  23
ENDBRANCH  18  22
ENDBRANCH  15  18
ENDBRANCH  14  15
ENDBRANCH   9  14
TORSDOF 7
ENDMDL
