MODEL 9
REMARK VINA RESULT: -6.802868920      2.507      6.292
REMARK  7 active torsions:
REMARK  status: ('A' for Active; 'I' for Inactive)
REMARK    1  A    between atoms: C4_9  and  C5_10 
REMARK    2  A    between atoms: C5_10  and  N3_11 
REMARK    3  A    between atoms: N3_11  and  C6_14 
REMARK    4  A    between atoms: C6_14  and  C7_15 
REMARK    5  A    between atoms: C6_14  and  C8_18 
REMARK    6  A    between atoms: C7_15  and  O2_16 
REMARK    7  A    between atoms: C8_18  and  O3_19 
ROOT
HETATM    1  O1  UNL     1      14.397  14.066  63.765  1.00  0.00    -0.266 OA
HETATM    2  C1  UNL     1      14.108  14.338  62.577  1.00  0.00     0.275 A 
HETATM    3  N1  UNL     1      13.305  15.396  62.359  1.00  0.00    -0.318 N 
ATOM      4  H1  UNL     1      12.946  15.954  63.133  1.00  0.00     0.169 HD
HETATM    5  C2  UNL     1      12.995  15.688  61.083  1.00  0.00     0.184 A 
HETATM    6  N2  UNL     1      13.465  14.954  60.048  1.00  0.00    -0.350 N 
ATOM      7  H2  UNL     1      13.200  15.215  59.098  1.00  0.00     0.166 HD
HETATM    8  C3  UNL     1      14.268  13.891  60.229  1.00  0.00     0.075 A 
HETATM    9  C4  UNL     1      14.876  12.990  59.382  1.00  0.00     0.012 A 
HETATM   10  C9  UNL     1      15.585  12.114  60.177  1.00  0.00     0.099 A 
HETATM   11  N4  UNL     1      15.402  12.487  61.465  1.00  0.00    -0.359 N 
ATOM     12  H4  UNL     1      15.812  12.015  62.271  1.00  0.00     0.165 HD
HETATM   13  C10 UNL     1      14.604  13.568  61.534  1.00  0.00     0.128 A 
ENDROOT
BRANCH   9  14
HETATM   14  C5  UNL     1      14.786  12.963  57.888  1.00  0.00     0.275 C 
BRANCH  14  15
HETATM   15  N3  UNL     1      13.568  12.356  57.442  1.00  0.00    -0.063 N 
ATOM     16  H32 UNL     1      12.950  12.158  58.228  1.00  0.00     0.278 HD
ATOM     17  H31 UNL     1      12.989  13.027  56.939  1.00  0.00     0.278 HD
BRANCH  15  18
HETATM   18  C6  UNL     1      13.791  11.169  56.650  1.00  0.00     0.233 C 
BRANCH  18  19
HETATM   19  C7  UNL     1      13.455   9.907  57.411  1.00  0.00     0.199 C 
BRANCH  19  20
HETATM   20  O2  UNL     1      13.320   8.816  56.556  1.00  0.00    -0.399 OA
ATOM     21  H2  UNL     1      13.889   8.100  56.812  1.00  0.00     0.209 HD
ENDBRANCH  19  20
ENDBRANCH  18  19
BRANCH  18  22
HETATM   22  C8  UNL     1      15.238  11.140  56.168  1.00  0.00     0.199 C 
BRANCH  22  23
HETATM   23  O3  UNL     1      15.307  10.420  54.968  1.00  0.00    -0.399 OA
ATOM     24  H3  UNL     1      16.181  10.503  54.605  1.00  0.00     0.209 HD
ENDBRANCH  22  23
ENDBRANCH  18  22
ENDBRANCH  15  18
ENDBRANCH  14  15
ENDBRANCH   9  14
TORSDOF 7
ENDMDL
