MODEL 7
REMARK VINA RESULT: -7.045165823      2.376      2.991
REMARK  7 active torsions:
REMARK  status: ('A' for Active; 'I' for Inactive)
REMARK    1  A    between atoms: C4_9  and  C5_10 
REMARK    2  A    between atoms: C5_10  and  N3_11 
REMARK    3  A    between atoms: N3_11  and  C6_14 
REMARK    4  A    between atoms: C6_14  and  C7_15 
REMARK    5  A    between atoms: C6_14  and  C8_18 
REMARK    6  A    between atoms: C7_15  and  O2_16 
REMARK    7  A    between atoms: C8_18  and  O3_19 
ROOT
HETATM    1  O1  UNL     1      14.828   9.368  54.363  1.00  0.00    -0.266 OA
HETATM    2  C1  UNL     1      14.271   9.686  55.439  1.00  0.00     0.275 A 
HETATM    3  N1  UNL     1      13.259   8.910  55.868  1.00  0.00    -0.318 N 
ATOM      4  H1  UNL     1      12.956   8.095  55.336  1.00  0.00     0.169 HD
HETATM    5  C2  UNL     1      12.660   9.252  57.023  1.00  0.00     0.184 A 
HETATM    6  N2  UNL     1      13.052  10.333  57.738  1.00  0.00    -0.350 N 
ATOM      7  H2  UNL     1      12.566  10.551  58.607  1.00  0.00     0.166 HD
HETATM    8  C3  UNL     1      14.059  11.129  57.339  1.00  0.00     0.075 A 
HETATM    9  C4  UNL     1      14.651  12.262  57.855  1.00  0.00     0.012 A 
HETATM   10  C9  UNL     1      15.650  12.623  56.975  1.00  0.00     0.099 A 
HETATM   11  N4  UNL     1      15.650  11.726  55.963  1.00  0.00    -0.359 N 
ATOM     12  H4  UNL     1      16.288  11.748  55.167  1.00  0.00     0.165 HD
HETATM   13  C10 UNL     1      14.693  10.800  56.152  1.00  0.00     0.128 A 
ENDROOT
BRANCH   9  14
HETATM   14  C5  UNL     1      14.283  12.967  59.123  1.00  0.00     0.275 C 
BRANCH  14  15
HETATM   15  N3  UNL     1      14.473  12.129  60.269  1.00  0.00    -0.063 N 
ATOM     16  H32 UNL     1      13.642  12.124  60.859  1.00  0.00     0.278 HD
ATOM     17  H31 UNL     1      14.494  11.145  60.002  1.00  0.00     0.278 HD
BRANCH  15  18
HETATM   18  C6  UNL     1      15.646  12.482  61.033  1.00  0.00     0.233 C 
BRANCH  18  19
HETATM   19  C7  UNL     1      16.146  13.869  60.699  1.00  0.00     0.199 C 
BRANCH  19  20
HETATM   20  O2  UNL     1      16.748  14.473  61.800  1.00  0.00    -0.399 OA
ATOM     21  H2  UNL     1      16.827  13.869  62.528  1.00  0.00     0.209 HD
ENDBRANCH  19  20
ENDBRANCH  18  19
BRANCH  18  22
HETATM   22  C8  UNL     1      16.740  11.444  60.800  1.00  0.00     0.199 C 
BRANCH  22  23
HETATM   23  O3  UNL     1      17.918  12.097  60.416  1.00  0.00    -0.399 OA
ATOM     24  H3  UNL     1      18.083  11.927  59.496  1.00  0.00     0.209 HD
ENDBRANCH  22  23
ENDBRANCH  18  22
ENDBRANCH  15  18
ENDBRANCH  14  15
ENDBRANCH   9  14
TORSDOF 7
ENDMDL
