MODEL 6
REMARK VINA RESULT: -7.127722186      1.773      2.251
REMARK  7 active torsions:
REMARK  status: ('A' for Active; 'I' for Inactive)
REMARK    1  A    between atoms: C4_9  and  C5_10 
REMARK    2  A    between atoms: C5_10  and  N3_11 
REMARK    3  A    between atoms: N3_11  and  C6_14 
REMARK    4  A    between atoms: C6_14  and  C7_15 
REMARK    5  A    between atoms: C6_14  and  C8_18 
REMARK    6  A    between atoms: C7_15  and  O2_16 
REMARK    7  A    between atoms: C8_18  and  O3_19 
ROOT
HETATM    1  O1  UNL     1      15.266   9.666  54.523  1.00  0.00    -0.266 OA
HETATM    2  C1  UNL     1      14.486   9.818  55.492  1.00  0.00     0.275 A 
HETATM    3  N1  UNL     1      13.570   8.857  55.709  1.00  0.00    -0.318 N 
ATOM      4  H1  UNL     1      13.513   8.035  55.107  1.00  0.00     0.169 HD
HETATM    5  C2  UNL     1      12.732   9.020  56.749  1.00  0.00     0.184 A 
HETATM    6  N2  UNL     1      12.797  10.106  57.554  1.00  0.00    -0.350 N 
ATOM      7  H2  UNL     1      12.139  10.184  58.329  1.00  0.00     0.166 HD
HETATM    8  C3  UNL     1      13.699  11.085  57.366  1.00  0.00     0.075 A 
HETATM    9  C4  UNL     1      13.982  12.269  58.013  1.00  0.00     0.012 A 
HETATM   10  C9  UNL     1      15.036  12.848  57.337  1.00  0.00     0.099 A 
HETATM   11  N4  UNL     1      15.369  12.027  56.314  1.00  0.00    -0.359 N 
ATOM     12  H4  UNL     1      16.118  12.206  55.646  1.00  0.00     0.165 HD
HETATM   13  C10 UNL     1      14.574  10.942  56.301  1.00  0.00     0.128 A 
ENDROOT
BRANCH   9  14
HETATM   14  C5  UNL     1      13.283  12.821  59.215  1.00  0.00     0.275 C 
BRANCH  14  15
HETATM   15  N3  UNL     1      13.785  14.114  59.572  1.00  0.00    -0.063 N 
ATOM     16  H32 UNL     1      14.607  14.353  59.017  1.00  0.00     0.278 HD
ATOM     17  H31 UNL     1      13.153  14.851  59.259  1.00  0.00     0.278 HD
BRANCH  15  18
HETATM   18  C6  UNL     1      14.064  14.238  60.983  1.00  0.00     0.233 C 
BRANCH  18  19
HETATM   19  C7  UNL     1      15.417  13.668  61.348  1.00  0.00     0.199 C 
BRANCH  19  20
HETATM   20  O2  UNL     1      16.043  14.431  62.330  1.00  0.00    -0.399 OA
ATOM     21  H2  UNL     1      16.179  15.326  62.042  1.00  0.00     0.209 HD
ENDBRANCH  19  20
ENDBRANCH  18  19
BRANCH  18  22
HETATM   22  C8  UNL     1      12.958  13.557  61.785  1.00  0.00     0.199 C 
BRANCH  22  23
HETATM   23  O3  UNL     1      13.467  13.169  63.031  1.00  0.00    -0.399 OA
ATOM     24  H3  UNL     1      14.390  13.389  63.072  1.00  0.00     0.209 HD
ENDBRANCH  22  23
ENDBRANCH  18  22
ENDBRANCH  15  18
ENDBRANCH  14  15
ENDBRANCH   9  14
TORSDOF 7
ENDMDL
