MODEL 14
REMARK VINA RESULT: -6.718932336      2.442      6.457
REMARK  7 active torsions:
REMARK  status: ('A' for Active; 'I' for Inactive)
REMARK    1  A    between atoms: C4_9  and  C5_10 
REMARK    2  A    between atoms: C5_10  and  N3_11 
REMARK    3  A    between atoms: N3_11  and  C6_14 
REMARK    4  A    between atoms: C6_14  and  C7_15 
REMARK    5  A    between atoms: C6_14  and  C8_18 
REMARK    6  A    between atoms: C7_15  and  O2_16 
REMARK    7  A    between atoms: C8_18  and  O3_19 
ROOT
HETATM    1  O1  UNL     1      14.169  15.086  63.703  1.00  0.00    -0.266 OA
HETATM    2  C1  UNL     1      13.696  14.875  62.563  1.00  0.00     0.275 A 
HETATM    3  N1  UNL     1      13.148  15.918  61.914  1.00  0.00    -0.318 N 
ATOM      4  H1  UNL     1      13.118  16.846  62.336  1.00  0.00     0.169 HD
HETATM    5  C2  UNL     1      12.639  15.691  60.690  1.00  0.00     0.184 A 
HETATM    6  N2  UNL     1      12.671  14.463  60.120  1.00  0.00    -0.350 N 
ATOM      7  H2  UNL     1      12.271  14.342  59.189  1.00  0.00     0.166 HD
HETATM    8  C3  UNL     1      13.211  13.399  60.739  1.00  0.00     0.075 A 
HETATM    9  C4  UNL     1      13.374  12.072  60.404  1.00  0.00     0.012 A 
HETATM   10  C9  UNL     1      14.008  11.469  61.471  1.00  0.00     0.099 A 
HETATM   11  N4  UNL     1      14.216  12.416  62.415  1.00  0.00    -0.359 N 
ATOM     12  H4  UNL     1      14.668  12.251  63.314  1.00  0.00     0.165 HD
HETATM   13  C10 UNL     1      13.742  13.605  62.002  1.00  0.00     0.128 A 
ENDROOT
BRANCH   9  14
HETATM   14  C5  UNL     1      12.947  11.411  59.132  1.00  0.00     0.275 C 
BRANCH  14  15
HETATM   15  N3  UNL     1      13.501  12.064  57.984  1.00  0.00    -0.063 N 
ATOM     16  H32 UNL     1      12.806  12.147  57.241  1.00  0.00     0.278 HD
ATOM     17  H31 UNL     1      13.665  13.053  58.170  1.00  0.00     0.278 HD
BRANCH  15  18
HETATM   18  C6  UNL     1      14.700  11.424  57.498  1.00  0.00     0.233 C 
BRANCH  18  19
HETATM   19  C7  UNL     1      15.841  12.404  57.336  1.00  0.00     0.199 C 
BRANCH  19  20
HETATM   20  O2  UNL     1      15.577  13.333  56.332  1.00  0.00    -0.399 OA
ATOM     21  H2  UNL     1      16.354  13.523  55.821  1.00  0.00     0.209 HD
ENDBRANCH  19  20
ENDBRANCH  18  19
BRANCH  18  22
HETATM   22  C8  UNL     1      14.405  10.717  56.179  1.00  0.00     0.199 C 
BRANCH  22  23
HETATM   23  O3  UNL     1      15.572  10.684  55.404  1.00  0.00    -0.399 OA
ATOM     24  H3  UNL     1      15.556  11.407  54.788  1.00  0.00     0.209 HD
ENDBRANCH  22  23
ENDBRANCH  18  22
ENDBRANCH  15  18
ENDBRANCH  14  15
ENDBRANCH   9  14
TORSDOF 7
ENDMDL
