MODEL 2
REMARK VINA RESULT: -7.469887966      1.444      1.834
REMARK  4 active torsions:
REMARK  status: ('A' for Active; 'I' for Inactive)
REMARK    1  A    between atoms: C7_7  and  C8_8 
REMARK       I    between atoms: N1_12  and  C12_13 
REMARK    2  A    between atoms: C12_13  and  C13_15 
REMARK    3  A    between atoms: C16_19  and  O2_20 
REMARK    4  A    between atoms: C18_23  and  O3_24 
ROOT
HETATM    1  C8  UNL     1      67.759  77.304  23.630  1.00  0.00     0.121 C 
HETATM    2  C9  UNL     1      66.675  77.629  22.631  1.00  0.00     0.032 C 
HETATM    3  C10 UNL     1      67.244  78.738  21.826  1.00  0.00     0.022 C 
HETATM    4  C11 UNL     1      68.481  79.204  22.598  1.00  0.00     0.127 C 
HETATM    5  N1  UNL     1      68.277  78.682  23.920  1.00  0.00    -0.339 N 
HETATM    6  C12 UNL     1      68.476  79.147  25.221  1.00  0.00     0.257 C 
HETATM    7  O1  UNL     1      68.096  78.410  26.201  1.00  0.00    -0.267 OA
ENDROOT
BRANCH   6   8
HETATM    8  C13 UNL     1      69.081  80.406  25.624  1.00  0.00     0.067 A 
HETATM    9  C14 UNL     1      70.252  80.443  26.395  1.00  0.00     0.046 A 
HETATM   10  C15 UNL     1      70.807  81.628  26.850  1.00  0.00     0.068 A 
HETATM   11 CL1  UNL     1      72.267  81.644  27.807  1.00  0.00    -0.081 Cl
HETATM   12  C16 UNL     1      70.215  82.829  26.557  1.00  0.00     0.090 A 
HETATM   13  C17 UNL     1      69.073  82.815  25.808  1.00  0.00     0.075 A 
HETATM   14  C18 UNL     1      68.497  81.615  25.336  1.00  0.00     0.084 A 
BRANCH  12  15
HETATM   15  O2  UNL     1      70.770  84.044  27.016  1.00  0.00    -0.359 OA
ATOM     16  H2  UNL     1      71.617  84.341  26.709  1.00  0.00     0.217 HD
ENDBRANCH  12  15
BRANCH  14  17
HETATM   17  O3  UNL     1      67.355  81.820  24.598  1.00  0.00    -0.360 OA
ATOM     18  H3  UNL     1      67.210  82.505  23.956  1.00  0.00     0.217 HD
ENDBRANCH  14  17
ENDBRANCH   6   8
BRANCH   1  19
HETATM   19  C7  UNL     1      67.332  76.584  24.806  1.00  0.00    -0.029 A 
HETATM   20  C2  UNL     1      68.238  75.743  25.455  1.00  0.00    -0.054 A 
HETATM   21  C1  UNL     1      69.578  75.586  24.857  1.00  0.00     0.049 C 
HETATM   22  C3  UNL     1      67.889  75.051  26.616  1.00  0.00     0.007 A 
HETATM   23  C4  UNL     1      66.647  75.167  27.162  1.00  0.00     0.001 A 
HETATM   24  C5  UNL     1      65.743  75.978  26.550  1.00  0.00     0.001 A 
HETATM   25  C6  UNL     1      66.078  76.676  25.391  1.00  0.00     0.010 A 
ENDBRANCH   1  19
TORSDOF 4
ENDMDL
