MODEL 1
REMARK VINA RESULT: -7.659592732      0.000      0.000
REMARK  4 active torsions:
REMARK  status: ('A' for Active; 'I' for Inactive)
REMARK    1  A    between atoms: C7_7  and  C8_8 
REMARK       I    between atoms: N1_12  and  C12_13 
REMARK    2  A    between atoms: C12_13  and  C13_15 
REMARK    3  A    between atoms: C16_19  and  O2_20 
REMARK    4  A    between atoms: C18_23  and  O3_24 
ROOT
HETATM    1  C8  UNL     1      67.770  77.329  23.624  1.00  0.00     0.121 C 
HETATM    2  C9  UNL     1      66.692  77.599  22.601  1.00  0.00     0.032 C 
HETATM    3  C10 UNL     1      67.222  78.737  21.810  1.00  0.00     0.022 C 
HETATM    4  C11 UNL     1      68.416  79.265  22.608  1.00  0.00     0.127 C 
HETATM    5  N1  UNL     1      68.210  78.731  23.925  1.00  0.00    -0.339 N 
HETATM    6  C12 UNL     1      68.356  79.204  25.231  1.00  0.00     0.257 C 
HETATM    7  O1  UNL     1      67.994  78.447  26.202  1.00  0.00    -0.267 OA
ENDROOT
BRANCH   6   8
HETATM    8  C13 UNL     1      68.887  80.492  25.647  1.00  0.00     0.067 A 
HETATM    9  C14 UNL     1      68.411  81.693  25.100  1.00  0.00     0.046 A 
HETATM   10  C15 UNL     1      68.949  82.926  25.427  1.00  0.00     0.068 A 
HETATM   11 CL1  UNL     1      68.335  84.404  24.731  1.00  0.00    -0.081 Cl
HETATM   12  C16 UNL     1      69.990  83.015  26.315  1.00  0.00     0.090 A 
HETATM   13  C17 UNL     1      70.469  81.857  26.859  1.00  0.00     0.075 A 
HETATM   14  C18 UNL     1      69.929  80.593  26.536  1.00  0.00     0.084 A 
BRANCH  12  15
HETATM   15  O2  UNL     1      70.549  84.266  26.657  1.00  0.00    -0.359 OA
ATOM     16  H2  UNL     1      71.385  84.541  26.300  1.00  0.00     0.217 HD
ENDBRANCH  12  15
BRANCH  14  17
HETATM   17  O3  UNL     1      70.549  79.558  27.194  1.00  0.00    -0.360 OA
ATOM     18  H3  UNL     1      71.114  79.627  27.955  1.00  0.00     0.217 HD
ENDBRANCH  14  17
ENDBRANCH   6   8
BRANCH   1  19
HETATM   19  C7  UNL     1      67.354  76.586  24.790  1.00  0.00    -0.029 A 
HETATM   20  C2  UNL     1      68.287  75.788  25.455  1.00  0.00    -0.054 A 
HETATM   21  C1  UNL     1      69.645  75.697  24.884  1.00  0.00     0.049 C 
HETATM   22  C3  UNL     1      67.948  75.077  26.608  1.00  0.00     0.007 A 
HETATM   23  C4  UNL     1      66.691  75.132  27.129  1.00  0.00     0.001 A 
HETATM   24  C5  UNL     1      65.762  75.900  26.501  1.00  0.00     0.001 A 
HETATM   25  C6  UNL     1      66.086  76.617  25.350  1.00  0.00     0.010 A 
ENDBRANCH   1  19
TORSDOF 4
ENDMDL
