MODEL 3
REMARK VINA RESULT: -7.427190180      2.193      2.479
REMARK  4 active torsions:
REMARK  status: ('A' for Active; 'I' for Inactive)
REMARK    1  A    between atoms: C7_7  and  C8_8 
REMARK       I    between atoms: N1_12  and  C12_13 
REMARK    2  A    between atoms: C12_13  and  C13_15 
REMARK    3  A    between atoms: C16_19  and  O2_20 
REMARK    4  A    between atoms: C18_23  and  O3_24 
ROOT
HETATM    1  C8  UNL     1      68.154  77.282  23.818  1.00  0.00     0.121 C 
HETATM    2  C9  UNL     1      67.208  78.067  22.943  1.00  0.00     0.032 C 
HETATM    3  C10 UNL     1      68.078  79.065  22.274  1.00  0.00     0.022 C 
HETATM    4  C11 UNL     1      69.407  79.015  23.029  1.00  0.00     0.127 C 
HETATM    5  N1  UNL     1      69.071  78.379  24.272  1.00  0.00    -0.339 N 
HETATM    6  C12 UNL     1      69.419  78.555  25.613  1.00  0.00     0.257 C 
HETATM    7  O1  UNL     1      68.846  77.823  26.497  1.00  0.00    -0.267 OA
ENDROOT
BRANCH   6   8
HETATM    8  C13 UNL     1      70.385  79.497  26.156  1.00  0.00     0.067 A 
HETATM    9  C14 UNL     1      71.765  79.316  25.979  1.00  0.00     0.046 A 
HETATM   10  C15 UNL     1      72.705  80.160  26.546  1.00  0.00     0.068 A 
HETATM   11 CL1  UNL     1      74.416  79.910  26.308  1.00  0.00    -0.081 Cl
HETATM   12  C16 UNL     1      72.309  81.221  27.318  1.00  0.00     0.090 A 
HETATM   13  C17 UNL     1      70.970  81.415  27.503  1.00  0.00     0.075 A 
HETATM   14  C18 UNL     1      70.000  80.564  26.930  1.00  0.00     0.084 A 
BRANCH  12  15
HETATM   15  O2  UNL     1      73.258  82.088  27.903  1.00  0.00    -0.359 OA
ATOM     16  H2  UNL     1      72.989  82.901  28.314  1.00  0.00     0.217 HD
ENDBRANCH  12  15
BRANCH  14  17
HETATM   17  O3  UNL     1      68.711  80.934  27.233  1.00  0.00    -0.360 OA
ATOM     18  H3  UNL     1      68.087  81.346  26.648  1.00  0.00     0.217 HD
ENDBRANCH  14  17
ENDBRANCH   6   8
BRANCH   1  19
HETATM   19  C7  UNL     1      67.543  76.549  24.902  1.00  0.00    -0.029 A 
HETATM   20  C2  UNL     1      68.211  75.448  25.440  1.00  0.00    -0.054 A 
HETATM   21  C1  UNL     1      69.490  75.051  24.820  1.00  0.00     0.049 C 
HETATM   22  C3  UNL     1      67.683  74.726  26.511  1.00  0.00     0.007 A 
HETATM   23  C4  UNL     1      66.490  75.066  27.074  1.00  0.00     0.001 A 
HETATM   24  C5  UNL     1      65.816  76.134  26.569  1.00  0.00     0.001 A 
HETATM   25  C6  UNL     1      66.333  76.865  25.500  1.00  0.00     0.010 A 
ENDBRANCH   1  19
TORSDOF 4
ENDMDL
