MODEL 7
REMARK VINA RESULT: -7.881239082      1.997      6.675
REMARK  4 active torsions:
REMARK  status: ('A' for Active; 'I' for Inactive)
REMARK    1  A    between atoms: C4_5  and  C5_6 
REMARK    2  A    between atoms: C5_6  and  O2_7 
REMARK    3  A    between atoms: C5_6  and  N1_9 
REMARK    4  A    between atoms: C14_18  and  O3_19 
ROOT
HETATM    1  C5  UNL     1      47.219  72.486  64.786  1.00  0.00     0.151 C 
ENDROOT
BRANCH   1   2
HETATM    2  C4  UNL     1      47.419  72.928  63.439  1.00  0.00     0.044 A 
HETATM    3  C3  UNL     1      47.207  74.293  63.018  1.00  0.00     0.022 A 
HETATM    4  C2  UNL     1      47.421  74.693  61.742  1.00  0.00     0.051 A 
HETATM    5  C1  UNL     1      47.878  73.752  60.735  1.00  0.00     0.155 A 
HETATM    6  O1  UNL     1      48.066  74.174  59.563  1.00  0.00    -0.293 OA
HETATM    7  C15 UNL     1      48.108  72.341  61.115  1.00  0.00     0.148 A 
HETATM    8  C14 UNL     1      47.843  72.039  62.517  1.00  0.00     0.065 A 
BRANCH   8   9
HETATM    9  O3  UNL     1      48.052  70.712  62.917  1.00  0.00    -0.364 OA
ATOM     10  H3  UNL     1      48.920  70.341  62.814  1.00  0.00     0.217 HD
ENDBRANCH   8   9
ENDBRANCH   1   2
BRANCH   1  11
HETATM   11  O2  UNL     1      47.522  73.354  65.715  1.00  0.00    -0.345 OA
ATOM     12  H2  UNL     1      47.649  72.996  66.585  1.00  0.00     0.219 HD
ENDBRANCH   1  11
BRANCH   1  13
HETATM   13  N1  UNL     1      46.733  71.218  65.238  1.00  0.00    -0.353 N 
HETATM   14  C6  UNL     1      47.672  70.359  66.005  1.00  0.00     0.164 C 
HETATM   15  C7  UNL     1      46.824  69.289  66.539  1.00  0.00    -0.032 A 
HETATM   16  C8  UNL     1      47.097  68.250  67.423  1.00  0.00     0.009 A 
HETATM   17  C12 UNL     1      45.561  69.369  66.052  1.00  0.00    -0.032 A 
HETATM   18  C9  UNL     1      46.143  67.333  67.801  1.00  0.00     0.001 A 
HETATM   19  C10 UNL     1      44.865  67.416  67.306  1.00  0.00     0.001 A 
HETATM   20  C11 UNL     1      44.592  68.442  66.432  1.00  0.00     0.009 A 
HETATM   21  C13 UNL     1      45.490  70.556  65.135  1.00  0.00     0.164 C 
ENDBRANCH   1  13
TORSDOF 4
ENDMDL
