MODEL 9
REMARK VINA RESULT: -7.840626997      1.070      2.138
REMARK  4 active torsions:
REMARK  status: ('A' for Active; 'I' for Inactive)
REMARK    1  A    between atoms: C4_5  and  C5_6 
REMARK    2  A    between atoms: C5_6  and  O2_7 
REMARK    3  A    between atoms: C5_6  and  N1_9 
REMARK    4  A    between atoms: C14_18  and  O3_19 
ROOT
HETATM    1  C5  UNL     1      46.969  71.742  65.162  1.00  0.00     0.151 C 
ENDROOT
BRANCH   1   2
HETATM    2  C4  UNL     1      46.633  70.501  65.794  1.00  0.00     0.044 A 
HETATM    3  C3  UNL     1      47.581  69.724  66.557  1.00  0.00     0.022 A 
HETATM    4  C2  UNL     1      47.235  68.562  67.161  1.00  0.00     0.051 A 
HETATM    5  C1  UNL     1      45.881  68.048  67.064  1.00  0.00     0.155 A 
HETATM    6  O1  UNL     1      45.609  66.965  67.647  1.00  0.00    -0.293 OA
HETATM    7  C15 UNL     1      44.872  68.806  66.291  1.00  0.00     0.148 A 
HETATM    8  C14 UNL     1      45.370  70.039  65.690  1.00  0.00     0.065 A 
BRANCH   8   9
HETATM    9  O3  UNL     1      44.444  70.788  64.952  1.00  0.00    -0.364 OA
ATOM     10  H3  UNL     1      43.762  71.253  65.422  1.00  0.00     0.217 HD
ENDBRANCH   8   9
ENDBRANCH   1   2
BRANCH   1  11
HETATM   11  O2  UNL     1      46.822  72.809  65.903  1.00  0.00    -0.345 OA
ATOM     12  H2  UNL     1      47.627  73.209  66.208  1.00  0.00     0.219 HD
ENDBRANCH   1  11
BRANCH   1  13
HETATM   13  N1  UNL     1      47.443  71.957  63.830  1.00  0.00    -0.353 N 
HETATM   14  C6  UNL     1      47.599  70.763  62.958  1.00  0.00     0.164 C 
HETATM   15  C7  UNL     1      47.830  71.322  61.623  1.00  0.00    -0.032 A 
HETATM   16  C8  UNL     1      47.936  70.716  60.375  1.00  0.00     0.009 A 
HETATM   17  C12 UNL     1      47.960  72.671  61.667  1.00  0.00    -0.032 A 
HETATM   18  C9  UNL     1      48.163  71.434  59.223  1.00  0.00     0.001 A 
HETATM   19  C10 UNL     1      48.295  72.800  59.270  1.00  0.00     0.001 A 
HETATM   20  C11 UNL     1      48.190  73.402  60.502  1.00  0.00     0.009 A 
HETATM   21  C13 UNL     1      47.804  73.107  63.095  1.00  0.00     0.164 C 
ENDBRANCH   1  13
TORSDOF 4
ENDMDL
