MODEL 2
REMARK VINA RESULT: -8.554079348      0.905      1.565
REMARK  4 active torsions:
REMARK  status: ('A' for Active; 'I' for Inactive)
REMARK    1  A    between atoms: C4_5  and  C5_6 
REMARK    2  A    between atoms: C5_6  and  O2_7 
REMARK    3  A    between atoms: C5_6  and  N1_9 
REMARK    4  A    between atoms: C14_18  and  O3_19 
ROOT
HETATM    1  C5  UNL     1      46.951  71.653  65.125  1.00  0.00     0.151 C 
ENDROOT
BRANCH   1   2
HETATM    2  C4  UNL     1      46.621  70.429  65.793  1.00  0.00     0.044 A 
HETATM    3  C3  UNL     1      47.577  69.668  66.561  1.00  0.00     0.022 A 
HETATM    4  C2  UNL     1      47.237  68.523  67.200  1.00  0.00     0.051 A 
HETATM    5  C1  UNL     1      45.880  68.011  67.136  1.00  0.00     0.155 A 
HETATM    6  O1  UNL     1      45.614  66.944  67.750  1.00  0.00    -0.293 OA
HETATM    7  C15 UNL     1      44.863  68.753  66.358  1.00  0.00     0.148 A 
HETATM    8  C14 UNL     1      45.356  69.969  65.719  1.00  0.00     0.065 A 
BRANCH   8   9
HETATM    9  O3  UNL     1      44.421  70.701  64.976  1.00  0.00    -0.364 OA
ATOM     10  H3  UNL     1      43.866  70.234  64.361  1.00  0.00     0.217 HD
ENDBRANCH   8   9
ENDBRANCH   1   2
BRANCH   1  11
HETATM   11  O2  UNL     1      46.867  72.733  65.856  1.00  0.00    -0.345 OA
ATOM     12  H2  UNL     1      46.791  72.589  66.792  1.00  0.00     0.219 HD
ENDBRANCH   1  11
BRANCH   1  13
HETATM   13  N1  UNL     1      47.358  71.837  63.766  1.00  0.00    -0.353 N 
HETATM   14  C6  UNL     1      47.561  73.231  63.295  1.00  0.00     0.164 C 
HETATM   15  C7  UNL     1      48.214  73.078  61.991  1.00  0.00    -0.032 A 
HETATM   16  C8  UNL     1      48.753  74.014  61.114  1.00  0.00     0.009 A 
HETATM   17  C12 UNL     1      48.273  71.776  61.618  1.00  0.00    -0.032 A 
HETATM   18  C9  UNL     1      49.328  73.656  59.916  1.00  0.00     0.001 A 
HETATM   19  C10 UNL     1      49.387  72.337  59.540  1.00  0.00     0.001 A 
HETATM   20  C11 UNL     1      48.855  71.409  60.405  1.00  0.00     0.009 A 
HETATM   21  C13 UNL     1      47.647  70.951  62.705  1.00  0.00     0.164 C 
ENDBRANCH   1  13
TORSDOF 4
ENDMDL
