MODEL 12
REMARK VINA RESULT: -7.738370266      1.454      1.865
REMARK  4 active torsions:
REMARK  status: ('A' for Active; 'I' for Inactive)
REMARK    1  A    between atoms: C4_5  and  C5_6 
REMARK    2  A    between atoms: C5_6  and  O2_7 
REMARK    3  A    between atoms: C5_6  and  N1_9 
REMARK    4  A    between atoms: C14_18  and  O3_19 
ROOT
HETATM    1  C5  UNL     1      45.305  70.219  65.116  1.00  0.00     0.151 C 
ENDROOT
BRANCH   1   2
HETATM    2  C4  UNL     1      45.667  69.221  66.078  1.00  0.00     0.044 A 
HETATM    3  C3  UNL     1      44.787  68.144  66.464  1.00  0.00     0.022 A 
HETATM    4  C2  UNL     1      45.159  67.200  67.362  1.00  0.00     0.051 A 
HETATM    5  C1  UNL     1      46.473  67.237  67.978  1.00  0.00     0.155 A 
HETATM    6  O1  UNL     1      46.771  66.334  68.805  1.00  0.00    -0.293 OA
HETATM    7  C15 UNL     1      47.411  68.323  67.618  1.00  0.00     0.148 A 
HETATM    8  C14 UNL     1      46.891  69.273  66.640  1.00  0.00     0.065 A 
BRANCH   8   9
HETATM    9  O3  UNL     1      47.752  70.315  66.271  1.00  0.00    -0.364 OA
ATOM     10  H3  UNL     1      47.409  71.201  66.255  1.00  0.00     0.217 HD
ENDBRANCH   8   9
ENDBRANCH   1   2
BRANCH   1  11
HETATM   11  O2  UNL     1      44.147  70.793  65.310  1.00  0.00    -0.345 OA
ATOM     12  H2  UNL     1      44.182  71.698  65.598  1.00  0.00     0.219 HD
ENDBRANCH   1  11
BRANCH   1  13
HETATM   13  N1  UNL     1      46.048  70.660  63.976  1.00  0.00    -0.353 N 
HETATM   14  C6  UNL     1      46.283  72.120  63.835  1.00  0.00     0.164 C 
HETATM   15  C7  UNL     1      47.269  72.222  62.755  1.00  0.00    -0.032 A 
HETATM   16  C8  UNL     1      47.965  73.313  62.241  1.00  0.00     0.009 A 
HETATM   17  C12 UNL     1      47.506  71.014  62.186  1.00  0.00    -0.032 A 
HETATM   18  C9  UNL     1      48.860  73.193  61.203  1.00  0.00     0.001 A 
HETATM   19  C10 UNL     1      49.099  71.969  60.629  1.00  0.00     0.001 A 
HETATM   20  C11 UNL     1      48.413  70.889  61.134  1.00  0.00     0.009 A 
HETATM   21  C13 UNL     1      46.665  69.993  62.895  1.00  0.00     0.164 C 
ENDBRANCH   1  13
TORSDOF 4
ENDMDL
