MODEL 6
REMARK VINA RESULT: -7.906219718      2.261      6.739
REMARK  4 active torsions:
REMARK  status: ('A' for Active; 'I' for Inactive)
REMARK    1  A    between atoms: C4_5  and  C5_6 
REMARK    2  A    between atoms: C5_6  and  O2_7 
REMARK    3  A    between atoms: C5_6  and  N1_9 
REMARK    4  A    between atoms: C14_18  and  O3_19 
ROOT
HETATM    1  C5  UNL     1      46.523  71.975  63.446  1.00  0.00     0.151 C 
ENDROOT
BRANCH   1   2
HETATM    2  C4  UNL     1      47.492  72.029  62.392  1.00  0.00     0.044 A 
HETATM    3  C3  UNL     1      47.785  70.906  61.533  1.00  0.00     0.022 A 
HETATM    4  C2  UNL     1      48.692  70.985  60.531  1.00  0.00     0.051 A 
HETATM    5  C1  UNL     1      49.413  72.219  60.277  1.00  0.00     0.155 A 
HETATM    6  O1  UNL     1      50.244  72.243  59.331  1.00  0.00    -0.293 OA
HETATM    7  C15 UNL     1      49.151  73.399  61.131  1.00  0.00     0.148 A 
HETATM    8  C14 UNL     1      48.153  73.184  62.174  1.00  0.00     0.065 A 
BRANCH   8   9
HETATM    9  O3  UNL     1      47.875  74.279  63.002  1.00  0.00    -0.364 OA
ATOM     10  H3  UNL     1      48.113  74.223  63.920  1.00  0.00     0.217 HD
ENDBRANCH   8   9
ENDBRANCH   1   2
BRANCH   1  11
HETATM   11  O2  UNL     1      45.568  72.865  63.378  1.00  0.00    -0.345 OA
ATOM     12  H2  UNL     1      45.042  72.960  64.163  1.00  0.00     0.219 HD
ENDBRANCH   1  11
BRANCH   1  13
HETATM   13  N1  UNL     1      46.474  71.075  64.556  1.00  0.00    -0.353 N 
HETATM   14  C6  UNL     1      45.161  70.458  64.880  1.00  0.00     0.164 C 
HETATM   15  C7  UNL     1      45.486  69.416  65.859  1.00  0.00    -0.032 A 
HETATM   16  C8  UNL     1      44.702  68.430  66.450  1.00  0.00     0.009 A 
HETATM   17  C12 UNL     1      46.791  69.470  66.223  1.00  0.00    -0.032 A 
HETATM   18  C9  UNL     1      45.208  67.537  67.366  1.00  0.00     0.001 A 
HETATM   19  C10 UNL     1      46.531  67.592  67.733  1.00  0.00     0.001 A 
HETATM   20  C11 UNL     1      47.307  68.566  67.150  1.00  0.00     0.009 A 
HETATM   21  C13 UNL     1      47.440  70.590  65.465  1.00  0.00     0.164 C 
ENDBRANCH   1  13
TORSDOF 4
ENDMDL
