MODEL 1
REMARK VINA RESULT: -8.924534022      0.000      0.000
REMARK  4 active torsions:
REMARK  status: ('A' for Active; 'I' for Inactive)
REMARK    1  A    between atoms: C4_5  and  C5_6 
REMARK    2  A    between atoms: C5_6  and  O2_7 
REMARK    3  A    between atoms: C5_6  and  N1_9 
REMARK    4  A    between atoms: C14_18  and  O3_19 
ROOT
HETATM    1  C5  UNL     1      46.895  71.818  65.047  1.00  0.00     0.151 C 
ENDROOT
BRANCH   1   2
HETATM    2  C4  UNL     1      46.322  70.662  65.668  1.00  0.00     0.044 A 
HETATM    3  C3  UNL     1      44.948  70.262  65.472  1.00  0.00     0.022 A 
HETATM    4  C2  UNL     1      44.432  69.153  66.055  1.00  0.00     0.051 A 
HETATM    5  C1  UNL     1      45.251  68.314  66.911  1.00  0.00     0.155 A 
HETATM    6  O1  UNL     1      44.726  67.293  67.427  1.00  0.00    -0.293 OA
HETATM    7  C15 UNL     1      46.665  68.683  67.147  1.00  0.00     0.148 A 
HETATM    8  C14 UNL     1      47.098  69.896  66.462  1.00  0.00     0.065 A 
BRANCH   8   9
HETATM    9  O3  UNL     1      48.432  70.277  66.658  1.00  0.00    -0.364 OA
ATOM     10  H3  UNL     1      48.809  70.174  67.525  1.00  0.00     0.217 HD
ENDBRANCH   8   9
ENDBRANCH   1   2
BRANCH   1  11
HETATM   11  O2  UNL     1      47.041  72.860  65.822  1.00  0.00    -0.345 OA
ATOM     12  H2  UNL     1      47.830  73.369  65.679  1.00  0.00     0.219 HD
ENDBRANCH   1  11
BRANCH   1  13
HETATM   13  N1  UNL     1      47.325  71.971  63.691  1.00  0.00    -0.353 N 
HETATM   14  C6  UNL     1      47.531  73.355  63.190  1.00  0.00     0.164 C 
HETATM   15  C7  UNL     1      48.207  73.172  61.902  1.00  0.00    -0.032 A 
HETATM   16  C8  UNL     1      48.758  74.090  61.012  1.00  0.00     0.009 A 
HETATM   17  C12 UNL     1      48.275  71.862  61.560  1.00  0.00    -0.032 A 
HETATM   18  C9  UNL     1      49.354  73.706  59.832  1.00  0.00     0.001 A 
HETATM   19  C10 UNL     1      49.423  72.378  59.489  1.00  0.00     0.001 A 
HETATM   20  C11 UNL     1      48.878  71.469  60.366  1.00  0.00     0.009 A 
HETATM   21  C13 UNL     1      47.634  71.061  62.656  1.00  0.00     0.164 C 
ENDBRANCH   1  13
TORSDOF 4
ENDMDL
