MODEL 3
REMARK VINA RESULT: -8.369185597      0.600      1.441
REMARK  4 active torsions:
REMARK  status: ('A' for Active; 'I' for Inactive)
REMARK    1  A    between atoms: C4_5  and  C5_6 
REMARK    2  A    between atoms: C5_6  and  O2_7 
REMARK    3  A    between atoms: C5_6  and  N1_9 
REMARK    4  A    between atoms: C14_18  and  O3_19 
ROOT
HETATM    1  C5  UNL     1      46.990  72.017  65.054  1.00  0.00     0.151 C 
ENDROOT
BRANCH   1   2
HETATM    2  C4  UNL     1      46.394  70.845  65.623  1.00  0.00     0.044 A 
HETATM    3  C3  UNL     1      45.031  70.449  65.360  1.00  0.00     0.022 A 
HETATM    4  C2  UNL     1      44.494  69.325  65.894  1.00  0.00     0.051 A 
HETATM    5  C1  UNL     1      45.279  68.466  66.762  1.00  0.00     0.155 A 
HETATM    6  O1  UNL     1      44.735  67.432  67.230  1.00  0.00    -0.293 OA
HETATM    7  C15 UNL     1      46.681  68.830  67.064  1.00  0.00     0.148 A 
HETATM    8  C14 UNL     1      47.139  70.061  66.428  1.00  0.00     0.065 A 
BRANCH   8   9
HETATM    9  O3  UNL     1      48.463  70.438  66.687  1.00  0.00    -0.364 OA
ATOM     10  H3  UNL     1      48.624  71.297  67.060  1.00  0.00     0.217 HD
ENDBRANCH   8   9
ENDBRANCH   1   2
BRANCH   1  11
HETATM   11  O2  UNL     1      47.099  73.041  65.859  1.00  0.00    -0.345 OA
ATOM     12  H2  UNL     1      47.566  73.789  65.508  1.00  0.00     0.219 HD
ENDBRANCH   1  11
BRANCH   1  13
HETATM   13  N1  UNL     1      47.476  72.204  63.721  1.00  0.00    -0.353 N 
HETATM   14  C6  UNL     1      47.606  70.997  62.864  1.00  0.00     0.164 C 
HETATM   15  C7  UNL     1      47.859  71.535  61.524  1.00  0.00    -0.032 A 
HETATM   16  C8  UNL     1      47.957  70.911  60.284  1.00  0.00     0.009 A 
HETATM   17  C12 UNL     1      48.025  72.880  61.554  1.00  0.00    -0.032 A 
HETATM   18  C9  UNL     1      48.209  71.610  59.125  1.00  0.00     0.001 A 
HETATM   19  C10 UNL     1      48.376  72.973  59.158  1.00  0.00     0.001 A 
HETATM   20  C11 UNL     1      48.280  73.592  60.383  1.00  0.00     0.009 A 
HETATM   21  C13 UNL     1      47.872  73.336  62.976  1.00  0.00     0.164 C 
ENDBRANCH   1  13
TORSDOF 4
ENDMDL
