MODEL 5
REMARK VINA RESULT: -8.055110029      2.098      6.630
REMARK  4 active torsions:
REMARK  status: ('A' for Active; 'I' for Inactive)
REMARK    1  A    between atoms: C4_5  and  C5_6 
REMARK    2  A    between atoms: C5_6  and  O2_7 
REMARK    3  A    between atoms: C5_6  and  N1_9 
REMARK    4  A    between atoms: C14_18  and  O3_19 
ROOT
HETATM    1  C5  UNL     1      47.338  72.311  64.815  1.00  0.00     0.151 C 
ENDROOT
BRANCH   1   2
HETATM    2  C4  UNL     1      47.547  72.342  63.398  1.00  0.00     0.044 A 
HETATM    3  C3  UNL     1      47.683  71.149  62.596  1.00  0.00     0.022 A 
HETATM    4  C2  UNL     1      47.861  71.202  61.254  1.00  0.00     0.051 A 
HETATM    5  C1  UNL     1      47.922  72.477  60.562  1.00  0.00     0.155 A 
HETATM    6  O1  UNL     1      48.085  72.472  59.313  1.00  0.00    -0.293 OA
HETATM    7  C15 UNL     1      47.790  73.729  61.339  1.00  0.00     0.148 A 
HETATM    8  C14 UNL     1      47.603  73.536  62.774  1.00  0.00     0.065 A 
BRANCH   8   9
HETATM    9  O3  UNL     1      47.472  74.698  63.544  1.00  0.00    -0.364 OA
ATOM     10  H3  UNL     1      47.612  75.538  63.123  1.00  0.00     0.217 HD
ENDBRANCH   8   9
ENDBRANCH   1   2
BRANCH   1  11
HETATM   11  O2  UNL     1      47.471  73.457  65.428  1.00  0.00    -0.345 OA
ATOM     12  H2  UNL     1      47.340  73.435  66.369  1.00  0.00     0.219 HD
ENDBRANCH   1  11
BRANCH   1  13
HETATM   13  N1  UNL     1      47.006  71.187  65.635  1.00  0.00    -0.353 N 
HETATM   14  C6  UNL     1      45.586  70.753  65.659  1.00  0.00     0.164 C 
HETATM   15  C7  UNL     1      45.618  69.460  66.351  1.00  0.00    -0.032 A 
HETATM   16  C8  UNL     1      44.624  68.513  66.582  1.00  0.00     0.009 A 
HETATM   17  C12 UNL     1      46.854  69.190  66.836  1.00  0.00    -0.032 A 
HETATM   18  C9  UNL     1      44.865  67.346  67.269  1.00  0.00     0.001 A 
HETATM   19  C10 UNL     1      46.118  67.073  67.760  1.00  0.00     0.001 A 
HETATM   20  C11 UNL     1      47.102  68.008  67.533  1.00  0.00     0.009 A 
HETATM   21  C13 UNL     1      47.759  70.329  66.468  1.00  0.00     0.164 C 
ENDBRANCH   1  13
TORSDOF 4
ENDMDL
