MODEL 4
REMARK VINA RESULT: -9.794032127      2.057      4.507
REMARK  10 active torsions:
REMARK  status: ('A' for Active; 'I' for Inactive)
REMARK    1  A    between atoms: N4_17  and  C9_18 
REMARK    2  A    between atoms: C9_18  and  C10_19 
REMARK    3  A    between atoms: C10_19  and  O3_20 
REMARK    4  A    between atoms: C10_19  and  C11_22 
REMARK    5  A    between atoms: C11_22  and  O4_23 
REMARK    6  A    between atoms: C11_22  and  C12_25 
REMARK    7  A    between atoms: C12_25  and  O5_26 
REMARK    8  A    between atoms: C12_25  and  C13_28 
REMARK    9  A    between atoms: C13_28  and  O6_29 
REMARK   10  A    between atoms: O6_29  and  P1_30 
ROOT
HETATM    1  C1  UNL     1      -3.144  49.517  -2.394  1.00  0.00     0.049 C 
HETATM    2  C2  UNL     1      -2.016  49.894  -3.280  1.00  0.00    -0.054 A 
HETATM    3  C3  UNL     1      -2.210  50.081  -4.632  1.00  0.00     0.039 A 
HETATM    4  C4  UNL     1      -1.173  50.433  -5.483  1.00  0.00     0.060 A 
HETATM    5  N1  UNL     1      -1.422  50.608  -6.793  1.00  0.00    -0.347 N 
ATOM      6  H1  UNL     1      -2.369  50.475  -7.148  1.00  0.00     0.166 HD
HETATM    7  C5  UNL     1      -0.442  50.953  -7.636  1.00  0.00     0.146 A 
HETATM    8  C6  UNL     1      -0.649  51.147  -9.007  1.00  0.00     0.280 A 
HETATM    9  O1  UNL     1      -1.802  50.987  -9.447  1.00  0.00    -0.265 OA
HETATM   10  N2  UNL     1       0.392  51.497  -9.802  1.00  0.00    -0.273 N 
ATOM     11  H2  UNL     1       0.246  51.638 -10.802  1.00  0.00     0.173 HD
HETATM   12  C7  UNL     1       1.619  51.656  -9.274  1.00  0.00     0.328 A 
HETATM   13  O2  UNL     1       2.541  51.982 -10.067  1.00  0.00    -0.247 OA
HETATM   14  N3  UNL     1       1.866  51.478  -7.943  1.00  0.00    -0.292 N 
ATOM     15  H3  UNL     1       2.812  51.610  -7.588  1.00  0.00     0.172 HD
HETATM   16  C8  UNL     1       0.888  51.132  -7.092  1.00  0.00     0.145 A 
HETATM   17  N4  UNL     1       1.095  50.943  -5.752  1.00  0.00    -0.327 N 
HETATM   18  C14 UNL     1       0.099  50.597  -4.920  1.00  0.00     0.063 A 
HETATM   19  C15 UNL     1       0.302  50.412  -3.567  1.00  0.00     0.039 A 
HETATM   20  C16 UNL     1      -0.753  50.061  -2.745  1.00  0.00    -0.054 A 
HETATM   21  C17 UNL     1      -0.554  49.858  -1.289  1.00  0.00     0.049 C 
ENDROOT
BRANCH  17  22
HETATM   22  C9  UNL     1       2.442  51.135  -5.260  1.00  0.00     0.165 C 
BRANCH  22  23
HETATM   23  C10 UNL     1       3.150  49.774  -5.292  1.00  0.00     0.167 C 
BRANCH  23  24
HETATM   24  O3  UNL     1       2.302  48.708  -5.407  1.00  0.00    -0.391 OA
ATOM     25  H3  UNL     1       1.680  48.630  -4.693  1.00  0.00     0.210 HD
ENDBRANCH  23  24
BRANCH  23  26
HETATM   26  C11 UNL     1       4.150  49.598  -4.242  1.00  0.00     0.179 C 
BRANCH  26  27
HETATM   27  O4  UNL     1       5.045  50.672  -4.236  1.00  0.00    -0.390 OA
ATOM     28  H4  UNL     1       5.140  51.018  -3.356  1.00  0.00     0.210 HD
ENDBRANCH  26  27
BRANCH  26  29
HETATM   29  C12 UNL     1       4.868  48.339  -4.032  1.00  0.00     0.173 C 
BRANCH  29  30
HETATM   30  O5  UNL     1       6.119  48.737  -3.428  1.00  0.00    -0.391 OA
ATOM     31  H5  UNL     1       6.734  48.757  -4.152  1.00  0.00     0.210 HD
ENDBRANCH  29  30
BRANCH  29  32
HETATM   32  C13 UNL     1       5.349  47.623  -5.290  1.00  0.00     0.217 C 
BRANCH  32  33
HETATM   33  O6  UNL     1       6.556  46.926  -4.982  1.00  0.00    -0.280 OA
BRANCH  33  34
HETATM   34  P1  UNL     1       6.557  45.422  -5.735  1.00  0.00     0.422 P 
HETATM   35  O7  UNL     1       7.858  45.243  -6.445  1.00  0.00    -0.617 OA
HETATM   36  O8  UNL     1       5.300  45.272  -6.851  1.00  0.00    -0.617 OA
HETATM   37  O9  UNL     1       6.401  44.162  -4.605  1.00  0.00    -0.617 OA
ENDBRANCH  33  34
ENDBRANCH  32  33
ENDBRANCH  29  32
ENDBRANCH  26  29
ENDBRANCH  23  26
ENDBRANCH  22  23
ENDBRANCH  17  22
TORSDOF 10
ENDMDL
