MODEL 11
REMARK VINA RESULT: -9.307657284      2.424      4.617
REMARK  10 active torsions:
REMARK  status: ('A' for Active; 'I' for Inactive)
REMARK    1  A    between atoms: N4_17  and  C9_18 
REMARK    2  A    between atoms: C9_18  and  C10_19 
REMARK    3  A    between atoms: C10_19  and  O3_20 
REMARK    4  A    between atoms: C10_19  and  C11_22 
REMARK    5  A    between atoms: C11_22  and  O4_23 
REMARK    6  A    between atoms: C11_22  and  C12_25 
REMARK    7  A    between atoms: C12_25  and  O5_26 
REMARK    8  A    between atoms: C12_25  and  C13_28 
REMARK    9  A    between atoms: C13_28  and  O6_29 
REMARK   10  A    between atoms: O6_29  and  P1_30 
ROOT
HETATM    1  C1  UNL     1      -2.395  50.770  -8.352  1.00  0.00     0.049 C 
HETATM    2  C2  UNL     1      -1.073  50.818  -7.681  1.00  0.00    -0.054 A 
HETATM    3  C3  UNL     1       0.071  51.105  -8.393  1.00  0.00     0.039 A 
HETATM    4  C4  UNL     1       1.320  51.156  -7.791  1.00  0.00     0.060 A 
HETATM    5  N1  UNL     1       2.401  51.448  -8.535  1.00  0.00    -0.347 N 
ATOM      6  H1  UNL     1       2.293  51.624  -9.534  1.00  0.00     0.166 HD
HETATM    7  C5  UNL     1       3.617  51.510  -7.980  1.00  0.00     0.146 A 
HETATM    8  C6  UNL     1       4.774  51.809  -8.709  1.00  0.00     0.280 A 
HETATM    9  O1  UNL     1       4.650  52.025  -9.929  1.00  0.00    -0.265 OA
HETATM   10  N2  UNL     1       5.974  51.854  -8.079  1.00  0.00    -0.273 N 
ATOM     11  H2  UNL     1       6.820  52.071  -8.608  1.00  0.00     0.173 HD
HETATM   12  C7  UNL     1       6.051  51.612  -6.759  1.00  0.00     0.328 A 
HETATM   13  O2  UNL     1       7.195  51.670  -6.236  1.00  0.00    -0.247 OA
HETATM   14  N3  UNL     1       4.949  51.316  -6.009  1.00  0.00    -0.292 N 
ATOM     15  H3  UNL     1       5.056  51.140  -5.010  1.00  0.00     0.172 HD
HETATM   16  C8  UNL     1       3.727  51.253  -6.559  1.00  0.00     0.145 A 
HETATM   17  N4  UNL     1       2.598  50.960  -5.842  1.00  0.00    -0.327 N 
HETATM   18  C14 UNL     1       1.386  50.903  -6.416  1.00  0.00     0.063 A 
HETATM   19  C15 UNL     1       0.243  50.614  -5.695  1.00  0.00     0.039 A 
HETATM   20  C16 UNL     1      -0.986  50.571  -6.325  1.00  0.00    -0.054 A 
HETATM   21  C17 UNL     1      -2.224  50.262  -5.566  1.00  0.00     0.049 C 
ENDROOT
BRANCH  17  22
HETATM   22  C9  UNL     1       2.763  50.713  -4.426  1.00  0.00     0.165 C 
BRANCH  22  23
HETATM   23  C10 UNL     1       3.067  49.220  -4.243  1.00  0.00     0.167 C 
BRANCH  23  24
HETATM   24  O3  UNL     1       2.037  48.505  -3.699  1.00  0.00    -0.391 OA
ATOM     25  H3  UNL     1       2.228  48.141  -2.843  1.00  0.00     0.210 HD
ENDBRANCH  23  24
BRANCH  23  26
HETATM   26  C11 UNL     1       4.352  48.947  -3.604  1.00  0.00     0.179 C 
BRANCH  26  27
HETATM   27  O4  UNL     1       5.068  50.133  -3.423  1.00  0.00    -0.390 OA
ATOM     28  H4  UNL     1       5.876  50.112  -3.924  1.00  0.00     0.210 HD
ENDBRANCH  26  27
BRANCH  26  29
HETATM   29  C12 UNL     1       5.248  47.876  -4.047  1.00  0.00     0.173 C 
BRANCH  29  30
HETATM   30  O5  UNL     1       6.570  48.359  -3.721  1.00  0.00    -0.391 OA
ATOM     31  H5  UNL     1       7.140  47.620  -3.898  1.00  0.00     0.210 HD
ENDBRANCH  29  30
BRANCH  29  32
HETATM   32  C13 UNL     1       5.358  47.675  -5.555  1.00  0.00     0.217 C 
BRANCH  32  33
HETATM   33  O6  UNL     1       6.634  47.105  -5.844  1.00  0.00    -0.280 OA
BRANCH  33  34
HETATM   34  P1  UNL     1       6.525  45.427  -5.847  1.00  0.00     0.422 P 
HETATM   35  O7  UNL     1       7.763  44.868  -6.468  1.00  0.00    -0.617 OA
HETATM   36  O8  UNL     1       5.184  44.881  -6.714  1.00  0.00    -0.617 OA
HETATM   37  O9  UNL     1       6.408  44.809  -4.268  1.00  0.00    -0.617 OA
ENDBRANCH  33  34
ENDBRANCH  32  33
ENDBRANCH  29  32
ENDBRANCH  26  29
ENDBRANCH  23  26
ENDBRANCH  22  23
ENDBRANCH  17  22
TORSDOF 10
ENDMDL
