MODEL 1
REMARK VINA RESULT: -11.615110692      0.000      0.000
REMARK  10 active torsions:
REMARK  status: ('A' for Active; 'I' for Inactive)
REMARK    1  A    between atoms: N4_17  and  C9_18 
REMARK    2  A    between atoms: C9_18  and  C10_19 
REMARK    3  A    between atoms: C10_19  and  O3_20 
REMARK    4  A    between atoms: C10_19  and  C11_22 
REMARK    5  A    between atoms: C11_22  and  O4_23 
REMARK    6  A    between atoms: C11_22  and  C12_25 
REMARK    7  A    between atoms: C12_25  and  O5_26 
REMARK    8  A    between atoms: C12_25  and  C13_28 
REMARK    9  A    between atoms: C13_28  and  O6_29 
REMARK   10  A    between atoms: O6_29  and  P1_30 
ROOT
HETATM    1  C1  UNL     1      -1.591  51.101  -9.981  1.00  0.00     0.049 C 
HETATM    2  C2  UNL     1      -0.959  50.980  -8.645  1.00  0.00    -0.054 A 
HETATM    3  C3  UNL     1      -1.708  50.654  -7.535  1.00  0.00     0.039 A 
HETATM    4  C4  UNL     1      -1.142  50.534  -6.274  1.00  0.00     0.060 A 
HETATM    5  N1  UNL     1      -1.922  50.208  -5.228  1.00  0.00    -0.347 N 
ATOM      6  H1  UNL     1      -2.920  50.056  -5.371  1.00  0.00     0.166 HD
HETATM    7  C5  UNL     1      -1.402  50.080  -4.001  1.00  0.00     0.146 A 
HETATM    8  C6  UNL     1      -2.169  49.742  -2.880  1.00  0.00     0.280 A 
HETATM    9  O1  UNL     1      -3.388  49.555  -3.047  1.00  0.00    -0.265 OA
HETATM   10  N2  UNL     1      -1.574  49.630  -1.666  1.00  0.00    -0.273 N 
ATOM     11  H2  UNL     1      -2.130  49.385  -0.846  1.00  0.00     0.173 HD
HETATM   12  C7  UNL     1      -0.252  49.843  -1.542  1.00  0.00     0.328 A 
HETATM   13  O2  UNL     1       0.237  49.723  -0.388  1.00  0.00    -0.247 OA
HETATM   14  N3  UNL     1       0.534  50.175  -2.609  1.00  0.00    -0.292 N 
ATOM     15  H3  UNL     1       1.532  50.327  -2.465  1.00  0.00     0.172 HD
HETATM   16  C8  UNL     1       0.020  50.304  -3.841  1.00  0.00     0.145 A 
HETATM   17  N4  UNL     1       0.774  50.635  -4.934  1.00  0.00    -0.327 N 
HETATM   18  C14 UNL     1       0.235  50.758  -6.158  1.00  0.00     0.063 A 
HETATM   19  C15 UNL     1       0.993  51.085  -7.266  1.00  0.00     0.039 A 
HETATM   20  C16 UNL     1       0.399  51.196  -8.509  1.00  0.00    -0.054 A 
HETATM   21  C17 UNL     1       1.198  51.547  -9.710  1.00  0.00     0.049 C 
ENDROOT
BRANCH  17  22
HETATM   22  C9  UNL     1       2.188  50.847  -4.720  1.00  0.00     0.165 C 
BRANCH  22  23
HETATM   23  C10 UNL     1       2.902  49.507  -4.945  1.00  0.00     0.167 C 
BRANCH  23  24
HETATM   24  O3  UNL     1       2.062  48.429  -4.989  1.00  0.00    -0.391 OA
ATOM     25  H3  UNL     1       1.470  48.430  -5.733  1.00  0.00     0.210 HD
ENDBRANCH  23  24
BRANCH  23  26
HETATM   26  C11 UNL     1       4.059  49.294  -4.079  1.00  0.00     0.179 C 
BRANCH  26  27
HETATM   27  O4  UNL     1       4.752  50.493  -3.890  1.00  0.00    -0.390 OA
ATOM     28  H4  UNL     1       5.690  50.335  -3.882  1.00  0.00     0.210 HD
ENDBRANCH  26  27
BRANCH  26  29
HETATM   29  C12 UNL     1       5.000  48.188  -4.269  1.00  0.00     0.173 C 
BRANCH  29  30
HETATM   30  O5  UNL     1       6.257  48.700  -3.772  1.00  0.00    -0.391 OA
ATOM     31  H5  UNL     1       6.885  48.480  -4.450  1.00  0.00     0.210 HD
ENDBRANCH  29  30
BRANCH  29  32
HETATM   32  C13 UNL     1       5.356  47.850  -5.713  1.00  0.00     0.217 C 
BRANCH  32  33
HETATM   33  O6  UNL     1       6.667  47.287  -5.737  1.00  0.00    -0.280 OA
BRANCH  33  34
HETATM   34  P1  UNL     1       6.569  45.608  -5.778  1.00  0.00     0.422 P 
HETATM   35  O7  UNL     1       7.777  45.076  -6.475  1.00  0.00    -0.617 OA
HETATM   36  O8  UNL     1       5.189  45.075  -6.591  1.00  0.00    -0.617 OA
HETATM   37  O9  UNL     1       6.536  44.949  -4.212  1.00  0.00    -0.617 OA
ENDBRANCH  33  34
ENDBRANCH  32  33
ENDBRANCH  29  32
ENDBRANCH  26  29
ENDBRANCH  23  26
ENDBRANCH  22  23
ENDBRANCH  17  22
TORSDOF 10
ENDMDL
