MODEL 9
REMARK VINA RESULT: -9.437617446      2.970      5.389
REMARK  10 active torsions:
REMARK  status: ('A' for Active; 'I' for Inactive)
REMARK    1  A    between atoms: N4_17  and  C9_18 
REMARK    2  A    between atoms: C9_18  and  C10_19 
REMARK    3  A    between atoms: C10_19  and  O3_20 
REMARK    4  A    between atoms: C10_19  and  C11_22 
REMARK    5  A    between atoms: C11_22  and  O4_23 
REMARK    6  A    between atoms: C11_22  and  C12_25 
REMARK    7  A    between atoms: C12_25  and  O5_26 
REMARK    8  A    between atoms: C12_25  and  C13_28 
REMARK    9  A    between atoms: C13_28  and  O6_29 
REMARK   10  A    between atoms: O6_29  and  P1_30 
ROOT
HETATM    1  C1  UNL     1      -1.451  50.211  -4.824  1.00  0.00     0.049 C 
HETATM    2  C2  UNL     1      -0.077  50.594  -5.232  1.00  0.00    -0.054 A 
HETATM    3  C3  UNL     1       0.218  50.874  -6.548  1.00  0.00     0.039 A 
HETATM    4  C4  UNL     1       1.494  51.234  -6.956  1.00  0.00     0.060 A 
HETATM    5  N1  UNL     1       1.723  51.502  -8.254  1.00  0.00    -0.347 N 
ATOM      6  H1  UNL     1       0.958  51.433  -8.925  1.00  0.00     0.166 HD
HETATM    7  C5  UNL     1       2.943  51.857  -8.675  1.00  0.00     0.146 A 
HETATM    8  C6  UNL     1       3.233  52.146 -10.014  1.00  0.00     0.280 A 
HETATM    9  O1  UNL     1       2.304  52.064 -10.838  1.00  0.00    -0.265 OA
HETATM   10  N2  UNL     1       4.493  52.500 -10.368  1.00  0.00    -0.273 N 
ATOM     11  H2  UNL     1       4.709  52.711 -11.343  1.00  0.00     0.173 HD
HETATM   12  C7  UNL     1       5.460  52.572  -9.435  1.00  0.00     0.328 A 
HETATM   13  O2  UNL     1       6.607  52.907  -9.831  1.00  0.00    -0.247 OA
HETATM   14  N3  UNL     1       5.221  52.299  -8.119  1.00  0.00    -0.292 N 
ATOM     15  H3  UNL     1       5.986  52.368  -7.447  1.00  0.00     0.172 HD
HETATM   16  C8  UNL     1       4.001  51.943  -7.690  1.00  0.00     0.145 A 
HETATM   17  N4  UNL     1       3.721  51.661  -6.380  1.00  0.00    -0.327 N 
HETATM   18  C14 UNL     1       2.491  51.307  -5.975  1.00  0.00     0.063 A 
HETATM   19  C15 UNL     1       2.203  51.028  -4.653  1.00  0.00     0.039 A 
HETATM   20  C16 UNL     1       0.921  50.672  -4.280  1.00  0.00    -0.054 A 
HETATM   21  C17 UNL     1       0.593  50.369  -2.864  1.00  0.00     0.049 C 
ENDROOT
BRANCH  17  22
HETATM   22  C9  UNL     1       4.814  51.763  -5.437  1.00  0.00     0.165 C 
BRANCH  22  23
HETATM   23  C10 UNL     1       5.538  50.410  -5.412  1.00  0.00     0.167 C 
BRANCH  23  24
HETATM   24  O3  UNL     1       5.488  49.729  -6.596  1.00  0.00    -0.391 OA
ATOM     25  H3  UNL     1       5.166  48.839  -6.518  1.00  0.00     0.210 HD
ENDBRANCH  23  24
BRANCH  23  26
HETATM   26  C11 UNL     1       5.204  49.576  -4.259  1.00  0.00     0.179 C 
BRANCH  26  27
HETATM   27  O4  UNL     1       6.246  49.592  -3.328  1.00  0.00    -0.390 OA
ATOM     28  H4  UNL     1       6.043  49.022  -2.595  1.00  0.00     0.210 HD
ENDBRANCH  26  27
BRANCH  26  29
HETATM   29  C12 UNL     1       4.661  48.222  -4.389  1.00  0.00     0.173 C 
BRANCH  29  30
HETATM   30  O5  UNL     1       3.715  48.110  -3.303  1.00  0.00    -0.391 OA
ATOM     31  H5  UNL     1       3.522  47.181  -3.254  1.00  0.00     0.210 HD
ENDBRANCH  29  30
BRANCH  29  32
HETATM   32  C13 UNL     1       5.623  47.081  -4.077  1.00  0.00     0.217 C 
BRANCH  32  33
HETATM   33  O6  UNL     1       6.577  46.989  -5.134  1.00  0.00    -0.280 OA
BRANCH  33  34
HETATM   34  P1  UNL     1       6.563  45.439  -5.787  1.00  0.00     0.422 P 
HETATM   35  O7  UNL     1       7.854  45.208  -6.499  1.00  0.00    -0.617 OA
HETATM   36  O8  UNL     1       5.292  45.223  -6.876  1.00  0.00    -0.617 OA
HETATM   37  O9  UNL     1       6.415  44.256  -4.576  1.00  0.00    -0.617 OA
ENDBRANCH  33  34
ENDBRANCH  32  33
ENDBRANCH  29  32
ENDBRANCH  26  29
ENDBRANCH  23  26
ENDBRANCH  22  23
ENDBRANCH  17  22
TORSDOF 10
ENDMDL
