MODEL 1
REMARK VINA RESULT: -7.777978174      0.000      0.000
REMARK  4 active torsions:
REMARK  status: ('A' for Active; 'I' for Inactive)
REMARK    1  A    between atoms: C1_2  and  C2_4 
REMARK    2  A    between atoms: C5_7  and  O2_8 
REMARK    3  A    between atoms: O2_8  and  C6_9 
REMARK    4  A    between atoms: C6_9  and  P1_10 
ROOT
HETATM    1  C2  UNL     1      22.356  60.564  16.770  1.00  0.00     0.036 A 
HETATM    2  C3  UNL     1      21.481  61.172  15.905  1.00  0.00     0.020 A 
HETATM    3  C4  UNL     1      20.158  60.822  15.824  1.00  0.00     0.039 A 
HETATM    4  C5  UNL     1      19.659  59.816  16.640  1.00  0.00     0.082 A 
HETATM    5  C7  UNL     1      20.519  59.178  17.529  1.00  0.00     0.033 A 
HETATM    6  C8  UNL     1      21.847  59.564  17.575  1.00  0.00    -0.023 A 
HETATM    7  C9  UNL     1      22.591  58.762  18.587  1.00  0.00     0.089 A 
HETATM    8  C10 UNL     1      21.521  57.846  19.133  1.00  0.00     0.016 A 
HETATM    9  S1  UNL     1      21.116  56.591  20.219  1.00  0.00    -0.087 SA
HETATM   10  C11 UNL     1      19.459  56.438  19.843  1.00  0.00     0.139 A 
HETATM   11  N2  UNL     1      19.300  57.352  18.909  1.00  0.00    -0.358 N 
ATOM     12  H2  UNL     1      18.382  57.491  18.485  1.00  0.00     0.166 HD
HETATM   13  C12 UNL     1      20.318  58.083  18.524  1.00  0.00     0.059 A 
ENDROOT
BRANCH   4  14
HETATM   14  O2  UNL     1      18.356  59.431  16.597  1.00  0.00    -0.337 OA
BRANCH  14  15
HETATM   15  C6  UNL     1      17.205  60.211  16.722  1.00  0.00     0.321 C 
BRANCH  15  16
HETATM   16  P1  UNL     1      15.870  59.407  17.619  1.00  0.00     0.284 P 
HETATM   17  O3  UNL     1      15.342  60.420  18.638  1.00  0.00    -0.638 OA
HETATM   18  O4  UNL     1      14.690  58.857  16.574  1.00  0.00    -0.638 OA
HETATM   19  O5  UNL     1      16.424  58.065  18.496  1.00  0.00    -0.638 OA
ENDBRANCH  15  16
ENDBRANCH  14  15
ENDBRANCH   4  14
BRANCH   1  20
HETATM   20  C1  UNL     1      23.754  60.961  16.829  1.00  0.00     0.265 C 
HETATM   21  N1  UNL     1      24.229  62.005  17.656  1.00  0.00    -0.057 NA
HETATM   22  O1  UNL     1      24.580  60.333  16.098  1.00  0.00    -0.271 OA
ENDBRANCH   1  20
TORSDOF 4
ENDMDL
