MODEL 3
REMARK VINA RESULT: -7.399646355      2.617      5.730
REMARK  4 active torsions:
REMARK  status: ('A' for Active; 'I' for Inactive)
REMARK    1  A    between atoms: C1_2  and  C2_4 
REMARK    2  A    between atoms: C5_7  and  O2_8 
REMARK    3  A    between atoms: O2_8  and  C6_9 
REMARK    4  A    between atoms: C6_9  and  P1_10 
ROOT
HETATM    1  C2  UNL     1      17.106  59.874  16.762  1.00  0.00     0.036 A 
HETATM    2  C3  UNL     1      17.634  60.809  15.907  1.00  0.00     0.020 A 
HETATM    3  C4  UNL     1      18.982  61.019  15.784  1.00  0.00     0.039 A 
HETATM    4  C5  UNL     1      19.870  60.270  16.541  1.00  0.00     0.082 A 
HETATM    5  C7  UNL     1      19.369  59.312  17.419  1.00  0.00     0.033 A 
HETATM    6  C8  UNL     1      18.001  59.135  17.511  1.00  0.00    -0.023 A 
HETATM    7  C9  UNL     1      17.675  58.070  18.501  1.00  0.00     0.089 A 
HETATM    8  C10 UNL     1      19.041  57.641  18.983  1.00  0.00     0.016 A 
HETATM    9  S1  UNL     1      19.952  56.616  20.002  1.00  0.00    -0.087 SA
HETATM   10  C11 UNL     1      21.518  57.149  19.585  1.00  0.00     0.139 A 
HETATM   11  N2  UNL     1      21.266  58.080  18.689  1.00  0.00    -0.358 N 
ATOM     12  H2  UNL     1      22.035  58.588  18.251  1.00  0.00     0.166 HD
HETATM   13  C12 UNL     1      20.027  58.357  18.359  1.00  0.00     0.059 A 
ENDROOT
BRANCH   4  14
HETATM   14  O2  UNL     1      21.216  60.441  16.456  1.00  0.00    -0.337 OA
BRANCH  14  15
HETATM   15  C6  UNL     1      22.097  59.999  15.468  1.00  0.00     0.321 C 
BRANCH  15  16
HETATM   16  P1  UNL     1      23.410  58.933  16.080  1.00  0.00     0.284 P 
HETATM   17  O3  UNL     1      22.872  57.500  16.053  1.00  0.00    -0.638 OA
HETATM   18  O4  UNL     1      24.806  59.123  15.185  1.00  0.00    -0.638 OA
HETATM   19  O5  UNL     1      23.801  59.284  17.693  1.00  0.00    -0.638 OA
ENDBRANCH  15  16
ENDBRANCH  14  15
ENDBRANCH   4  14
BRANCH   1  20
HETATM   20  C1  UNL     1      15.668  59.678  16.868  1.00  0.00     0.265 C 
HETATM   21  N1  UNL     1      14.927  58.877  15.969  1.00  0.00    -0.057 NA
HETATM   22  O1  UNL     1      15.059  60.258  17.818  1.00  0.00    -0.271 OA
ENDBRANCH   1  20
TORSDOF 4
ENDMDL
