MODEL 5
REMARK VINA RESULT: -7.295071679      3.235      6.606
REMARK  4 active torsions:
REMARK  status: ('A' for Active; 'I' for Inactive)
REMARK    1  A    between atoms: C1_2  and  C2_4 
REMARK    2  A    between atoms: C5_7  and  O2_8 
REMARK    3  A    between atoms: O2_8  and  C6_9 
REMARK    4  A    between atoms: C6_9  and  P1_10 
ROOT
HETATM    1  C2  UNL     1      17.233  59.194  17.683  1.00  0.00     0.036 A 
HETATM    2  C3  UNL     1      17.670  58.248  18.576  1.00  0.00     0.020 A 
HETATM    3  C4  UNL     1      18.997  57.958  18.756  1.00  0.00     0.039 A 
HETATM    4  C5  UNL     1      19.958  58.635  18.020  1.00  0.00     0.082 A 
HETATM    5  C7  UNL     1      19.550  59.602  17.105  1.00  0.00     0.033 A 
HETATM    6  C8  UNL     1      18.200  59.861  16.956  1.00  0.00    -0.023 A 
HETATM    7  C9  UNL     1      17.979  60.923  15.934  1.00  0.00     0.089 A 
HETATM    8  C10 UNL     1      19.386  61.257  15.497  1.00  0.00     0.016 A 
HETATM    9  S1  UNL     1      20.396  62.202  14.495  1.00  0.00    -0.087 SA
HETATM   10  C11 UNL     1      21.910  61.583  14.984  1.00  0.00     0.139 A 
HETATM   11  N2  UNL     1      21.566  60.689  15.886  1.00  0.00    -0.358 N 
ATOM     12  H2  UNL     1      22.286  60.145  16.363  1.00  0.00     0.166 HD
HETATM   13  C12 UNL     1      20.301  60.495  16.173  1.00  0.00     0.059 A 
ENDROOT
BRANCH   4  14
HETATM   14  O2  UNL     1      21.286  58.384  18.161  1.00  0.00    -0.337 OA
BRANCH  14  15
HETATM   15  C6  UNL     1      22.169  58.847  19.138  1.00  0.00     0.321 C 
BRANCH  15  16
HETATM   16  P1  UNL     1      23.673  59.579  18.479  1.00  0.00     0.284 P 
HETATM   17  O3  UNL     1      23.415  61.081  18.338  1.00  0.00    -0.638 OA
HETATM   18  O4  UNL     1      24.987  59.231  19.449  1.00  0.00    -0.638 OA
HETATM   19  O5  UNL     1      24.029  58.991  16.929  1.00  0.00    -0.638 OA
ENDBRANCH  15  16
ENDBRANCH  14  15
ENDBRANCH   4  14
BRANCH   1  20
HETATM   20  C1  UNL     1      15.816  59.476  17.518  1.00  0.00     0.265 C 
HETATM   21  N1  UNL     1      15.004  58.827  16.559  1.00  0.00    -0.057 NA
HETATM   22  O1  UNL     1      15.291  60.348  18.276  1.00  0.00    -0.271 OA
ENDBRANCH   1  20
TORSDOF 4
ENDMDL
