MODEL 4
REMARK VINA RESULT: -7.372554805      2.690      5.738
REMARK  4 active torsions:
REMARK  status: ('A' for Active; 'I' for Inactive)
REMARK    1  A    between atoms: C1_2  and  C2_4 
REMARK    2  A    between atoms: C5_7  and  O2_8 
REMARK    3  A    between atoms: O2_8  and  C6_9 
REMARK    4  A    between atoms: C6_9  and  P1_10 
ROOT
HETATM    1  C2  UNL     1      17.110  60.178  16.773  1.00  0.00     0.036 A 
HETATM    2  C3  UNL     1      17.268  61.144  15.812  1.00  0.00     0.020 A 
HETATM    3  C4  UNL     1      18.499  61.562  15.378  1.00  0.00     0.039 A 
HETATM    4  C5  UNL     1      19.648  61.000  15.916  1.00  0.00     0.082 A 
HETATM    5  C7  UNL     1      19.525  60.017  16.894  1.00  0.00     0.033 A 
HETATM    6  C8  UNL     1      18.261  59.628  17.302  1.00  0.00    -0.023 A 
HETATM    7  C9  UNL     1      18.350  58.571  18.349  1.00  0.00     0.089 A 
HETATM    8  C10 UNL     1      19.842  58.389  18.506  1.00  0.00     0.016 A 
HETATM    9  S1  UNL     1      21.117  57.572  19.296  1.00  0.00    -0.087 SA
HETATM   10  C11 UNL     1      22.437  58.328  18.524  1.00  0.00     0.139 A 
HETATM   11  N2  UNL     1      21.837  59.164  17.703  1.00  0.00    -0.358 N 
ATOM     12  H2  UNL     1      22.392  59.767  17.094  1.00  0.00     0.166 HD
HETATM   13  C12 UNL     1      20.527  59.224  17.666  1.00  0.00     0.059 A 
ENDROOT
BRANCH   4  14
HETATM   14  O2  UNL     1      20.892  61.379  15.521  1.00  0.00    -0.337 OA
BRANCH  14  15
HETATM   15  C6  UNL     1      21.512  61.203  14.283  1.00  0.00     0.321 C 
BRANCH  15  16
HETATM   16  P1  UNL     1      22.736  59.886  14.258  1.00  0.00     0.284 P 
HETATM   17  O3  UNL     1      21.994  58.581  14.558  1.00  0.00    -0.638 OA
HETATM   18  O4  UNL     1      23.553  59.852  12.803  1.00  0.00    -0.638 OA
HETATM   19  O5  UNL     1      23.897  60.086  15.477  1.00  0.00    -0.638 OA
ENDBRANCH  15  16
ENDBRANCH  14  15
ENDBRANCH   4  14
BRANCH   1  20
HETATM   20  C1  UNL     1      15.787  59.760  17.210  1.00  0.00     0.265 C 
HETATM   21  N1  UNL     1      15.002  58.816  16.510  1.00  0.00    -0.057 NA
HETATM   22  O1  UNL     1      15.324  60.275  18.275  1.00  0.00    -0.271 OA
ENDBRANCH   1  20
TORSDOF 4
ENDMDL
