MODEL 2
REMARK VINA RESULT: -7.720961092      0.171      1.032
REMARK  4 active torsions:
REMARK  status: ('A' for Active; 'I' for Inactive)
REMARK    1  A    between atoms: C1_2  and  C2_4 
REMARK    2  A    between atoms: C5_7  and  O2_8 
REMARK    3  A    between atoms: O2_8  and  C6_9 
REMARK    4  A    between atoms: C6_9  and  P1_10 
ROOT
HETATM    1  C2  UNL     1      22.392  60.550  16.795  1.00  0.00     0.036 A 
HETATM    2  C3  UNL     1      21.508  61.149  15.934  1.00  0.00     0.020 A 
HETATM    3  C4  UNL     1      20.188  60.787  15.859  1.00  0.00     0.039 A 
HETATM    4  C5  UNL     1      19.702  59.778  16.678  1.00  0.00     0.082 A 
HETATM    5  C7  UNL     1      20.572  59.149  17.564  1.00  0.00     0.033 A 
HETATM    6  C8  UNL     1      21.896  59.546  17.603  1.00  0.00    -0.023 A 
HETATM    7  C9  UNL     1      22.653  58.752  18.612  1.00  0.00     0.089 A 
HETATM    8  C10 UNL     1      21.593  57.828  19.164  1.00  0.00     0.016 A 
HETATM    9  S1  UNL     1      21.205  56.570  20.253  1.00  0.00    -0.087 SA
HETATM   10  C11 UNL     1      19.547  56.401  19.886  1.00  0.00     0.139 A 
HETATM   11  N2  UNL     1      19.375  57.313  18.952  1.00  0.00    -0.358 N 
ATOM     12  H2  UNL     1      18.455  57.444  18.532  1.00  0.00     0.166 HD
HETATM   13  C12 UNL     1      20.385  58.053  18.561  1.00  0.00     0.059 A 
ENDROOT
BRANCH   4  14
HETATM   14  O2  UNL     1      18.402  59.382  16.642  1.00  0.00    -0.337 OA
BRANCH  14  15
HETATM   15  C6  UNL     1      17.245  60.149  16.787  1.00  0.00     0.321 C 
BRANCH  15  16
HETATM   16  P1  UNL     1      16.005  59.409  17.859  1.00  0.00     0.284 P 
HETATM   17  O3  UNL     1      14.877  58.906  16.956  1.00  0.00    -0.638 OA
HETATM   18  O4  UNL     1      16.670  58.204  18.804  1.00  0.00    -0.638 OA
HETATM   19  O5  UNL     1      15.325  60.551  18.912  1.00  0.00    -0.638 OA
ENDBRANCH  15  16
ENDBRANCH  14  15
ENDBRANCH   4  14
BRANCH   1  20
HETATM   20  C1  UNL     1      23.787  60.960  16.846  1.00  0.00     0.265 C 
HETATM   21  N1  UNL     1      24.257  62.009  17.669  1.00  0.00    -0.057 NA
HETATM   22  O1  UNL     1      24.616  60.337  16.113  1.00  0.00    -0.271 OA
ENDBRANCH   1  20
TORSDOF 4
ENDMDL
