MODEL 1
REMARK VINA RESULT: -11.747205419      0.000      0.000
REMARK  12 active torsions:
REMARK  status: ('A' for Active; 'I' for Inactive)
REMARK    1  A    between atoms: C8_8  and  O1_9 
REMARK    2  A    between atoms: O1_9  and  C9_10 
REMARK    3  A    between atoms: C9_10  and  C10_11 
REMARK       I    between atoms: C10_11  and  N1_13 
REMARK    4  A    between atoms: N1_13  and  C11_15 
REMARK    5  A    between atoms: C11_15  and  C12_16 
REMARK    6  A    between atoms: C11_15  and  C19_23 
REMARK    7  A    between atoms: C12_16  and  C13_17 
REMARK    8  A    between atoms: C19_23  and  O3_24 
REMARK    9  A    between atoms: C19_23  and  C20_26 
REMARK       I    between atoms: C20_26  and  N2_28 
REMARK   10  A    between atoms: C25_34  and  C26_35 
REMARK       I    between atoms: C26_35  and  N3_37 
REMARK   11  A    between atoms: N3_37  and  C27_39 
REMARK   12  A    between atoms: C35_47  and  O6_48 
ROOT
HETATM    1  C19 UNL     1      16.134  23.427  18.390  1.00  0.00     0.233 C 
ENDROOT
BRANCH   1   2
HETATM    2  C11 UNL     1      16.005  22.478  17.249  1.00  0.00     0.126 C 
BRANCH   2   3
HETATM    3  N1  UNL     1      15.244  21.280  17.685  1.00  0.00    -0.351 N 
HETATM    4  C10 UNL     1      15.975  20.141  18.193  1.00  0.00     0.242 C 
HETATM    5  O2  UNL     1      17.205  20.260  18.232  1.00  0.00    -0.271 OA
ATOM      6  H1  UNL     1      14.226  21.262  17.627  1.00  0.00     0.163 HD
BRANCH   4   7
HETATM    7  C9  UNL     1      15.141  19.000  18.594  1.00  0.00     0.278 C 
BRANCH   7   8
HETATM    8  O1  UNL     1      13.870  19.191  19.030  1.00  0.00    -0.341 OA
BRANCH   8   9
HETATM    9  C8  UNL     1      12.831  18.400  19.358  1.00  0.00     0.081 A 
HETATM   10  C2  UNL     1      12.719  17.760  20.594  1.00  0.00    -0.028 A 
HETATM   11  C1  UNL     1      13.747  17.976  21.648  1.00  0.00     0.051 C 
HETATM   12  C3  UNL     1      11.614  16.966  20.821  1.00  0.00     0.009 A 
HETATM   13  C4  UNL     1      10.614  16.771  19.895  1.00  0.00     0.001 A 
HETATM   14  C5  UNL     1      10.758  17.425  18.676  1.00  0.00     0.009 A 
HETATM   15  C6  UNL     1      11.831  18.228  18.385  1.00  0.00    -0.028 A 
HETATM   16  C7  UNL     1      11.976  18.919  17.093  1.00  0.00     0.051 C 
ENDBRANCH   8   9
ENDBRANCH   7   8
ENDBRANCH   4   7
ENDBRANCH   2   3
BRANCH   2  17
HETATM   17  C12 UNL     1      15.497  23.003  15.962  1.00  0.00     0.066 C 
BRANCH  17  18
HETATM   18  C13 UNL     1      14.643  22.139  15.161  1.00  0.00    -0.056 A 
HETATM   19  C14 UNL     1      13.287  22.300  15.155  1.00  0.00     0.007 A 
HETATM   20  C15 UNL     1      12.482  21.489  14.389  1.00  0.00     0.001 A 
HETATM   21  C16 UNL     1      13.058  20.502  13.617  1.00  0.00     0.000 A 
HETATM   22  C17 UNL     1      14.416  20.307  13.595  1.00  0.00     0.001 A 
HETATM   23  C18 UNL     1      15.184  21.150  14.385  1.00  0.00     0.007 A 
ENDBRANCH  17  18
ENDBRANCH   2  17
ENDBRANCH   1   2
BRANCH   1  24
HETATM   24  O3  UNL     1      15.034  24.306  18.455  1.00  0.00    -0.384 OA
ATOM     25  H3  UNL     1      15.224  25.058  19.003  1.00  0.00     0.210 HD
ENDBRANCH   1  24
BRANCH   1  26
HETATM   26  C20 UNL     1      17.388  24.202  18.460  1.00  0.00     0.252 C 
HETATM   27  O4  UNL     1      17.595  25.128  17.583  1.00  0.00    -0.270 OA
HETATM   28  N2  UNL     1      18.428  24.035  19.427  1.00  0.00    -0.326 N 
HETATM   29  C21 UNL     1      18.340  23.041  20.466  1.00  0.00     0.201 C 
HETATM   30  C25 UNL     1      19.586  24.849  19.431  1.00  0.00     0.198 C 
HETATM   31  S1  UNL     1      19.543  23.682  21.717  1.00  0.00    -0.137 SA
HETATM   32  C22 UNL     1      20.563  24.547  20.483  1.00  0.00     0.032 C 
HETATM   33  C23 UNL     1      21.662  23.598  20.052  1.00  0.00     0.029 C 
HETATM   34  C24 UNL     1      21.164  25.802  21.099  1.00  0.00     0.029 C 
BRANCH  30  35
HETATM   35  C26 UNL     1      20.276  24.794  18.104  1.00  0.00     0.242 C 
HETATM   36  O5  UNL     1      20.362  23.708  17.482  1.00  0.00    -0.271 OA
HETATM   37  N3  UNL     1      20.836  25.942  17.513  1.00  0.00    -0.348 N 
ATOM     38  H3  UNL     1      20.763  26.811  18.043  1.00  0.00     0.163 HD
BRANCH  37  39
HETATM   39  C27 UNL     1      21.503  26.018  16.233  1.00  0.00     0.147 A 
HETATM   40  C28 UNL     1      20.517  26.303  15.147  1.00  0.00    -0.027 A 
HETATM   41  C29 UNL     1      19.401  25.584  14.737  1.00  0.00     0.010 A 
HETATM   42  C33 UNL     1      20.787  27.481  14.512  1.00  0.00    -0.047 A 
HETATM   43  C30 UNL     1      18.558  26.015  13.716  1.00  0.00     0.001 A 
HETATM   44  C31 UNL     1      18.849  27.210  13.085  1.00  0.00     0.001 A 
HETATM   45  C32 UNL     1      19.957  27.915  13.498  1.00  0.00     0.008 A 
HETATM   46  C34 UNL     1      22.020  28.100  15.076  1.00  0.00     0.073 A 
HETATM   47  C35 UNL     1      22.511  27.128  16.122  1.00  0.00     0.149 A 
BRANCH  47  48
HETATM   48  O6  UNL     1      22.820  27.768  17.291  1.00  0.00    -0.393 OA
ATOM     49  H6  UNL     1      23.708  28.097  17.358  1.00  0.00     0.210 HD
ENDBRANCH  47  48
ENDBRANCH  37  39
ENDBRANCH  30  35
ENDBRANCH   1  26
TORSDOF 12
ENDMDL
