MODEL 8
REMARK VINA RESULT: -9.652644654      2.046      9.877
REMARK  12 active torsions:
REMARK  status: ('A' for Active; 'I' for Inactive)
REMARK    1  A    between atoms: C8_8  and  O1_9 
REMARK    2  A    between atoms: O1_9  and  C9_10 
REMARK    3  A    between atoms: C9_10  and  C10_11 
REMARK       I    between atoms: C10_11  and  N1_13 
REMARK    4  A    between atoms: N1_13  and  C11_15 
REMARK    5  A    between atoms: C11_15  and  C12_16 
REMARK    6  A    between atoms: C11_15  and  C19_23 
REMARK    7  A    between atoms: C12_16  and  C13_17 
REMARK    8  A    between atoms: C19_23  and  O3_24 
REMARK    9  A    between atoms: C19_23  and  C20_26 
REMARK       I    between atoms: C20_26  and  N2_28 
REMARK   10  A    between atoms: C25_34  and  C26_35 
REMARK       I    between atoms: C26_35  and  N3_37 
REMARK   11  A    between atoms: N3_37  and  C27_39 
REMARK   12  A    between atoms: C35_47  and  O6_48 
ROOT
HETATM    1  C19 UNL     1      17.312  22.658  19.463  1.00  0.00     0.233 C 
ENDROOT
BRANCH   1   2
HETATM    2  C11 UNL     1      18.760  22.852  19.170  1.00  0.00     0.126 C 
BRANCH   2   3
HETATM    3  N1  UNL     1      18.986  24.237  18.687  1.00  0.00    -0.351 N 
HETATM    4  C10 UNL     1      19.525  24.430  17.359  1.00  0.00     0.242 C 
HETATM    5  O2  UNL     1      19.753  23.401  16.713  1.00  0.00    -0.271 OA
ATOM      6  H1  UNL     1      18.765  25.037  19.280  1.00  0.00     0.163 HD
BRANCH   4   7
HETATM    7  C9  UNL     1      19.720  25.832  16.969  1.00  0.00     0.278 C 
BRANCH   7   8
HETATM    8  O1  UNL     1      20.602  26.162  15.990  1.00  0.00    -0.341 OA
BRANCH   8   9
HETATM    9  C8  UNL     1      20.550  26.847  14.833  1.00  0.00     0.081 A 
HETATM   10  C2  UNL     1      19.544  26.666  13.882  1.00  0.00    -0.028 A 
HETATM   11  C1  UNL     1      18.426  25.718  14.142  1.00  0.00     0.051 C 
HETATM   12  C3  UNL     1      19.593  27.417  12.726  1.00  0.00     0.009 A 
HETATM   13  C4  UNL     1      20.581  28.338  12.459  1.00  0.00     0.001 A 
HETATM   14  C5  UNL     1      21.566  28.494  13.429  1.00  0.00     0.009 A 
HETATM   15  C6  UNL     1      21.577  27.779  14.599  1.00  0.00    -0.028 A 
HETATM   16  C7  UNL     1      22.622  27.951  15.622  1.00  0.00     0.051 C 
ENDBRANCH   8   9
ENDBRANCH   7   8
ENDBRANCH   4   7
ENDBRANCH   2   3
BRANCH   2  17
HETATM   17  C12 UNL     1      19.738  22.477  20.216  1.00  0.00     0.066 C 
BRANCH  17  18
HETATM   18  C13 UNL     1      20.706  23.478  20.635  1.00  0.00    -0.056 A 
HETATM   19  C14 UNL     1      20.320  24.571  21.358  1.00  0.00     0.007 A 
HETATM   20  C15 UNL     1      21.239  25.512  21.763  1.00  0.00     0.001 A 
HETATM   21  C16 UNL     1      22.568  25.343  21.434  1.00  0.00     0.000 A 
HETATM   22  C17 UNL     1      22.996  24.260  20.708  1.00  0.00     0.001 A 
HETATM   23  C18 UNL     1      22.031  23.341  20.323  1.00  0.00     0.007 A 
ENDBRANCH  17  18
ENDBRANCH   2  17
ENDBRANCH   1   2
BRANCH   1  24
HETATM   24  O3  UNL     1      17.087  22.479  20.843  1.00  0.00    -0.384 OA
ATOM     25  H3  UNL     1      17.048  23.312  21.298  1.00  0.00     0.210 HD
ENDBRANCH   1  24
BRANCH   1  26
HETATM   26  C20 UNL     1      16.628  21.587  18.711  1.00  0.00     0.252 C 
HETATM   27  O4  UNL     1      16.930  21.413  17.467  1.00  0.00    -0.270 OA
HETATM   28  N2  UNL     1      15.640  20.695  19.231  1.00  0.00    -0.326 N 
HETATM   29  C21 UNL     1      15.200  20.770  20.600  1.00  0.00     0.201 C 
HETATM   30  C25 UNL     1      15.057  19.677  18.437  1.00  0.00     0.198 C 
HETATM   31  S1  UNL     1      14.479  19.086  20.867  1.00  0.00    -0.137 SA
HETATM   32  C22 UNL     1      14.053  18.848  19.114  1.00  0.00     0.032 C 
HETATM   33  C23 UNL     1      12.629  19.323  18.921  1.00  0.00     0.029 C 
HETATM   34  C24 UNL     1      14.170  17.375  18.749  1.00  0.00     0.029 C 
BRANCH  30  35
HETATM   35  C26 UNL     1      14.449  20.255  17.198  1.00  0.00     0.242 C 
HETATM   36  O5  UNL     1      13.735  21.285  17.268  1.00  0.00    -0.271 OA
HETATM   37  N3  UNL     1      14.657  19.677  15.932  1.00  0.00    -0.348 N 
ATOM     38  H3  UNL     1      15.231  18.834  15.903  1.00  0.00     0.163 HD
BRANCH  37  39
HETATM   39  C27 UNL     1      14.142  20.156  14.668  1.00  0.00     0.147 A 
HETATM   40  C28 UNL     1      12.649  20.116  14.666  1.00  0.00    -0.027 A 
HETATM   41  C29 UNL     1      11.780  19.045  14.831  1.00  0.00     0.010 A 
HETATM   42  C33 UNL     1      12.107  21.358  14.499  1.00  0.00    -0.047 A 
HETATM   43  C30 UNL     1      10.395  19.188  14.835  1.00  0.00     0.001 A 
HETATM   44  C31 UNL     1       9.866  20.455  14.665  1.00  0.00     0.001 A 
HETATM   45  C32 UNL     1      10.735  21.509  14.501  1.00  0.00     0.008 A 
HETATM   46  C34 UNL     1      13.186  22.371  14.327  1.00  0.00     0.073 A 
HETATM   47  C35 UNL     1      14.477  21.590  14.363  1.00  0.00     0.149 A 
BRANCH  47  48
HETATM   48  O6  UNL     1      15.391  22.175  15.195  1.00  0.00    -0.393 OA
ATOM     49  H6  UNL     1      16.173  21.665  15.373  1.00  0.00     0.210 HD
ENDBRANCH  47  48
ENDBRANCH  37  39
ENDBRANCH  30  35
ENDBRANCH   1  26
TORSDOF 12
ENDMDL
