MODEL 2
REMARK VINA RESULT: -11.729415632      0.041      1.269
REMARK  12 active torsions:
REMARK  status: ('A' for Active; 'I' for Inactive)
REMARK    1  A    between atoms: C8_8  and  O1_9 
REMARK    2  A    between atoms: O1_9  and  C9_10 
REMARK    3  A    between atoms: C9_10  and  C10_11 
REMARK       I    between atoms: C10_11  and  N1_13 
REMARK    4  A    between atoms: N1_13  and  C11_15 
REMARK    5  A    between atoms: C11_15  and  C12_16 
REMARK    6  A    between atoms: C11_15  and  C19_23 
REMARK    7  A    between atoms: C12_16  and  C13_17 
REMARK    8  A    between atoms: C19_23  and  O3_24 
REMARK    9  A    between atoms: C19_23  and  C20_26 
REMARK       I    between atoms: C20_26  and  N2_28 
REMARK   10  A    between atoms: C25_34  and  C26_35 
REMARK       I    between atoms: C26_35  and  N3_37 
REMARK   11  A    between atoms: N3_37  and  C27_39 
REMARK   12  A    between atoms: C35_47  and  O6_48 
ROOT
HETATM    1  C19 UNL     1      16.120  23.413  18.398  1.00  0.00     0.233 C 
ENDROOT
BRANCH   1   2
HETATM    2  C11 UNL     1      15.999  22.462  17.258  1.00  0.00     0.126 C 
BRANCH   2   3
HETATM    3  N1  UNL     1      15.241  21.263  17.693  1.00  0.00    -0.351 N 
HETATM    4  C10 UNL     1      15.973  20.134  18.223  1.00  0.00     0.242 C 
HETATM    5  O2  UNL     1      17.201  20.264  18.282  1.00  0.00    -0.271 OA
ATOM      6  H1  UNL     1      14.224  21.235  17.619  1.00  0.00     0.163 HD
BRANCH   4   7
HETATM    7  C9  UNL     1      15.143  18.990  18.622  1.00  0.00     0.278 C 
BRANCH   7   8
HETATM    8  O1  UNL     1      13.896  19.181  19.126  1.00  0.00    -0.341 OA
BRANCH   8   9
HETATM    9  C8  UNL     1      12.809  18.415  19.334  1.00  0.00     0.081 A 
HETATM   10  C2  UNL     1      11.802  18.245  18.382  1.00  0.00    -0.028 A 
HETATM   11  C1  UNL     1      11.919  18.880  17.041  1.00  0.00     0.051 C 
HETATM   12  C3  UNL     1      10.727  17.443  18.704  1.00  0.00     0.009 A 
HETATM   13  C4  UNL     1      10.594  16.799  19.913  1.00  0.00     0.001 A 
HETATM   14  C5  UNL     1      11.617  16.990  20.837  1.00  0.00     0.009 A 
HETATM   15  C6  UNL     1      12.712  17.774  20.581  1.00  0.00    -0.028 A 
HETATM   16  C7  UNL     1      13.793  17.969  21.562  1.00  0.00     0.051 C 
ENDBRANCH   8   9
ENDBRANCH   7   8
ENDBRANCH   4   7
ENDBRANCH   2   3
BRANCH   2  17
HETATM   17  C12 UNL     1      15.495  22.983  15.968  1.00  0.00     0.066 C 
BRANCH  17  18
HETATM   18  C13 UNL     1      14.655  22.112  15.161  1.00  0.00    -0.056 A 
HETATM   19  C14 UNL     1      13.298  22.264  15.142  1.00  0.00     0.007 A 
HETATM   20  C15 UNL     1      12.505  21.445  14.370  1.00  0.00     0.001 A 
HETATM   21  C16 UNL     1      13.095  20.460  13.605  1.00  0.00     0.000 A 
HETATM   22  C17 UNL     1      14.455  20.273  13.598  1.00  0.00     0.001 A 
HETATM   23  C18 UNL     1      15.209  21.124  14.393  1.00  0.00     0.007 A 
ENDBRANCH  17  18
ENDBRANCH   2  17
ENDBRANCH   1   2
BRANCH   1  24
HETATM   24  O3  UNL     1      15.017  24.290  18.455  1.00  0.00    -0.384 OA
ATOM     25  H3  UNL     1      14.286  23.896  18.916  1.00  0.00     0.210 HD
ENDBRANCH   1  24
BRANCH   1  26
HETATM   26  C20 UNL     1      17.372  24.193  18.473  1.00  0.00     0.252 C 
HETATM   27  O4  UNL     1      17.580  25.118  17.596  1.00  0.00    -0.270 OA
HETATM   28  N2  UNL     1      18.407  24.029  19.445  1.00  0.00    -0.326 N 
HETATM   29  C21 UNL     1      18.317  23.037  20.485  1.00  0.00     0.201 C 
HETATM   30  C25 UNL     1      19.563  24.847  19.454  1.00  0.00     0.198 C 
HETATM   31  S1  UNL     1      19.513  23.683  21.740  1.00  0.00    -0.137 SA
HETATM   32  C22 UNL     1      20.536  24.550  20.510  1.00  0.00     0.032 C 
HETATM   33  C23 UNL     1      21.640  23.604  20.086  1.00  0.00     0.029 C 
HETATM   34  C24 UNL     1      21.130  25.808  21.128  1.00  0.00     0.029 C 
BRANCH  30  35
HETATM   35  C26 UNL     1      20.259  24.793  18.130  1.00  0.00     0.242 C 
HETATM   36  O5  UNL     1      20.352  23.706  17.510  1.00  0.00    -0.271 OA
HETATM   37  N3  UNL     1      20.817  25.942  17.540  1.00  0.00    -0.348 N 
ATOM     38  H3  UNL     1      20.739  26.811  18.068  1.00  0.00     0.163 HD
BRANCH  37  39
HETATM   39  C27 UNL     1      21.491  26.018  16.262  1.00  0.00     0.147 A 
HETATM   40  C28 UNL     1      20.509  26.301  15.172  1.00  0.00    -0.027 A 
HETATM   41  C29 UNL     1      19.396  25.581  14.757  1.00  0.00     0.010 A 
HETATM   42  C33 UNL     1      20.780  27.479  14.537  1.00  0.00    -0.047 A 
HETATM   43  C30 UNL     1      18.557  26.009  13.732  1.00  0.00     0.001 A 
HETATM   44  C31 UNL     1      18.849  27.205  13.102  1.00  0.00     0.001 A 
HETATM   45  C32 UNL     1      19.954  27.911  13.520  1.00  0.00     0.008 A 
HETATM   46  C34 UNL     1      22.009  28.100  15.107  1.00  0.00     0.073 A 
HETATM   47  C35 UNL     1      22.497  27.130  16.155  1.00  0.00     0.149 A 
BRANCH  47  48
HETATM   48  O6  UNL     1      22.800  27.771  17.325  1.00  0.00    -0.393 OA
ATOM     49  H6  UNL     1      22.592  28.697  17.353  1.00  0.00     0.210 HD
ENDBRANCH  47  48
ENDBRANCH  37  39
ENDBRANCH  30  35
ENDBRANCH   1  26
TORSDOF 12
ENDMDL
