MODEL 15
REMARK VINA RESULT: -9.264635934      1.069      2.012
REMARK  12 active torsions:
REMARK  status: ('A' for Active; 'I' for Inactive)
REMARK    1  A    between atoms: C8_8  and  O1_9 
REMARK    2  A    between atoms: O1_9  and  C9_10 
REMARK    3  A    between atoms: C9_10  and  C10_11 
REMARK       I    between atoms: C10_11  and  N1_13 
REMARK    4  A    between atoms: N1_13  and  C11_15 
REMARK    5  A    between atoms: C11_15  and  C12_16 
REMARK    6  A    between atoms: C11_15  and  C19_23 
REMARK    7  A    between atoms: C12_16  and  C13_17 
REMARK    8  A    between atoms: C19_23  and  O3_24 
REMARK    9  A    between atoms: C19_23  and  C20_26 
REMARK       I    between atoms: C20_26  and  N2_28 
REMARK   10  A    between atoms: C25_34  and  C26_35 
REMARK       I    between atoms: C26_35  and  N3_37 
REMARK   11  A    between atoms: N3_37  and  C27_39 
REMARK   12  A    between atoms: C35_47  and  O6_48 
ROOT
HETATM    1  C19 UNL     1      15.941  23.296  18.456  1.00  0.00     0.233 C 
ENDROOT
BRANCH   1   2
HETATM    2  C11 UNL     1      15.954  22.337  17.316  1.00  0.00     0.126 C 
BRANCH   2   3
HETATM    3  N1  UNL     1      15.166  21.131  17.675  1.00  0.00    -0.351 N 
HETATM    4  C10 UNL     1      15.859  19.990  18.229  1.00  0.00     0.242 C 
HETATM    5  O2  UNL     1      17.081  20.115  18.371  1.00  0.00    -0.271 OA
ATOM      6  H1  UNL     1      14.156  21.108  17.533  1.00  0.00     0.163 HD
BRANCH   4   7
HETATM    7  C9  UNL     1      15.002  18.841  18.549  1.00  0.00     0.278 C 
BRANCH   7   8
HETATM    8  O1  UNL     1      13.742  19.026  19.018  1.00  0.00    -0.341 OA
BRANCH   8   9
HETATM    9  C8  UNL     1      12.672  18.244  19.252  1.00  0.00     0.081 A 
HETATM   10  C2  UNL     1      12.480  17.548  20.447  1.00  0.00    -0.028 A 
HETATM   11  C1  UNL     1      13.454  17.691  21.564  1.00  0.00     0.051 C 
HETATM   12  C3  UNL     1      11.350  16.768  20.576  1.00  0.00     0.009 A 
HETATM   13  C4  UNL     1      10.399  16.639  19.590  1.00  0.00     0.001 A 
HETATM   14  C5  UNL     1      10.621  17.347  18.413  1.00  0.00     0.009 A 
HETATM   15  C6  UNL     1      11.723  18.139  18.219  1.00  0.00    -0.028 A 
HETATM   16  C7  UNL     1      11.951  18.888  16.972  1.00  0.00     0.051 C 
ENDBRANCH   8   9
ENDBRANCH   7   8
ENDBRANCH   4   7
ENDBRANCH   2   3
BRANCH   2  17
HETATM   17  C12 UNL     1      15.586  22.845  15.975  1.00  0.00     0.066 C 
BRANCH  17  18
HETATM   18  C13 UNL     1      14.668  22.051  15.173  1.00  0.00    -0.056 A 
HETATM   19  C14 UNL     1      13.329  22.319  15.162  1.00  0.00     0.007 A 
HETATM   20  C15 UNL     1      12.464  21.574  14.394  1.00  0.00     0.001 A 
HETATM   21  C16 UNL     1      12.962  20.543  13.625  1.00  0.00     0.000 A 
HETATM   22  C17 UNL     1      14.300  20.240  13.608  1.00  0.00     0.001 A 
HETATM   23  C18 UNL     1      15.130  21.021  14.400  1.00  0.00     0.007 A 
ENDBRANCH  17  18
ENDBRANCH   2  17
ENDBRANCH   1   2
BRANCH   1  24
HETATM   24  O3  UNL     1      14.780  24.097  18.441  1.00  0.00    -0.384 OA
ATOM     25  H3  UNL     1      14.613  24.480  19.294  1.00  0.00     0.210 HD
ENDBRANCH   1  24
BRANCH   1  26
HETATM   26  C20 UNL     1      17.130  24.159  18.602  1.00  0.00     0.252 C 
HETATM   27  O4  UNL     1      17.181  25.263  17.934  1.00  0.00    -0.270 OA
HETATM   28  N2  UNL     1      18.262  23.895  19.433  1.00  0.00    -0.326 N 
HETATM   29  C21 UNL     1      18.349  22.702  20.236  1.00  0.00     0.201 C 
HETATM   30  C25 UNL     1      19.348  24.799  19.531  1.00  0.00     0.198 C 
HETATM   31  S1  UNL     1      19.606  23.181  21.506  1.00  0.00    -0.137 SA
HETATM   32  C22 UNL     1      20.437  24.380  20.419  1.00  0.00     0.032 C 
HETATM   33  C23 UNL     1      21.565  23.655  19.716  1.00  0.00     0.029 C 
HETATM   34  C24 UNL     1      20.989  25.532  21.248  1.00  0.00     0.029 C 
BRANCH  30  35
HETATM   35  C26 UNL     1      19.916  25.090  18.177  1.00  0.00     0.242 C 
HETATM   36  O5  UNL     1      20.579  24.215  17.569  1.00  0.00    -0.271 OA
HETATM   37  N3  UNL     1      19.724  26.334  17.546  1.00  0.00    -0.348 N 
ATOM     38  H3  UNL     1      19.192  27.033  18.065  1.00  0.00     0.163 HD
BRANCH  37  39
HETATM   39  C27 UNL     1      20.203  26.723  16.238  1.00  0.00     0.147 A 
HETATM   40  C28 UNL     1      21.688  26.894  16.257  1.00  0.00    -0.027 A 
HETATM   41  C29 UNL     1      22.483  27.748  17.012  1.00  0.00     0.010 A 
HETATM   42  C33 UNL     1      22.310  26.032  15.401  1.00  0.00    -0.047 A 
HETATM   43  C30 UNL     1      23.872  27.756  16.930  1.00  0.00     0.001 A 
HETATM   44  C31 UNL     1      24.484  26.875  16.056  1.00  0.00     0.001 A 
HETATM   45  C32 UNL     1      23.687  26.035  15.313  1.00  0.00     0.008 A 
HETATM   46  C34 UNL     1      21.301  25.210  14.675  1.00  0.00     0.073 A 
HETATM   47  C35 UNL     1      19.960  25.704  15.159  1.00  0.00     0.149 A 
BRANCH  47  48
HETATM   48  O6  UNL     1      19.139  24.665  15.499  1.00  0.00    -0.393 OA
ATOM     49  H6  UNL     1      19.347  23.828  15.100  1.00  0.00     0.210 HD
ENDBRANCH  47  48
ENDBRANCH  37  39
ENDBRANCH  30  35
ENDBRANCH   1  26
TORSDOF 12
ENDMDL
