MODEL 4
REMARK VINA RESULT: -10.589155835      2.210     10.722
REMARK  12 active torsions:
REMARK  status: ('A' for Active; 'I' for Inactive)
REMARK    1  A    between atoms: C8_8  and  O1_9 
REMARK    2  A    between atoms: O1_9  and  C9_10 
REMARK    3  A    between atoms: C9_10  and  C10_11 
REMARK       I    between atoms: C10_11  and  N1_13 
REMARK    4  A    between atoms: N1_13  and  C11_15 
REMARK    5  A    between atoms: C11_15  and  C12_16 
REMARK    6  A    between atoms: C11_15  and  C19_23 
REMARK    7  A    between atoms: C12_16  and  C13_17 
REMARK    8  A    between atoms: C19_23  and  O3_24 
REMARK    9  A    between atoms: C19_23  and  C20_26 
REMARK       I    between atoms: C20_26  and  N2_28 
REMARK   10  A    between atoms: C25_34  and  C26_35 
REMARK       I    between atoms: C26_35  and  N3_37 
REMARK   11  A    between atoms: N3_37  and  C27_39 
REMARK   12  A    between atoms: C35_47  and  O6_48 
ROOT
HETATM    1  C19 UNL     1      15.706  23.344  17.870  1.00  0.00     0.233 C 
ENDROOT
BRANCH   1   2
HETATM    2  C11 UNL     1      17.034  22.794  18.263  1.00  0.00     0.126 C 
BRANCH   2   3
HETATM    3  N1  UNL     1      18.109  23.646  17.698  1.00  0.00    -0.351 N 
HETATM    4  C10 UNL     1      19.032  23.063  16.750  1.00  0.00     0.242 C 
HETATM    5  O2  UNL     1      18.842  21.873  16.472  1.00  0.00    -0.271 OA
ATOM      6  H1  UNL     1      18.196  24.625  17.974  1.00  0.00     0.163 HD
BRANCH   4   7
HETATM    7  C9  UNL     1      20.066  23.978  16.250  1.00  0.00     0.278 C 
BRANCH   7   8
HETATM    8  O1  UNL     1      19.804  25.300  16.094  1.00  0.00    -0.341 OA
BRANCH   8   9
HETATM    9  C8  UNL     1      20.140  26.255  15.206  1.00  0.00     0.081 A 
HETATM   10  C2  UNL     1      19.400  26.520  14.052  1.00  0.00    -0.028 A 
HETATM   11  C1  UNL     1      18.144  25.771  13.777  1.00  0.00     0.051 C 
HETATM   12  C3  UNL     1      19.842  27.517  13.207  1.00  0.00     0.009 A 
HETATM   13  C4  UNL     1      20.972  28.267  13.441  1.00  0.00     0.001 A 
HETATM   14  C5  UNL     1      21.684  27.977  14.600  1.00  0.00     0.009 A 
HETATM   15  C6  UNL     1      21.301  26.999  15.482  1.00  0.00    -0.028 A 
HETATM   16  C7  UNL     1      22.058  26.699  16.709  1.00  0.00     0.051 C 
ENDBRANCH   8   9
ENDBRANCH   7   8
ENDBRANCH   4   7
ENDBRANCH   2   3
BRANCH   2  17
HETATM   17  C12 UNL     1      17.269  22.501  19.694  1.00  0.00     0.066 C 
BRANCH  17  18
HETATM   18  C13 UNL     1      18.534  22.920  20.277  1.00  0.00    -0.056 A 
HETATM   19  C14 UNL     1      19.603  22.070  20.326  1.00  0.00     0.007 A 
HETATM   20  C15 UNL     1      20.802  22.472  20.869  1.00  0.00     0.001 A 
HETATM   21  C16 UNL     1      20.921  23.753  21.368  1.00  0.00     0.000 A 
HETATM   22  C17 UNL     1      19.872  24.636  21.339  1.00  0.00     0.001 A 
HETATM   23  C18 UNL     1      18.685  24.183  20.782  1.00  0.00     0.007 A 
ENDBRANCH  17  18
ENDBRANCH   2  17
ENDBRANCH   1   2
BRANCH   1  24
HETATM   24  O3  UNL     1      15.270  24.331  18.778  1.00  0.00    -0.384 OA
ATOM     25  H3  UNL     1      14.447  24.087  19.184  1.00  0.00     0.210 HD
ENDBRANCH   1  24
BRANCH   1  26
HETATM   26  C20 UNL     1      14.625  22.362  17.655  1.00  0.00     0.252 C 
HETATM   27  O4  UNL     1      14.160  21.719  18.675  1.00  0.00    -0.270 OA
HETATM   28  N2  UNL     1      14.019  22.040  16.402  1.00  0.00    -0.326 N 
HETATM   29  C21 UNL     1      14.433  22.674  15.177  1.00  0.00     0.201 C 
HETATM   30  C25 UNL     1      12.964  21.101  16.298  1.00  0.00     0.198 C 
HETATM   31  S1  UNL     1      12.969  22.393  14.081  1.00  0.00    -0.137 SA
HETATM   32  C22 UNL     1      12.453  20.875  14.942  1.00  0.00     0.032 C 
HETATM   33  C23 UNL     1      13.093  19.704  14.227  1.00  0.00     0.029 C 
HETATM   34  C24 UNL     1      10.937  20.750  14.903  1.00  0.00     0.029 C 
BRANCH  30  35
HETATM   35  C26 UNL     1      13.368  19.785  16.885  1.00  0.00     0.242 C 
HETATM   36  O5  UNL     1      14.568  19.419  16.847  1.00  0.00    -0.271 OA
HETATM   37  N3  UNL     1      12.434  18.929  17.497  1.00  0.00    -0.348 N 
ATOM     38  H3  UNL     1      11.463  19.242  17.505  1.00  0.00     0.163 HD
BRANCH  37  39
HETATM   39  C27 UNL     1      12.708  17.650  18.115  1.00  0.00     0.147 A 
HETATM   40  C28 UNL     1      12.999  17.826  19.570  1.00  0.00    -0.027 A 
HETATM   41  C29 UNL     1      13.995  18.560  20.203  1.00  0.00     0.010 A 
HETATM   42  C33 UNL     1      12.098  17.165  20.353  1.00  0.00    -0.047 A 
HETATM   43  C30 UNL     1      14.107  18.645  21.588  1.00  0.00     0.001 A 
HETATM   44  C31 UNL     1      13.183  17.967  22.363  1.00  0.00     0.001 A 
HETATM   45  C32 UNL     1      12.201  17.244  21.727  1.00  0.00     0.008 A 
HETATM   46  C34 UNL     1      11.119  16.430  19.502  1.00  0.00     0.073 A 
HETATM   47  C35 UNL     1      11.556  16.684  18.080  1.00  0.00     0.149 A 
BRANCH  47  48
HETATM   48  O6  UNL     1      10.500  17.049  17.292  1.00  0.00    -0.393 OA
ATOM     49  H6  UNL     1       9.666  17.144  17.738  1.00  0.00     0.210 HD
ENDBRANCH  47  48
ENDBRANCH  37  39
ENDBRANCH  30  35
ENDBRANCH   1  26
TORSDOF 12
ENDMDL
