MODEL 3
REMARK VINA RESULT: -10.634265040      2.217     10.692
REMARK  12 active torsions:
REMARK  status: ('A' for Active; 'I' for Inactive)
REMARK    1  A    between atoms: C8_8  and  O1_9 
REMARK    2  A    between atoms: O1_9  and  C9_10 
REMARK    3  A    between atoms: C9_10  and  C10_11 
REMARK       I    between atoms: C10_11  and  N1_13 
REMARK    4  A    between atoms: N1_13  and  C11_15 
REMARK    5  A    between atoms: C11_15  and  C12_16 
REMARK    6  A    between atoms: C11_15  and  C19_23 
REMARK    7  A    between atoms: C12_16  and  C13_17 
REMARK    8  A    between atoms: C19_23  and  O3_24 
REMARK    9  A    between atoms: C19_23  and  C20_26 
REMARK       I    between atoms: C20_26  and  N2_28 
REMARK   10  A    between atoms: C25_34  and  C26_35 
REMARK       I    between atoms: C26_35  and  N3_37 
REMARK   11  A    between atoms: N3_37  and  C27_39 
REMARK   12  A    between atoms: C35_47  and  O6_48 
ROOT
HETATM    1  C19 UNL     1      15.715  23.351  17.874  1.00  0.00     0.233 C 
ENDROOT
BRANCH   1   2
HETATM    2  C11 UNL     1      17.051  22.808  18.250  1.00  0.00     0.126 C 
BRANCH   2   3
HETATM    3  N1  UNL     1      18.114  23.679  17.691  1.00  0.00    -0.351 N 
HETATM    4  C10 UNL     1      19.029  23.122  16.720  1.00  0.00     0.242 C 
HETATM    5  O2  UNL     1      18.844  21.937  16.419  1.00  0.00    -0.271 OA
ATOM      6  H1  UNL     1      18.198  24.652  17.985  1.00  0.00     0.163 HD
BRANCH   4   7
HETATM    7  C9  UNL     1      20.051  24.054  16.226  1.00  0.00     0.278 C 
BRANCH   7   8
HETATM    8  O1  UNL     1      19.739  25.349  15.967  1.00  0.00    -0.341 OA
BRANCH   8   9
HETATM    9  C8  UNL     1      20.192  26.304  15.133  1.00  0.00     0.081 A 
HETATM   10  C2  UNL     1      21.369  27.021  15.358  1.00  0.00    -0.028 A 
HETATM   11  C1  UNL     1      22.223  26.710  16.538  1.00  0.00     0.051 C 
HETATM   12  C3  UNL     1      21.734  27.984  14.441  1.00  0.00     0.009 A 
HETATM   13  C4  UNL     1      21.002  28.276  13.313  1.00  0.00     0.001 A 
HETATM   14  C5  UNL     1      19.836  27.543  13.119  1.00  0.00     0.009 A 
HETATM   15  C6  UNL     1      19.415  26.572  13.992  1.00  0.00    -0.028 A 
HETATM   16  C7  UNL     1      18.181  25.797  13.779  1.00  0.00     0.051 C 
ENDBRANCH   8   9
ENDBRANCH   7   8
ENDBRANCH   4   7
ENDBRANCH   2   3
BRANCH   2  17
HETATM   17  C12 UNL     1      17.299  22.497  19.675  1.00  0.00     0.066 C 
BRANCH  17  18
HETATM   18  C13 UNL     1      18.566  22.917  20.255  1.00  0.00    -0.056 A 
HETATM   19  C14 UNL     1      19.642  22.077  20.278  1.00  0.00     0.007 A 
HETATM   20  C15 UNL     1      20.843  22.480  20.817  1.00  0.00     0.001 A 
HETATM   21  C16 UNL     1      20.955  23.752  21.339  1.00  0.00     0.000 A 
HETATM   22  C17 UNL     1      19.897  24.626  21.337  1.00  0.00     0.001 A 
HETATM   23  C18 UNL     1      18.709  24.172  20.782  1.00  0.00     0.007 A 
ENDBRANCH  17  18
ENDBRANCH   2  17
ENDBRANCH   1   2
BRANCH   1  24
HETATM   24  O3  UNL     1      15.283  24.333  18.789  1.00  0.00    -0.384 OA
ATOM     25  H3  UNL     1      14.897  23.940  19.562  1.00  0.00     0.210 HD
ENDBRANCH   1  24
BRANCH   1  26
HETATM   26  C20 UNL     1      14.638  22.362  17.670  1.00  0.00     0.252 C 
HETATM   27  O4  UNL     1      14.181  21.723  18.696  1.00  0.00    -0.270 OA
HETATM   28  N2  UNL     1      14.028  22.029  16.422  1.00  0.00    -0.326 N 
HETATM   29  C21 UNL     1      14.434  22.658  15.191  1.00  0.00     0.201 C 
HETATM   30  C25 UNL     1      12.977  21.084  16.329  1.00  0.00     0.198 C 
HETATM   31  S1  UNL     1      12.966  22.362  14.104  1.00  0.00    -0.137 SA
HETATM   32  C22 UNL     1      12.461  20.848  14.976  1.00  0.00     0.032 C 
HETATM   33  C23 UNL     1      13.104  19.675  14.266  1.00  0.00     0.029 C 
HETATM   34  C24 UNL     1      10.945  20.715  14.945  1.00  0.00     0.029 C 
BRANCH  30  35
HETATM   35  C26 UNL     1      13.391  19.774  16.922  1.00  0.00     0.242 C 
HETATM   36  O5  UNL     1      14.601  19.444  16.941  1.00  0.00    -0.271 OA
HETATM   37  N3  UNL     1      12.453  18.884  17.477  1.00  0.00    -0.348 N 
ATOM     38  H3  UNL     1      11.474  19.168  17.439  1.00  0.00     0.163 HD
BRANCH  37  39
HETATM   39  C27 UNL     1      12.733  17.606  18.095  1.00  0.00     0.147 A 
HETATM   40  C28 UNL     1      12.993  17.781  19.556  1.00  0.00    -0.027 A 
HETATM   41  C29 UNL     1      13.965  18.526  20.212  1.00  0.00     0.010 A 
HETATM   42  C33 UNL     1      12.086  17.102  20.318  1.00  0.00    -0.047 A 
HETATM   43  C30 UNL     1      14.048  18.607  21.599  1.00  0.00     0.001 A 
HETATM   44  C31 UNL     1      13.119  17.912  22.353  1.00  0.00     0.001 A 
HETATM   45  C32 UNL     1      12.161  17.177  21.695  1.00  0.00     0.008 A 
HETATM   46  C34 UNL     1      11.135  16.357  19.446  1.00  0.00     0.073 A 
HETATM   47  C35 UNL     1      11.597  16.624  18.034  1.00  0.00     0.149 A 
BRANCH  47  48
HETATM   48  O6  UNL     1      10.551  16.976  17.226  1.00  0.00    -0.393 OA
ATOM     49  H6  UNL     1       9.685  16.854  17.596  1.00  0.00     0.210 HD
ENDBRANCH  47  48
ENDBRANCH  37  39
ENDBRANCH  30  35
ENDBRANCH   1  26
TORSDOF 12
ENDMDL
