MODEL 4
REMARK VINA RESULT: -10.139462068      3.682      9.575
REMARK  14 active torsions:
REMARK  status: ('A' for Active; 'I' for Inactive)
REMARK    1  A    between atoms: N1_6  and  C5_7 
REMARK    2  A    between atoms: C5_7  and  O1_8 
REMARK    3  A    between atoms: C5_7  and  C6_10 
REMARK    4  A    between atoms: C6_10  and  O2_11 
REMARK    5  A    between atoms: C6_10  and  C7_13 
REMARK    6  A    between atoms: C7_13  and  C8_14 
REMARK    7  A    between atoms: C7_13  and  N2_21 
REMARK    8  A    between atoms: C8_14  and  C9_15 
REMARK       I    between atoms: N2_21  and  C15_23 
REMARK    9  A    between atoms: C15_23  and  C16_25 
REMARK   10  A    between atoms: C16_25  and  O4_26 
REMARK   11  A    between atoms: O4_26  and  C17_27 
REMARK   12  A    between atoms: C23_35  and  C24_36 
REMARK       I    between atoms: C24_36  and  N3_38 
REMARK   13  A    between atoms: N3_38  and  C25_40 
REMARK   14  A    between atoms: C33_48  and  O6_49 
ROOT
HETATM    1  C5  UNL     1      16.975  23.793  17.031  1.00  0.00     0.150 C 
ENDROOT
BRANCH   1   2
HETATM    2  N1  UNL     1      16.925  22.450  17.354  1.00  0.00    -0.317 N 
HETATM    3  C4  UNL     1      18.001  21.747  18.119  1.00  0.00     0.205 C 
HETATM    4  S1  UNL     1      16.873  21.134  19.462  1.00  0.00    -0.133 SA
HETATM    5  C2  UNL     1      15.356  21.014  18.386  1.00  0.00     0.050 C 
HETATM    6  C1  UNL     1      14.918  19.573  18.488  1.00  0.00     0.034 C 
HETATM    7  C3  UNL     1      14.292  21.950  18.866  1.00  0.00     0.034 C 
HETATM    8  C23 UNL     1      15.997  21.376  17.096  1.00  0.00     0.100 C 
BRANCH   8   9
HETATM    9  C24 UNL     1      15.240  21.427  15.880  1.00  0.00     0.266 C 
HETATM   10  O5  UNL     1      15.918  21.507  14.788  1.00  0.00    -0.266 OA
HETATM   11  N3  UNL     1      13.850  21.405  15.680  1.00  0.00    -0.345 N 
ATOM     12  H3  UNL     1      13.241  21.340  16.495  1.00  0.00     0.163 HD
BRANCH  11  13
HETATM   13  C25 UNL     1      13.245  21.471  14.363  1.00  0.00     0.147 C 
HETATM   14  C26 UNL     1      12.133  20.476  14.284  1.00  0.00    -0.027 A 
HETATM   15  C27 UNL     1      12.148  19.106  14.303  1.00  0.00     0.010 A 
HETATM   16  C31 UNL     1      10.963  21.163  14.180  1.00  0.00    -0.047 A 
HETATM   17  C28 UNL     1      11.000  18.349  14.218  1.00  0.00     0.001 A 
HETATM   18  C29 UNL     1       9.808  19.031  14.111  1.00  0.00     0.001 A 
HETATM   19  C30 UNL     1       9.799  20.415  14.093  1.00  0.00     0.008 A 
HETATM   20  C32 UNL     1      11.166  22.624  14.179  1.00  0.00     0.073 C 
HETATM   21  C33 UNL     1      12.666  22.806  14.094  1.00  0.00     0.149 C 
BRANCH  21  22
HETATM   22  O6  UNL     1      13.075  23.736  15.062  1.00  0.00    -0.393 OA
ATOM     23  H6  UNL     1      13.740  24.319  14.715  1.00  0.00     0.210 HD
ENDBRANCH  21  22
ENDBRANCH  11  13
ENDBRANCH   8   9
ENDBRANCH   1   2
BRANCH   1  24
HETATM   24  O1  UNL     1      16.375  24.579  17.904  1.00  0.00    -0.347 OA
ATOM     25  H1  UNL     1      15.838  24.116  18.536  1.00  0.00     0.219 HD
ENDBRANCH   1  24
BRANCH   1  26
HETATM   26  C6  UNL     1      17.566  24.508  15.900  1.00  0.00     0.215 C 
BRANCH  26  27
HETATM   27  O2  UNL     1      16.904  25.579  15.397  1.00  0.00    -0.385 OA
ATOM     28  H2  UNL     1      16.927  26.394  15.885  1.00  0.00     0.210 HD
ENDBRANCH  26  27
BRANCH  26  29
HETATM   29  C7  UNL     1      19.018  24.890  16.154  1.00  0.00     0.125 C 
BRANCH  29  30
HETATM   30  C8  UNL     1      19.811  24.701  14.923  1.00  0.00     0.066 C 
BRANCH  30  31
HETATM   31  C9  UNL     1      20.195  26.019  14.339  1.00  0.00    -0.056 A 
HETATM   32  C10 UNL     1      19.373  26.565  13.391  1.00  0.00     0.007 A 
HETATM   33  C11 UNL     1      19.707  27.785  12.827  1.00  0.00     0.001 A 
HETATM   34  C12 UNL     1      20.844  28.479  13.186  1.00  0.00     0.000 A 
HETATM   35  C13 UNL     1      21.649  27.880  14.155  1.00  0.00     0.001 A 
HETATM   36  C14 UNL     1      21.328  26.680  14.717  1.00  0.00     0.007 A 
ENDBRANCH  30  31
ENDBRANCH  29  30
BRANCH  29  37
HETATM   37  N2  UNL     1      19.560  24.395  17.361  1.00  0.00    -0.351 N 
HETATM   38  C15 UNL     1      20.295  25.255  18.251  1.00  0.00     0.242 C 
HETATM   39  O3  UNL     1      20.387  26.445  17.878  1.00  0.00    -0.271 OA
ATOM     40  H2  UNL     1      19.430  23.413  17.605  1.00  0.00     0.163 HD
BRANCH  38  41
HETATM   41  C16 UNL     1      20.887  24.723  19.515  1.00  0.00     0.278 C 
BRANCH  41  42
HETATM   42  O4  UNL     1      22.125  25.415  19.732  1.00  0.00    -0.339 OA
BRANCH  42  43
HETATM   43  C17 UNL     1      22.723  25.435  20.991  1.00  0.00     0.112 A 
HETATM   44  C18 UNL     1      22.378  26.321  21.982  1.00  0.00     0.069 A 
HETATM   45 CL1  UNL     1      21.094  27.502  21.686  1.00  0.00    -0.081 Cl
HETATM   46  C19 UNL     1      22.998  26.319  23.229  1.00  0.00     0.027 A 
HETATM   47  C20 UNL     1      23.995  25.403  23.506  1.00  0.00     0.003 A 
HETATM   48  C21 UNL     1      24.332  24.518  22.503  1.00  0.00     0.027 A 
HETATM   49  C22 UNL     1      23.722  24.510  21.248  1.00  0.00     0.069 A 
HETATM   50 CL2  UNL     1      24.211  23.335  20.017  1.00  0.00    -0.081 Cl
ENDBRANCH  42  43
ENDBRANCH  41  42
ENDBRANCH  38  41
ENDBRANCH  29  37
ENDBRANCH  26  29
ENDBRANCH   1  26
TORSDOF 14
ENDMDL
