MODEL 1
REMARK VINA RESULT: -10.698554602      0.000      0.000
REMARK  14 active torsions:
REMARK  status: ('A' for Active; 'I' for Inactive)
REMARK    1  A    between atoms: N1_6  and  C5_7 
REMARK    2  A    between atoms: C5_7  and  O1_8 
REMARK    3  A    between atoms: C5_7  and  C6_10 
REMARK    4  A    between atoms: C6_10  and  O2_11 
REMARK    5  A    between atoms: C6_10  and  C7_13 
REMARK    6  A    between atoms: C7_13  and  C8_14 
REMARK    7  A    between atoms: C7_13  and  N2_21 
REMARK    8  A    between atoms: C8_14  and  C9_15 
REMARK       I    between atoms: N2_21  and  C15_23 
REMARK    9  A    between atoms: C15_23  and  C16_25 
REMARK   10  A    between atoms: C16_25  and  O4_26 
REMARK   11  A    between atoms: O4_26  and  C17_27 
REMARK   12  A    between atoms: C23_35  and  C24_36 
REMARK       I    between atoms: C24_36  and  N3_38 
REMARK   13  A    between atoms: N3_38  and  C25_40 
REMARK   14  A    between atoms: C33_48  and  O6_49 
ROOT
HETATM    1  C5  UNL     1      18.144  22.246  18.549  1.00  0.00     0.150 C 
ENDROOT
BRANCH   1   2
HETATM    2  N1  UNL     1      18.437  23.482  19.096  1.00  0.00    -0.317 N 
HETATM    3  C4  UNL     1      17.596  24.138  20.144  1.00  0.00     0.205 C 
HETATM    4  S1  UNL     1      18.982  24.332  21.367  1.00  0.00    -0.133 SA
HETATM    5  C2  UNL     1      20.332  24.485  20.092  1.00  0.00     0.050 C 
HETATM    6  C1  UNL     1      20.989  25.815  20.376  1.00  0.00     0.034 C 
HETATM    7  C3  UNL     1      21.303  23.354  20.210  1.00  0.00     0.034 C 
HETATM    8  C23 UNL     1      19.468  24.468  18.883  1.00  0.00     0.100 C 
BRANCH   8   9
HETATM    9  C24 UNL     1      20.029  24.574  17.569  1.00  0.00     0.266 C 
HETATM   10  O5  UNL     1      19.930  23.531  16.819  1.00  0.00    -0.266 OA
HETATM   11  N3  UNL     1      20.686  25.651  16.951  1.00  0.00    -0.345 N 
ATOM     12  H3  UNL     1      20.804  26.516  17.476  1.00  0.00     0.163 HD
BRANCH  11  13
HETATM   13  C25 UNL     1      21.203  25.583  15.597  1.00  0.00     0.147 C 
HETATM   14  C26 UNL     1      20.225  26.221  14.666  1.00  0.00    -0.027 A 
HETATM   15  C27 UNL     1      18.960  25.846  14.293  1.00  0.00     0.010 A 
HETATM   16  C31 UNL     1      20.795  27.352  14.170  1.00  0.00    -0.047 A 
HETATM   17  C28 UNL     1      18.199  26.577  13.408  1.00  0.00     0.001 A 
HETATM   18  C29 UNL     1      18.765  27.724  12.896  1.00  0.00     0.001 A 
HETATM   19  C30 UNL     1      20.042  28.099  13.276  1.00  0.00     0.008 A 
HETATM   20  C32 UNL     1      22.155  27.575  14.696  1.00  0.00     0.073 C 
HETATM   21  C33 UNL     1      22.483  26.313  15.464  1.00  0.00     0.149 C 
BRANCH  21  22
HETATM   22  O6  UNL     1      22.999  26.658  16.723  1.00  0.00    -0.393 OA
ATOM     23  H6  UNL     1      23.850  27.072  16.641  1.00  0.00     0.210 HD
ENDBRANCH  21  22
ENDBRANCH  11  13
ENDBRANCH   8   9
ENDBRANCH   1   2
BRANCH   1  24
HETATM   24  O1  UNL     1      18.276  21.240  19.392  1.00  0.00    -0.347 OA
ATOM     25  H1  UNL     1      18.130  21.475  20.301  1.00  0.00     0.219 HD
ENDBRANCH   1  24
BRANCH   1  26
HETATM   26  C6  UNL     1      17.717  21.843  17.210  1.00  0.00     0.215 C 
BRANCH  26  27
HETATM   27  O2  UNL     1      18.292  20.749  16.652  1.00  0.00    -0.385 OA
ATOM     28  H2  UNL     1      19.097  20.420  17.031  1.00  0.00     0.210 HD
ENDBRANCH  26  27
BRANCH  26  29
HETATM   29  C7  UNL     1      16.203  21.726  17.098  1.00  0.00     0.125 C 
BRANCH  29  30
HETATM   30  C8  UNL     1      15.653  22.922  16.429  1.00  0.00     0.066 C 
BRANCH  30  31
HETATM   31  C9  UNL     1      14.764  22.528  15.297  1.00  0.00    -0.056 A 
HETATM   32  C10 UNL     1      15.245  21.630  14.385  1.00  0.00     0.007 A 
HETATM   33  C11 UNL     1      14.444  21.250  13.322  1.00  0.00     0.001 A 
HETATM   34  C12 UNL     1      13.168  21.744  13.144  1.00  0.00     0.000 A 
HETATM   35  C13 UNL     1      12.724  22.657  14.100  1.00  0.00     0.001 A 
HETATM   36  C14 UNL     1      13.505  23.037  15.151  1.00  0.00     0.007 A 
ENDBRANCH  30  31
ENDBRANCH  29  30
BRANCH  29  37
HETATM   37  N2  UNL     1      15.553  21.280  18.270  1.00  0.00    -0.351 N 
HETATM   38  C15 UNL     1      15.207  19.894  18.443  1.00  0.00     0.242 C 
HETATM   39  O3  UNL     1      15.542  19.144  17.499  1.00  0.00    -0.271 OA
ATOM     40  H2  UNL     1      15.326  21.949  19.005  1.00  0.00     0.163 HD
BRANCH  38  41
HETATM   41  C16 UNL     1      14.499  19.428  19.675  1.00  0.00     0.278 C 
BRANCH  41  42
HETATM   42  O4  UNL     1      13.102  19.705  19.496  1.00  0.00    -0.339 OA
BRANCH  42  43
HETATM   43  C17 UNL     1      12.212  18.694  19.141  1.00  0.00     0.112 A 
HETATM   44  C18 UNL     1      11.779  17.722  20.009  1.00  0.00     0.069 A 
HETATM   45 CL1  UNL     1      12.347  17.736  21.685  1.00  0.00    -0.081 Cl
HETATM   46  C19 UNL     1      10.892  16.722  19.622  1.00  0.00     0.027 A 
HETATM   47  C20 UNL     1      10.412  16.683  18.326  1.00  0.00     0.003 A 
HETATM   48  C21 UNL     1      10.854  17.665  17.464  1.00  0.00     0.027 A 
HETATM   49  C22 UNL     1      11.745  18.672  17.836  1.00  0.00     0.069 A 
HETATM   50 CL2  UNL     1      12.257  19.900  16.667  1.00  0.00    -0.081 Cl
ENDBRANCH  42  43
ENDBRANCH  41  42
ENDBRANCH  38  41
ENDBRANCH  29  37
ENDBRANCH  26  29
ENDBRANCH   1  26
TORSDOF 14
ENDMDL
