MODEL 7
REMARK VINA RESULT: -9.848743519      1.009      1.685
REMARK  14 active torsions:
REMARK  status: ('A' for Active; 'I' for Inactive)
REMARK    1  A    between atoms: N1_6  and  C5_7 
REMARK    2  A    between atoms: C5_7  and  O1_8 
REMARK    3  A    between atoms: C5_7  and  C6_10 
REMARK    4  A    between atoms: C6_10  and  O2_11 
REMARK    5  A    between atoms: C6_10  and  C7_13 
REMARK    6  A    between atoms: C7_13  and  C8_14 
REMARK    7  A    between atoms: C7_13  and  N2_21 
REMARK    8  A    between atoms: C8_14  and  C9_15 
REMARK       I    between atoms: N2_21  and  C15_23 
REMARK    9  A    between atoms: C15_23  and  C16_25 
REMARK   10  A    between atoms: C16_25  and  O4_26 
REMARK   11  A    between atoms: O4_26  and  C17_27 
REMARK   12  A    between atoms: C23_35  and  C24_36 
REMARK       I    between atoms: C24_36  and  N3_38 
REMARK   13  A    between atoms: N3_38  and  C25_40 
REMARK   14  A    between atoms: C33_48  and  O6_49 
ROOT
HETATM    1  C5  UNL     1      17.714  22.949  18.747  1.00  0.00     0.150 C 
ENDROOT
BRANCH   1   2
HETATM    2  N1  UNL     1      18.461  23.937  19.364  1.00  0.00    -0.317 N 
HETATM    3  C4  UNL     1      17.989  24.700  20.559  1.00  0.00     0.205 C 
HETATM    4  S1  UNL     1      19.450  24.264  21.620  1.00  0.00    -0.133 SA
HETATM    5  C2  UNL     1      20.661  24.115  20.211  1.00  0.00     0.050 C 
HETATM    6  C1  UNL     1      21.759  25.101  20.532  1.00  0.00     0.034 C 
HETATM    7  C3  UNL     1      21.187  22.718  20.111  1.00  0.00     0.034 C 
HETATM    8  C23 UNL     1      19.749  24.540  19.118  1.00  0.00     0.100 C 
BRANCH   8   9
HETATM    9  C24 UNL     1      20.202  24.615  17.760  1.00  0.00     0.266 C 
HETATM   10  O5  UNL     1      20.025  23.562  17.039  1.00  0.00    -0.266 OA
HETATM   11  N3  UNL     1      20.825  25.670  17.073  1.00  0.00    -0.345 N 
ATOM     12  H3  UNL     1      21.000  26.541  17.572  1.00  0.00     0.163 HD
BRANCH  11  13
HETATM   13  C25 UNL     1      21.228  25.572  15.682  1.00  0.00     0.147 C 
HETATM   14  C26 UNL     1      20.141  26.120  14.817  1.00  0.00    -0.027 A 
HETATM   15  C27 UNL     1      18.872  25.667  14.570  1.00  0.00     0.010 A 
HETATM   16  C31 UNL     1      20.605  27.257  14.232  1.00  0.00    -0.047 A 
HETATM   17  C28 UNL     1      18.000  26.321  13.727  1.00  0.00     0.001 A 
HETATM   18  C29 UNL     1      18.457  27.473  13.126  1.00  0.00     0.001 A 
HETATM   19  C30 UNL     1      19.740  27.927  13.380  1.00  0.00     0.008 A 
HETATM   20  C32 UNL     1      21.991  27.571  14.629  1.00  0.00     0.073 C 
HETATM   21  C33 UNL     1      22.451  26.360  15.412  1.00  0.00     0.149 C 
BRANCH  21  22
HETATM   22  O6  UNL     1      23.052  26.783  16.608  1.00  0.00    -0.393 OA
ATOM     23  H6  UNL     1      23.422  27.652  16.514  1.00  0.00     0.210 HD
ENDBRANCH  21  22
ENDBRANCH  11  13
ENDBRANCH   8   9
ENDBRANCH   1   2
BRANCH   1  24
HETATM   24  O1  UNL     1      18.247  21.745  18.825  1.00  0.00    -0.347 OA
ATOM     25  H1  UNL     1      17.784  21.084  18.326  1.00  0.00     0.219 HD
ENDBRANCH   1  24
BRANCH   1  26
HETATM   26  C6  UNL     1      16.445  22.990  18.022  1.00  0.00     0.215 C 
BRANCH  26  27
HETATM   27  O2  UNL     1      15.922  24.200  17.704  1.00  0.00    -0.385 OA
ATOM     28  H2  UNL     1      16.468  24.818  17.233  1.00  0.00     0.210 HD
ENDBRANCH  26  27
BRANCH  26  29
HETATM   29  C7  UNL     1      16.465  22.110  16.778  1.00  0.00     0.125 C 
BRANCH  29  30
HETATM   30  C8  UNL     1      16.114  22.912  15.589  1.00  0.00     0.066 C 
BRANCH  30  31
HETATM   31  C9  UNL     1      14.874  22.387  14.949  1.00  0.00    -0.056 A 
HETATM   32  C10 UNL     1      15.005  21.419  13.992  1.00  0.00     0.007 A 
HETATM   33  C11 UNL     1      13.872  20.916  13.376  1.00  0.00     0.001 A 
HETATM   34  C12 UNL     1      12.602  21.355  13.693  1.00  0.00     0.000 A 
HETATM   35  C13 UNL     1      12.521  22.343  14.674  1.00  0.00     0.001 A 
HETATM   36  C14 UNL     1      13.632  22.844  15.286  1.00  0.00     0.007 A 
ENDBRANCH  30  31
ENDBRANCH  29  30
BRANCH  29  37
HETATM   37  N2  UNL     1      15.832  20.856  16.928  1.00  0.00    -0.351 N 
HETATM   38  C15 UNL     1      14.803  20.658  17.913  1.00  0.00     0.242 C 
HETATM   39  O3  UNL     1      14.516  21.672  18.588  1.00  0.00    -0.271 OA
ATOM     40  H2  UNL     1      16.109  20.079  16.328  1.00  0.00     0.163 HD
BRANCH  38  41
HETATM   41  C16 UNL     1      14.151  19.324  18.084  1.00  0.00     0.278 C 
BRANCH  41  42
HETATM   42  O4  UNL     1      12.836  19.554  18.610  1.00  0.00    -0.339 OA
BRANCH  42  43
HETATM   43  C17 UNL     1      11.912  18.515  18.706  1.00  0.00     0.112 A 
HETATM   44  C18 UNL     1      11.063  18.156  17.688  1.00  0.00     0.069 A 
HETATM   45 CL1  UNL     1      11.133  19.024  16.148  1.00  0.00    -0.081 Cl
HETATM   46  C19 UNL     1      10.147  17.115  17.818  1.00  0.00     0.027 A 
HETATM   47  C20 UNL     1      10.071  16.401  18.999  1.00  0.00     0.003 A 
HETATM   48  C21 UNL     1      10.929  16.771  20.013  1.00  0.00     0.027 A 
HETATM   49  C22 UNL     1      11.850  17.814  19.899  1.00  0.00     0.069 A 
HETATM   50 CL2  UNL     1      12.921  18.220  21.250  1.00  0.00    -0.081 Cl
ENDBRANCH  42  43
ENDBRANCH  41  42
ENDBRANCH  38  41
ENDBRANCH  29  37
ENDBRANCH  26  29
ENDBRANCH   1  26
TORSDOF 14
ENDMDL
