MODEL 6
REMARK VINA RESULT: -9.887815888      3.917      9.996
REMARK  14 active torsions:
REMARK  status: ('A' for Active; 'I' for Inactive)
REMARK    1  A    between atoms: N1_6  and  C5_7 
REMARK    2  A    between atoms: C5_7  and  O1_8 
REMARK    3  A    between atoms: C5_7  and  C6_10 
REMARK    4  A    between atoms: C6_10  and  O2_11 
REMARK    5  A    between atoms: C6_10  and  C7_13 
REMARK    6  A    between atoms: C7_13  and  C8_14 
REMARK    7  A    between atoms: C7_13  and  N2_21 
REMARK    8  A    between atoms: C8_14  and  C9_15 
REMARK       I    between atoms: N2_21  and  C15_23 
REMARK    9  A    between atoms: C15_23  and  C16_25 
REMARK   10  A    between atoms: C16_25  and  O4_26 
REMARK   11  A    between atoms: O4_26  and  C17_27 
REMARK   12  A    between atoms: C23_35  and  C24_36 
REMARK       I    between atoms: C24_36  and  N3_38 
REMARK   13  A    between atoms: N3_38  and  C25_40 
REMARK   14  A    between atoms: C33_48  and  O6_49 
ROOT
HETATM    1  C5  UNL     1      16.970  23.919  16.732  1.00  0.00     0.150 C 
ENDROOT
BRANCH   1   2
HETATM    2  N1  UNL     1      17.007  22.571  17.040  1.00  0.00    -0.317 N 
HETATM    3  C4  UNL     1      18.161  21.917  17.731  1.00  0.00     0.205 C 
HETATM    4  S1  UNL     1      17.146  21.233  19.130  1.00  0.00    -0.133 SA
HETATM    5  C2  UNL     1      15.576  21.047  18.143  1.00  0.00     0.050 C 
HETATM    6  C1  UNL     1      15.218  19.584  18.251  1.00  0.00     0.034 C 
HETATM    7  C3  UNL     1      14.496  21.921  18.697  1.00  0.00     0.034 C 
HETATM    8  C23 UNL     1      16.121  21.454  16.822  1.00  0.00     0.100 C 
BRANCH   8   9
HETATM    9  C24 UNL     1      15.292  21.478  15.653  1.00  0.00     0.266 C 
HETATM   10  O5  UNL     1      15.902  21.554  14.521  1.00  0.00    -0.266 OA
HETATM   11  N3  UNL     1      13.893  21.435  15.537  1.00  0.00    -0.345 N 
ATOM     12  H3  UNL     1      13.334  21.372  16.388  1.00  0.00     0.163 HD
BRANCH  11  13
HETATM   13  C25 UNL     1      13.209  21.475  14.258  1.00  0.00     0.147 C 
HETATM   14  C26 UNL     1      12.096  20.479  14.265  1.00  0.00    -0.027 A 
HETATM   15  C27 UNL     1      12.114  19.109  14.309  1.00  0.00     0.010 A 
HETATM   16  C31 UNL     1      10.921  21.162  14.220  1.00  0.00    -0.047 A 
HETATM   17  C28 UNL     1      10.965  18.350  14.309  1.00  0.00     0.001 A 
HETATM   18  C29 UNL     1       9.767  19.029  14.261  1.00  0.00     0.001 A 
HETATM   19  C30 UNL     1       9.754  20.412  14.218  1.00  0.00     0.008 A 
HETATM   20  C32 UNL     1      11.121  22.623  14.178  1.00  0.00     0.073 C 
HETATM   21  C33 UNL     1      12.612  22.804  13.999  1.00  0.00     0.149 C 
BRANCH  21  22
HETATM   22  O6  UNL     1      13.078  23.753  14.923  1.00  0.00    -0.393 OA
ATOM     23  H6  UNL     1      12.675  24.600  14.773  1.00  0.00     0.210 HD
ENDBRANCH  21  22
ENDBRANCH  11  13
ENDBRANCH   8   9
ENDBRANCH   1   2
BRANCH   1  24
HETATM   24  O1  UNL     1      16.281  24.202  15.644  1.00  0.00    -0.347 OA
ATOM     25  H1  UNL     1      16.039  25.117  15.566  1.00  0.00     0.219 HD
ENDBRANCH   1  24
BRANCH   1  26
HETATM   26  C6  UNL     1      17.555  25.090  17.384  1.00  0.00     0.215 C 
BRANCH  26  27
HETATM   27  O2  UNL     1      17.505  25.166  18.737  1.00  0.00    -0.385 OA
ATOM     28  H2  UNL     1      18.322  25.233  19.216  1.00  0.00     0.210 HD
ENDBRANCH  26  27
BRANCH  26  29
HETATM   29  C7  UNL     1      18.980  25.357  16.919  1.00  0.00     0.125 C 
BRANCH  29  30
HETATM   30  C8  UNL     1      19.164  24.851  15.544  1.00  0.00     0.066 C 
BRANCH  30  31
HETATM   31  C9  UNL     1      19.507  25.966  14.615  1.00  0.00    -0.056 A 
HETATM   32  C10 UNL     1      18.536  26.414  13.763  1.00  0.00     0.007 A 
HETATM   33  C11 UNL     1      18.827  27.444  12.885  1.00  0.00     0.001 A 
HETATM   34  C12 UNL     1      20.069  28.045  12.837  1.00  0.00     0.000 A 
HETATM   35  C13 UNL     1      21.025  27.552  13.725  1.00  0.00     0.001 A 
HETATM   36  C14 UNL     1      20.747  26.538  14.593  1.00  0.00     0.007 A 
ENDBRANCH  30  31
ENDBRANCH  29  30
BRANCH  29  37
HETATM   37  N2  UNL     1      19.982  25.050  17.866  1.00  0.00    -0.351 N 
HETATM   38  C15 UNL     1      20.889  26.062  18.339  1.00  0.00     0.242 C 
HETATM   39  O3  UNL     1      20.700  27.204  17.865  1.00  0.00    -0.271 OA
ATOM     40  H2  UNL     1      20.064  24.097  18.219  1.00  0.00     0.163 HD
BRANCH  38  41
HETATM   41  C16 UNL     1      21.963  25.729  19.324  1.00  0.00     0.278 C 
BRANCH  41  42
HETATM   42  O4  UNL     1      23.044  26.646  19.105  1.00  0.00    -0.339 OA
BRANCH  42  43
HETATM   43  C17 UNL     1      24.230  26.225  18.505  1.00  0.00     0.112 A 
HETATM   44  C18 UNL     1      25.073  25.294  19.060  1.00  0.00     0.069 A 
HETATM   45 CL1  UNL     1      24.652  24.552  20.610  1.00  0.00    -0.081 Cl
HETATM   46  C19 UNL     1      26.253  24.898  18.437  1.00  0.00     0.027 A 
HETATM   47  C20 UNL     1      26.611  25.441  17.218  1.00  0.00     0.003 A 
HETATM   48  C21 UNL     1      25.756  26.375  16.671  1.00  0.00     0.027 A 
HETATM   49  C22 UNL     1      24.571  26.785  17.284  1.00  0.00     0.069 A 
HETATM   50 CL2  UNL     1      23.525  27.986  16.510  1.00  0.00    -0.081 Cl
ENDBRANCH  42  43
ENDBRANCH  41  42
ENDBRANCH  38  41
ENDBRANCH  29  37
ENDBRANCH  26  29
ENDBRANCH   1  26
TORSDOF 14
ENDMDL
