MODEL 2
REMARK VINA RESULT: -10.654302206      0.154      1.356
REMARK  14 active torsions:
REMARK  status: ('A' for Active; 'I' for Inactive)
REMARK    1  A    between atoms: N1_6  and  C5_7 
REMARK    2  A    between atoms: C5_7  and  O1_8 
REMARK    3  A    between atoms: C5_7  and  C6_10 
REMARK    4  A    between atoms: C6_10  and  O2_11 
REMARK    5  A    between atoms: C6_10  and  C7_13 
REMARK    6  A    between atoms: C7_13  and  C8_14 
REMARK    7  A    between atoms: C7_13  and  N2_21 
REMARK    8  A    between atoms: C8_14  and  C9_15 
REMARK       I    between atoms: N2_21  and  C15_23 
REMARK    9  A    between atoms: C15_23  and  C16_25 
REMARK   10  A    between atoms: C16_25  and  O4_26 
REMARK   11  A    between atoms: O4_26  and  C17_27 
REMARK   12  A    between atoms: C23_35  and  C24_36 
REMARK       I    between atoms: C24_36  and  N3_38 
REMARK   13  A    between atoms: N3_38  and  C25_40 
REMARK   14  A    between atoms: C33_48  and  O6_49 
ROOT
HETATM    1  C5  UNL     1      18.201  22.274  18.545  1.00  0.00     0.150 C 
ENDROOT
BRANCH   1   2
HETATM    2  N1  UNL     1      18.500  23.503  19.103  1.00  0.00    -0.317 N 
HETATM    3  C4  UNL     1      17.662  24.156  20.155  1.00  0.00     0.205 C 
HETATM    4  S1  UNL     1      19.046  24.330  21.382  1.00  0.00    -0.133 SA
HETATM    5  C2  UNL     1      20.400  24.487  20.110  1.00  0.00     0.050 C 
HETATM    6  C1  UNL     1      21.063  25.811  20.408  1.00  0.00     0.034 C 
HETATM    7  C3  UNL     1      21.364  23.349  20.221  1.00  0.00     0.034 C 
HETATM    8  C23 UNL     1      19.537  24.486  18.901  1.00  0.00     0.100 C 
BRANCH   8   9
HETATM    9  C24 UNL     1      20.101  24.600  17.588  1.00  0.00     0.266 C 
HETATM   10  O5  UNL     1      20.012  23.558  16.835  1.00  0.00    -0.266 OA
HETATM   11  N3  UNL     1      20.752  25.684  16.975  1.00  0.00    -0.345 N 
ATOM     12  H3  UNL     1      20.862  26.548  17.503  1.00  0.00     0.163 HD
BRANCH  11  13
HETATM   13  C25 UNL     1      21.274  25.624  15.622  1.00  0.00     0.147 C 
HETATM   14  C26 UNL     1      20.287  26.245  14.689  1.00  0.00    -0.027 A 
HETATM   15  C27 UNL     1      19.030  25.849  14.314  1.00  0.00     0.010 A 
HETATM   16  C31 UNL     1      20.839  27.386  14.194  1.00  0.00    -0.047 A 
HETATM   17  C28 UNL     1      18.258  26.566  13.426  1.00  0.00     0.001 A 
HETATM   18  C29 UNL     1      18.805  27.722  12.915  1.00  0.00     0.001 A 
HETATM   19  C30 UNL     1      20.075  28.119  13.298  1.00  0.00     0.008 A 
HETATM   20  C32 UNL     1      22.193  27.632  14.723  1.00  0.00     0.073 C 
HETATM   21  C33 UNL     1      22.541  26.375  15.492  1.00  0.00     0.149 C 
BRANCH  21  22
HETATM   22  O6  UNL     1      23.048  26.730  16.752  1.00  0.00    -0.393 OA
ATOM     23  H6  UNL     1      23.623  27.484  16.689  1.00  0.00     0.210 HD
ENDBRANCH  21  22
ENDBRANCH  11  13
ENDBRANCH   8   9
ENDBRANCH   1   2
BRANCH   1  24
HETATM   24  O1  UNL     1      18.340  21.259  19.375  1.00  0.00    -0.347 OA
ATOM     25  H1  UNL     1      18.532  20.433  18.947  1.00  0.00     0.219 HD
ENDBRANCH   1  24
BRANCH   1  26
HETATM   26  C6  UNL     1      17.761  21.888  17.205  1.00  0.00     0.215 C 
BRANCH  26  27
HETATM   27  O2  UNL     1      18.347  20.815  16.618  1.00  0.00    -0.385 OA
ATOM     28  H2  UNL     1      18.253  20.706  15.680  1.00  0.00     0.210 HD
ENDBRANCH  26  27
BRANCH  26  29
HETATM   29  C7  UNL     1      16.247  21.744  17.114  1.00  0.00     0.125 C 
BRANCH  29  30
HETATM   30  C8  UNL     1      15.666  22.935  16.463  1.00  0.00     0.066 C 
BRANCH  30  31
HETATM   31  C9  UNL     1      14.783  22.535  15.330  1.00  0.00    -0.056 A 
HETATM   32  C10 UNL     1      15.278  21.653  14.409  1.00  0.00     0.007 A 
HETATM   33  C11 UNL     1      14.482  21.268  13.344  1.00  0.00     0.001 A 
HETATM   34  C12 UNL     1      13.197  21.741  13.172  1.00  0.00     0.000 A 
HETATM   35  C13 UNL     1      12.739  22.638  14.137  1.00  0.00     0.001 A 
HETATM   36  C14 UNL     1      13.515  23.023  15.190  1.00  0.00     0.007 A 
ENDBRANCH  30  31
ENDBRANCH  29  30
BRANCH  29  37
HETATM   37  N2  UNL     1      15.623  21.276  18.292  1.00  0.00    -0.351 N 
HETATM   38  C15 UNL     1      14.984  19.987  18.330  1.00  0.00     0.242 C 
HETATM   39  O3  UNL     1      15.049  19.334  17.265  1.00  0.00    -0.271 OA
ATOM     40  H2  UNL     1      15.625  21.861  19.128  1.00  0.00     0.163 HD
BRANCH  38  41
HETATM   41  C16 UNL     1      14.304  19.505  19.571  1.00  0.00     0.278 C 
BRANCH  41  42
HETATM   42  O4  UNL     1      12.897  19.728  19.403  1.00  0.00    -0.339 OA
BRANCH  42  43
HETATM   43  C17 UNL     1      12.045  18.686  19.040  1.00  0.00     0.112 A 
HETATM   44  C18 UNL     1      11.505  18.547  17.786  1.00  0.00     0.069 A 
HETATM   45 CL1  UNL     1      11.907  19.726  16.529  1.00  0.00    -0.081 Cl
HETATM   46  C19 UNL     1      10.653  17.497  17.457  1.00  0.00     0.027 A 
HETATM   47  C20 UNL     1      10.326  16.545  18.405  1.00  0.00     0.003 A 
HETATM   48  C21 UNL     1      10.876  16.696  19.661  1.00  0.00     0.027 A 
HETATM   49  C22 UNL     1      11.729  17.745  20.007  1.00  0.00     0.069 A 
HETATM   50 CL2  UNL     1      12.396  17.860  21.643  1.00  0.00    -0.081 Cl
ENDBRANCH  42  43
ENDBRANCH  41  42
ENDBRANCH  38  41
ENDBRANCH  29  37
ENDBRANCH  26  29
ENDBRANCH   1  26
TORSDOF 14
ENDMDL
