MODEL 5
REMARK VINA RESULT: -10.114063361      3.679      9.562
REMARK  14 active torsions:
REMARK  status: ('A' for Active; 'I' for Inactive)
REMARK    1  A    between atoms: N1_6  and  C5_7 
REMARK    2  A    between atoms: C5_7  and  O1_8 
REMARK    3  A    between atoms: C5_7  and  C6_10 
REMARK    4  A    between atoms: C6_10  and  O2_11 
REMARK    5  A    between atoms: C6_10  and  C7_13 
REMARK    6  A    between atoms: C7_13  and  C8_14 
REMARK    7  A    between atoms: C7_13  and  N2_21 
REMARK    8  A    between atoms: C8_14  and  C9_15 
REMARK       I    between atoms: N2_21  and  C15_23 
REMARK    9  A    between atoms: C15_23  and  C16_25 
REMARK   10  A    between atoms: C16_25  and  O4_26 
REMARK   11  A    between atoms: O4_26  and  C17_27 
REMARK   12  A    between atoms: C23_35  and  C24_36 
REMARK       I    between atoms: C24_36  and  N3_38 
REMARK   13  A    between atoms: N3_38  and  C25_40 
REMARK   14  A    between atoms: C33_48  and  O6_49 
ROOT
HETATM    1  C5  UNL     1      16.972  23.815  17.050  1.00  0.00     0.150 C 
ENDROOT
BRANCH   1   2
HETATM    2  N1  UNL     1      16.926  22.473  17.381  1.00  0.00    -0.317 N 
HETATM    3  C4  UNL     1      18.001  21.778  18.154  1.00  0.00     0.205 C 
HETATM    4  S1  UNL     1      16.868  21.168  19.495  1.00  0.00    -0.133 SA
HETATM    5  C2  UNL     1      15.356  21.038  18.413  1.00  0.00     0.050 C 
HETATM    6  C1  UNL     1      14.922  19.595  18.520  1.00  0.00     0.034 C 
HETATM    7  C3  UNL     1      14.287  21.972  18.884  1.00  0.00     0.034 C 
HETATM    8  C23 UNL     1      16.002  21.395  17.124  1.00  0.00     0.100 C 
BRANCH   8   9
HETATM    9  C24 UNL     1      15.250  21.436  15.904  1.00  0.00     0.266 C 
HETATM   10  O5  UNL     1      15.933  21.479  14.813  1.00  0.00    -0.266 OA
HETATM   11  N3  UNL     1      13.861  21.441  15.699  1.00  0.00    -0.345 N 
ATOM     12  H3  UNL     1      13.247  21.406  16.513  1.00  0.00     0.163 HD
BRANCH  11  13
HETATM   13  C25 UNL     1      13.261  21.493  14.379  1.00  0.00     0.147 C 
HETATM   14  C26 UNL     1      12.140  20.508  14.311  1.00  0.00    -0.027 A 
HETATM   15  C27 UNL     1      12.141  19.138  14.351  1.00  0.00     0.010 A 
HETATM   16  C31 UNL     1      10.978  21.205  14.192  1.00  0.00    -0.047 A 
HETATM   17  C28 UNL     1      10.985  18.392  14.274  1.00  0.00     0.001 A 
HETATM   18  C29 UNL     1       9.801  19.085  14.151  1.00  0.00     0.001 A 
HETATM   19  C30 UNL     1       9.806  20.468  14.112  1.00  0.00     0.008 A 
HETATM   20  C32 UNL     1      11.195  22.664  14.169  1.00  0.00     0.073 C 
HETATM   21  C33 UNL     1      12.697  22.829  14.087  1.00  0.00     0.149 C 
BRANCH  21  22
HETATM   22  O6  UNL     1      13.112  23.770  15.042  1.00  0.00    -0.393 OA
ATOM     23  H6  UNL     1      13.311  24.605  14.634  1.00  0.00     0.210 HD
ENDBRANCH  21  22
ENDBRANCH  11  13
ENDBRANCH   8   9
ENDBRANCH   1   2
BRANCH   1  24
HETATM   24  O1  UNL     1      16.389  24.606  17.930  1.00  0.00    -0.347 OA
ATOM     25  H1  UNL     1      16.939  24.834  18.670  1.00  0.00     0.219 HD
ENDBRANCH   1  24
BRANCH   1  26
HETATM   26  C6  UNL     1      17.545  24.523  15.906  1.00  0.00     0.215 C 
BRANCH  26  27
HETATM   27  O2  UNL     1      16.879  25.597  15.413  1.00  0.00    -0.385 OA
ATOM     28  H2  UNL     1      16.627  25.590  14.498  1.00  0.00     0.210 HD
ENDBRANCH  26  27
BRANCH  26  29
HETATM   29  C7  UNL     1      19.003  24.899  16.132  1.00  0.00     0.125 C 
BRANCH  29  30
HETATM   30  C8  UNL     1      19.770  24.713  14.883  1.00  0.00     0.066 C 
BRANCH  30  31
HETATM   31  C9  UNL     1      20.188  26.031  14.323  1.00  0.00    -0.056 A 
HETATM   32  C10 UNL     1      19.392  26.606  13.371  1.00  0.00     0.007 A 
HETATM   33  C11 UNL     1      19.758  27.826  12.828  1.00  0.00     0.001 A 
HETATM   34  C12 UNL     1      20.902  28.494  13.216  1.00  0.00     0.000 A 
HETATM   35  C13 UNL     1      21.680  27.866  14.189  1.00  0.00     0.001 A 
HETATM   36  C14 UNL     1      21.328  26.665  14.728  1.00  0.00     0.007 A 
ENDBRANCH  30  31
ENDBRANCH  29  30
BRANCH  29  37
HETATM   37  N2  UNL     1      19.569  24.396  17.324  1.00  0.00    -0.351 N 
HETATM   38  C15 UNL     1      20.293  25.257  18.222  1.00  0.00     0.242 C 
HETATM   39  O3  UNL     1      20.354  26.456  17.869  1.00  0.00    -0.271 OA
ATOM     40  H2  UNL     1      19.464  23.407  17.552  1.00  0.00     0.163 HD
BRANCH  38  41
HETATM   41  C16 UNL     1      20.910  24.717  19.471  1.00  0.00     0.278 C 
BRANCH  41  42
HETATM   42  O4  UNL     1      22.110  25.466  19.714  1.00  0.00    -0.339 OA
BRANCH  42  43
HETATM   43  C17 UNL     1      22.747  25.415  20.953  1.00  0.00     0.112 A 
HETATM   44  C18 UNL     1      23.732  24.512  21.264  1.00  0.00     0.069 A 
HETATM   45 CL1  UNL     1      24.263  23.346  20.044  1.00  0.00    -0.081 Cl
HETATM   46  C19 UNL     1      24.346  24.484  22.514  1.00  0.00     0.027 A 
HETATM   47  C20 UNL     1      23.972  25.388  23.491  1.00  0.00     0.003 A 
HETATM   48  C21 UNL     1      22.981  26.290  23.165  1.00  0.00     0.027 A 
HETATM   49  C22 UNL     1      22.354  26.328  21.919  1.00  0.00     0.069 A 
HETATM   50 CL2  UNL     1      21.094  27.525  21.581  1.00  0.00    -0.081 Cl
ENDBRANCH  42  43
ENDBRANCH  41  42
ENDBRANCH  38  41
ENDBRANCH  29  37
ENDBRANCH  26  29
ENDBRANCH   1  26
TORSDOF 14
ENDMDL
