MODEL 3
REMARK VINA RESULT: -10.283045226      1.247      1.581
REMARK  14 active torsions:
REMARK  status: ('A' for Active; 'I' for Inactive)
REMARK    1  A    between atoms: N1_6  and  C5_7 
REMARK    2  A    between atoms: C5_7  and  O1_8 
REMARK    3  A    between atoms: C5_7  and  C6_10 
REMARK    4  A    between atoms: C6_10  and  O2_11 
REMARK    5  A    between atoms: C6_10  and  C7_13 
REMARK    6  A    between atoms: C7_13  and  C8_14 
REMARK    7  A    between atoms: C7_13  and  N2_21 
REMARK    8  A    between atoms: C8_14  and  C9_15 
REMARK       I    between atoms: N2_21  and  C15_23 
REMARK    9  A    between atoms: C15_23  and  C16_25 
REMARK   10  A    between atoms: C16_25  and  O4_26 
REMARK   11  A    between atoms: O4_26  and  C17_27 
REMARK   12  A    between atoms: C23_35  and  C24_36 
REMARK       I    between atoms: C24_36  and  N3_38 
REMARK   13  A    between atoms: N3_38  and  C25_40 
REMARK   14  A    between atoms: C33_48  and  O6_49 
ROOT
HETATM    1  C5  UNL     1      16.752  24.509  18.550  1.00  0.00     0.150 C 
ENDROOT
BRANCH   1   2
HETATM    2  N1  UNL     1      17.910  24.471  19.304  1.00  0.00    -0.317 N 
HETATM    3  C4  UNL     1      17.987  24.949  20.719  1.00  0.00     0.205 C 
HETATM    4  S1  UNL     1      18.627  23.343  21.399  1.00  0.00    -0.133 SA
HETATM    5  C2  UNL     1      19.525  22.832  19.847  1.00  0.00     0.050 C 
HETATM    6  C1  UNL     1      20.962  22.641  20.272  1.00  0.00     0.034 C 
HETATM    7  C3  UNL     1      18.943  21.572  19.290  1.00  0.00     0.034 C 
HETATM    8  C23 UNL     1      19.272  24.064  19.056  1.00  0.00     0.100 C 
BRANCH   8   9
HETATM    9  C24 UNL     1      19.779  24.206  17.723  1.00  0.00     0.266 C 
HETATM   10  O5  UNL     1      19.579  23.213  16.927  1.00  0.00    -0.266 OA
HETATM   11  N3  UNL     1      20.475  25.272  17.130  1.00  0.00    -0.345 N 
ATOM     12  H3  UNL     1      20.672  26.099  17.693  1.00  0.00     0.163 HD
BRANCH  11  13
HETATM   13  C25 UNL     1      20.925  25.246  15.751  1.00  0.00     0.147 C 
HETATM   14  C26 UNL     1      19.895  25.897  14.887  1.00  0.00    -0.027 A 
HETATM   15  C27 UNL     1      18.617  25.517  14.567  1.00  0.00     0.010 A 
HETATM   16  C31 UNL     1      20.427  27.048  14.394  1.00  0.00    -0.047 A 
HETATM   17  C28 UNL     1      17.805  26.261  13.741  1.00  0.00     0.001 A 
HETATM   18  C29 UNL     1      18.332  27.428  13.233  1.00  0.00     0.001 A 
HETATM   19  C30 UNL     1      19.622  27.808  13.559  1.00  0.00     0.008 A 
HETATM   20  C32 UNL     1      21.809  27.273  14.859  1.00  0.00     0.073 C 
HETATM   21  C33 UNL     1      22.188  25.995  15.575  1.00  0.00     0.149 C 
BRANCH  21  22
HETATM   22  O6  UNL     1      22.763  26.313  16.816  1.00  0.00    -0.393 OA
ATOM     23  H6  UNL     1      23.598  25.875  16.927  1.00  0.00     0.210 HD
ENDBRANCH  21  22
ENDBRANCH  11  13
ENDBRANCH   8   9
ENDBRANCH   1   2
BRANCH   1  24
HETATM   24  O1  UNL     1      16.613  25.607  17.833  1.00  0.00    -0.347 OA
ATOM     25  H1  UNL     1      15.937  26.194  18.152  1.00  0.00     0.219 HD
ENDBRANCH   1  24
BRANCH   1  26
HETATM   26  C6  UNL     1      15.649  23.560  18.400  1.00  0.00     0.215 C 
BRANCH  26  27
HETATM   27  O2  UNL     1      14.393  24.049  18.258  1.00  0.00    -0.385 OA
ATOM     28  H2  UNL     1      13.667  23.437  18.261  1.00  0.00     0.210 HD
ENDBRANCH  26  27
BRANCH  26  29
HETATM   29  C7  UNL     1      15.915  22.536  17.304  1.00  0.00     0.125 C 
BRANCH  29  30
HETATM   30  C8  UNL     1      15.899  23.197  15.984  1.00  0.00     0.066 C 
BRANCH  30  31
HETATM   31  C9  UNL     1      14.886  22.562  15.091  1.00  0.00    -0.056 A 
HETATM   32  C10 UNL     1      15.293  21.532  14.288  1.00  0.00     0.007 A 
HETATM   33  C11 UNL     1      14.377  20.927  13.445  1.00  0.00     0.001 A 
HETATM   34  C12 UNL     1      13.056  21.322  13.384  1.00  0.00     0.000 A 
HETATM   35  C13 UNL     1      12.691  22.376  14.221  1.00  0.00     0.001 A 
HETATM   36  C14 UNL     1      13.586  22.978  15.055  1.00  0.00     0.007 A 
ENDBRANCH  30  31
ENDBRANCH  29  30
BRANCH  29  37
HETATM   37  N2  UNL     1      15.200  21.325  17.435  1.00  0.00    -0.351 N 
HETATM   38  C15 UNL     1      15.205  20.593  18.674  1.00  0.00     0.242 C 
HETATM   39  O3  UNL     1      15.862  21.122  19.598  1.00  0.00    -0.271 OA
ATOM     40  H2  UNL     1      14.673  20.964  16.641  1.00  0.00     0.163 HD
BRANCH  38  41
HETATM   41  C16 UNL     1      14.466  19.300  18.803  1.00  0.00     0.278 C 
BRANCH  41  42
HETATM   42  O4  UNL     1      13.088  19.617  19.051  1.00  0.00    -0.339 OA
BRANCH  42  43
HETATM   43  C17 UNL     1      12.097  18.646  18.928  1.00  0.00     0.112 A 
HETATM   44  C18 UNL     1      11.746  17.786  19.940  1.00  0.00     0.069 A 
HETATM   45 CL1  UNL     1      12.562  17.903  21.505  1.00  0.00    -0.081 Cl
HETATM   46  C19 UNL     1      10.753  16.822  19.784  1.00  0.00     0.027 A 
HETATM   47  C20 UNL     1      10.080  16.707  18.582  1.00  0.00     0.003 A 
HETATM   48  C21 UNL     1      10.442  17.577  17.574  1.00  0.00     0.027 A 
HETATM   49  C22 UNL     1      11.436  18.546  17.714  1.00  0.00     0.069 A 
HETATM   50 CL2  UNL     1      11.835  19.628  16.370  1.00  0.00    -0.081 Cl
ENDBRANCH  42  43
ENDBRANCH  41  42
ENDBRANCH  38  41
ENDBRANCH  29  37
ENDBRANCH  26  29
ENDBRANCH   1  26
TORSDOF 14
ENDMDL
