MODEL 4
REMARK VINA RESULT: -8.973746966      1.461      6.109
REMARK  1 active torsions:
REMARK  status: ('A' for Active; 'I' for Inactive)
REMARK    1  A    between atoms: C19_20  and  O2_21 
ROOT
HETATM    1  C1  UNL     1      -3.597  -0.290  21.289  1.00  0.00     0.018 C 
HETATM    2  C2  UNL     1      -2.861  -0.739  20.054  1.00  0.00    -0.014 C 
HETATM    3  C3  UNL     1      -1.689  -1.605  20.341  1.00  0.00     0.012 C 
HETATM    4  C4  UNL     1      -0.731  -0.808  21.217  1.00  0.00     0.007 C 
HETATM    5  C5  UNL     1      -0.256   0.399  20.459  1.00  0.00     0.002 C 
HETATM    6  C6  UNL     1      -1.388   1.287  19.986  1.00  0.00    -0.004 C 
HETATM    7  C7  UNL     1      -0.773   2.272  18.994  1.00  0.00     0.010 C 
HETATM    8  C8  UNL     1       0.372   3.026  19.566  1.00  0.00     0.035 C 
HETATM    9  C9  UNL     1       1.329   2.215  20.335  1.00  0.00    -0.068 C 
HETATM   10  C10 UNL     1       2.648   2.441  20.220  1.00  0.00     0.053 C 
HETATM   11  C11 UNL     1       3.627   1.660  20.966  1.00  0.00     0.149 C 
HETATM   12  O1  UNL     1       4.816   1.612  20.618  1.00  0.00    -0.293 OA
HETATM   13  C12 UNL     1       3.092   0.931  22.167  1.00  0.00     0.084 C 
HETATM   14  C13 UNL     1       1.845   0.214  21.693  1.00  0.00     0.022 C 
HETATM   15  C14 UNL     1       0.789   1.158  21.229  1.00  0.00    -0.016 C 
HETATM   16  C15 UNL     1       0.167   1.809  22.441  1.00  0.00     0.020 C 
HETATM   17  C16 UNL     1      -2.359   0.453  19.242  1.00  0.00     0.001 C 
HETATM   18  C17 UNL     1      -3.644   1.105  18.878  1.00  0.00     0.008 C 
HETATM   19  C18 UNL     1      -4.540  -0.080  18.524  1.00  0.00     0.033 C 
HETATM   20  C19 UNL     1      -3.858  -1.309  19.096  1.00  0.00     0.126 C 
ENDROOT
BRANCH  20  21
HETATM   21  O2  UNL     1      -4.758  -2.179  19.688  1.00  0.00    -0.395 OA
ATOM     22  H2  UNL     1      -5.667  -1.961  19.516  1.00  0.00     0.210 HD
ENDBRANCH  20  21
TORSDOF 1
ENDMDL
