MODEL 2
REMARK VINA RESULT: -10.614243516      1.080      6.349
REMARK  1 active torsions:
REMARK  status: ('A' for Active; 'I' for Inactive)
REMARK    1  A    between atoms: C19_20  and  O2_21 
ROOT
HETATM    1  C1  UNL     1      -1.176  -0.348  18.148  1.00  0.00     0.018 C 
HETATM    2  C2  UNL     1      -1.758   0.635  19.131  1.00  0.00    -0.014 C 
HETATM    3  C3  UNL     1      -1.409   2.049  18.836  1.00  0.00     0.012 C 
HETATM    4  C4  UNL     1       0.110   2.164  18.871  1.00  0.00     0.007 C 
HETATM    5  C5  UNL     1       0.600   1.831  20.251  1.00  0.00     0.002 C 
HETATM    6  C6  UNL     1       0.174   0.454  20.717  1.00  0.00    -0.004 C 
HETATM    7  C7  UNL     1       0.478   0.396  22.212  1.00  0.00     0.010 C 
HETATM    8  C8  UNL     1       1.894   0.715  22.525  1.00  0.00     0.035 C 
HETATM    9  C9  UNL     1       2.444   1.877  21.808  1.00  0.00    -0.068 C 
HETATM   10  C10 UNL     1       3.247   2.743  22.448  1.00  0.00     0.053 C 
HETATM   11  C11 UNL     1       3.812   3.905  21.771  1.00  0.00     0.149 C 
HETATM   12  O1  UNL     1       4.247   4.875  22.409  1.00  0.00    -0.293 OA
HETATM   13  C12 UNL     1       3.823   3.837  20.269  1.00  0.00     0.084 C 
HETATM   14  C13 UNL     1       2.429   3.406  19.865  1.00  0.00     0.022 C 
HETATM   15  C14 UNL     1       2.082   2.050  20.378  1.00  0.00    -0.016 C 
HETATM   16  C15 UNL     1       2.828   1.026  19.555  1.00  0.00     0.020 C 
HETATM   17  C16 UNL     1      -1.293   0.338  20.555  1.00  0.00     0.001 C 
HETATM   18  C17 UNL     1      -1.872  -1.015  20.762  1.00  0.00     0.008 C 
HETATM   19  C18 UNL     1      -3.259  -0.893  20.134  1.00  0.00     0.033 C 
HETATM   20  C19 UNL     1      -3.220   0.352  19.267  1.00  0.00     0.126 C 
ENDROOT
BRANCH  20  21
HETATM   21  O2  UNL     1      -3.862   0.165  18.054  1.00  0.00    -0.395 OA
ATOM     22  H2  UNL     1      -4.674  -0.322  18.125  1.00  0.00     0.210 HD
ENDBRANCH  20  21
TORSDOF 1
ENDMDL
