MODEL 3
REMARK VINA RESULT: -9.966985572      1.021      1.023
REMARK  1 active torsions:
REMARK  status: ('A' for Active; 'I' for Inactive)
REMARK    1  A    between atoms: C19_20  and  O2_21 
ROOT
HETATM    1  C1  UNL     1       3.531   1.142  20.870  1.00  0.00     0.018 C 
HETATM    2  C2  UNL     1       2.554   1.974  21.659  1.00  0.00    -0.014 C 
HETATM    3  C3  UNL     1       1.719   1.182  22.599  1.00  0.00     0.012 C 
HETATM    4  C4  UNL     1       0.940   0.164  21.776  1.00  0.00     0.007 C 
HETATM    5  C5  UNL     1       0.030   0.889  20.826  1.00  0.00     0.002 C 
HETATM    6  C6  UNL     1       0.765   1.843  19.909  1.00  0.00    -0.004 C 
HETATM    7  C7  UNL     1      -0.303   2.705  19.241  1.00  0.00     0.010 C 
HETATM    8  C8  UNL     1      -1.343   1.900  18.548  1.00  0.00     0.035 C 
HETATM    9  C9  UNL     1      -1.840   0.741  19.306  1.00  0.00    -0.068 C 
HETATM   10  C10 UNL     1      -3.148   0.437  19.289  1.00  0.00     0.053 C 
HETATM   11  C11 UNL     1      -3.678  -0.704  20.026  1.00  0.00     0.149 C 
HETATM   12  O1  UNL     1      -4.883  -0.788  20.305  1.00  0.00    -0.293 OA
HETATM   13  C12 UNL     1      -2.669  -1.749  20.414  1.00  0.00     0.084 C 
HETATM   14  C13 UNL     1      -1.513  -0.994  21.037  1.00  0.00     0.022 C 
HETATM   15  C14 UNL     1      -0.856  -0.066  20.074  1.00  0.00    -0.016 C 
HETATM   16  C15 UNL     1      -0.032  -0.885  19.110  1.00  0.00     0.020 C 
HETATM   17  C16 UNL     1       1.605   2.738  20.738  1.00  0.00     0.001 C 
HETATM   18  C17 UNL     1       2.563   3.607  20.007  1.00  0.00     0.008 C 
HETATM   19  C18 UNL     1       3.520   4.061  21.106  1.00  0.00     0.033 C 
HETATM   20  C19 UNL     1       3.300   3.116  22.273  1.00  0.00     0.126 C 
ENDROOT
BRANCH  20  21
HETATM   21  O2  UNL     1       4.490   2.739  22.873  1.00  0.00    -0.395 OA
ATOM     22  H2  UNL     1       5.249   3.199  22.534  1.00  0.00     0.210 HD
ENDBRANCH  20  21
TORSDOF 1
ENDMDL
