MODEL 1
REMARK VINA RESULT: -13.596279406      0.000      0.000
REMARK  1 active torsions:
REMARK  status: ('A' for Active; 'I' for Inactive)
REMARK    1  A    between atoms: C19_20  and  O2_21 
ROOT
HETATM    1  C1  UNL     1       3.125   1.258  21.748  1.00  0.00     0.018 C 
HETATM    2  C2  UNL     1       2.135   2.385  21.600  1.00  0.00    -0.014 C 
HETATM    3  C3  UNL     1       0.883   2.181  22.373  1.00  0.00     0.012 C 
HETATM    4  C4  UNL     1       0.237   0.896  21.873  1.00  0.00     0.007 C 
HETATM    5  C5  UNL     1      -0.120   1.054  20.423  1.00  0.00     0.002 C 
HETATM    6  C6  UNL     1       1.069   1.409  19.553  1.00  0.00    -0.004 C 
HETATM    7  C7  UNL     1       0.499   1.829  18.201  1.00  0.00     0.010 C 
HETATM    8  C8  UNL     1      -0.385   0.795  17.601  1.00  0.00     0.035 C 
HETATM    9  C9  UNL     1      -1.343   0.180  18.534  1.00  0.00    -0.068 C 
HETATM   10  C10 UNL     1      -2.599  -0.077  18.134  1.00  0.00     0.053 C 
HETATM   11  C11 UNL     1      -3.577  -0.686  19.028  1.00  0.00     0.149 C 
HETATM   12  O1  UNL     1      -4.794  -0.606  18.804  1.00  0.00    -0.293 OA
HETATM   13  C12 UNL     1      -3.005  -1.405  20.218  1.00  0.00     0.084 C 
HETATM   14  C13 UNL     1      -2.001  -0.451  20.832  1.00  0.00     0.022 C 
HETATM   15  C14 UNL     1      -0.874  -0.140  19.907  1.00  0.00    -0.016 C 
HETATM   16  C15 UNL     1       0.038  -1.342  19.848  1.00  0.00     0.020 C 
HETATM   17  C16 UNL     1       1.741   2.591  20.139  1.00  0.00     0.001 C 
HETATM   18  C17 UNL     1       3.052   2.964  19.546  1.00  0.00     0.008 C 
HETATM   19  C18 UNL     1       3.648   3.899  20.595  1.00  0.00     0.033 C 
HETATM   20  C19 UNL     1       2.849   3.672  21.865  1.00  0.00     0.126 C 
ENDROOT
BRANCH  20  21
HETATM   21  O2  UNL     1       3.654   3.636  22.991  1.00  0.00    -0.395 OA
ATOM     22  H2  UNL     1       4.423   4.191  22.926  1.00  0.00     0.210 HD
ENDBRANCH  20  21
TORSDOF 1
ENDMDL
