MODEL 13
REMARK VINA RESULT: -10.709355481      3.790      9.955
REMARK  7 active torsions:
REMARK  status: ('A' for Active; 'I' for Inactive)
REMARK    1  A    between atoms: C4_4  and  C5_5 
REMARK    2  A    between atoms: N2_9  and  C7_10 
REMARK    3  A    between atoms: C7_10  and  C8_11 
REMARK    4  A    between atoms: C11_14  and  C12_15 
REMARK    5  A    between atoms: C16_23  and  C17_24 
REMARK       I    between atoms: C17_24  and  N4_26 
REMARK    6  A    between atoms: N4_26  and  C18_28 
REMARK    7  A    between atoms: C18_28  and  C19_29 
ROOT
HETATM    1  C1  UNL     1      44.034  25.202  23.097  1.00  0.00     0.068 C 
HETATM    2  C2  UNL     1      44.354  24.631  21.742  1.00  0.00     0.006 A 
HETATM    3  C3  UNL     1      45.038  25.408  20.828  1.00  0.00     0.040 A 
HETATM    4  C4  UNL     1      45.349  24.920  19.579  1.00  0.00     0.013 A 
HETATM    5  C15 UNL     1      44.954  23.635  19.277  1.00  0.00     0.050 A 
HETATM    6  C16 UNL     1      44.272  22.868  20.198  1.00  0.00     0.101 A 
HETATM    7  N5  UNL     1      43.989  23.382  21.407  1.00  0.00    -0.355 N 
ATOM      8  H5  UNL     1      43.485  22.811  22.085  1.00  0.00     0.166 HD
ENDROOT
BRANCH   4   9
HETATM    9  C5  UNL     1      46.072  25.731  18.593  1.00  0.00     0.131 A 
HETATM   10  N1  UNL     1      45.566  26.514  17.631  1.00  0.00    -0.336 N 
HETATM   11  C6  UNL     1      46.558  27.089  16.936  1.00  0.00     0.202 A 
ATOM     12  H1  UNL     1      44.572  26.653  17.454  1.00  0.00     0.168 HD
HETATM   13  N2  UNL     1      47.707  26.657  17.473  1.00  0.00    -0.286 N 
HETATM   14  N3  UNL     1      47.403  25.843  18.467  1.00  0.00    -0.282 N 
ATOM     15  H3  UNL     1      48.085  25.366  19.056  1.00  0.00     0.189 HD
BRANCH  13  16
HETATM   16  C7  UNL     1      49.020  27.039  17.015  1.00  0.00     0.154 C 
BRANCH  16  17
HETATM   17  C8  UNL     1      49.267  28.520  17.170  1.00  0.00     0.005 C 
HETATM   18  C9  UNL     1      49.416  29.214  15.836  1.00  0.00     0.007 C 
HETATM   19  C10 UNL     1      49.935  30.584  16.079  1.00  0.00     0.016 C 
HETATM   20  C11 UNL     1      49.586  31.234  17.359  1.00  0.00     0.087 C 
HETATM   21  C13 UNL     1      48.555  30.603  18.210  1.00  0.00     0.016 C 
HETATM   22  C14 UNL     1      48.129  29.222  17.866  1.00  0.00     0.007 C 
BRANCH  20  23
HETATM   23  C12 UNL     1      50.841  31.332  18.191  1.00  0.00     0.177 C 
HETATM   24  O1  UNL     1      51.816  32.056  17.869  1.00  0.00    -0.648 OA
HETATM   25  O2  UNL     1      50.957  30.608  19.368  1.00  0.00    -0.648 OA
ENDBRANCH  20  23
ENDBRANCH  16  17
ENDBRANCH  13  16
ENDBRANCH   4   9
BRANCH   6  26
HETATM   26  C17 UNL     1      43.863  21.492  19.844  1.00  0.00     0.268 C 
HETATM   27  O3  UNL     1      42.932  20.945  20.450  1.00  0.00    -0.266 OA
HETATM   28  N4  UNL     1      44.523  20.772  18.814  1.00  0.00    -0.351 N 
ATOM     29  H4  UNL     1      45.291  21.227  18.319  1.00  0.00     0.163 HD
BRANCH  28  30
HETATM   30  C18 UNL     1      44.163  19.429  18.433  1.00  0.00     0.161 C 
BRANCH  30  31
HETATM   31  C19 UNL     1      45.123  18.801  17.532  1.00  0.00    -0.040 A 
HETATM   32  C20 UNL     1      46.011  19.556  16.809  1.00  0.00     0.012 A 
HETATM   33  C21 UNL     1      46.930  18.991  15.948  1.00  0.00     0.043 A 
HETATM   34  C22 UNL     1      46.931  17.623  15.833  1.00  0.00     0.116 A 
HETATM   35  F1  UNL     1      47.812  17.005  15.002  1.00  0.00    -0.206 F 
HETATM   36  C23 UNL     1      46.062  16.820  16.536  1.00  0.00     0.043 A 
HETATM   37  C24 UNL     1      45.154  17.436  17.392  1.00  0.00     0.012 A 
ENDBRANCH  30  31
ENDBRANCH  28  30
ENDBRANCH   6  26
TORSDOF 7
ENDMDL
