MODEL 1
REMARK VINA RESULT: -12.572833010      0.000      0.000
REMARK  7 active torsions:
REMARK  status: ('A' for Active; 'I' for Inactive)
REMARK    1  A    between atoms: C4_4  and  C5_5 
REMARK    2  A    between atoms: N2_9  and  C7_10 
REMARK    3  A    between atoms: C7_10  and  C8_11 
REMARK    4  A    between atoms: C11_14  and  C12_15 
REMARK    5  A    between atoms: C16_23  and  C17_24 
REMARK       I    between atoms: C17_24  and  N4_26 
REMARK    6  A    between atoms: N4_26  and  C18_28 
REMARK    7  A    between atoms: C18_28  and  C19_29 
ROOT
HETATM    1  C1  UNL     1      41.108  23.246  18.126  1.00  0.00     0.068 C 
HETATM    2  C2  UNL     1      42.527  23.163  18.623  1.00  0.00     0.006 A 
HETATM    3  C3  UNL     1      43.158  21.936  18.655  1.00  0.00     0.040 A 
HETATM    4  C4  UNL     1      44.456  21.821  19.103  1.00  0.00     0.013 A 
HETATM    5  C15 UNL     1      45.095  22.970  19.514  1.00  0.00     0.050 A 
HETATM    6  C16 UNL     1      44.454  24.190  19.477  1.00  0.00     0.101 A 
HETATM    7  N5  UNL     1      43.187  24.259  19.033  1.00  0.00    -0.355 N 
ATOM      8  H5  UNL     1      42.717  25.163  19.006  1.00  0.00     0.166 HD
ENDROOT
BRANCH   4   9
HETATM    9  C5  UNL     1      45.144  20.526  19.147  1.00  0.00     0.131 A 
HETATM   10  N1  UNL     1      46.193  20.170  19.900  1.00  0.00    -0.336 N 
HETATM   11  C6  UNL     1      46.529  18.897  19.649  1.00  0.00     0.202 A 
ATOM     12  H1  UNL     1      46.667  20.778  20.567  1.00  0.00     0.168 HD
HETATM   13  N2  UNL     1      45.674  18.448  18.721  1.00  0.00    -0.286 N 
HETATM   14  N3  UNL     1      44.847  19.434  18.428  1.00  0.00    -0.282 N 
ATOM     15  H3  UNL     1      44.089  19.374  17.748  1.00  0.00     0.189 HD
BRANCH  13  16
HETATM   16  C7  UNL     1      45.690  17.115  18.168  1.00  0.00     0.154 C 
BRANCH  16  17
HETATM   17  C8  UNL     1      46.452  17.049  16.867  1.00  0.00     0.005 C 
HETATM   18  C9  UNL     1      45.562  16.667  15.706  1.00  0.00     0.007 C 
HETATM   19  C10 UNL     1      46.425  16.347  14.542  1.00  0.00     0.016 C 
HETATM   20  C11 UNL     1      47.728  17.037  14.443  1.00  0.00     0.087 C 
HETATM   21  C13 UNL     1      47.994  18.171  15.354  1.00  0.00     0.016 C 
HETATM   22  C14 UNL     1      47.059  18.377  16.489  1.00  0.00     0.007 C 
BRANCH  20  23
HETATM   23  C12 UNL     1      48.816  16.019  14.681  1.00  0.00     0.177 C 
HETATM   24  O1  UNL     1      49.826  16.255  15.389  1.00  0.00    -0.648 OA
HETATM   25  O2  UNL     1      48.729  14.758  14.110  1.00  0.00    -0.648 OA
ENDBRANCH  20  23
ENDBRANCH  16  17
ENDBRANCH  13  16
ENDBRANCH   4   9
BRANCH   6  26
HETATM   26  C17 UNL     1      45.167  25.406  19.925  1.00  0.00     0.268 C 
HETATM   27  O3  UNL     1      45.597  25.483  21.083  1.00  0.00    -0.266 OA
HETATM   28  N4  UNL     1      45.373  26.502  19.046  1.00  0.00    -0.351 N 
ATOM     29  H4  UNL     1      45.016  26.433  18.092  1.00  0.00     0.163 HD
BRANCH  28  30
HETATM   30  C18 UNL     1      46.060  27.707  19.434  1.00  0.00     0.161 C 
BRANCH  30  31
HETATM   31  C19 UNL     1      47.120  28.098  18.512  1.00  0.00    -0.040 A 
HETATM   32  C20 UNL     1      47.688  29.344  18.577  1.00  0.00     0.012 A 
HETATM   33  C21 UNL     1      48.693  29.744  17.717  1.00  0.00     0.043 A 
HETATM   34  C22 UNL     1      49.116  28.839  16.776  1.00  0.00     0.116 A 
HETATM   35  F1  UNL     1      50.102  29.171  15.900  1.00  0.00    -0.206 F 
HETATM   36  C23 UNL     1      48.580  27.577  16.669  1.00  0.00     0.043 A 
HETATM   37  C24 UNL     1      47.569  27.219  17.558  1.00  0.00     0.012 A 
ENDBRANCH  30  31
ENDBRANCH  28  30
ENDBRANCH   6  26
TORSDOF 7
ENDMDL
