MODEL 4
REMARK VINA RESULT: -11.547898006      1.183      1.355
REMARK  7 active torsions:
REMARK  status: ('A' for Active; 'I' for Inactive)
REMARK    1  A    between atoms: C4_4  and  C5_5 
REMARK    2  A    between atoms: N2_9  and  C7_10 
REMARK    3  A    between atoms: C7_10  and  C8_11 
REMARK    4  A    between atoms: C11_14  and  C12_15 
REMARK    5  A    between atoms: C16_23  and  C17_24 
REMARK       I    between atoms: C17_24  and  N4_26 
REMARK    6  A    between atoms: N4_26  and  C18_28 
REMARK    7  A    between atoms: C18_28  and  C19_29 
ROOT
HETATM    1  C1  UNL     1      40.452  21.951  19.924  1.00  0.00     0.068 C 
HETATM    2  C2  UNL     1      41.936  22.200  19.931  1.00  0.00     0.006 A 
HETATM    3  C3  UNL     1      42.796  21.152  19.665  1.00  0.00     0.040 A 
HETATM    4  C4  UNL     1      44.160  21.340  19.662  1.00  0.00     0.013 A 
HETATM    5  C15 UNL     1      44.632  22.607  19.932  1.00  0.00     0.050 A 
HETATM    6  C16 UNL     1      43.764  23.645  20.196  1.00  0.00     0.101 A 
HETATM    7  N5  UNL     1      42.439  23.419  20.189  1.00  0.00    -0.355 N 
ATOM      8  H5  UNL     1      41.801  24.190  20.383  1.00  0.00     0.166 HD
ENDROOT
BRANCH   4   9
HETATM    9  C5  UNL     1      45.089  20.240  19.384  1.00  0.00     0.131 A 
HETATM   10  N1  UNL     1      46.418  20.298  19.220  1.00  0.00    -0.336 N 
HETATM   11  C6  UNL     1      46.906  19.073  18.982  1.00  0.00     0.202 A 
ATOM     12  H1  UNL     1      46.976  21.150  19.270  1.00  0.00     0.168 HD
HETATM   13  N2  UNL     1      45.863  18.232  18.996  1.00  0.00    -0.286 N 
HETATM   14  N3  UNL     1      44.779  18.944  19.239  1.00  0.00    -0.282 N 
ATOM     15  H3  UNL     1      43.836  18.560  19.306  1.00  0.00     0.189 HD
BRANCH  13  16
HETATM   16  C7  UNL     1      45.956  16.808  18.780  1.00  0.00     0.154 C 
BRANCH  16  17
HETATM   17  C8  UNL     1      46.403  16.475  17.377  1.00  0.00     0.005 C 
HETATM   18  C9  UNL     1      46.509  14.984  17.154  1.00  0.00     0.007 C 
HETATM   19  C10 UNL     1      47.218  14.754  15.870  1.00  0.00     0.016 C 
HETATM   20  C11 UNL     1      47.080  15.779  14.816  1.00  0.00     0.087 C 
HETATM   21  C13 UNL     1      46.063  16.838  14.994  1.00  0.00     0.016 C 
HETATM   22  C14 UNL     1      45.434  16.971  16.333  1.00  0.00     0.007 C 
BRANCH  20  23
HETATM   23  C12 UNL     1      48.411  16.471  14.658  1.00  0.00     0.177 C 
HETATM   24  O1  UNL     1      49.364  16.305  15.459  1.00  0.00    -0.648 OA
HETATM   25  O2  UNL     1      48.627  17.333  13.592  1.00  0.00    -0.648 OA
ENDBRANCH  20  23
ENDBRANCH  16  17
ENDBRANCH  13  16
ENDBRANCH   4   9
BRANCH   6  26
HETATM   26  C17 UNL     1      44.301  24.993  20.481  1.00  0.00     0.268 C 
HETATM   27  O3  UNL     1      44.220  25.466  21.623  1.00  0.00    -0.266 OA
HETATM   28  N4  UNL     1      44.916  25.769  19.463  1.00  0.00    -0.351 N 
ATOM     29  H4  UNL     1      44.979  25.375  18.524  1.00  0.00     0.163 HD
BRANCH  28  30
HETATM   30  C18 UNL     1      45.453  27.087  19.691  1.00  0.00     0.161 C 
BRANCH  30  31
HETATM   31  C19 UNL     1      46.507  27.457  18.753  1.00  0.00    -0.040 A 
HETATM   32  C20 UNL     1      47.097  28.694  18.807  1.00  0.00     0.012 A 
HETATM   33  C21 UNL     1      48.097  29.074  17.934  1.00  0.00     0.043 A 
HETATM   34  C22 UNL     1      48.492  28.159  16.990  1.00  0.00     0.116 A 
HETATM   35  F1  UNL     1      49.473  28.472  16.101  1.00  0.00    -0.206 F 
HETATM   36  C23 UNL     1      47.934  26.906  16.893  1.00  0.00     0.043 A 
HETATM   37  C24 UNL     1      46.930  26.568  17.796  1.00  0.00     0.012 A 
ENDBRANCH  30  31
ENDBRANCH  28  30
ENDBRANCH   6  26
TORSDOF 7
ENDMDL
