MODEL 14
REMARK VINA RESULT: -10.678893112      2.948      4.493
REMARK  7 active torsions:
REMARK  status: ('A' for Active; 'I' for Inactive)
REMARK    1  A    between atoms: C4_4  and  C5_5 
REMARK    2  A    between atoms: N2_9  and  C7_10 
REMARK    3  A    between atoms: C7_10  and  C8_11 
REMARK    4  A    between atoms: C11_14  and  C12_15 
REMARK    5  A    between atoms: C16_23  and  C17_24 
REMARK       I    between atoms: C17_24  and  N4_26 
REMARK    6  A    between atoms: N4_26  and  C18_28 
REMARK    7  A    between atoms: C18_28  and  C19_29 
ROOT
HETATM    1  C1  UNL     1      45.356  27.599  22.313  1.00  0.00     0.068 C 
HETATM    2  C2  UNL     1      45.240  26.836  21.022  1.00  0.00     0.006 A 
HETATM    3  C3  UNL     1      44.348  25.785  20.939  1.00  0.00     0.040 A 
HETATM    4  C4  UNL     1      44.213  25.064  19.774  1.00  0.00     0.013 A 
HETATM    5  C15 UNL     1      44.997  25.427  18.701  1.00  0.00     0.050 A 
HETATM    6  C16 UNL     1      45.885  26.478  18.795  1.00  0.00     0.101 A 
HETATM    7  N5  UNL     1      45.985  27.157  19.951  1.00  0.00    -0.355 N 
ATOM      8  H5  UNL     1      46.642  27.934  20.017  1.00  0.00     0.166 HD
ENDROOT
BRANCH   4   9
HETATM    9  C5  UNL     1      43.272  23.943  19.666  1.00  0.00     0.131 A 
HETATM   10  N1  UNL     1      42.013  23.958  19.207  1.00  0.00    -0.336 N 
HETATM   11  C6  UNL     1      41.485  22.728  19.271  1.00  0.00     0.202 A 
ATOM     12  H1  UNL     1      41.528  24.785  18.860  1.00  0.00     0.168 HD
HETATM   13  N2  UNL     1      42.431  21.927  19.779  1.00  0.00    -0.286 N 
HETATM   14  N3  UNL     1      43.499  22.668  20.012  1.00  0.00    -0.282 N 
ATOM     15  H3  UNL     1      44.375  22.318  20.401  1.00  0.00     0.189 HD
BRANCH  13  16
HETATM   16  C7  UNL     1      42.269  20.513  20.015  1.00  0.00     0.154 C 
BRANCH  16  17
HETATM   17  C8  UNL     1      43.375  19.702  19.386  1.00  0.00     0.005 C 
HETATM   18  C9  UNL     1      42.864  18.411  18.788  1.00  0.00     0.007 C 
HETATM   19  C10 UNL     1      44.032  17.556  18.456  1.00  0.00     0.016 C 
HETATM   20  C11 UNL     1      45.299  18.231  18.106  1.00  0.00     0.087 C 
HETATM   21  C13 UNL     1      45.276  19.689  17.865  1.00  0.00     0.016 C 
HETATM   22  C14 UNL     1      44.050  20.432  18.252  1.00  0.00     0.007 C 
BRANCH  20  23
HETATM   23  C12 UNL     1      46.283  17.986  19.223  1.00  0.00     0.177 C 
HETATM   24  O1  UNL     1      46.663  18.890  20.007  1.00  0.00    -0.648 OA
HETATM   25  O2  UNL     1      46.812  16.719  19.422  1.00  0.00    -0.648 OA
ENDBRANCH  20  23
ENDBRANCH  16  17
ENDBRANCH  13  16
ENDBRANCH   4   9
BRANCH   6  26
HETATM   26  C17 UNL     1      46.712  26.845  17.626  1.00  0.00     0.268 C 
HETATM   27  O3  UNL     1      46.382  26.479  16.491  1.00  0.00    -0.266 OA
HETATM   28  N4  UNL     1      47.895  27.617  17.777  1.00  0.00    -0.351 N 
ATOM     29  H4  UNL     1      48.163  27.916  18.715  1.00  0.00     0.163 HD
BRANCH  28  30
HETATM   30  C18 UNL     1      48.735  27.999  16.670  1.00  0.00     0.161 C 
BRANCH  30  31
HETATM   31  C19 UNL     1      49.468  29.240  16.895  1.00  0.00    -0.040 A 
HETATM   32  C20 UNL     1      50.098  29.884  15.862  1.00  0.00     0.012 A 
HETATM   33  C21 UNL     1      50.800  31.059  16.042  1.00  0.00     0.043 A 
HETATM   34  C22 UNL     1      50.850  31.576  17.313  1.00  0.00     0.116 A 
HETATM   35  F1  UNL     1      51.525  32.732  17.557  1.00  0.00    -0.206 F 
HETATM   36  C23 UNL     1      50.235  30.970  18.384  1.00  0.00     0.043 A 
HETATM   37  C24 UNL     1      49.539  29.787  18.152  1.00  0.00     0.012 A 
ENDBRANCH  30  31
ENDBRANCH  28  30
ENDBRANCH   6  26
TORSDOF 7
ENDMDL
