MODEL 5
REMARK VINA RESULT: -11.474156764      4.276     10.841
REMARK  7 active torsions:
REMARK  status: ('A' for Active; 'I' for Inactive)
REMARK    1  A    between atoms: C4_4  and  C5_5 
REMARK    2  A    between atoms: N2_9  and  C7_10 
REMARK    3  A    between atoms: C7_10  and  C8_11 
REMARK    4  A    between atoms: C11_14  and  C12_15 
REMARK    5  A    between atoms: C16_23  and  C17_24 
REMARK       I    between atoms: C17_24  and  N4_26 
REMARK    6  A    between atoms: N4_26  and  C18_28 
REMARK    7  A    between atoms: C18_28  and  C19_29 
ROOT
HETATM    1  C1  UNL     1      44.331  25.705  23.183  1.00  0.00     0.068 C 
HETATM    2  C2  UNL     1      44.630  25.585  21.713  1.00  0.00     0.006 A 
HETATM    3  C3  UNL     1      45.422  26.540  21.107  1.00  0.00     0.040 A 
HETATM    4  C4  UNL     1      45.718  26.463  19.764  1.00  0.00     0.013 A 
HETATM    5  C15 UNL     1      45.197  25.403  19.053  1.00  0.00     0.050 A 
HETATM    6  C16 UNL     1      44.408  24.456  19.669  1.00  0.00     0.101 A 
HETATM    7  N5  UNL     1      44.143  24.568  20.982  1.00  0.00    -0.355 N 
ATOM      8  H5  UNL     1      43.560  23.865  21.434  1.00  0.00     0.166 HD
ENDROOT
BRANCH   4   9
HETATM    9  C5  UNL     1      46.556  27.468  19.101  1.00  0.00     0.131 A 
HETATM   10  N1  UNL     1      46.598  28.790  19.321  1.00  0.00    -0.336 N 
HETATM   11  C6  UNL     1      47.497  29.363  18.509  1.00  0.00     0.202 A 
ATOM     12  H1  UNL     1      46.028  29.286  20.006  1.00  0.00     0.168 HD
HETATM   13  N2  UNL     1      48.028  28.383  17.767  1.00  0.00    -0.286 N 
HETATM   14  N3  UNL     1      47.456  27.250  18.131  1.00  0.00    -0.282 N 
ATOM     15  H3  UNL     1      47.669  26.337  17.730  1.00  0.00     0.189 HD
BRANCH  13  16
HETATM   16  C7  UNL     1      49.042  28.576  16.759  1.00  0.00     0.154 C 
BRANCH  16  17
HETATM   17  C8  UNL     1      49.650  29.957  16.822  1.00  0.00     0.005 C 
HETATM   18  C9  UNL     1      50.441  30.171  18.092  1.00  0.00     0.007 C 
HETATM   19  C10 UNL     1      50.755  31.617  18.207  1.00  0.00     0.016 C 
HETATM   20  C11 UNL     1      50.898  32.391  16.957  1.00  0.00     0.087 C 
HETATM   21  C13 UNL     1      50.968  31.653  15.677  1.00  0.00     0.016 C 
HETATM   22  C14 UNL     1      50.619  30.210  15.695  1.00  0.00     0.007 C 
BRANCH  20  23
HETATM   23  C12 UNL     1      49.726  33.336  16.854  1.00  0.00     0.177 C 
HETATM   24  O1  UNL     1      48.588  33.062  17.309  1.00  0.00    -0.648 OA
HETATM   25  O2  UNL     1      49.877  34.570  16.239  1.00  0.00    -0.648 OA
ENDBRANCH  20  23
ENDBRANCH  16  17
ENDBRANCH  13  16
ENDBRANCH   4   9
BRANCH   6  26
HETATM   26  C17 UNL     1      43.864  23.331  18.879  1.00  0.00     0.268 C 
HETATM   27  O3  UNL     1      43.191  23.551  17.864  1.00  0.00    -0.266 OA
HETATM   28  N4  UNL     1      44.098  21.984  19.264  1.00  0.00    -0.351 N 
ATOM     29  H4  UNL     1      44.654  21.808  20.101  1.00  0.00     0.163 HD
BRANCH  28  30
HETATM   30  C18 UNL     1      43.590  20.853  18.529  1.00  0.00     0.161 C 
BRANCH  30  31
HETATM   31  C19 UNL     1      44.424  19.662  18.640  1.00  0.00    -0.040 A 
HETATM   32  C20 UNL     1      45.675  19.726  19.200  1.00  0.00     0.012 A 
HETATM   33  C21 UNL     1      46.489  18.617  19.318  1.00  0.00     0.043 A 
HETATM   34  C22 UNL     1      46.000  17.422  18.851  1.00  0.00     0.116 A 
HETATM   35  F1  UNL     1      46.752  16.292  18.939  1.00  0.00    -0.206 F 
HETATM   36  C23 UNL     1      44.754  17.304  18.282  1.00  0.00     0.043 A 
HETATM   37  C24 UNL     1      43.969  18.450  18.184  1.00  0.00     0.012 A 
ENDBRANCH  30  31
ENDBRANCH  28  30
ENDBRANCH   6  26
TORSDOF 7
ENDMDL
