MODEL 3
REMARK VINA RESULT: -11.619317263      1.070      1.421
REMARK  7 active torsions:
REMARK  status: ('A' for Active; 'I' for Inactive)
REMARK    1  A    between atoms: C4_4  and  C5_5 
REMARK    2  A    between atoms: N2_9  and  C7_10 
REMARK    3  A    between atoms: C7_10  and  C8_11 
REMARK    4  A    between atoms: C11_14  and  C12_15 
REMARK    5  A    between atoms: C16_23  and  C17_24 
REMARK       I    between atoms: C17_24  and  N4_26 
REMARK    6  A    between atoms: N4_26  and  C18_28 
REMARK    7  A    between atoms: C18_28  and  C19_29 
ROOT
HETATM    1  C1  UNL     1      40.208  21.751  20.043  1.00  0.00     0.068 C 
HETATM    2  C2  UNL     1      41.695  21.986  20.049  1.00  0.00     0.006 A 
HETATM    3  C3  UNL     1      42.544  20.929  19.790  1.00  0.00     0.040 A 
HETATM    4  C4  UNL     1      43.910  21.105  19.787  1.00  0.00     0.013 A 
HETATM    5  C15 UNL     1      44.394  22.368  20.051  1.00  0.00     0.050 A 
HETATM    6  C16 UNL     1      43.536  23.416  20.309  1.00  0.00     0.101 A 
HETATM    7  N5  UNL     1      42.209  23.201  20.302  1.00  0.00    -0.355 N 
ATOM      8  H5  UNL     1      41.578  23.979  20.492  1.00  0.00     0.166 HD
ENDROOT
BRANCH   4   9
HETATM    9  C5  UNL     1      44.829  19.994  19.515  1.00  0.00     0.131 A 
HETATM   10  N1  UNL     1      46.111  19.868  19.887  1.00  0.00    -0.336 N 
HETATM   11  C6  UNL     1      46.607  18.705  19.443  1.00  0.00     0.202 A 
ATOM     12  H1  UNL     1      46.632  20.556  20.429  1.00  0.00     0.168 HD
HETATM   13  N2  UNL     1      45.618  18.091  18.779  1.00  0.00    -0.286 N 
HETATM   14  N3  UNL     1      44.556  18.874  18.830  1.00  0.00    -0.282 N 
ATOM     15  H3  UNL     1      43.654  18.657  18.406  1.00  0.00     0.189 HD
BRANCH  13  16
HETATM   16  C7  UNL     1      45.736  16.804  18.138  1.00  0.00     0.154 C 
BRANCH  16  17
HETATM   17  C8  UNL     1      46.473  16.890  16.824  1.00  0.00     0.005 C 
HETATM   18  C9  UNL     1      45.594  16.509  15.654  1.00  0.00     0.007 C 
HETATM   19  C10 UNL     1      46.457  16.342  14.458  1.00  0.00     0.016 C 
HETATM   20  C11 UNL     1      47.694  17.146  14.386  1.00  0.00     0.087 C 
HETATM   21  C13 UNL     1      47.883  18.237  15.366  1.00  0.00     0.016 C 
HETATM   22  C14 UNL     1      46.957  18.287  16.527  1.00  0.00     0.007 C 
BRANCH  20  23
HETATM   23  C12 UNL     1      48.869  16.212  14.538  1.00  0.00     0.177 C 
HETATM   24  O1  UNL     1      49.704  16.314  15.470  1.00  0.00    -0.648 OA
HETATM   25  O2  UNL     1      49.066  15.184  13.627  1.00  0.00    -0.648 OA
ENDBRANCH  20  23
ENDBRANCH  16  17
ENDBRANCH  13  16
ENDBRANCH   4   9
BRANCH   6  26
HETATM   26  C17 UNL     1      44.085  24.759  20.589  1.00  0.00     0.268 C 
HETATM   27  O3  UNL     1      44.076  25.207  21.743  1.00  0.00    -0.266 OA
HETATM   28  N4  UNL     1      44.630  25.560  19.550  1.00  0.00    -0.351 N 
ATOM     29  H4  UNL     1      44.635  25.186  18.601  1.00  0.00     0.163 HD
BRANCH  28  30
HETATM   30  C18 UNL     1      45.176  26.875  19.771  1.00  0.00     0.161 C 
BRANCH  30  31
HETATM   31  C19 UNL     1      46.250  27.224  18.848  1.00  0.00    -0.040 A 
HETATM   32  C20 UNL     1      46.675  26.336  17.893  1.00  0.00     0.012 A 
HETATM   33  C21 UNL     1      47.690  26.636  17.005  1.00  0.00     0.043 A 
HETATM   34  C22 UNL     1      48.271  27.875  17.106  1.00  0.00     0.116 A 
HETATM   35  F1  UNL     1      49.275  28.232  16.261  1.00  0.00    -0.206 F 
HETATM   36  C23 UNL     1      47.882  28.802  18.044  1.00  0.00     0.043 A 
HETATM   37  C24 UNL     1      46.855  28.454  18.918  1.00  0.00     0.012 A 
ENDBRANCH  30  31
ENDBRANCH  28  30
ENDBRANCH   6  26
TORSDOF 7
ENDMDL
