MODEL 7
REMARK VINA RESULT: -11.303425634      1.540      2.147
REMARK  7 active torsions:
REMARK  status: ('A' for Active; 'I' for Inactive)
REMARK    1  A    between atoms: C4_4  and  C5_5 
REMARK    2  A    between atoms: N2_9  and  C7_10 
REMARK    3  A    between atoms: C7_10  and  C8_11 
REMARK    4  A    between atoms: C11_14  and  C12_15 
REMARK    5  A    between atoms: C16_23  and  C17_24 
REMARK       I    between atoms: C17_24  and  N4_26 
REMARK    6  A    between atoms: N4_26  and  C18_28 
REMARK    7  A    between atoms: C18_28  and  C19_29 
ROOT
HETATM    1  C1  UNL     1      40.039  21.237  20.048  1.00  0.00     0.068 C 
HETATM    2  C2  UNL     1      41.504  21.506  19.834  1.00  0.00     0.006 A 
HETATM    3  C3  UNL     1      42.281  20.550  19.211  1.00  0.00     0.040 A 
HETATM    4  C4  UNL     1      43.625  20.761  18.997  1.00  0.00     0.013 A 
HETATM    5  C15 UNL     1      44.161  21.956  19.428  1.00  0.00     0.050 A 
HETATM    6  C16 UNL     1      43.376  22.903  20.049  1.00  0.00     0.101 A 
HETATM    7  N5  UNL     1      42.068  22.657  20.237  1.00  0.00    -0.355 N 
ATOM      8  H5  UNL     1      41.490  23.361  20.696  1.00  0.00     0.166 HD
ENDROOT
BRANCH   4   9
HETATM    9  C5  UNL     1      44.467  19.758  18.339  1.00  0.00     0.131 A 
HETATM   10  N1  UNL     1      45.574  19.953  17.608  1.00  0.00    -0.336 N 
HETATM   11  C6  UNL     1      46.056  18.779  17.178  1.00  0.00     0.202 A 
ATOM     12  H1  UNL     1      45.989  20.863  17.409  1.00  0.00     0.168 HD
HETATM   13  N2  UNL     1      45.235  17.830  17.648  1.00  0.00    -0.286 N 
HETATM   14  N3  UNL     1      44.286  18.429  18.343  1.00  0.00    -0.282 N 
ATOM     15  H3  UNL     1      43.522  17.948  18.816  1.00  0.00     0.189 HD
BRANCH  13  16
HETATM   16  C7  UNL     1      45.398  16.416  17.411  1.00  0.00     0.154 C 
BRANCH  16  17
HETATM   17  C8  UNL     1      46.212  16.138  16.171  1.00  0.00     0.005 C 
HETATM   18  C9  UNL     1      47.059  14.894  16.314  1.00  0.00     0.007 C 
HETATM   19  C10 UNL     1      48.026  14.855  15.188  1.00  0.00     0.016 C 
HETATM   20  C11 UNL     1      47.622  15.485  13.915  1.00  0.00     0.087 C 
HETATM   21  C13 UNL     1      46.210  15.894  13.748  1.00  0.00     0.016 C 
HETATM   22  C14 UNL     1      45.348  15.900  14.958  1.00  0.00     0.007 C 
BRANCH  20  23
HETATM   23  C12 UNL     1      48.463  16.722  13.717  1.00  0.00     0.177 C 
HETATM   24  O1  UNL     1      48.447  17.691  14.515  1.00  0.00    -0.648 OA
HETATM   25  O2  UNL     1      49.302  16.827  12.617  1.00  0.00    -0.648 OA
ENDBRANCH  20  23
ENDBRANCH  16  17
ENDBRANCH  13  16
ENDBRANCH   4   9
BRANCH   6  26
HETATM   26  C17 UNL     1      43.981  24.174  20.499  1.00  0.00     0.268 C 
HETATM   27  O3  UNL     1      43.980  24.473  21.700  1.00  0.00    -0.266 OA
HETATM   28  N4  UNL     1      44.570  25.075  19.572  1.00  0.00    -0.351 N 
ATOM     29  H4  UNL     1      44.568  24.824  18.583  1.00  0.00     0.163 HD
BRANCH  28  30
HETATM   30  C18 UNL     1      45.171  26.326  19.960  1.00  0.00     0.161 C 
BRANCH  30  31
HETATM   31  C19 UNL     1      46.149  26.826  19.001  1.00  0.00    -0.040 A 
HETATM   32  C20 UNL     1      46.612  26.029  17.985  1.00  0.00     0.012 A 
HETATM   33  C21 UNL     1      47.538  26.473  17.061  1.00  0.00     0.043 A 
HETATM   34  C22 UNL     1      47.991  27.761  17.191  1.00  0.00     0.116 A 
HETATM   35  F1  UNL     1      48.904  28.259  16.313  1.00  0.00    -0.206 F 
HETATM   36  C23 UNL     1      47.560  28.602  18.191  1.00  0.00     0.043 A 
HETATM   37  C24 UNL     1      46.625  28.109  19.098  1.00  0.00     0.012 A 
ENDBRANCH  30  31
ENDBRANCH  28  30
ENDBRANCH   6  26
TORSDOF 7
ENDMDL
