MODEL 7
REMARK VINA RESULT: -11.331775384      6.307     10.141
REMARK  5 active torsions:
REMARK  status: ('A' for Active; 'I' for Inactive)
REMARK    1  A    between atoms: S1_2  and  C2_5 
REMARK    2  A    between atoms: C6_9  and  O3_10 
REMARK    3  A    between atoms: O3_10  and  C7_11 
REMARK    4  A    between atoms: C11_15  and  C12_16 
REMARK    5  A    between atoms: C16_22  and  C17_23 
ROOT
HETATM    1  C7  UNL     1      15.944  54.101  28.559  1.00  0.00     0.076 A 
HETATM    2  C8  UNL     1      15.992  54.637  27.300  1.00  0.00     0.037 A 
HETATM    3  C9  UNL     1      15.253  54.146  26.237  1.00  0.00     0.004 A 
HETATM    4  C10 UNL     1      14.438  53.064  26.502  1.00  0.00     0.012 A 
HETATM    5  C11 UNL     1      14.353  52.489  27.748  1.00  0.00    -0.022 A 
HETATM    6  C22 UNL     1      15.109  53.016  28.767  1.00  0.00     0.049 A 
ENDROOT
BRANCH   5   7
HETATM    7  C12 UNL     1      13.479  51.306  27.963  1.00  0.00    -0.012 A 
HETATM    8  C13 UNL     1      14.031  50.145  28.455  1.00  0.00     0.030 A 
HETATM    9  C14 UNL     1      13.239  49.056  28.691  1.00  0.00     0.089 A 
HETATM   10  N1  UNL     1      11.917  49.096  28.451  1.00  0.00    -0.365 N 
HETATM   11  C15 UNL     1      11.361  50.233  27.966  1.00  0.00     0.058 A 
ATOM     12  H1  UNL     1      11.337  48.277  28.632  1.00  0.00     0.165 HD
HETATM   13  C16 UNL     1       9.987  50.195  27.732  1.00  0.00     0.075 A 
HETATM   14  C21 UNL     1      12.130  51.338  27.719  1.00  0.00     0.003 A 
HETATM   15  C18 UNL     1       9.396  51.332  27.230  1.00  0.00     0.018 A 
HETATM   16  C19 UNL     1      10.161  52.453  26.975  1.00  0.00     0.002 A 
HETATM   17  C20 UNL     1      11.532  52.477  27.213  1.00  0.00     0.014 A 
BRANCH  13  18
HETATM   18  C17 UNL     1       9.240  48.968  28.026  1.00  0.00     0.419 C 
HETATM   19  F1  UNL     1       9.767  47.937  27.254  1.00  0.00    -0.166 F 
HETATM   20  F2  UNL     1       7.917  49.143  27.663  1.00  0.00    -0.166 F 
HETATM   21  F3  UNL     1       9.328  48.579  29.333  1.00  0.00    -0.166 F 
ENDBRANCH  13  18
ENDBRANCH   5   7
BRANCH   1  22
HETATM   22  O3  UNL     1      16.709  54.636  29.587  1.00  0.00    -0.311 OA
BRANCH  22  23
HETATM   23  C6  UNL     1      18.065  54.345  29.646  1.00  0.00     0.077 A 
HETATM   24  C5  UNL     1      18.532  53.250  28.947  1.00  0.00     0.037 A 
HETATM   25  C4  UNL     1      19.881  52.922  28.977  1.00  0.00     0.004 A 
HETATM   26  C3  UNL     1      20.759  53.692  29.708  1.00  0.00     0.023 A 
HETATM   27  C2  UNL     1      20.319  54.792  30.416  1.00  0.00     0.061 A 
HETATM   28  C23 UNL     1      18.976  55.082  30.360  1.00  0.00     0.060 A 
BRANCH  27  29
HETATM   29  S1  UNL     1      21.466  55.748  31.335  1.00  0.00     0.172 S 
HETATM   30  C1  UNL     1      21.271  57.478  31.047  1.00  0.00     0.167 C 
HETATM   31  O1  UNL     1      22.850  55.262  31.053  1.00  0.00    -0.223 OA
HETATM   32  O2  UNL     1      21.193  55.435  32.800  1.00  0.00    -0.223 OA
ENDBRANCH  27  29
ENDBRANCH  22  23
ENDBRANCH   1  22
TORSDOF 5
ENDMDL
