MODEL 9
REMARK VINA RESULT: -11.128148129      6.342     10.261
REMARK  5 active torsions:
REMARK  status: ('A' for Active; 'I' for Inactive)
REMARK    1  A    between atoms: S1_2  and  C2_5 
REMARK    2  A    between atoms: C6_9  and  O3_10 
REMARK    3  A    between atoms: O3_10  and  C7_11 
REMARK    4  A    between atoms: C11_15  and  C12_16 
REMARK    5  A    between atoms: C16_22  and  C17_23 
ROOT
HETATM    1  C7  UNL     1      16.764  53.158  28.319  1.00  0.00     0.076 A 
HETATM    2  C8  UNL     1      16.513  54.124  27.381  1.00  0.00     0.037 A 
HETATM    3  C9  UNL     1      15.353  54.168  26.628  1.00  0.00     0.004 A 
HETATM    4  C10 UNL     1      14.428  53.171  26.864  1.00  0.00     0.012 A 
HETATM    5  C11 UNL     1      14.630  52.178  27.793  1.00  0.00    -0.022 A 
HETATM    6  C22 UNL     1      15.800  52.183  28.513  1.00  0.00     0.049 A 
ENDROOT
BRANCH   5   7
HETATM    7  C12 UNL     1      13.608  51.115  27.981  1.00  0.00    -0.012 A 
HETATM    8  C13 UNL     1      13.994  49.898  28.492  1.00  0.00     0.030 A 
HETATM    9  C14 UNL     1      13.065  48.917  28.704  1.00  0.00     0.089 A 
HETATM   10  N1  UNL     1      11.766  49.122  28.420  1.00  0.00    -0.365 N 
HETATM   11  C15 UNL     1      11.373  50.317  27.915  1.00  0.00     0.058 A 
ATOM     12  H1  UNL     1      11.082  48.383  28.583  1.00  0.00     0.165 HD
HETATM   13  C16 UNL     1      10.014  50.450  27.637  1.00  0.00     0.075 A 
HETATM   14  C21 UNL     1      12.283  51.316  27.692  1.00  0.00     0.003 A 
HETATM   15  C18 UNL     1       9.587  51.650  27.114  1.00  0.00     0.018 A 
HETATM   16  C19 UNL     1      10.494  52.664  26.883  1.00  0.00     0.002 A 
HETATM   17  C20 UNL     1      11.849  52.518  27.166  1.00  0.00     0.014 A 
BRANCH  13  18
HETATM   18  C17 UNL     1       9.110  49.328  27.908  1.00  0.00     0.419 C 
HETATM   19  F1  UNL     1       9.099  49.094  29.280  1.00  0.00    -0.166 F 
HETATM   20  F2  UNL     1       9.593  48.193  27.283  1.00  0.00    -0.166 F 
HETATM   21  F3  UNL     1       7.819  49.568  27.530  1.00  0.00    -0.166 F 
ENDBRANCH  13  18
ENDBRANCH   5   7
BRANCH   1  22
HETATM   22  O3  UNL     1      17.948  53.165  29.045  1.00  0.00    -0.311 OA
BRANCH  22  23
HETATM   23  C6  UNL     1      18.346  54.332  29.682  1.00  0.00     0.077 A 
HETATM   24  C5  UNL     1      17.427  55.355  29.813  1.00  0.00     0.037 A 
HETATM   25  C4  UNL     1      17.782  56.539  30.445  1.00  0.00     0.004 A 
HETATM   26  C3  UNL     1      19.056  56.697  30.943  1.00  0.00     0.023 A 
HETATM   27  C2  UNL     1      19.994  55.691  30.826  1.00  0.00     0.061 A 
HETATM   28  C23 UNL     1      19.603  54.535  30.194  1.00  0.00     0.060 A 
BRANCH  27  29
HETATM   29  S1  UNL     1      21.607  55.928  31.473  1.00  0.00     0.172 S 
HETATM   30  C1  UNL     1      22.220  57.551  31.153  1.00  0.00     0.167 C 
HETATM   31  O1  UNL     1      22.506  54.851  30.958  1.00  0.00    -0.223 OA
HETATM   32  O2  UNL     1      21.492  55.706  32.975  1.00  0.00    -0.223 OA
ENDBRANCH  27  29
ENDBRANCH  22  23
ENDBRANCH   1  22
TORSDOF 5
ENDMDL
