MODEL 1
REMARK VINA RESULT: -13.582184322      0.000      0.000
REMARK  5 active torsions:
REMARK  status: ('A' for Active; 'I' for Inactive)
REMARK    1  A    between atoms: S1_2  and  C2_5 
REMARK    2  A    between atoms: C6_9  and  O3_10 
REMARK    3  A    between atoms: O3_10  and  C7_11 
REMARK    4  A    between atoms: C11_15  and  C12_16 
REMARK    5  A    between atoms: C16_22  and  C17_23 
ROOT
HETATM    1  C7  UNL     1      14.588  52.690  28.371  1.00  0.00     0.076 A 
HETATM    2  C8  UNL     1      14.609  52.966  27.030  1.00  0.00     0.037 A 
HETATM    3  C9  UNL     1      15.735  53.420  26.365  1.00  0.00     0.004 A 
HETATM    4  C10 UNL     1      16.873  53.589  27.128  1.00  0.00     0.012 A 
HETATM    5  C11 UNL     1      16.906  53.326  28.477  1.00  0.00    -0.022 A 
HETATM    6  C22 UNL     1      15.759  52.877  29.086  1.00  0.00     0.049 A 
ENDROOT
BRANCH   5   7
HETATM    7  C12 UNL     1      18.155  53.555  29.249  1.00  0.00    -0.012 A 
HETATM    8  C13 UNL     1      18.925  52.475  29.614  1.00  0.00     0.030 A 
HETATM    9  C14 UNL     1      20.095  52.666  30.296  1.00  0.00     0.089 A 
HETATM   10  N1  UNL     1      20.513  53.902  30.620  1.00  0.00    -0.365 N 
HETATM   11  C15 UNL     1      19.764  54.975  30.267  1.00  0.00     0.058 A 
ATOM     12  H1  UNL     1      21.388  54.031  31.128  1.00  0.00     0.165 HD
HETATM   13  C16 UNL     1      20.257  56.222  30.646  1.00  0.00     0.075 A 
HETATM   14  C21 UNL     1      18.587  54.812  29.584  1.00  0.00     0.003 A 
HETATM   15  C18 UNL     1      19.512  57.330  30.309  1.00  0.00     0.018 A 
HETATM   16  C19 UNL     1      18.323  57.179  29.623  1.00  0.00     0.002 A 
HETATM   17  C20 UNL     1      17.843  55.927  29.250  1.00  0.00     0.014 A 
BRANCH  13  18
HETATM   18  C17 UNL     1      21.527  56.303  31.374  1.00  0.00     0.419 C 
HETATM   19  F1  UNL     1      21.290  55.985  32.708  1.00  0.00    -0.166 F 
HETATM   20  F2  UNL     1      22.000  57.602  31.320  1.00  0.00    -0.166 F 
HETATM   21  F3  UNL     1      22.473  55.432  30.914  1.00  0.00    -0.166 F 
ENDBRANCH  13  18
ENDBRANCH   5   7
BRANCH   1  22
HETATM   22  O3  UNL     1      13.427  52.237  28.983  1.00  0.00    -0.311 OA
BRANCH  22  23
HETATM   23  C6  UNL     1      12.732  51.176  28.419  1.00  0.00     0.077 A 
HETATM   24  C5  UNL     1      13.419  50.008  28.152  1.00  0.00     0.037 A 
HETATM   25  C4  UNL     1      12.763  48.921  27.589  1.00  0.00     0.004 A 
HETATM   26  C3  UNL     1      11.421  49.007  27.295  1.00  0.00     0.023 A 
HETATM   27  C2  UNL     1      10.709  50.162  27.550  1.00  0.00     0.061 A 
HETATM   28  C23 UNL     1      11.396  51.214  28.108  1.00  0.00     0.060 A 
BRANCH  27  29
HETATM   29  S1  UNL     1       9.001  50.234  27.161  1.00  0.00     0.172 S 
HETATM   30  C1  UNL     1       8.194  51.586  27.958  1.00  0.00     0.167 C 
HETATM   31  O1  UNL     1       8.370  48.914  27.469  1.00  0.00    -0.223 OA
HETATM   32  O2  UNL     1       8.922  50.403  25.651  1.00  0.00    -0.223 OA
ENDBRANCH  27  29
ENDBRANCH  22  23
ENDBRANCH   1  22
TORSDOF 5
ENDMDL
