MODEL 2
REMARK VINA RESULT: -11.655109995      1.121      2.059
REMARK  5 active torsions:
REMARK  status: ('A' for Active; 'I' for Inactive)
REMARK    1  A    between atoms: S1_2  and  C2_5 
REMARK    2  A    between atoms: C6_9  and  O3_10 
REMARK    3  A    between atoms: O3_10  and  C7_11 
REMARK    4  A    between atoms: C11_15  and  C12_16 
REMARK    5  A    between atoms: C16_22  and  C17_23 
ROOT
HETATM    1  C7  UNL     1      14.932  52.345  28.600  1.00  0.00     0.076 A 
HETATM    2  C8  UNL     1      14.754  52.605  27.268  1.00  0.00     0.037 A 
HETATM    3  C9  UNL     1      15.432  53.605  26.592  1.00  0.00     0.004 A 
HETATM    4  C10 UNL     1      16.323  54.354  27.333  1.00  0.00     0.012 A 
HETATM    5  C11 UNL     1      16.539  54.135  28.673  1.00  0.00    -0.022 A 
HETATM    6  C22 UNL     1      15.839  53.128  29.294  1.00  0.00     0.049 A 
ENDROOT
BRANCH   5   7
HETATM    7  C12 UNL     1      17.491  54.995  29.424  1.00  0.00    -0.012 A 
HETATM    8  C13 UNL     1      17.060  56.210  29.905  1.00  0.00     0.030 A 
HETATM    9  C14 UNL     1      17.909  57.002  30.627  1.00  0.00     0.089 A 
HETATM   10  N1  UNL     1      19.171  56.613  30.880  1.00  0.00    -0.365 N 
HETATM   11  C15 UNL     1      19.608  55.418  30.412  1.00  0.00     0.058 A 
ATOM     12  H1  UNL     1      19.795  57.212  31.420  1.00  0.00     0.165 HD
HETATM   13  C16 UNL     1      20.930  55.089  30.705  1.00  0.00     0.075 A 
HETATM   14  C21 UNL     1      18.779  54.606  29.685  1.00  0.00     0.003 A 
HETATM   15  C18 UNL     1      21.405  53.885  30.234  1.00  0.00     0.018 A 
HETATM   16  C19 UNL     1      20.580  53.058  29.499  1.00  0.00     0.002 A 
HETATM   17  C20 UNL     1      19.261  53.400  29.213  1.00  0.00     0.014 A 
BRANCH  13  18
HETATM   18  C17 UNL     1      21.747  56.019  31.491  1.00  0.00     0.419 C 
HETATM   19  F1  UNL     1      23.008  55.456  31.666  1.00  0.00    -0.166 F 
HETATM   20  F2  UNL     1      21.174  56.184  32.739  1.00  0.00    -0.166 F 
HETATM   21  F3  UNL     1      21.926  57.229  30.885  1.00  0.00    -0.166 F 
ENDBRANCH  13  18
ENDBRANCH   5   7
BRANCH   1  22
HETATM   22  O3  UNL     1      14.223  51.327  29.225  1.00  0.00    -0.311 OA
BRANCH  22  23
HETATM   23  C6  UNL     1      13.230  50.661  28.521  1.00  0.00     0.077 A 
HETATM   24  C5  UNL     1      13.468  49.361  28.121  1.00  0.00     0.037 A 
HETATM   25  C4  UNL     1      12.502  48.656  27.415  1.00  0.00     0.004 A 
HETATM   26  C3  UNL     1      11.300  49.255  27.112  1.00  0.00     0.023 A 
HETATM   27  C2  UNL     1      11.035  50.554  27.498  1.00  0.00     0.061 A 
HETATM   28  C23 UNL     1      12.018  51.216  28.195  1.00  0.00     0.060 A 
BRANCH  27  29
HETATM   29  S1  UNL     1       9.493  51.283  27.094  1.00  0.00     0.172 S 
HETATM   30  C1  UNL     1       9.643  53.008  26.750  1.00  0.00     0.167 C 
HETATM   31  O1  UNL     1       8.509  50.988  28.179  1.00  0.00    -0.223 OA
HETATM   32  O2  UNL     1       8.996  50.552  25.855  1.00  0.00    -0.223 OA
ENDBRANCH  27  29
ENDBRANCH  22  23
ENDBRANCH   1  22
TORSDOF 5
ENDMDL
