MODEL 4
REMARK VINA RESULT: -11.588574824      6.232      9.861
REMARK  5 active torsions:
REMARK  status: ('A' for Active; 'I' for Inactive)
REMARK    1  A    between atoms: S1_2  and  C2_5 
REMARK    2  A    between atoms: C6_9  and  O3_10 
REMARK    3  A    between atoms: O3_10  and  C7_11 
REMARK    4  A    between atoms: C11_15  and  C12_16 
REMARK    5  A    between atoms: C16_22  and  C17_23 
ROOT
HETATM    1  C7  UNL     1      16.792  52.835  27.433  1.00  0.00     0.076 A 
HETATM    2  C8  UNL     1      16.346  53.989  26.847  1.00  0.00     0.037 A 
HETATM    3  C9  UNL     1      15.012  54.233  26.568  1.00  0.00     0.004 A 
HETATM    4  C10 UNL     1      14.119  53.238  26.913  1.00  0.00     0.012 A 
HETATM    5  C11 UNL     1      14.515  52.061  27.503  1.00  0.00    -0.022 A 
HETATM    6  C22 UNL     1      15.852  51.872  27.758  1.00  0.00     0.049 A 
ENDROOT
BRANCH   5   7
HETATM    7  C12 UNL     1      13.509  51.015  27.826  1.00  0.00    -0.012 A 
HETATM    8  C13 UNL     1      13.932  49.821  28.364  1.00  0.00     0.030 A 
HETATM    9  C14 UNL     1      13.020  48.859  28.698  1.00  0.00     0.089 A 
HETATM   10  N1  UNL     1      11.704  49.058  28.511  1.00  0.00    -0.365 N 
HETATM   11  C15 UNL     1      11.274  50.229  27.981  1.00  0.00     0.058 A 
ATOM     12  H1  UNL     1      11.033  48.332  28.765  1.00  0.00     0.165 HD
HETATM   13  C16 UNL     1       9.897  50.357  27.808  1.00  0.00     0.075 A 
HETATM   14  C21 UNL     1      12.165  51.210  27.636  1.00  0.00     0.003 A 
HETATM   15  C18 UNL     1       9.432  51.533  27.262  1.00  0.00     0.018 A 
HETATM   16  C19 UNL     1      10.320  52.529  26.908  1.00  0.00     0.002 A 
HETATM   17  C20 UNL     1      11.693  52.387  27.088  1.00  0.00     0.014 A 
BRANCH  13  18
HETATM   18  C17 UNL     1       9.015  49.256  28.206  1.00  0.00     0.419 C 
HETATM   19  F1  UNL     1       7.725  49.547  27.771  1.00  0.00    -0.166 F 
HETATM   20  F2  UNL     1       8.992  49.169  29.587  1.00  0.00    -0.166 F 
HETATM   21  F3  UNL     1       9.364  48.055  27.658  1.00  0.00    -0.166 F 
ENDBRANCH  13  18
ENDBRANCH   5   7
BRANCH   1  22
HETATM   22  O3  UNL     1      18.144  52.647  27.689  1.00  0.00    -0.311 OA
BRANCH  22  23
HETATM   23  C6  UNL     1      18.745  53.358  28.718  1.00  0.00     0.077 A 
HETATM   24  C5  UNL     1      19.393  52.652  29.712  1.00  0.00     0.037 A 
HETATM   25  C4  UNL     1      20.010  53.322  30.761  1.00  0.00     0.004 A 
HETATM   26  C3  UNL     1      19.975  54.697  30.811  1.00  0.00     0.023 A 
HETATM   27  C2  UNL     1      19.333  55.429  29.832  1.00  0.00     0.061 A 
HETATM   28  C23 UNL     1      18.736  54.727  28.811  1.00  0.00     0.060 A 
BRANCH  27  29
HETATM   29  S1  UNL     1      19.309  57.179  29.930  1.00  0.00     0.172 S 
HETATM   30  C1  UNL     1      19.449  57.937  28.343  1.00  0.00     0.167 C 
HETATM   31  O1  UNL     1      20.362  57.633  30.889  1.00  0.00    -0.223 OA
HETATM   32  O2  UNL     1      17.972  57.545  30.560  1.00  0.00    -0.223 OA
ENDBRANCH  27  29
ENDBRANCH  22  23
ENDBRANCH   1  22
TORSDOF 5
ENDMDL
