MODEL 5
REMARK VINA RESULT: -11.391364964      1.302      1.719
REMARK  5 active torsions:
REMARK  status: ('A' for Active; 'I' for Inactive)
REMARK    1  A    between atoms: S1_2  and  C2_5 
REMARK    2  A    between atoms: C6_9  and  O3_10 
REMARK    3  A    between atoms: O3_10  and  C7_11 
REMARK    4  A    between atoms: C11_15  and  C12_16 
REMARK    5  A    between atoms: C16_22  and  C17_23 
ROOT
HETATM    1  C7  UNL     1      15.935  51.278  27.878  1.00  0.00     0.076 A 
HETATM    2  C8  UNL     1      16.031  51.642  26.561  1.00  0.00     0.037 A 
HETATM    3  C9  UNL     1      17.009  52.495  26.079  1.00  0.00     0.004 A 
HETATM    4  C10 UNL     1      17.912  52.980  27.003  1.00  0.00     0.012 A 
HETATM    5  C11 UNL     1      17.859  52.646  28.336  1.00  0.00    -0.022 A 
HETATM    6  C22 UNL     1      16.868  51.795  28.760  1.00  0.00     0.049 A 
ENDROOT
BRANCH   5   7
HETATM    7  C12 UNL     1      18.844  53.225  29.288  1.00  0.00    -0.012 A 
HETATM    8  C13 UNL     1      19.652  52.379  30.013  1.00  0.00     0.030 A 
HETATM    9  C14 UNL     1      20.587  52.891  30.869  1.00  0.00     0.089 A 
HETATM   10  N1  UNL     1      20.735  54.220  31.018  1.00  0.00    -0.365 N 
HETATM   11  C15 UNL     1      19.945  55.063  30.310  1.00  0.00     0.058 A 
ATOM     12  H1  UNL     1      21.437  54.590  31.659  1.00  0.00     0.165 HD
HETATM   13  C16 UNL     1      20.150  56.425  30.525  1.00  0.00     0.075 A 
HETATM   14  C21 UNL     1      19.000  54.578  29.446  1.00  0.00     0.003 A 
HETATM   15  C18 UNL     1      19.355  57.306  29.827  1.00  0.00     0.018 A 
HETATM   16  C19 UNL     1      18.398  56.829  28.955  1.00  0.00     0.002 A 
HETATM   17  C20 UNL     1      18.204  55.467  28.749  1.00  0.00     0.014 A 
BRANCH  13  18
HETATM   18  C17 UNL     1      21.187  56.857  31.468  1.00  0.00     0.419 C 
HETATM   19  F1  UNL     1      21.164  58.247  31.540  1.00  0.00    -0.166 F 
HETATM   20  F2  UNL     1      22.426  56.473  30.989  1.00  0.00    -0.166 F 
HETATM   21  F3  UNL     1      20.998  56.385  32.736  1.00  0.00    -0.166 F 
ENDBRANCH  13  18
ENDBRANCH   5   7
BRANCH   1  22
HETATM   22  O3  UNL     1      14.931  50.417  28.302  1.00  0.00    -0.311 OA
BRANCH  22  23
HETATM   23  C6  UNL     1      13.606  50.734  28.036  1.00  0.00     0.077 A 
HETATM   24  C5  UNL     1      13.306  52.025  27.647  1.00  0.00     0.037 A 
HETATM   25  C4  UNL     1      11.994  52.386  27.369  1.00  0.00     0.004 A 
HETATM   26  C3  UNL     1      10.987  51.455  27.483  1.00  0.00     0.023 A 
HETATM   27  C2  UNL     1      11.258  50.158  27.870  1.00  0.00     0.061 A 
HETATM   28  C23 UNL     1      12.569  49.841  28.136  1.00  0.00     0.060 A 
BRANCH  27  29
HETATM   29  S1  UNL     1       9.949  48.999  28.005  1.00  0.00     0.172 S 
HETATM   30  C1  UNL     1       8.374  49.738  27.711  1.00  0.00     0.167 C 
HETATM   31  O1  UNL     1      10.034  48.313  29.330  1.00  0.00    -0.223 OA
HETATM   32  O2  UNL     1      10.224  47.933  26.953  1.00  0.00    -0.223 OA
ENDBRANCH  27  29
ENDBRANCH  22  23
ENDBRANCH   1  22
TORSDOF 5
ENDMDL
