MODEL 18
REMARK VINA RESULT: -9.593865044      1.420      1.885
REMARK  5 active torsions:
REMARK  status: ('A' for Active; 'I' for Inactive)
REMARK    1  A    between atoms: S1_2  and  C2_5 
REMARK    2  A    between atoms: C6_9  and  O3_10 
REMARK    3  A    between atoms: O3_10  and  C7_11 
REMARK    4  A    between atoms: C11_15  and  C12_16 
REMARK    5  A    between atoms: C16_22  and  C17_23 
ROOT
HETATM    1  C7  UNL     1      14.139  50.757  28.464  1.00  0.00     0.076 A 
HETATM    2  C8  UNL     1      13.463  51.807  27.903  1.00  0.00     0.037 A 
HETATM    3  C9  UNL     1      13.996  53.081  27.795  1.00  0.00     0.004 A 
HETATM    4  C10 UNL     1      15.272  53.259  28.290  1.00  0.00     0.012 A 
HETATM    5  C11 UNL     1      15.992  52.237  28.863  1.00  0.00    -0.022 A 
HETATM    6  C22 UNL     1      15.416  50.993  28.944  1.00  0.00     0.049 A 
ENDROOT
BRANCH   5   7
HETATM    7  C12 UNL     1      17.352  52.499  29.404  1.00  0.00    -0.012 A 
HETATM    8  C13 UNL     1      18.165  51.433  29.717  1.00  0.00     0.030 A 
HETATM    9  C14 UNL     1      19.431  51.651  30.184  1.00  0.00     0.089 A 
HETATM   10  N1  UNL     1      19.904  52.900  30.345  1.00  0.00    -0.365 N 
HETATM   11  C15 UNL     1      19.114  53.958  30.041  1.00  0.00     0.058 A 
ATOM     12  H1  UNL     1      20.851  53.049  30.694  1.00  0.00     0.165 HD
HETATM   13  C16 UNL     1      19.670  55.220  30.243  1.00  0.00     0.075 A 
HETATM   14  C21 UNL     1      17.841  53.768  29.572  1.00  0.00     0.003 A 
HETATM   15  C18 UNL     1      18.886  56.314  29.952  1.00  0.00     0.018 A 
HETATM   16  C19 UNL     1      17.601  56.136  29.480  1.00  0.00     0.002 A 
HETATM   17  C20 UNL     1      17.058  54.870  29.282  1.00  0.00     0.014 A 
BRANCH  13  18
HETATM   18  C17 UNL     1      21.042  55.330  30.747  1.00  0.00     0.419 C 
HETATM   19  F1  UNL     1      21.863  54.520  29.968  1.00  0.00    -0.166 F 
HETATM   20  F2  UNL     1      21.087  54.861  32.048  1.00  0.00    -0.166 F 
HETATM   21  F3  UNL     1      21.545  56.598  30.680  1.00  0.00    -0.166 F 
ENDBRANCH  13  18
ENDBRANCH   5   7
BRANCH   1  22
HETATM   22  O3  UNL     1      13.553  49.500  28.544  1.00  0.00    -0.311 OA
BRANCH  22  23
HETATM   23  C6  UNL     1      12.174  49.385  28.434  1.00  0.00     0.077 A 
HETATM   24  C5  UNL     1      11.568  48.248  28.930  1.00  0.00     0.037 A 
HETATM   25  C4  UNL     1      10.191  48.091  28.842  1.00  0.00     0.004 A 
HETATM   26  C3  UNL     1       9.425  49.074  28.256  1.00  0.00     0.023 A 
HETATM   27  C2  UNL     1      10.003  50.221  27.751  1.00  0.00     0.061 A 
HETATM   28  C23 UNL     1      11.369  50.337  27.859  1.00  0.00     0.060 A 
BRANCH  27  29
HETATM   29  S1  UNL     1       8.996  51.450  27.012  1.00  0.00     0.172 S 
HETATM   30  C1  UNL     1       9.853  52.979  26.808  1.00  0.00     0.167 C 
HETATM   31  O1  UNL     1       7.733  51.590  27.799  1.00  0.00    -0.223 OA
HETATM   32  O2  UNL     1       8.592  50.899  25.652  1.00  0.00    -0.223 OA
ENDBRANCH  27  29
ENDBRANCH  22  23
ENDBRANCH   1  22
TORSDOF 5
ENDMDL
