MODEL 9
REMARK VINA RESULT: -5.051363528      3.672      4.636
REMARK  3 active torsions:
REMARK  status: ('A' for Active; 'I' for Inactive)
REMARK    1  A    between atoms: N1_1  and  C1_5 
REMARK    2  A    between atoms: C1_5  and  C2_6 
REMARK    3  A    between atoms: C5_9  and  C6_10 
ROOT
HETATM    1  C2  UNL     1     -27.963  86.834 -11.408  1.00  0.00    -0.033 A 
HETATM    2  C3  UNL     1     -28.451  87.634 -12.439  1.00  0.00     0.010 A 
HETATM    3  C4  UNL     1     -29.616  88.364 -12.303  1.00  0.00     0.019 A 
HETATM    4  C5  UNL     1     -30.340  88.320 -11.127  1.00  0.00     0.040 A 
HETATM    5  C7  UNL     1     -29.859  87.531 -10.113  1.00  0.00     0.019 A 
HETATM    6  C8  UNL     1     -28.681  86.788 -10.236  1.00  0.00     0.010 A 
ENDROOT
BRANCH   1   7
HETATM    7  C1  UNL     1     -26.709  86.089 -11.644  1.00  0.00     0.268 C 
BRANCH   7   8
HETATM    8  N1  UNL     1     -26.028  85.854 -10.385  1.00  0.00    -0.075 N 
ATOM      9  H13 UNL     1     -25.824  86.724  -9.893  1.00  0.00     0.274 HD
ATOM     10  H12 UNL     1     -26.643  85.430  -9.691  1.00  0.00     0.274 HD
ATOM     11  H11 UNL     1     -25.188  85.298 -10.542  1.00  0.00     0.274 HD
ENDBRANCH   7   8
ENDBRANCH   1   7
BRANCH   4  12
HETATM   12  C6  UNL     1     -31.569  89.074 -10.946  1.00  0.00     0.209 C 
HETATM   13  O1  UNL     1     -32.085  89.745 -11.874  1.00  0.00    -0.644 OA
HETATM   14  O2  UNL     1     -32.191  89.050  -9.713  1.00  0.00    -0.644 OA
ENDBRANCH   4  12
TORSDOF 3
ENDMDL
