MODEL 10
REMARK VINA RESULT: -4.782317399      3.442      4.432
REMARK  3 active torsions:
REMARK  status: ('A' for Active; 'I' for Inactive)
REMARK    1  A    between atoms: N1_1  and  C1_5 
REMARK    2  A    between atoms: C1_5  and  C2_6 
REMARK    3  A    between atoms: C5_9  and  C6_10 
ROOT
HETATM    1  C2  UNL     1     -27.943  86.743 -11.897  1.00  0.00    -0.033 A 
HETATM    2  C3  UNL     1     -28.537  87.769 -12.629  1.00  0.00     0.010 A 
HETATM    3  C4  UNL     1     -29.631  88.465 -12.150  1.00  0.00     0.019 A 
HETATM    4  C5  UNL     1     -30.173  88.158 -10.916  1.00  0.00     0.040 A 
HETATM    5  C7  UNL     1     -29.586  87.147 -10.197  1.00  0.00     0.019 A 
HETATM    6  C8  UNL     1     -28.480  86.436 -10.669  1.00  0.00     0.010 A 
ENDROOT
BRANCH   1   7
HETATM    7  C1  UNL     1     -26.777  86.055 -12.491  1.00  0.00     0.268 C 
BRANCH   7   8
HETATM    8  N1  UNL     1     -26.633  86.436 -13.883  1.00  0.00    -0.075 N 
ATOM      9  H13 UNL     1     -27.341  86.001 -14.474  1.00  0.00     0.274 HD
ATOM     10  H12 UNL     1     -26.885  87.412 -14.041  1.00  0.00     0.274 HD
ATOM     11  H11 UNL     1     -25.687  86.230 -14.204  1.00  0.00     0.274 HD
ENDBRANCH   7   8
ENDBRANCH   1   7
BRANCH   4  12
HETATM   12  C6  UNL     1     -31.321  88.867 -10.378  1.00  0.00     0.209 C 
HETATM   13  O1  UNL     1     -31.908  89.773 -11.019  1.00  0.00    -0.644 OA
HETATM   14  O2  UNL     1     -31.783  88.532  -9.120  1.00  0.00    -0.644 OA
ENDBRANCH   4  12
TORSDOF 3
ENDMDL
