MODEL 3
REMARK VINA RESULT: -5.475874127      0.858      1.779
REMARK  3 active torsions:
REMARK  status: ('A' for Active; 'I' for Inactive)
REMARK    1  A    between atoms: N1_1  and  C1_5 
REMARK    2  A    between atoms: C1_5  and  C2_6 
REMARK    3  A    between atoms: C5_9  and  C6_10 
ROOT
HETATM    1  C2  UNL     1     -30.945  88.660 -11.267  1.00  0.00    -0.033 A 
HETATM    2  C3  UNL     1     -30.564  88.132 -10.035  1.00  0.00     0.010 A 
HETATM    3  C4  UNL     1     -29.561  87.188  -9.928  1.00  0.00     0.019 A 
HETATM    4  C5  UNL     1     -28.901  86.733 -11.054  1.00  0.00     0.040 A 
HETATM    5  C7  UNL     1     -29.278  87.253 -12.266  1.00  0.00     0.019 A 
HETATM    6  C8  UNL     1     -30.290  88.209 -12.389  1.00  0.00     0.010 A 
ENDROOT
BRANCH   1   7
HETATM    7  C1  UNL     1     -32.028  89.666 -11.284  1.00  0.00     0.268 C 
BRANCH   7   8
HETATM    8  N1  UNL     1     -31.817  90.601 -12.373  1.00  0.00    -0.075 N 
ATOM      9  H13 UNL     1     -32.479  91.377 -12.343  1.00  0.00     0.274 HD
ATOM     10  H12 UNL     1     -30.956  91.135 -12.257  1.00  0.00     0.274 HD
ATOM     11  H11 UNL     1     -31.844  90.108 -13.265  1.00  0.00     0.274 HD
ENDBRANCH   7   8
ENDBRANCH   1   7
BRANCH   4  12
HETATM   12  C6  UNL     1     -27.841  85.741 -10.981  1.00  0.00     0.209 C 
HETATM   13  O1  UNL     1     -27.941  84.706 -10.278  1.00  0.00    -0.644 OA
HETATM   14  O2  UNL     1     -26.686  85.945 -11.710  1.00  0.00    -0.644 OA
ENDBRANCH   4  12
TORSDOF 3
ENDMDL
