MODEL 5
REMARK VINA RESULT: -5.229334628      1.029      1.029
REMARK  3 active torsions:
REMARK  status: ('A' for Active; 'I' for Inactive)
REMARK    1  A    between atoms: N1_1  and  C1_5 
REMARK    2  A    between atoms: C1_5  and  C2_6 
REMARK    3  A    between atoms: C5_9  and  C6_10 
ROOT
HETATM    1  C2  UNL     1     -30.097  88.431 -11.254  1.00  0.00    -0.033 A 
HETATM    2  C3  UNL     1     -29.387  88.114 -12.411  1.00  0.00     0.010 A 
HETATM    3  C4  UNL     1     -28.212  87.389 -12.367  1.00  0.00     0.019 A 
HETATM    4  C5  UNL     1     -27.700  86.952 -11.159  1.00  0.00     0.040 A 
HETATM    5  C7  UNL     1     -28.400  87.265 -10.021  1.00  0.00     0.019 A 
HETATM    6  C8  UNL     1     -29.590  87.998 -10.051  1.00  0.00     0.010 A 
ENDROOT
BRANCH   1   7
HETATM    7  C1  UNL     1     -31.343  89.212 -11.399  1.00  0.00     0.268 C 
BRANCH   7   8
HETATM    8  N1  UNL     1     -32.157  89.071 -10.205  1.00  0.00    -0.075 N 
ATOM      9  H13 UNL     1     -31.858  89.703  -9.463  1.00  0.00     0.274 HD
ATOM     10  H12 UNL     1     -33.100  89.434 -10.340  1.00  0.00     0.274 HD
ATOM     11  H11 UNL     1     -32.162  88.098  -9.901  1.00  0.00     0.274 HD
ENDBRANCH   7   8
ENDBRANCH   1   7
BRANCH   4  12
HETATM   12  C6  UNL     1     -26.468  86.187 -11.073  1.00  0.00     0.209 C 
HETATM   13  O1  UNL     1     -26.043  85.494 -12.029  1.00  0.00    -0.644 OA
HETATM   14  O2  UNL     1     -25.741  86.225  -9.899  1.00  0.00    -0.644 OA
ENDBRANCH   4  12
TORSDOF 3
ENDMDL
