MODEL 4
REMARK VINA RESULT: -5.296139518      1.023      1.740
REMARK  3 active torsions:
REMARK  status: ('A' for Active; 'I' for Inactive)
REMARK    1  A    between atoms: N1_1  and  C1_5 
REMARK    2  A    between atoms: C1_5  and  C2_6 
REMARK    3  A    between atoms: C5_9  and  C6_10 
ROOT
HETATM    1  C2  UNL     1     -30.170  88.420 -11.293  1.00  0.00    -0.033 A 
HETATM    2  C3  UNL     1     -29.636  88.100 -10.047  1.00  0.00     0.010 A 
HETATM    3  C4  UNL     1     -28.451  87.400  -9.922  1.00  0.00     0.019 A 
HETATM    4  C5  UNL     1     -27.754  86.992 -11.044  1.00  0.00     0.040 A 
HETATM    5  C7  UNL     1     -28.282  87.307 -12.270  1.00  0.00     0.019 A 
HETATM    6  C8  UNL     1     -29.479  88.015 -12.411  1.00  0.00     0.010 A 
ENDROOT
BRANCH   1   7
HETATM    7  C1  UNL     1     -31.443  89.170 -11.329  1.00  0.00     0.268 C 
BRANCH   7   8
HETATM    8  N1  UNL     1     -32.159  88.991 -10.080  1.00  0.00    -0.075 N 
ATOM      9  H13 UNL     1     -32.034  89.783  -9.450  1.00  0.00     0.274 HD
ATOM     10  H12 UNL     1     -33.169  89.058 -10.205  1.00  0.00     0.274 HD
ATOM     11  H11 UNL     1     -31.885  88.110  -9.646  1.00  0.00     0.274 HD
ENDBRANCH   7   8
ENDBRANCH   1   7
BRANCH   4  12
HETATM   12  C6  UNL     1     -26.506  86.255 -10.952  1.00  0.00     0.209 C 
HETATM   13  O1  UNL     1     -26.074  85.551 -11.898  1.00  0.00    -0.644 OA
HETATM   14  O2  UNL     1     -25.769  86.333  -9.786  1.00  0.00    -0.644 OA
ENDBRANCH   4  12
TORSDOF 3
ENDMDL
