MODEL 1
REMARK VINA RESULT: -5.747920950      0.000      0.000
REMARK  3 active torsions:
REMARK  status: ('A' for Active; 'I' for Inactive)
REMARK    1  A    between atoms: N1_1  and  C1_5 
REMARK    2  A    between atoms: C1_5  and  C2_6 
REMARK    3  A    between atoms: C5_9  and  C6_10 
ROOT
HETATM    1  C2  UNL     1     -30.737  88.695 -11.128  1.00  0.00    -0.033 A 
HETATM    2  C3  UNL     1     -29.917  88.529 -12.243  1.00  0.00     0.010 A 
HETATM    3  C4  UNL     1     -28.725  87.834 -12.171  1.00  0.00     0.019 A 
HETATM    4  C5  UNL     1     -28.306  87.278 -10.976  1.00  0.00     0.040 A 
HETATM    5  C7  UNL     1     -29.114  87.444  -9.880  1.00  0.00     0.019 A 
HETATM    6  C8  UNL     1     -30.323  88.143  -9.938  1.00  0.00     0.010 A 
ENDROOT
BRANCH   1   7
HETATM    7  C1  UNL     1     -31.993  89.454 -11.300  1.00  0.00     0.268 C 
BRANCH   7   8
HETATM    8  N1  UNL     1     -31.788  90.548 -12.230  1.00  0.00    -0.075 N 
ATOM      9  H13 UNL     1     -30.866  90.971 -12.126  1.00  0.00     0.274 HD
ATOM     10  H12 UNL     1     -31.694  90.221 -13.192  1.00  0.00     0.274 HD
ATOM     11  H11 UNL     1     -32.537  91.233 -12.132  1.00  0.00     0.274 HD
ENDBRANCH   7   8
ENDBRANCH   1   7
BRANCH   4  12
HETATM   12  C6  UNL     1     -27.060  86.541 -10.862  1.00  0.00     0.209 C 
HETATM   13  O1  UNL     1     -26.684  85.722 -11.736  1.00  0.00    -0.644 OA
HETATM   14  O2  UNL     1     -26.261  86.748  -9.754  1.00  0.00    -0.644 OA
ENDBRANCH   4  12
TORSDOF 3
ENDMDL
