MODEL 2
REMARK VINA RESULT: -5.733290740      0.067      1.427
REMARK  3 active torsions:
REMARK  status: ('A' for Active; 'I' for Inactive)
REMARK    1  A    between atoms: N1_1  and  C1_5 
REMARK    2  A    between atoms: C1_5  and  C2_6 
REMARK    3  A    between atoms: C5_9  and  C6_10 
ROOT
HETATM    1  C2  UNL     1     -30.706  88.693 -11.191  1.00  0.00    -0.033 A 
HETATM    2  C3  UNL     1     -30.327  88.116  -9.981  1.00  0.00     0.010 A 
HETATM    3  C4  UNL     1     -29.148  87.407  -9.851  1.00  0.00     0.019 A 
HETATM    4  C5  UNL     1     -28.302  87.247 -10.932  1.00  0.00     0.040 A 
HETATM    5  C7  UNL     1     -28.677  87.816 -12.123  1.00  0.00     0.019 A 
HETATM    6  C8  UNL     1     -29.866  88.536 -12.268  1.00  0.00     0.010 A 
ENDROOT
BRANCH   1   7
HETATM    7  C1  UNL     1     -31.985  89.434 -11.235  1.00  0.00     0.268 C 
BRANCH   7   8
HETATM    8  N1  UNL     1     -31.903  90.505 -12.209  1.00  0.00    -0.075 N 
ATOM      9  H13 UNL     1     -32.758  91.060 -12.240  1.00  0.00     0.274 HD
ATOM     10  H12 UNL     1     -31.259  91.240 -11.917  1.00  0.00     0.274 HD
ATOM     11  H11 UNL     1     -31.659  90.126 -13.124  1.00  0.00     0.274 HD
ENDBRANCH   7   8
ENDBRANCH   1   7
BRANCH   4  12
HETATM   12  C6  UNL     1     -27.055  86.508 -10.835  1.00  0.00     0.209 C 
HETATM   13  O1  UNL     1     -26.702  85.673 -11.704  1.00  0.00    -0.644 OA
HETATM   14  O2  UNL     1     -26.230  86.733  -9.750  1.00  0.00    -0.644 OA
ENDBRANCH   4  12
TORSDOF 3
ENDMDL
