MODEL 8
REMARK VINA RESULT: -5.052976806      3.648      4.830
REMARK  3 active torsions:
REMARK  status: ('A' for Active; 'I' for Inactive)
REMARK    1  A    between atoms: N1_1  and  C1_5 
REMARK    2  A    between atoms: C1_5  and  C2_6 
REMARK    3  A    between atoms: C5_9  and  C6_10 
ROOT
HETATM    1  C2  UNL     1     -27.841  86.769 -11.525  1.00  0.00    -0.033 A 
HETATM    2  C3  UNL     1     -28.548  86.698 -10.327  1.00  0.00     0.010 A 
HETATM    3  C4  UNL     1     -29.701  87.431 -10.118  1.00  0.00     0.019 A 
HETATM    4  C5  UNL     1     -30.190  88.266 -11.105  1.00  0.00     0.040 A 
HETATM    5  C7  UNL     1     -29.492  88.335 -12.284  1.00  0.00     0.019 A 
HETATM    6  C8  UNL     1     -28.325  87.599 -12.508  1.00  0.00     0.010 A 
ENDROOT
BRANCH   1   7
HETATM    7  C1  UNL     1     -26.618  85.949 -11.657  1.00  0.00     0.268 C 
BRANCH   7   8
HETATM    8  N1  UNL     1     -25.943  85.855 -10.376  1.00  0.00    -0.075 N 
ATOM      9  H13 UNL     1     -26.104  86.680  -9.799  1.00  0.00     0.274 HD
ATOM     10  H12 UNL     1     -26.374  85.160  -9.767  1.00  0.00     0.274 HD
ATOM     11  H11 UNL     1     -24.950  85.675 -10.519  1.00  0.00     0.274 HD
ENDBRANCH   7   8
ENDBRANCH   1   7
BRANCH   4  12
HETATM   12  C6  UNL     1     -31.398  89.052 -10.923  1.00  0.00     0.209 C 
HETATM   13  O1  UNL     1     -31.874  89.769 -11.837  1.00  0.00    -0.644 OA
HETATM   14  O2  UNL     1     -32.045  89.008  -9.703  1.00  0.00    -0.644 OA
ENDBRANCH   4  12
TORSDOF 3
ENDMDL
