MODEL 7
REMARK VINA RESULT: -5.755019222      1.395      4.339
REMARK  6 active torsions:
REMARK  status: ('A' for Active; 'I' for Inactive)
REMARK    1  A    between atoms: C1_2  and  C2_4 
REMARK    2  A    between atoms: C2_4  and  C3_5 
REMARK    3  A    between atoms: C3_5  and  O3_6 
REMARK    4  A    between atoms: C3_5  and  C4_8 
REMARK    5  A    between atoms: C3_5  and  C6_12 
REMARK    6  A    between atoms: C4_8  and  C5_9 
ROOT
HETATM    1  C3  UNL     1       7.056   0.471   6.173  1.00  0.00     0.164 C 
ENDROOT
BRANCH   1   2
HETATM    2  C2  UNL     1       6.087   1.284   5.405  1.00  0.00     0.163 C 
BRANCH   2   3
HETATM    3  C1  UNL     1       4.719   0.753   5.293  1.00  0.00     0.176 C 
HETATM    4  O1  UNL     1       3.898   1.007   6.205  1.00  0.00    -0.648 OA
HETATM    5  O2  UNL     1       4.252  -0.022   4.242  1.00  0.00    -0.648 OA
ENDBRANCH   2   3
ENDBRANCH   1   2
BRANCH   1   6
HETATM    6  O3  UNL     1       6.431  -0.729   6.528  1.00  0.00    -0.378 OA
ATOM      7  H3  UNL     1       5.934  -0.579   7.323  1.00  0.00     0.211 HD
ENDBRANCH   1   6
BRANCH   1   8
HETATM    8  C4  UNL     1       7.680   1.094   7.369  1.00  0.00     0.163 C 
BRANCH   8   9
HETATM    9  C5  UNL     1       8.813   0.347   7.956  1.00  0.00     0.176 C 
HETATM   10  O4  UNL     1       8.757  -0.895   8.040  1.00  0.00    -0.648 OA
HETATM   11  O5  UNL     1       9.907   1.076   8.395  1.00  0.00    -0.648 OA
ENDBRANCH   8   9
ENDBRANCH   1   8
BRANCH   1  12
HETATM   12  C6  UNL     1       8.170   0.137   5.245  1.00  0.00     0.210 C 
HETATM   13  O6  UNL     1       8.200  -1.007   4.749  1.00  0.00    -0.646 OA
HETATM   14  O7  UNL     1       9.151   1.046   4.925  1.00  0.00    -0.646 OA
ENDBRANCH   1  12
TORSDOF 6
ENDMDL
