MODEL 1
REMARK VINA RESULT: -6.396855034      0.000      0.000
REMARK  6 active torsions:
REMARK  status: ('A' for Active; 'I' for Inactive)
REMARK    1  A    between atoms: C1_2  and  C2_4 
REMARK    2  A    between atoms: C2_4  and  C3_5 
REMARK    3  A    between atoms: C3_5  and  O3_6 
REMARK    4  A    between atoms: C3_5  and  C4_8 
REMARK    5  A    between atoms: C3_5  and  C6_12 
REMARK    6  A    between atoms: C4_8  and  C5_9 
ROOT
HETATM    1  C3  UNL     1       6.688   0.217   6.395  1.00  0.00     0.164 C 
ENDROOT
BRANCH   1   2
HETATM    2  C2  UNL     1       7.833  -0.446   7.057  1.00  0.00     0.163 C 
BRANCH   2   3
HETATM    3  C1  UNL     1       9.076   0.335   7.169  1.00  0.00     0.176 C 
HETATM    4  O1  UNL     1      10.100  -0.078   6.577  1.00  0.00    -0.648 OA
HETATM    5  O2  UNL     1       9.211   1.513   7.888  1.00  0.00    -0.648 OA
ENDBRANCH   2   3
ENDBRANCH   1   2
BRANCH   1   6
HETATM    6  O3  UNL     1       6.488   1.457   7.010  1.00  0.00    -0.378 OA
ATOM      7  H3  UNL     1       7.123   2.069   6.654  1.00  0.00     0.211 HD
ENDBRANCH   1   6
BRANCH   1   8
HETATM    8  C4  UNL     1       5.405  -0.531   6.327  1.00  0.00     0.163 C 
BRANCH   8   9
HETATM    9  C5  UNL     1       4.272   0.205   5.729  1.00  0.00     0.176 C 
HETATM   10  O4  UNL     1       3.770   1.169   6.338  1.00  0.00    -0.648 OA
HETATM   11  O5  UNL     1       3.808  -0.220   4.494  1.00  0.00    -0.648 OA
ENDBRANCH   8   9
ENDBRANCH   1   8
BRANCH   1  12
HETATM   12  C6  UNL     1       7.096   0.477   4.988  1.00  0.00     0.210 C 
HETATM   13  O6  UNL     1       7.454  -0.493   4.290  1.00  0.00    -0.646 OA
HETATM   14  O7  UNL     1       7.087   1.741   4.446  1.00  0.00    -0.646 OA
ENDBRANCH   1  12
TORSDOF 6
ENDMDL
