MODEL 10
REMARK VINA RESULT: -5.631856571      1.381      4.430
REMARK  6 active torsions:
REMARK  status: ('A' for Active; 'I' for Inactive)
REMARK    1  A    between atoms: C1_2  and  C2_4 
REMARK    2  A    between atoms: C2_4  and  C3_5 
REMARK    3  A    between atoms: C3_5  and  O3_6 
REMARK    4  A    between atoms: C3_5  and  C4_8 
REMARK    5  A    between atoms: C3_5  and  C6_12 
REMARK    6  A    between atoms: C4_8  and  C5_9 
ROOT
HETATM    1  C3  UNL     1       5.949   0.336   5.998  1.00  0.00     0.164 C 
ENDROOT
BRANCH   1   2
HETATM    2  C2  UNL     1       4.537   0.737   6.186  1.00  0.00     0.163 C 
BRANCH   2   3
HETATM    3  C1  UNL     1       3.513  -0.157   5.620  1.00  0.00     0.176 C 
HETATM    4  O1  UNL     1       2.727   0.299   4.757  1.00  0.00    -0.648 OA
HETATM    5  O2  UNL     1       3.343  -1.489   5.967  1.00  0.00    -0.648 OA
ENDBRANCH   2   3
ENDBRANCH   1   2
BRANCH   1   6
HETATM    6  O3  UNL     1       6.017  -1.059   6.070  1.00  0.00    -0.378 OA
ATOM      7  H3  UNL     1       5.947  -1.404   5.187  1.00  0.00     0.211 HD
ENDBRANCH   1   6
BRANCH   1   8
HETATM    8  C4  UNL     1       6.962   0.944   6.899  1.00  0.00     0.163 C 
BRANCH   8   9
HETATM    9  C5  UNL     1       8.222   0.186   7.041  1.00  0.00     0.176 C 
HETATM   10  O4  UNL     1       8.221  -0.912   7.629  1.00  0.00    -0.648 OA
HETATM   11  O5  UNL     1       9.373   0.742   6.502  1.00  0.00    -0.648 OA
ENDBRANCH   8   9
ENDBRANCH   1   8
BRANCH   1  12
HETATM   12  C6  UNL     1       6.328   0.731   4.614  1.00  0.00     0.210 C 
HETATM   13  O6  UNL     1       6.976   1.786   4.460  1.00  0.00    -0.646 OA
HETATM   14  O7  UNL     1       5.986  -0.027   3.519  1.00  0.00    -0.646 OA
ENDBRANCH   1  12
TORSDOF 6
ENDMDL
