MODEL 16
REMARK VINA RESULT: -5.371258214      3.677      6.795
REMARK  6 active torsions:
REMARK  status: ('A' for Active; 'I' for Inactive)
REMARK    1  A    between atoms: C1_2  and  C2_4 
REMARK    2  A    between atoms: C2_4  and  C3_5 
REMARK    3  A    between atoms: C3_5  and  O3_6 
REMARK    4  A    between atoms: C3_5  and  C4_8 
REMARK    5  A    between atoms: C3_5  and  C6_12 
REMARK    6  A    between atoms: C4_8  and  C5_9 
ROOT
HETATM    1  C3  UNL     1       1.743  -1.569   5.158  1.00  0.00     0.164 C 
ENDROOT
BRANCH   1   2
HETATM    2  C2  UNL     1       0.385  -1.985   5.578  1.00  0.00     0.163 C 
BRANCH   2   3
HETATM    3  C1  UNL     1       0.025  -3.394   5.350  1.00  0.00     0.176 C 
HETATM    4  O1  UNL     1       0.408  -4.254   6.177  1.00  0.00    -0.648 OA
HETATM    5  O2  UNL     1      -0.718  -3.859   4.276  1.00  0.00    -0.648 OA
ENDBRANCH   2   3
ENDBRANCH   1   2
BRANCH   1   6
HETATM    6  O3  UNL     1       2.625  -2.615   5.445  1.00  0.00    -0.378 OA
ATOM      7  H3  UNL     1       2.559  -2.812   6.372  1.00  0.00     0.211 HD
ENDBRANCH   1   6
BRANCH   1   8
HETATM    8  C4  UNL     1       2.270  -0.292   5.705  1.00  0.00     0.163 C 
BRANCH   8   9
HETATM    9  C5  UNL     1       3.702  -0.035   5.450  1.00  0.00     0.176 C 
HETATM   10  O4  UNL     1       4.563  -0.785   5.949  1.00  0.00    -0.648 OA
HETATM   11  O5  UNL     1       4.031   1.050   4.652  1.00  0.00    -0.648 OA
ENDBRANCH   8   9
ENDBRANCH   1   8
BRANCH   1  12
HETATM   12  C6  UNL     1       1.706  -1.408   3.680  1.00  0.00     0.210 C 
HETATM   13  O6  UNL     1       2.402  -2.177   2.987  1.00  0.00    -0.646 OA
HETATM   14  O7  UNL     1       0.934  -0.449   3.068  1.00  0.00    -0.646 OA
ENDBRANCH   1  12
TORSDOF 6
ENDMDL
