MODEL 14
REMARK VINA RESULT: -5.381177645      3.635      6.744
REMARK  6 active torsions:
REMARK  status: ('A' for Active; 'I' for Inactive)
REMARK    1  A    between atoms: C1_2  and  C2_4 
REMARK    2  A    between atoms: C2_4  and  C3_5 
REMARK    3  A    between atoms: C3_5  and  O3_6 
REMARK    4  A    between atoms: C3_5  and  C4_8 
REMARK    5  A    between atoms: C3_5  and  C6_12 
REMARK    6  A    between atoms: C4_8  and  C5_9 
ROOT
HETATM    1  C3  UNL     1       1.768  -1.477   5.121  1.00  0.00     0.164 C 
ENDROOT
BRANCH   1   2
HETATM    2  C2  UNL     1       0.413  -1.938   5.498  1.00  0.00     0.163 C 
BRANCH   2   3
HETATM    3  C1  UNL     1       0.138  -3.377   5.348  1.00  0.00     0.176 C 
HETATM    4  O1  UNL     1      -0.617  -3.751   4.420  1.00  0.00    -0.648 OA
HETATM    5  O2  UNL     1       0.654  -4.373   6.162  1.00  0.00    -0.648 OA
ENDBRANCH   2   3
ENDBRANCH   1   2
BRANCH   1   6
HETATM    6  O3  UNL     1       2.654  -2.544   5.298  1.00  0.00    -0.378 OA
ATOM      7  H3  UNL     1       3.353  -2.457   4.660  1.00  0.00     0.211 HD
ENDBRANCH   1   6
BRANCH   1   8
HETATM    8  C4  UNL     1       2.292  -0.261   5.795  1.00  0.00     0.163 C 
BRANCH   8   9
HETATM    9  C5  UNL     1       3.714   0.045   5.538  1.00  0.00     0.176 C 
HETATM   10  O4  UNL     1       4.022   1.085   4.925  1.00  0.00    -0.648 OA
HETATM   11  O5  UNL     1       4.661  -0.857   5.998  1.00  0.00    -0.648 OA
ENDBRANCH   8   9
ENDBRANCH   1   8
BRANCH   1  12
HETATM   12  C6  UNL     1       1.728  -1.167   3.667  1.00  0.00     0.210 C 
HETATM   13  O6  UNL     1       0.837  -0.398   3.253  1.00  0.00    -0.646 OA
HETATM   14  O7  UNL     1       2.637  -1.698   2.782  1.00  0.00    -0.646 OA
ENDBRANCH   1  12
TORSDOF 6
ENDMDL
