MODEL 3
REMARK VINA RESULT: -6.326271398      0.858      1.251
REMARK  6 active torsions:
REMARK  status: ('A' for Active; 'I' for Inactive)
REMARK    1  A    between atoms: C1_2  and  C2_4 
REMARK    2  A    between atoms: C2_4  and  C3_5 
REMARK    3  A    between atoms: C3_5  and  O3_6 
REMARK    4  A    between atoms: C3_5  and  C4_8 
REMARK    5  A    between atoms: C3_5  and  C6_12 
REMARK    6  A    between atoms: C4_8  and  C5_9 
ROOT
HETATM    1  C3  UNL     1       6.334   0.136   6.080  1.00  0.00     0.164 C 
ENDROOT
BRANCH   1   2
HETATM    2  C2  UNL     1       7.581  -0.608   6.366  1.00  0.00     0.163 C 
BRANCH   2   3
HETATM    3  C1  UNL     1       8.639   0.123   7.082  1.00  0.00     0.176 C 
HETATM    4  O1  UNL     1       8.768  -0.060   8.315  1.00  0.00    -0.648 OA
HETATM    5  O2  UNL     1       9.524   1.016   6.496  1.00  0.00    -0.648 OA
ENDBRANCH   2   3
ENDBRANCH   1   2
BRANCH   1   6
HETATM    6  O3  UNL     1       6.272   1.229   6.950  1.00  0.00    -0.378 OA
ATOM      7  H3  UNL     1       6.954   1.843   6.702  1.00  0.00     0.211 HD
ENDBRANCH   1   6
BRANCH   1   8
HETATM    8  C4  UNL     1       5.057  -0.622   6.122  1.00  0.00     0.163 C 
BRANCH   8   9
HETATM    9  C5  UNL     1       3.850   0.147   5.754  1.00  0.00     0.176 C 
HETATM   10  O4  UNL     1       3.526   1.146   6.424  1.00  0.00    -0.648 OA
HETATM   11  O5  UNL     1       3.118  -0.287   4.660  1.00  0.00    -0.648 OA
ENDBRANCH   8   9
ENDBRANCH   1   8
BRANCH   1  12
HETATM   12  C6  UNL     1       6.459   0.672   4.698  1.00  0.00     0.210 C 
HETATM   13  O6  UNL     1       6.920   1.822   4.552  1.00  0.00    -0.646 OA
HETATM   14  O7  UNL     1       6.086  -0.060   3.595  1.00  0.00    -0.646 OA
ENDBRANCH   1  12
TORSDOF 6
ENDMDL
