MODEL 5
REMARK VINA RESULT: -5.848483440      1.129      1.262
REMARK  6 active torsions:
REMARK  status: ('A' for Active; 'I' for Inactive)
REMARK    1  A    between atoms: C1_2  and  C2_4 
REMARK    2  A    between atoms: C2_4  and  C3_5 
REMARK    3  A    between atoms: C3_5  and  O3_6 
REMARK    4  A    between atoms: C3_5  and  C4_8 
REMARK    5  A    between atoms: C3_5  and  C6_12 
REMARK    6  A    between atoms: C4_8  and  C5_9 
ROOT
HETATM    1  C3  UNL     1       7.428   0.142   6.431  1.00  0.00     0.164 C 
ENDROOT
BRANCH   1   2
HETATM    2  C2  UNL     1       8.304  -0.498   7.438  1.00  0.00     0.163 C 
BRANCH   2   3
HETATM    3  C1  UNL     1       9.206   0.390   8.190  1.00  0.00     0.176 C 
HETATM    4  O1  UNL     1       9.448   0.124   9.391  1.00  0.00    -0.648 OA
HETATM    5  O2  UNL     1       9.824   1.518   7.672  1.00  0.00    -0.648 OA
ENDBRANCH   2   3
ENDBRANCH   1   2
BRANCH   1   6
HETATM    6  O3  UNL     1       7.269   1.486   6.785  1.00  0.00    -0.378 OA
ATOM      7  H3  UNL     1       6.661   1.883   6.172  1.00  0.00     0.211 HD
ENDBRANCH   1   6
BRANCH   1   8
HETATM    8  C4  UNL     1       6.103  -0.480   6.178  1.00  0.00     0.163 C 
BRANCH   8   9
HETATM    9  C5  UNL     1       5.082   0.415   5.594  1.00  0.00     0.176 C 
HETATM   10  O4  UNL     1       4.545   1.286   6.303  1.00  0.00    -0.648 OA
HETATM   11  O5  UNL     1       4.762   0.240   4.256  1.00  0.00    -0.648 OA
ENDBRANCH   8   9
ENDBRANCH   1   8
BRANCH   1  12
HETATM   12  C6  UNL     1       8.162   0.105   5.137  1.00  0.00     0.210 C 
HETATM   13  O6  UNL     1       7.916  -0.828   4.347  1.00  0.00    -0.646 OA
HETATM   14  O7  UNL     1       9.090   1.062   4.797  1.00  0.00    -0.646 OA
ENDBRANCH   1  12
TORSDOF 6
ENDMDL
