MODEL 18
REMARK VINA RESULT: -6.306557176      1.968      6.793
REMARK  4 active torsions:
REMARK  status: ('A' for Active; 'I' for Inactive)
REMARK    1  A    between atoms: C2_3  and  C3_4 
REMARK    2  A    between atoms: C6_7  and  O2_8 
REMARK    3  A    between atoms: C12_16  and  O4_17 
REMARK    4  A    between atoms: C14_20  and  O5_21 
ROOT
HETATM    1  O1  UNL     1      20.356  41.194  37.134  1.00  0.00    -0.286 OA
HETATM    2  C1  UNL     1      21.253  42.033  36.931  1.00  0.00     0.200 A 
HETATM    3  C2  UNL     1      21.897  42.526  38.043  1.00  0.00     0.048 A 
HETATM    4  C9  UNL     1      22.889  43.451  37.824  1.00  0.00     0.159 A 
HETATM    5  O3  UNL     1      23.201  43.840  36.616  1.00  0.00    -0.321 OA
HETATM    6  C10 UNL     1      22.608  43.390  35.525  1.00  0.00     0.094 A 
HETATM    7  C11 UNL     1      23.000  43.856  34.279  1.00  0.00     0.074 A 
HETATM    8  C12 UNL     1      22.364  43.368  33.170  1.00  0.00     0.071 A 
HETATM    9  C13 UNL     1      21.364  42.444  33.295  1.00  0.00     0.074 A 
HETATM   10  C14 UNL     1      20.942  41.951  34.543  1.00  0.00     0.085 A 
HETATM   11  C15 UNL     1      21.596  42.456  35.639  1.00  0.00     0.082 A 
ENDROOT
BRANCH   3  12
HETATM   12  C3  UNL     1      21.577  42.118  39.400  1.00  0.00    -0.020 A 
HETATM   13  C4  UNL     1      20.525  42.692  40.097  1.00  0.00     0.015 A 
HETATM   14  C5  UNL     1      20.241  42.297  41.365  1.00  0.00     0.037 A 
HETATM   15  C6  UNL     1      20.989  41.326  41.969  1.00  0.00     0.065 A 
HETATM   16  C7  UNL     1      22.036  40.744  41.298  1.00  0.00     0.037 A 
HETATM   17  C8  UNL     1      22.322  41.142  40.024  1.00  0.00     0.015 A 
BRANCH  15  18
HETATM   18  O2  UNL     1      20.662  40.949  43.276  1.00  0.00    -0.361 OA
ATOM     19  H2  UNL     1      20.899  40.076  43.568  1.00  0.00     0.217 HD
ENDBRANCH  15  18
ENDBRANCH   3  12
BRANCH  10  20
HETATM   20  O5  UNL     1      19.951  41.038  34.616  1.00  0.00    -0.360 OA
ATOM     21  H5  UNL     1      20.145  40.136  34.840  1.00  0.00     0.217 HD
ENDBRANCH  10  20
BRANCH   8  22
HETATM   22  O4  UNL     1      22.745  43.827  31.888  1.00  0.00    -0.361 OA
ATOM     23  H4  UNL     1      23.373  43.328  31.379  1.00  0.00     0.217 HD
ENDBRANCH   8  22
TORSDOF 4
ENDMDL
