MODEL 9
REMARK VINA RESULT: -6.757975250      1.450      6.753
REMARK  4 active torsions:
REMARK  status: ('A' for Active; 'I' for Inactive)
REMARK    1  A    between atoms: C2_3  and  C3_4 
REMARK    2  A    between atoms: C6_7  and  O2_8 
REMARK    3  A    between atoms: C12_16  and  O4_17 
REMARK    4  A    between atoms: C14_20  and  O5_21 
ROOT
HETATM    1  O1  UNL     1      20.093  41.423  38.614  1.00  0.00    -0.286 OA
HETATM    2  C1  UNL     1      21.002  42.072  38.064  1.00  0.00     0.200 A 
HETATM    3  C2  UNL     1      21.890  42.714  38.897  1.00  0.00     0.048 A 
HETATM    4  C9  UNL     1      22.895  43.431  38.295  1.00  0.00     0.159 A 
HETATM    5  O3  UNL     1      22.997  43.497  36.993  1.00  0.00    -0.321 OA
HETATM    6  C10 UNL     1      22.166  42.895  36.161  1.00  0.00     0.094 A 
HETATM    7  C11 UNL     1      22.346  43.016  34.792  1.00  0.00     0.074 A 
HETATM    8  C12 UNL     1      21.466  42.379  33.959  1.00  0.00     0.071 A 
HETATM    9  C13 UNL     1      20.436  41.643  34.472  1.00  0.00     0.074 A 
HETATM   10  C14 UNL     1      20.225  41.500  35.856  1.00  0.00     0.085 A 
HETATM   11  C15 UNL     1      21.120  42.148  36.669  1.00  0.00     0.082 A 
ENDROOT
BRANCH   3  12
HETATM   12  C3  UNL     1      21.807  42.664  40.346  1.00  0.00    -0.020 A 
HETATM   13  C4  UNL     1      21.831  41.459  41.029  1.00  0.00     0.015 A 
HETATM   14  C5  UNL     1      21.752  41.433  42.385  1.00  0.00     0.037 A 
HETATM   15  C6  UNL     1      21.650  42.597  43.093  1.00  0.00     0.065 A 
HETATM   16  C7  UNL     1      21.624  43.803  42.437  1.00  0.00     0.037 A 
HETATM   17  C8  UNL     1      21.703  43.829  41.075  1.00  0.00     0.015 A 
BRANCH  15  18
HETATM   18  O2  UNL     1      21.573  42.525  44.488  1.00  0.00    -0.361 OA
ATOM     19  H2  UNL     1      21.129  43.224  44.954  1.00  0.00     0.217 HD
ENDBRANCH  15  18
ENDBRANCH   3  12
BRANCH  10  20
HETATM   20  O5  UNL     1      19.193  40.762  36.316  1.00  0.00    -0.360 OA
ATOM     21  H5  UNL     1      18.616  41.108  36.985  1.00  0.00     0.217 HD
ENDBRANCH  10  20
BRANCH   8  22
HETATM   22  O4  UNL     1      21.628  42.487  32.558  1.00  0.00    -0.361 OA
ATOM     23  H4  UNL     1      22.344  42.030  32.132  1.00  0.00     0.217 HD
ENDBRANCH   8  22
TORSDOF 4
ENDMDL
