MODEL 17
REMARK VINA RESULT: -6.327018517      2.105      6.849
REMARK  4 active torsions:
REMARK  status: ('A' for Active; 'I' for Inactive)
REMARK    1  A    between atoms: C2_3  and  C3_4 
REMARK    2  A    between atoms: C6_7  and  O2_8 
REMARK    3  A    between atoms: C12_16  and  O4_17 
REMARK    4  A    between atoms: C14_20  and  O5_21 
ROOT
HETATM    1  O1  UNL     1      20.538  41.178  36.799  1.00  0.00    -0.286 OA
HETATM    2  C1  UNL     1      21.409  42.051  36.631  1.00  0.00     0.200 A 
HETATM    3  C2  UNL     1      22.028  42.528  37.764  1.00  0.00     0.048 A 
HETATM    4  C9  UNL     1      22.991  43.491  37.584  1.00  0.00     0.159 A 
HETATM    5  O3  UNL     1      23.299  43.929  36.392  1.00  0.00    -0.321 OA
HETATM    6  C10 UNL     1      22.729  43.496  35.281  1.00  0.00     0.094 A 
HETATM    7  C11 UNL     1      23.115  44.015  34.054  1.00  0.00     0.074 A 
HETATM    8  C12 UNL     1      22.504  43.544  32.925  1.00  0.00     0.071 A 
HETATM    9  C13 UNL     1      21.534  42.585  33.011  1.00  0.00     0.074 A 
HETATM   10  C14 UNL     1      21.118  42.038  34.239  1.00  0.00     0.085 A 
HETATM   11  C15 UNL     1      21.748  42.527  35.356  1.00  0.00     0.082 A 
ENDROOT
BRANCH   3  12
HETATM   12  C3  UNL     1      21.711  42.066  39.104  1.00  0.00    -0.020 A 
HETATM   13  C4  UNL     1      22.492  41.115  39.743  1.00  0.00     0.015 A 
HETATM   14  C5  UNL     1      22.178  40.696  40.997  1.00  0.00     0.037 A 
HETATM   15  C6  UNL     1      21.091  41.209  41.645  1.00  0.00     0.065 A 
HETATM   16  C7  UNL     1      20.304  42.153  41.031  1.00  0.00     0.037 A 
HETATM   17  C8  UNL     1      20.618  42.573  39.772  1.00  0.00     0.015 A 
BRANCH  15  18
HETATM   18  O2  UNL     1      20.805  40.750  42.935  1.00  0.00    -0.361 OA
ATOM     19  H2  UNL     1      21.352  41.048  43.653  1.00  0.00     0.217 HD
ENDBRANCH  15  18
ENDBRANCH   3  12
BRANCH  10  20
HETATM   20  O5  UNL     1      20.157  41.092  34.274  1.00  0.00    -0.360 OA
ATOM     21  H5  UNL     1      20.339  40.235  34.640  1.00  0.00     0.217 HD
ENDBRANCH  10  20
BRANCH   8  22
HETATM   22  O4  UNL     1      22.880  44.056  31.661  1.00  0.00    -0.361 OA
ATOM     23  H4  UNL     1      23.609  44.661  31.599  1.00  0.00     0.217 HD
ENDBRANCH   8  22
TORSDOF 4
ENDMDL
