MODEL 2
REMARK VINA RESULT: -7.640525563      0.027      1.062
REMARK  4 active torsions:
REMARK  status: ('A' for Active; 'I' for Inactive)
REMARK    1  A    between atoms: C2_3  and  C3_4 
REMARK    2  A    between atoms: C6_7  and  O2_8 
REMARK    3  A    between atoms: C12_16  and  O4_17 
REMARK    4  A    between atoms: C14_20  and  O5_21 
ROOT
HETATM    1  O1  UNL     1      20.701  44.222  38.098  1.00  0.00    -0.286 OA
HETATM    2  C1  UNL     1      21.286  43.279  38.662  1.00  0.00     0.200 A 
HETATM    3  C2  UNL     1      21.817  42.307  37.845  1.00  0.00     0.048 A 
HETATM    4  C9  UNL     1      22.464  41.265  38.463  1.00  0.00     0.159 A 
HETATM    5  O3  UNL     1      22.567  41.205  39.765  1.00  0.00    -0.321 OA
HETATM    6  C10 UNL     1      22.073  42.118  40.582  1.00  0.00     0.094 A 
HETATM    7  C11 UNL     1      22.226  41.978  41.953  1.00  0.00     0.074 A 
HETATM    8  C12 UNL     1      21.700  42.942  42.770  1.00  0.00     0.071 A 
HETATM    9  C13 UNL     1      21.040  44.014  42.240  1.00  0.00     0.074 A 
HETATM   10  C14 UNL     1      20.866  44.186  40.855  1.00  0.00     0.085 A 
HETATM   11  C15 UNL     1      21.402  43.206  40.058  1.00  0.00     0.082 A 
ENDROOT
BRANCH   3  12
HETATM   12  C3  UNL     1      21.721  42.340  36.396  1.00  0.00    -0.020 A 
HETATM   13  C4  UNL     1      22.594  43.099  35.632  1.00  0.00     0.015 A 
HETATM   14  C5  UNL     1      22.488  43.117  34.278  1.00  0.00     0.037 A 
HETATM   15  C6  UNL     1      21.521  42.383  33.652  1.00  0.00     0.065 A 
HETATM   16  C7  UNL     1      20.645  41.624  34.388  1.00  0.00     0.037 A 
HETATM   17  C8  UNL     1      20.751  41.607  35.748  1.00  0.00     0.015 A 
BRANCH  15  18
HETATM   18  O2  UNL     1      21.448  42.429  32.255  1.00  0.00    -0.361 OA
ATOM     19  H2  UNL     1      20.669  42.797  31.854  1.00  0.00     0.217 HD
ENDBRANCH  15  18
ENDBRANCH   3  12
BRANCH  10  20
HETATM   20  O5  UNL     1      20.207  45.262  40.378  1.00  0.00    -0.360 OA
ATOM     21  H5  UNL     1      19.440  45.151  39.829  1.00  0.00     0.217 HD
ENDBRANCH  10  20
BRANCH   8  22
HETATM   22  O4  UNL     1      21.844  42.823  44.173  1.00  0.00    -0.361 OA
ATOM     23  H4  UNL     1      22.464  43.378  44.629  1.00  0.00     0.217 HD
ENDBRANCH   8  22
TORSDOF 4
ENDMDL
