MODEL 3
REMARK VINA RESULT: -7.635152610      0.879      2.295
REMARK  4 active torsions:
REMARK  status: ('A' for Active; 'I' for Inactive)
REMARK    1  A    between atoms: C2_3  and  C3_4 
REMARK    2  A    between atoms: C6_7  and  O2_8 
REMARK    3  A    between atoms: C12_16  and  O4_17 
REMARK    4  A    between atoms: C14_20  and  O5_21 
ROOT
HETATM    1  O1  UNL     1      22.402  40.858  38.334  1.00  0.00    -0.286 OA
HETATM    2  C1  UNL     1      21.883  41.851  38.879  1.00  0.00     0.200 A 
HETATM    3  C2  UNL     1      21.416  42.838  38.041  1.00  0.00     0.048 A 
HETATM    4  C9  UNL     1      20.842  43.935  38.637  1.00  0.00     0.159 A 
HETATM    5  O3  UNL     1      20.747  44.029  39.937  1.00  0.00    -0.321 OA
HETATM    6  C10 UNL     1      21.181  43.103  40.774  1.00  0.00     0.094 A 
HETATM    7  C11 UNL     1      21.042  43.282  42.142  1.00  0.00     0.074 A 
HETATM    8  C12 UNL     1      21.503  42.303  42.979  1.00  0.00     0.071 A 
HETATM    9  C13 UNL     1      22.089  41.178  42.471  1.00  0.00     0.074 A 
HETATM   10  C14 UNL     1      22.246  40.965  41.090  1.00  0.00     0.085 A 
HETATM   11  C15 UNL     1      21.775  41.961  40.273  1.00  0.00     0.082 A 
ENDROOT
BRANCH   3  12
HETATM   12  C3  UNL     1      21.506  42.768  36.593  1.00  0.00    -0.020 A 
HETATM   13  C4  UNL     1      20.599  42.029  35.849  1.00  0.00     0.015 A 
HETATM   14  C5  UNL     1      20.699  41.976  34.496  1.00  0.00     0.037 A 
HETATM   15  C6  UNL     1      21.695  42.653  33.850  1.00  0.00     0.065 A 
HETATM   16  C7  UNL     1      22.605  43.391  34.566  1.00  0.00     0.037 A 
HETATM   17  C8  UNL     1      22.504  43.444  35.926  1.00  0.00     0.015 A 
BRANCH  15  18
HETATM   18  O2  UNL     1      21.761  42.571  32.455  1.00  0.00    -0.361 OA
ATOM     19  H2  UNL     1      21.446  43.307  31.943  1.00  0.00     0.217 HD
ENDBRANCH  15  18
ENDBRANCH   3  12
BRANCH  10  20
HETATM   20  O5  UNL     1      22.831  39.836  40.636  1.00  0.00    -0.360 OA
ATOM     21  H5  UNL     1      23.776  39.743  40.657  1.00  0.00     0.217 HD
ENDBRANCH  10  20
BRANCH   8  22
HETATM   22  O4  UNL     1      21.372  42.462  44.378  1.00  0.00    -0.361 OA
ATOM     23  H4  UNL     1      20.539  42.276  44.795  1.00  0.00     0.217 HD
ENDBRANCH   8  22
TORSDOF 4
ENDMDL
