MODEL 1
REMARK VINA RESULT: -7.646803644      0.000      0.000
REMARK  4 active torsions:
REMARK  status: ('A' for Active; 'I' for Inactive)
REMARK    1  A    between atoms: C2_3  and  C3_4 
REMARK    2  A    between atoms: C6_7  and  O2_8 
REMARK    3  A    between atoms: C12_16  and  O4_17 
REMARK    4  A    between atoms: C14_20  and  O5_21 
ROOT
HETATM    1  O1  UNL     1      20.681  44.218  38.083  1.00  0.00    -0.286 OA
HETATM    2  C1  UNL     1      21.277  43.282  38.649  1.00  0.00     0.200 A 
HETATM    3  C2  UNL     1      21.815  42.313  37.834  1.00  0.00     0.048 A 
HETATM    4  C9  UNL     1      22.474  41.279  38.454  1.00  0.00     0.159 A 
HETATM    5  O3  UNL     1      22.581  41.224  39.755  1.00  0.00    -0.321 OA
HETATM    6  C10 UNL     1      22.079  42.134  40.571  1.00  0.00     0.094 A 
HETATM    7  C11 UNL     1      22.237  42.001  41.942  1.00  0.00     0.074 A 
HETATM    8  C12 UNL     1      21.704  42.962  42.757  1.00  0.00     0.071 A 
HETATM    9  C13 UNL     1      21.032  44.026  42.226  1.00  0.00     0.074 A 
HETATM   10  C14 UNL     1      20.853  44.192  40.840  1.00  0.00     0.085 A 
HETATM   11  C15 UNL     1      21.397  43.215  40.045  1.00  0.00     0.082 A 
ENDROOT
BRANCH   3  12
HETATM   12  C3  UNL     1      21.715  42.340  36.385  1.00  0.00    -0.020 A 
HETATM   13  C4  UNL     1      20.735  41.625  35.715  1.00  0.00     0.015 A 
HETATM   14  C5  UNL     1      20.658  41.664  34.360  1.00  0.00     0.037 A 
HETATM   15  C6  UNL     1      21.547  42.410  33.639  1.00  0.00     0.065 A 
HETATM   16  C7  UNL     1      22.526  43.127  34.281  1.00  0.00     0.037 A 
HETATM   17  C8  UNL     1      22.604  43.088  35.643  1.00  0.00     0.015 A 
BRANCH  15  18
HETATM   18  O2  UNL     1      21.431  42.422  32.244  1.00  0.00    -0.361 OA
ATOM     19  H2  UNL     1      21.753  41.673  31.757  1.00  0.00     0.217 HD
ENDBRANCH  15  18
ENDBRANCH   3  12
BRANCH  10  20
HETATM   20  O5  UNL     1      20.182  45.260  40.362  1.00  0.00    -0.360 OA
ATOM     21  H5  UNL     1      19.771  45.226  39.507  1.00  0.00     0.217 HD
ENDBRANCH  10  20
BRANCH   8  22
HETATM   22  O4  UNL     1      21.852  42.848  44.160  1.00  0.00    -0.361 OA
ATOM     23  H4  UNL     1      21.418  43.473  44.728  1.00  0.00     0.217 HD
ENDBRANCH   8  22
TORSDOF 4
ENDMDL
