MODEL 10
REMARK VINA RESULT: -7.065247853      1.355      6.707
REMARK  4 active torsions:
REMARK  status: ('A' for Active; 'I' for Inactive)
REMARK    1  A    between atoms: C2_3  and  C3_4 
REMARK    2  A    between atoms: C6_7  and  O2_8 
REMARK    3  A    between atoms: C12_16  and  O4_17 
REMARK    4  A    between atoms: C14_20  and  O5_21 
ROOT
HETATM    1  O1  UNL     1       1.510  -1.237  -6.872  1.00  0.00    -0.286 OA
HETATM    2  C1  UNL     1       0.653  -0.528  -6.312  1.00  0.00     0.200 A 
HETATM    3  C2  UNL     1      -0.193   0.180  -7.135  1.00  0.00     0.048 A 
HETATM    4  C9  UNL     1      -1.141   0.962  -6.522  1.00  0.00     0.159 A 
HETATM    5  O3  UNL     1      -1.230   1.027  -5.220  1.00  0.00    -0.321 OA
HETATM    6  C10 UNL     1      -0.439   0.363  -4.397  1.00  0.00     0.094 A 
HETATM    7  C11 UNL     1      -0.601   0.488  -3.025  1.00  0.00     0.074 A 
HETATM    8  C12 UNL     1       0.237  -0.214  -2.203  1.00  0.00     0.071 A 
HETATM    9  C13 UNL     1       1.210  -1.018  -2.727  1.00  0.00     0.074 A 
HETATM   10  C14 UNL     1       1.402  -1.167  -4.113  1.00  0.00     0.085 A 
HETATM   11  C15 UNL     1       0.549  -0.453  -4.916  1.00  0.00     0.082 A 
ENDROOT
BRANCH   3  12
HETATM   12  C3  UNL     1      -0.123   0.133  -8.586  1.00  0.00    -0.020 A 
HETATM   13  C4  UNL     1       0.064   1.283  -9.336  1.00  0.00     0.015 A 
HETATM   14  C5  UNL     1       0.127   1.219 -10.692  1.00  0.00     0.037 A 
HETATM   15  C6  UNL     1       0.008   0.018 -11.332  1.00  0.00     0.065 A 
HETATM   16  C7  UNL     1      -0.178  -1.135 -10.609  1.00  0.00     0.037 A 
HETATM   17  C8  UNL     1      -0.242  -1.070  -9.247  1.00  0.00     0.015 A 
BRANCH  15  18
HETATM   18  O2  UNL     1       0.080  -0.003 -12.729  1.00  0.00    -0.361 OA
ATOM     19  H2  UNL     1      -0.325  -0.727 -13.193  1.00  0.00     0.217 HD
ENDBRANCH  15  18
ENDBRANCH   3  12
BRANCH  10  20
HETATM   20  O5  UNL     1       2.376  -1.973  -4.584  1.00  0.00    -0.360 OA
ATOM     21  H5  UNL     1       2.573  -1.996  -5.513  1.00  0.00     0.217 HD
ENDBRANCH  10  20
BRANCH   8  22
HETATM   22  O4  UNL     1       0.092  -0.104  -0.800  1.00  0.00    -0.361 OA
ATOM     23  H4  UNL     1       0.830  -0.302  -0.235  1.00  0.00     0.217 HD
ENDBRANCH   8  22
TORSDOF 4
ENDMDL
