MODEL 8
REMARK VINA RESULT: -7.088436047      1.350      6.684
REMARK  4 active torsions:
REMARK  status: ('A' for Active; 'I' for Inactive)
REMARK    1  A    between atoms: C2_3  and  C3_4 
REMARK    2  A    between atoms: C6_7  and  O2_8 
REMARK    3  A    between atoms: C12_16  and  O4_17 
REMARK    4  A    between atoms: C14_20  and  O5_21 
ROOT
HETATM    1  O1  UNL     1       1.495  -1.231  -6.838  1.00  0.00    -0.286 OA
HETATM    2  C1  UNL     1       0.630  -0.524  -6.289  1.00  0.00     0.200 A 
HETATM    3  C2  UNL     1      -0.214   0.173  -7.124  1.00  0.00     0.048 A 
HETATM    4  C9  UNL     1      -1.171   0.955  -6.523  1.00  0.00     0.159 A 
HETATM    5  O3  UNL     1      -1.270   1.028  -5.222  1.00  0.00    -0.321 OA
HETATM    6  C10 UNL     1      -0.481   0.375  -4.389  1.00  0.00     0.094 A 
HETATM    7  C11 UNL     1      -0.653   0.509  -3.019  1.00  0.00     0.074 A 
HETATM    8  C12 UNL     1       0.182  -0.183  -2.185  1.00  0.00     0.071 A 
HETATM    9  C13 UNL     1       1.164  -0.984  -2.697  1.00  0.00     0.074 A 
HETATM   10  C14 UNL     1       1.366  -1.143  -4.080  1.00  0.00     0.085 A 
HETATM   11  C15 UNL     1       0.515  -0.439  -4.894  1.00  0.00     0.082 A 
ENDROOT
BRANCH   3  12
HETATM   12  C3  UNL     1      -0.134   0.117  -8.573  1.00  0.00    -0.020 A 
HETATM   13  C4  UNL     1      -0.288  -1.079  -9.258  1.00  0.00     0.015 A 
HETATM   14  C5  UNL     1      -0.209  -1.111 -10.614  1.00  0.00     0.037 A 
HETATM   15  C6  UNL     1       0.022   0.036 -11.320  1.00  0.00     0.065 A 
HETATM   16  C7  UNL     1       0.177   1.232 -10.662  1.00  0.00     0.037 A 
HETATM   17  C8  UNL     1       0.099   1.264  -9.300  1.00  0.00     0.015 A 
BRANCH  15  18
HETATM   18  O2  UNL     1       0.094  -0.042 -12.715  1.00  0.00    -0.361 OA
ATOM     19  H2  UNL     1      -0.540  -0.582 -13.172  1.00  0.00     0.217 HD
ENDBRANCH  15  18
ENDBRANCH   3  12
BRANCH  10  20
HETATM   20  O5  UNL     1       2.348  -1.946  -4.538  1.00  0.00    -0.360 OA
ATOM     21  H5  UNL     1       2.495  -2.042  -5.472  1.00  0.00     0.217 HD
ENDBRANCH  10  20
BRANCH   8  22
HETATM   22  O4  UNL     1       0.027  -0.063  -0.784  1.00  0.00    -0.361 OA
ATOM     23  H4  UNL     1      -0.116   0.793  -0.400  1.00  0.00     0.217 HD
ENDBRANCH   8  22
TORSDOF 4
ENDMDL
