MODEL 2
REMARK VINA RESULT: -7.698433160      0.804      2.260
REMARK  4 active torsions:
REMARK  status: ('A' for Active; 'I' for Inactive)
REMARK    1  A    between atoms: C2_3  and  C3_4 
REMARK    2  A    between atoms: C6_7  and  O2_8 
REMARK    3  A    between atoms: C12_16  and  O4_17 
REMARK    4  A    between atoms: C14_20  and  O5_21 
ROOT
HETATM    1  O1  UNL     1       0.502   1.788  -6.818  1.00  0.00    -0.286 OA
HETATM    2  C1  UNL     1       0.163   0.720  -7.362  1.00  0.00     0.200 A 
HETATM    3  C2  UNL     1      -0.144  -0.327  -6.523  1.00  0.00     0.048 A 
HETATM    4  C9  UNL     1      -0.520  -1.507  -7.119  1.00  0.00     0.159 A 
HETATM    5  O3  UNL     1      -0.581  -1.622  -8.420  1.00  0.00    -0.321 OA
HETATM    6  C10 UNL     1      -0.296  -0.640  -9.257  1.00  0.00     0.094 A 
HETATM    7  C11 UNL     1      -0.386  -0.847 -10.625  1.00  0.00     0.074 A 
HETATM    8  C12 UNL     1      -0.083   0.192 -11.463  1.00  0.00     0.071 A 
HETATM    9  C13 UNL     1       0.301   1.401 -10.956  1.00  0.00     0.074 A 
HETATM   10  C14 UNL     1       0.403   1.644  -9.575  1.00  0.00     0.085 A 
HETATM   11  C15 UNL     1       0.093   0.587  -8.756  1.00  0.00     0.082 A 
ENDROOT
BRANCH   3  12
HETATM   12  C3  UNL     1      -0.086  -0.236  -5.075  1.00  0.00    -0.020 A 
HETATM   13  C4  UNL     1       1.007  -0.708  -4.365  1.00  0.00     0.015 A 
HETATM   14  C5  UNL     1       1.042  -0.614  -3.011  1.00  0.00     0.037 A 
HETATM   15  C6  UNL     1      -0.000  -0.050  -2.331  1.00  0.00     0.065 A 
HETATM   16  C7  UNL     1      -1.094   0.424  -3.013  1.00  0.00     0.037 A 
HETATM   17  C8  UNL     1      -1.129   0.329  -4.374  1.00  0.00     0.015 A 
BRANCH  15  18
HETATM   18  O2  UNL     1       0.077   0.027  -0.936  1.00  0.00    -0.361 OA
ATOM     19  H2  UNL     1       0.059   0.886  -0.528  1.00  0.00     0.217 HD
ENDBRANCH  15  18
ENDBRANCH   3  12
BRANCH  10  20
HETATM   20  O5  UNL     1       0.785   2.856  -9.121  1.00  0.00    -0.360 OA
ATOM     21  H5  UNL     1       0.209   3.364  -8.564  1.00  0.00     0.217 HD
ENDBRANCH  10  20
BRANCH   8  22
HETATM   22  O4  UNL     1      -0.168   0.007 -12.863  1.00  0.00    -0.361 OA
ATOM     23  H4  UNL     1       0.610   0.114 -13.398  1.00  0.00     0.217 HD
ENDBRANCH   8  22
TORSDOF 4
ENDMDL
