MODEL 1
REMARK VINA RESULT: -7.713465412      0.000      0.000
REMARK  4 active torsions:
REMARK  status: ('A' for Active; 'I' for Inactive)
REMARK    1  A    between atoms: C2_3  and  C3_4 
REMARK    2  A    between atoms: C6_7  and  O2_8 
REMARK    3  A    between atoms: C12_16  and  O4_17 
REMARK    4  A    between atoms: C14_20  and  O5_21 
ROOT
HETATM    1  O1  UNL     1      -0.480  -1.833  -6.750  1.00  0.00    -0.286 OA
HETATM    2  C1  UNL     1      -0.148  -0.768  -7.302  1.00  0.00     0.200 A 
HETATM    3  C2  UNL     1       0.161   0.285  -6.470  1.00  0.00     0.048 A 
HETATM    4  C9  UNL     1       0.529   1.463  -7.073  1.00  0.00     0.159 A 
HETATM    5  O3  UNL     1       0.582   1.572  -8.374  1.00  0.00    -0.321 OA
HETATM    6  C10 UNL     1       0.295   0.586  -9.205  1.00  0.00     0.094 A 
HETATM    7  C11 UNL     1       0.376   0.786 -10.575  1.00  0.00     0.074 A 
HETATM    8  C12 UNL     1       0.071  -0.257 -11.406  1.00  0.00     0.071 A 
HETATM    9  C13 UNL     1      -0.305  -1.466 -10.892  1.00  0.00     0.074 A 
HETATM   10  C14 UNL     1      -0.398  -1.703  -9.508  1.00  0.00     0.085 A 
HETATM   11  C15 UNL     1      -0.087  -0.641  -8.697  1.00  0.00     0.082 A 
ENDROOT
BRANCH   3  12
HETATM   12  C3  UNL     1       0.112   0.200  -5.020  1.00  0.00    -0.020 A 
HETATM   13  C4  UNL     1       1.146  -0.372  -4.296  1.00  0.00     0.015 A 
HETATM   14  C5  UNL     1       1.082  -0.441  -2.941  1.00  0.00     0.037 A 
HETATM   15  C6  UNL     1      -0.003   0.055  -2.275  1.00  0.00     0.065 A 
HETATM   16  C7  UNL     1      -1.039   0.626  -2.972  1.00  0.00     0.037 A 
HETATM   17  C8  UNL     1      -0.975   0.695  -4.333  1.00  0.00     0.015 A 
BRANCH  15  18
HETATM   18  O2  UNL     1      -0.027  -0.037  -0.879  1.00  0.00    -0.361 OA
ATOM     19  H2  UNL     1      -0.168  -0.889  -0.483  1.00  0.00     0.217 HD
ENDBRANCH  15  18
ENDBRANCH   3  12
BRANCH  10  20
HETATM   20  O5  UNL     1      -0.774  -2.914  -9.047  1.00  0.00    -0.360 OA
ATOM     21  H5  UNL     1      -0.128  -3.517  -8.699  1.00  0.00     0.217 HD
ENDBRANCH  10  20
BRANCH   8  22
HETATM   22  O4  UNL     1       0.147  -0.079 -12.808  1.00  0.00    -0.361 OA
ATOM     23  H4  UNL     1       0.460  -0.789 -13.354  1.00  0.00     0.217 HD
ENDBRANCH   8  22
TORSDOF 4
ENDMDL
