MODEL 3
REMARK VINA RESULT: -7.695565839      0.019      1.062
REMARK  4 active torsions:
REMARK  status: ('A' for Active; 'I' for Inactive)
REMARK    1  A    between atoms: C2_3  and  C3_4 
REMARK    2  A    between atoms: C6_7  and  O2_8 
REMARK    3  A    between atoms: C12_16  and  O4_17 
REMARK    4  A    between atoms: C14_20  and  O5_21 
ROOT
HETATM    1  O1  UNL     1      -0.497  -1.826  -6.740  1.00  0.00    -0.286 OA
HETATM    2  C1  UNL     1      -0.158  -0.763  -7.294  1.00  0.00     0.200 A 
HETATM    3  C2  UNL     1       0.151   0.291  -6.464  1.00  0.00     0.048 A 
HETATM    4  C9  UNL     1       0.526   1.465  -7.070  1.00  0.00     0.159 A 
HETATM    5  O3  UNL     1       0.583   1.571  -8.371  1.00  0.00    -0.321 OA
HETATM    6  C10 UNL     1       0.295   0.583  -9.200  1.00  0.00     0.094 A 
HETATM    7  C11 UNL     1       0.381   0.779 -10.570  1.00  0.00     0.074 A 
HETATM    8  C12 UNL     1       0.076  -0.265 -11.399  1.00  0.00     0.071 A 
HETATM    9  C13 UNL     1      -0.307  -1.471 -10.882  1.00  0.00     0.074 A 
HETATM   10  C14 UNL     1      -0.405  -1.703  -9.499  1.00  0.00     0.085 A 
HETATM   11  C15 UNL     1      -0.093  -0.640  -8.689  1.00  0.00     0.082 A 
ENDROOT
BRANCH   3  12
HETATM   12  C3  UNL     1       0.098   0.211  -5.014  1.00  0.00    -0.020 A 
HETATM   13  C4  UNL     1      -0.990   0.695  -4.305  1.00  0.00     0.015 A 
HETATM   14  C5  UNL     1      -1.021   0.611  -2.949  1.00  0.00     0.037 A 
HETATM   15  C6  UNL     1       0.020   0.045  -2.269  1.00  0.00     0.065 A 
HETATM   16  C7  UNL     1       1.108  -0.441  -2.951  1.00  0.00     0.037 A 
HETATM   17  C8  UNL     1       1.139  -0.356  -4.313  1.00  0.00     0.015 A 
BRANCH  15  18
HETATM   18  O2  UNL     1      -0.054  -0.022  -0.873  1.00  0.00    -0.361 OA
ATOM     19  H2  UNL     1      -0.321  -0.841  -0.472  1.00  0.00     0.217 HD
ENDBRANCH  15  18
ENDBRANCH   3  12
BRANCH  10  20
HETATM   20  O5  UNL     1      -0.787  -2.912  -9.035  1.00  0.00    -0.360 OA
ATOM     21  H5  UNL     1      -0.530  -3.196  -8.166  1.00  0.00     0.217 HD
ENDBRANCH  10  20
BRANCH   8  22
HETATM   22  O4  UNL     1       0.156  -0.091 -12.801  1.00  0.00    -0.361 OA
ATOM     23  H4  UNL     1       0.318  -0.843 -13.358  1.00  0.00     0.217 HD
ENDBRANCH   8  22
TORSDOF 4
ENDMDL
