MODEL 4
REMARK VINA RESULT: -4.271759465      0.828      1.044
REMARK  6 active torsions:
REMARK  status: ('A' for Active; 'I' for Inactive)
REMARK    1  A    between atoms: N1_1  and  C1_5 
REMARK    2  A    between atoms: C1_5  and  C2_6 
REMARK    3  A    between atoms: C2_6  and  C3_7 
REMARK    4  A    between atoms: C3_7  and  C4_8 
REMARK    5  A    between atoms: C4_8  and  C5_9 
REMARK    6  A    between atoms: C5_9  and  C6_10 
ROOT
HETATM    1  C2  UNL     1      10.646  14.774   6.370  1.00  0.00     0.027 C 
ENDROOT
BRANCH   1   2
HETATM    2  C1  UNL     1      10.953  14.978   7.837  1.00  0.00     0.229 C 
BRANCH   2   3
HETATM    3  N1  UNL     1      12.372  15.073   8.003  1.00  0.00    -0.079 N 
ATOM      4  H13 UNL     1      12.883  14.557   7.287  1.00  0.00     0.274 HD
ATOM      5  H12 UNL     1      12.727  16.004   7.788  1.00  0.00     0.274 HD
ATOM      6  H11 UNL     1      12.613  14.772   8.947  1.00  0.00     0.274 HD
ENDBRANCH   2   3
ENDBRANCH   1   2
BRANCH   1   7
HETATM    7  C3  UNL     1       9.166  14.441   6.168  1.00  0.00     0.002 C 
BRANCH   7   8
HETATM    8  C4  UNL     1       8.869  14.682   4.712  1.00  0.00     0.010 C 
BRANCH   8   9
HETATM    9  C5  UNL     1       9.609  13.742   3.803  1.00  0.00     0.113 C 
BRANCH   9  10
HETATM   10  C6  UNL     1       8.613  12.825   3.192  1.00  0.00     0.172 C 
HETATM   11  O1  UNL     1       8.190  13.027   2.026  1.00  0.00    -0.648 OA
HETATM   12  O2  UNL     1       8.112  11.723   3.867  1.00  0.00    -0.648 OA
ENDBRANCH   9  10
ENDBRANCH   8   9
ENDBRANCH   7   8
ENDBRANCH   1   7
TORSDOF 6
ENDMDL
