MODEL 7
REMARK VINA RESULT: -4.214849670      1.296      1.379
REMARK  6 active torsions:
REMARK  status: ('A' for Active; 'I' for Inactive)
REMARK    1  A    between atoms: N1_1  and  C1_5 
REMARK    2  A    between atoms: C1_5  and  C2_6 
REMARK    3  A    between atoms: C2_6  and  C3_7 
REMARK    4  A    between atoms: C3_7  and  C4_8 
REMARK    5  A    between atoms: C4_8  and  C5_9 
REMARK    6  A    between atoms: C5_9  and  C6_10 
ROOT
HETATM    1  C2  UNL     1      11.456  15.110   7.754  1.00  0.00     0.027 C 
ENDROOT
BRANCH   1   2
HETATM    2  C1  UNL     1      12.547  15.125   6.707  1.00  0.00     0.229 C 
BRANCH   2   3
HETATM    3  N1  UNL     1      13.781  14.741   7.321  1.00  0.00    -0.079 N 
ATOM      4  H13 UNL     1      14.238  15.519   7.798  1.00  0.00     0.274 HD
ATOM      5  H12 UNL     1      13.641  14.140   8.133  1.00  0.00     0.274 HD
ATOM      6  H11 UNL     1      14.380  14.311   6.616  1.00  0.00     0.274 HD
ENDBRANCH   2   3
ENDBRANCH   1   2
BRANCH   1   7
HETATM    7  C3  UNL     1      10.114  14.718   7.131  1.00  0.00     0.002 C 
BRANCH   7   8
HETATM    8  C4  UNL     1      10.308  14.759   5.638  1.00  0.00     0.010 C 
BRANCH   8   9
HETATM    9  C5  UNL     1       9.011  14.722   4.881  1.00  0.00     0.113 C 
BRANCH   9  10
HETATM   10  C6  UNL     1       9.057  13.558   3.960  1.00  0.00     0.172 C 
HETATM   11  O1  UNL     1       8.007  13.131   3.417  1.00  0.00    -0.648 OA
HETATM   12  O2  UNL     1      10.239  12.899   3.660  1.00  0.00    -0.648 OA
ENDBRANCH   9  10
ENDBRANCH   8   9
ENDBRANCH   7   8
ENDBRANCH   1   7
TORSDOF 6
ENDMDL
