MODEL 11
REMARK VINA RESULT: -3.815347080      3.243      4.421
REMARK  6 active torsions:
REMARK  status: ('A' for Active; 'I' for Inactive)
REMARK    1  A    between atoms: N1_1  and  C1_5 
REMARK    2  A    between atoms: C1_5  and  C2_6 
REMARK    3  A    between atoms: C2_6  and  C3_7 
REMARK    4  A    between atoms: C3_7  and  C4_8 
REMARK    5  A    between atoms: C4_8  and  C5_9 
REMARK    6  A    between atoms: C5_9  and  C6_10 
ROOT
HETATM    1  C2  UNL     1       8.938  14.344   5.870  1.00  0.00     0.027 C 
ENDROOT
BRANCH   1   2
HETATM    2  C1  UNL     1       8.876  14.187   4.367  1.00  0.00     0.229 C 
BRANCH   2   3
HETATM    3  N1  UNL     1       9.599  15.262   3.760  1.00  0.00    -0.079 N 
ATOM      4  H13 UNL     1       9.074  15.710   3.009  1.00  0.00     0.274 HD
ATOM      5  H12 UNL     1       9.682  16.071   4.376  1.00  0.00     0.274 HD
ATOM      6  H11 UNL     1      10.506  14.915   3.448  1.00  0.00     0.274 HD
ENDBRANCH   2   3
ENDBRANCH   1   2
BRANCH   1   7
HETATM    7  C3  UNL     1      10.292  13.874   6.407  1.00  0.00     0.002 C 
BRANCH   7   8
HETATM    8  C4  UNL     1      10.777  14.949   7.343  1.00  0.00     0.010 C 
BRANCH   8   9
HETATM    9  C5  UNL     1      12.257  15.184   7.243  1.00  0.00     0.113 C 
BRANCH   9  10
HETATM   10  C6  UNL     1      12.594  15.349   5.806  1.00  0.00     0.172 C 
HETATM   11  O1  UNL     1      13.435  14.594   5.256  1.00  0.00    -0.648 OA
HETATM   12  O2  UNL     1      12.007  16.326   5.017  1.00  0.00    -0.648 OA
ENDBRANCH   9  10
ENDBRANCH   8   9
ENDBRANCH   7   8
ENDBRANCH   1   7
TORSDOF 6
ENDMDL
