MODEL 2
REMARK VINA RESULT: -4.478656948      0.069      1.065
REMARK  6 active torsions:
REMARK  status: ('A' for Active; 'I' for Inactive)
REMARK    1  A    between atoms: N1_1  and  C1_5 
REMARK    2  A    between atoms: C1_5  and  C2_6 
REMARK    3  A    between atoms: C2_6  and  C3_7 
REMARK    4  A    between atoms: C3_7  and  C4_8 
REMARK    5  A    between atoms: C4_8  and  C5_9 
REMARK    6  A    between atoms: C5_9  and  C6_10 
ROOT
HETATM    1  C2  UNL     1      11.353  15.159   6.098  1.00  0.00     0.027 C 
ENDROOT
BRANCH   1   2
HETATM    2  C1  UNL     1      12.474  15.238   7.110  1.00  0.00     0.229 C 
BRANCH   2   3
HETATM    3  N1  UNL     1      11.921  15.099   8.423  1.00  0.00    -0.079 N 
ATOM      4  H13 UNL     1      11.274  15.852   8.655  1.00  0.00     0.274 HD
ATOM      5  H12 UNL     1      11.263  14.322   8.487  1.00  0.00     0.274 HD
ATOM      6  H11 UNL     1      12.684  15.020   9.095  1.00  0.00     0.274 HD
ENDBRANCH   2   3
ENDBRANCH   1   2
BRANCH   1   7
HETATM    7  C3  UNL     1      10.049  14.719   6.767  1.00  0.00     0.002 C 
BRANCH   7   8
HETATM    8  C4  UNL     1       9.414  13.712   5.845  1.00  0.00     0.010 C 
BRANCH   8   9
HETATM    9  C5  UNL     1       8.902  14.328   4.574  1.00  0.00     0.113 C 
BRANCH   9  10
HETATM   10  C6  UNL     1       8.534  13.224   3.652  1.00  0.00     0.172 C 
HETATM   11  O1  UNL     1       8.346  12.061   4.091  1.00  0.00    -0.648 OA
HETATM   12  O2  UNL     1       8.383  13.419   2.288  1.00  0.00    -0.648 OA
ENDBRANCH   9  10
ENDBRANCH   8   9
ENDBRANCH   7   8
ENDBRANCH   1   7
TORSDOF 6
ENDMDL
