MODEL 6
REMARK VINA RESULT: -4.226893557      1.280      1.386
REMARK  6 active torsions:
REMARK  status: ('A' for Active; 'I' for Inactive)
REMARK    1  A    between atoms: N1_1  and  C1_5 
REMARK    2  A    between atoms: C1_5  and  C2_6 
REMARK    3  A    between atoms: C2_6  and  C3_7 
REMARK    4  A    between atoms: C3_7  and  C4_8 
REMARK    5  A    between atoms: C4_8  and  C5_9 
REMARK    6  A    between atoms: C5_9  and  C6_10 
ROOT
HETATM    1  C2  UNL     1      11.447  15.169   7.660  1.00  0.00     0.027 C 
ENDROOT
BRANCH   1   2
HETATM    2  C1  UNL     1      12.648  15.190   6.741  1.00  0.00     0.229 C 
BRANCH   2   3
HETATM    3  N1  UNL     1      13.782  14.683   7.452  1.00  0.00    -0.079 N 
ATOM      4  H13 UNL     1      13.534  14.313   8.369  1.00  0.00     0.274 HD
ATOM      5  H12 UNL     1      14.143  13.821   7.044  1.00  0.00     0.274 HD
ATOM      6  H11 UNL     1      14.491  15.415   7.506  1.00  0.00     0.274 HD
ENDBRANCH   2   3
ENDBRANCH   1   2
BRANCH   1   7
HETATM    7  C3  UNL     1      10.266  14.463   6.990  1.00  0.00     0.002 C 
BRANCH   7   8
HETATM    8  C4  UNL     1      10.286  14.878   5.543  1.00  0.00     0.010 C 
BRANCH   8   9
HETATM    9  C5  UNL     1       8.951  14.719   4.873  1.00  0.00     0.113 C 
BRANCH   9  10
HETATM   10  C6  UNL     1       9.027  13.529   3.987  1.00  0.00     0.172 C 
HETATM   11  O1  UNL     1      10.133  12.981   3.747  1.00  0.00    -0.648 OA
HETATM   12  O2  UNL     1       7.903  12.975   3.395  1.00  0.00    -0.648 OA
ENDBRANCH   9  10
ENDBRANCH   8   9
ENDBRANCH   7   8
ENDBRANCH   1   7
TORSDOF 6
ENDMDL
