MODEL 12
REMARK VINA RESULT: -3.755611530      3.469      4.541
REMARK  6 active torsions:
REMARK  status: ('A' for Active; 'I' for Inactive)
REMARK    1  A    between atoms: N1_1  and  C1_5 
REMARK    2  A    between atoms: C1_5  and  C2_6 
REMARK    3  A    between atoms: C2_6  and  C3_7 
REMARK    4  A    between atoms: C3_7  and  C4_8 
REMARK    5  A    between atoms: C4_8  and  C5_9 
REMARK    6  A    between atoms: C5_9  and  C6_10 
ROOT
HETATM    1  C2  UNL     1       8.796  13.644   4.372  1.00  0.00     0.027 C 
ENDROOT
BRANCH   1   2
HETATM    2  C1  UNL     1       9.675  14.261   3.307  1.00  0.00     0.229 C 
BRANCH   2   3
HETATM    3  N1  UNL     1       9.567  15.686   3.388  1.00  0.00    -0.079 N 
ATOM      4  H13 UNL     1       9.043  15.991   4.208  1.00  0.00     0.274 HD
ATOM      5  H12 UNL     1      10.456  16.132   3.613  1.00  0.00     0.274 HD
ATOM      6  H11 UNL     1       9.165  16.036   2.518  1.00  0.00     0.274 HD
ENDBRANCH   2   3
ENDBRANCH   1   2
BRANCH   1   7
HETATM    7  C3  UNL     1       8.944  14.395   5.697  1.00  0.00     0.002 C 
BRANCH   7   8
HETATM    8  C4  UNL     1      10.168  13.834   6.372  1.00  0.00     0.010 C 
BRANCH   8   9
HETATM    9  C5  UNL     1      10.851  14.833   7.263  1.00  0.00     0.113 C 
BRANCH   9  10
HETATM   10  C6  UNL     1      12.056  15.327   6.549  1.00  0.00     0.172 C 
HETATM   11  O1  UNL     1      13.202  15.157   7.037  1.00  0.00    -0.648 OA
HETATM   12  O2  UNL     1      11.976  15.986   5.332  1.00  0.00    -0.648 OA
ENDBRANCH   9  10
ENDBRANCH   8   9
ENDBRANCH   7   8
ENDBRANCH   1   7
TORSDOF 6
ENDMDL
