MODEL 1
REMARK VINA RESULT: -4.480257822      0.000      0.000
REMARK  6 active torsions:
REMARK  status: ('A' for Active; 'I' for Inactive)
REMARK    1  A    between atoms: N1_1  and  C1_5 
REMARK    2  A    between atoms: C1_5  and  C2_6 
REMARK    3  A    between atoms: C2_6  and  C3_7 
REMARK    4  A    between atoms: C3_7  and  C4_8 
REMARK    5  A    between atoms: C4_8  and  C5_9 
REMARK    6  A    between atoms: C5_9  and  C6_10 
ROOT
HETATM    1  C2  UNL     1      11.334  15.152   6.102  1.00  0.00     0.027 C 
ENDROOT
BRANCH   1   2
HETATM    2  C1  UNL     1      12.443  15.251   7.126  1.00  0.00     0.229 C 
BRANCH   2   3
HETATM    3  N1  UNL     1      11.881  15.096   8.432  1.00  0.00    -0.079 N 
ATOM      4  H13 UNL     1      11.096  15.726   8.597  1.00  0.00     0.274 HD
ATOM      5  H12 UNL     1      11.379  14.213   8.537  1.00  0.00     0.274 HD
ATOM      6  H11 UNL     1      12.621  15.207   9.125  1.00  0.00     0.274 HD
ENDBRANCH   2   3
ENDBRANCH   1   2
BRANCH   1   7
HETATM    7  C3  UNL     1      10.027  14.705   6.762  1.00  0.00     0.002 C 
BRANCH   7   8
HETATM    8  C4  UNL     1       9.399  13.702   5.830  1.00  0.00     0.010 C 
BRANCH   8   9
HETATM    9  C5  UNL     1       8.900  14.324   4.557  1.00  0.00     0.113 C 
BRANCH   9  10
HETATM   10  C6  UNL     1       8.507  13.224   3.640  1.00  0.00     0.172 C 
HETATM   11  O1  UNL     1       8.385  13.433   2.406  1.00  0.00    -0.648 OA
HETATM   12  O2  UNL     1       8.262  11.936   4.092  1.00  0.00    -0.648 OA
ENDBRANCH   9  10
ENDBRANCH   8   9
ENDBRANCH   7   8
ENDBRANCH   1   7
TORSDOF 6
ENDMDL
