MODEL 13
REMARK VINA RESULT: -3.720215683      3.490      4.451
REMARK  6 active torsions:
REMARK  status: ('A' for Active; 'I' for Inactive)
REMARK    1  A    between atoms: N1_1  and  C1_5 
REMARK    2  A    between atoms: C1_5  and  C2_6 
REMARK    3  A    between atoms: C2_6  and  C3_7 
REMARK    4  A    between atoms: C3_7  and  C4_8 
REMARK    5  A    between atoms: C4_8  and  C5_9 
REMARK    6  A    between atoms: C5_9  and  C6_10 
ROOT
HETATM    1  C2  UNL     1       8.825  13.636   4.342  1.00  0.00     0.027 C 
ENDROOT
BRANCH   1   2
HETATM    2  C1  UNL     1       9.734  14.270   3.313  1.00  0.00     0.229 C 
BRANCH   2   3
HETATM    3  N1  UNL     1       9.590  15.692   3.383  1.00  0.00    -0.079 N 
ATOM      4  H13 UNL     1      10.352  16.136   3.894  1.00  0.00     0.274 HD
ATOM      5  H12 UNL     1       9.742  16.143   2.481  1.00  0.00     0.274 HD
ATOM      6  H11 UNL     1       8.676  15.911   3.779  1.00  0.00     0.274 HD
ENDBRANCH   2   3
ENDBRANCH   1   2
BRANCH   1   7
HETATM    7  C3  UNL     1       8.957  14.346   5.691  1.00  0.00     0.002 C 
BRANCH   7   8
HETATM    8  C4  UNL     1      10.215  13.819   6.330  1.00  0.00     0.010 C 
BRANCH   8   9
HETATM    9  C5  UNL     1      10.895  14.836   7.203  1.00  0.00     0.113 C 
BRANCH   9  10
HETATM   10  C6  UNL     1      12.101  15.317   6.483  1.00  0.00     0.172 C 
HETATM   11  O1  UNL     1      11.989  15.967   5.413  1.00  0.00    -0.648 OA
HETATM   12  O2  UNL     1      13.385  15.078   6.949  1.00  0.00    -0.648 OA
ENDBRANCH   9  10
ENDBRANCH   8   9
ENDBRANCH   7   8
ENDBRANCH   1   7
TORSDOF 6
ENDMDL
