MODEL 8
REMARK VINA RESULT: -8.060178903      4.115      5.984
REMARK  2 active torsions:
REMARK  status: ('A' for Active; 'I' for Inactive)
REMARK    1  A    between atoms: C2_2  and  C3_3 
REMARK    2  A    between atoms: C8_10  and  C9_11 
ROOT
HETATM    1  C3  UNL     1       1.634  38.842  38.899  1.00  0.00     0.118 A 
HETATM    2  N1  UNL     1       0.399  38.413  38.601  1.00  0.00    -0.342 N 
ATOM      3  H1  UNL     1      -0.436  38.998  38.619  1.00  0.00     0.167 HD
HETATM    4  C4  UNL     1       0.411  37.089  38.270  1.00  0.00     0.061 A 
HETATM    5  C5  UNL     1      -0.562  36.211  37.919  1.00  0.00     0.032 A 
HETATM    6  C6  UNL     1      -0.259  34.877  37.660  1.00  0.00     0.003 A 
HETATM    7  C7  UNL     1       1.069  34.489  37.774  1.00  0.00     0.019 A 
HETATM    8  C8  UNL     1       2.059  35.374  38.120  1.00  0.00     0.058 A 
HETATM    9  C10 UNL     1       1.707  36.690  38.368  1.00  0.00     0.076 A 
HETATM   10  N3  UNL     1       2.422  37.764  38.747  1.00  0.00    -0.341 N 
ATOM     11  H3  UNL     1       3.431  37.761  38.899  1.00  0.00     0.167 HD
ENDROOT
BRANCH   1  12
HETATM   12  C2  UNL     1       1.997  40.190  39.341  1.00  0.00     0.179 C 
HETATM   13  C1  UNL     1       1.540  40.355  40.802  1.00  0.00     0.055 C 
HETATM   14  C11 UNL     1       3.470  40.475  39.326  1.00  0.00     0.048 C 
HETATM   15  C12 UNL     1       3.372  42.000  39.580  1.00  0.00     0.030 C 
HETATM   16  C13 UNL     1       2.422  42.309  38.427  1.00  0.00     0.233 C 
HETATM   17  N4  UNL     1       1.457  41.256  38.521  1.00  0.00    -0.059 N 
ATOM     18  H42 UNL     1       1.153  40.925  37.605  1.00  0.00     0.278 HD
ATOM     19  H41 UNL     1       0.555  41.586  38.861  1.00  0.00     0.278 HD
ENDBRANCH   1  12
BRANCH   8  20
HETATM   20  C9  UNL     1       3.438  34.974  38.331  1.00  0.00     0.267 C 
HETATM   21  N2  UNL     1       4.482  35.345  37.473  1.00  0.00    -0.057 NA
HETATM   22  O1  UNL     1       3.701  34.236  39.344  1.00  0.00    -0.271 OA
ENDBRANCH   8  20
TORSDOF 2
ENDMDL
