MODEL 9
REMARK VINA RESULT: -7.983352972      4.540      5.629
REMARK  2 active torsions:
REMARK  status: ('A' for Active; 'I' for Inactive)
REMARK    1  A    between atoms: C2_2  and  C3_3 
REMARK    2  A    between atoms: C8_10  and  C9_11 
ROOT
HETATM    1  C3  UNL     1       1.644  37.150  39.259  1.00  0.00     0.118 A 
HETATM    2  N1  UNL     1       2.329  37.732  40.255  1.00  0.00    -0.342 N 
ATOM      3  H1  UNL     1       3.251  37.435  40.572  1.00  0.00     0.167 HD
HETATM    4  C4  UNL     1       1.624  38.773  40.786  1.00  0.00     0.061 A 
HETATM    5  C5  UNL     1       1.873  39.642  41.799  1.00  0.00     0.032 A 
HETATM    6  C6  UNL     1       0.937  40.610  42.154  1.00  0.00     0.003 A 
HETATM    7  C7  UNL     1      -0.247  40.650  41.431  1.00  0.00     0.019 A 
HETATM    8  C8  UNL     1      -0.501  39.781  40.399  1.00  0.00     0.058 A 
HETATM    9  C10 UNL     1       0.461  38.835  40.085  1.00  0.00     0.076 A 
HETATM   10  N3  UNL     1       0.499  37.849  39.172  1.00  0.00    -0.341 N 
ATOM     11  H3  UNL     1      -0.245  37.655  38.501  1.00  0.00     0.167 HD
ENDROOT
BRANCH   1  12
HETATM   12  C2  UNL     1       2.066  35.979  38.490  1.00  0.00     0.179 C 
HETATM   13  C1  UNL     1       0.951  35.639  37.483  1.00  0.00     0.055 C 
HETATM   14  C11 UNL     1       3.314  36.180  37.682  1.00  0.00     0.048 C 
HETATM   15  C12 UNL     1       3.525  34.698  37.285  1.00  0.00     0.030 C 
HETATM   16  C13 UNL     1       3.497  34.131  38.701  1.00  0.00     0.233 C 
HETATM   17  N4  UNL     1       2.389  34.818  39.294  1.00  0.00    -0.059 N 
ATOM     18  H42 UNL     1       2.560  35.057  40.271  1.00  0.00     0.278 HD
ATOM     19  H41 UNL     1       1.585  34.207  39.434  1.00  0.00     0.278 HD
ENDBRANCH   1  12
BRANCH   8  20
HETATM   20  C9  UNL     1      -1.765  39.745  39.688  1.00  0.00     0.267 C 
HETATM   21  N2  UNL     1      -3.000  39.585  40.330  1.00  0.00    -0.057 NA
HETATM   22  O1  UNL     1      -1.740  39.853  38.413  1.00  0.00    -0.271 OA
ENDBRANCH   8  20
TORSDOF 2
ENDMDL
