MODEL 4
REMARK VINA RESULT: -8.369762308      2.285      3.015
REMARK  2 active torsions:
REMARK  status: ('A' for Active; 'I' for Inactive)
REMARK    1  A    between atoms: C2_2  and  C3_3 
REMARK    2  A    between atoms: C8_10  and  C9_11 
ROOT
HETATM    1  C3  UNL     1      -3.336  35.018  38.122  1.00  0.00     0.118 A 
HETATM    2  N1  UNL     1      -4.565  34.745  37.659  1.00  0.00    -0.342 N 
ATOM      3  H1  UNL     1      -4.856  34.857  36.688  1.00  0.00     0.167 HD
HETATM    4  C4  UNL     1      -5.374  34.296  38.663  1.00  0.00     0.061 A 
HETATM    5  C5  UNL     1      -6.676  33.916  38.706  1.00  0.00     0.032 A 
HETATM    6  C6  UNL     1      -7.265  33.523  39.906  1.00  0.00     0.003 A 
HETATM    7  C7  UNL     1      -6.469  33.534  41.042  1.00  0.00     0.019 A 
HETATM    8  C8  UNL     1      -5.148  33.907  41.004  1.00  0.00     0.058 A 
HETATM    9  C10 UNL     1      -4.610  34.291  39.786  1.00  0.00     0.076 A 
HETATM   10  N3  UNL     1      -3.388  34.728  39.434  1.00  0.00    -0.341 N 
ATOM     11  H3  UNL     1      -2.603  34.828  40.078  1.00  0.00     0.167 HD
ENDROOT
BRANCH   1  12
HETATM   12  C2  UNL     1      -2.222  35.560  37.344  1.00  0.00     0.179 C 
HETATM   13  C1  UNL     1      -0.913  34.980  37.913  1.00  0.00     0.055 C 
HETATM   14  C11 UNL     1      -2.243  35.199  35.888  1.00  0.00     0.048 C 
HETATM   15  C12 UNL     1      -1.112  36.155  35.437  1.00  0.00     0.030 C 
HETATM   16  C13 UNL     1      -1.718  37.430  36.018  1.00  0.00     0.233 C 
HETATM   17  N4  UNL     1      -2.159  37.007  37.313  1.00  0.00    -0.059 N 
ATOM     18  H42 UNL     1      -3.043  37.440  37.581  1.00  0.00     0.278 HD
ATOM     19  H41 UNL     1      -1.581  37.386  38.062  1.00  0.00     0.278 HD
ENDBRANCH   1  12
BRANCH   8  20
HETATM   20  C9  UNL     1      -4.321  34.011  42.191  1.00  0.00     0.267 C 
HETATM   21  N2  UNL     1      -2.921  33.968  42.154  1.00  0.00    -0.057 NA
HETATM   22  O1  UNL     1      -4.908  34.134  43.322  1.00  0.00    -0.271 OA
ENDBRANCH   8  20
TORSDOF 2
ENDMDL
