MODEL 2
REMARK VINA RESULT: -8.533714288      3.835      5.068
REMARK  2 active torsions:
REMARK  status: ('A' for Active; 'I' for Inactive)
REMARK    1  A    between atoms: C2_2  and  C3_3 
REMARK    2  A    between atoms: C8_10  and  C9_11 
ROOT
HETATM    1  C3  UNL     1      -5.370  34.684  37.219  1.00  0.00     0.118 A 
HETATM    2  N1  UNL     1      -6.517  34.085  37.574  1.00  0.00    -0.342 N 
ATOM      3  H1  UNL     1      -7.292  33.897  36.939  1.00  0.00     0.167 HD
HETATM    4  C4  UNL     1      -6.505  33.762  38.900  1.00  0.00     0.061 A 
HETATM    5  C5  UNL     1      -7.412  33.175  39.721  1.00  0.00     0.032 A 
HETATM    6  C6  UNL     1      -7.138  32.994  41.074  1.00  0.00     0.003 A 
HETATM    7  C7  UNL     1      -5.907  33.432  41.541  1.00  0.00     0.019 A 
HETATM    8  C8  UNL     1      -4.980  34.018  40.715  1.00  0.00     0.058 A 
HETATM    9  C10 UNL     1      -5.302  34.177  39.376  1.00  0.00     0.076 A 
HETATM   10  N3  UNL     1      -4.638  34.727  38.345  1.00  0.00    -0.341 N 
ATOM     11  H3  UNL     1      -3.700  35.125  38.408  1.00  0.00     0.167 HD
ENDROOT
BRANCH   1  12
HETATM   12  C2  UNL     1      -5.046  35.208  35.891  1.00  0.00     0.179 C 
HETATM   13  C1  UNL     1      -6.328  35.180  35.038  1.00  0.00     0.055 C 
HETATM   14  C11 UNL     1      -4.567  36.630  35.882  1.00  0.00     0.048 C 
HETATM   15  C12 UNL     1      -4.106  36.667  34.404  1.00  0.00     0.030 C 
HETATM   16  C13 UNL     1      -3.189  35.449  34.476  1.00  0.00     0.233 C 
HETATM   17  N4  UNL     1      -3.975  34.506  35.214  1.00  0.00    -0.059 N 
ATOM     18  H42 UNL     1      -3.410  33.948  35.854  1.00  0.00     0.278 HD
ATOM     19  H41 UNL     1      -4.320  33.746  34.628  1.00  0.00     0.278 HD
ENDBRANCH   1  12
BRANCH   8  20
HETATM   20  C9  UNL     1      -3.725  34.563  41.196  1.00  0.00     0.267 C 
HETATM   21  N2  UNL     1      -3.025  34.028  42.285  1.00  0.00    -0.057 NA
HETATM   22  O1  UNL     1      -3.249  35.591  40.599  1.00  0.00    -0.271 OA
ENDBRANCH   8  20
TORSDOF 2
ENDMDL
