MODEL 6
REMARK VINA RESULT: -8.168248697      3.066      4.407
REMARK  2 active torsions:
REMARK  status: ('A' for Active; 'I' for Inactive)
REMARK    1  A    between atoms: C2_2  and  C3_3 
REMARK    2  A    between atoms: C8_10  and  C9_11 
ROOT
HETATM    1  C3  UNL     1      -0.359  34.879  37.868  1.00  0.00     0.118 A 
HETATM    2  N1  UNL     1      -1.456  34.910  38.641  1.00  0.00    -0.342 N 
ATOM      3  H1  UNL     1      -1.444  34.931  39.660  1.00  0.00     0.167 HD
HETATM    4  C4  UNL     1      -2.588  34.910  37.878  1.00  0.00     0.061 A 
HETATM    5  C5  UNL     1      -3.911  34.916  38.180  1.00  0.00     0.032 A 
HETATM    6  C6  UNL     1      -4.872  34.881  37.173  1.00  0.00     0.003 A 
HETATM    7  C7  UNL     1      -4.422  34.842  35.861  1.00  0.00     0.019 A 
HETATM    8  C8  UNL     1      -3.086  34.846  35.548  1.00  0.00     0.058 A 
HETATM    9  C10 UNL     1      -2.169  34.881  36.586  1.00  0.00     0.076 A 
HETATM   10  N3  UNL     1      -0.824  34.864  36.607  1.00  0.00    -0.341 N 
ATOM     11  H3  UNL     1      -0.234  34.842  35.775  1.00  0.00     0.167 HD
ENDROOT
BRANCH   1  12
HETATM   12  C2  UNL     1       1.026  34.825  38.337  1.00  0.00     0.179 C 
HETATM   13  C1  UNL     1       1.056  35.300  39.802  1.00  0.00     0.055 C 
HETATM   14  C11 UNL     1       1.633  33.453  38.329  1.00  0.00     0.048 C 
HETATM   15  C12 UNL     1       3.092  33.888  38.615  1.00  0.00     0.030 C 
HETATM   16  C13 UNL     1       3.205  34.888  37.468  1.00  0.00     0.233 C 
HETATM   17  N4  UNL     1       1.961  35.593  37.540  1.00  0.00    -0.059 N 
ATOM     18  H42 UNL     1       1.589  35.820  36.618  1.00  0.00     0.278 HD
ATOM     19  H41 UNL     1       2.074  36.545  37.887  1.00  0.00     0.278 HD
ENDBRANCH   1  12
BRANCH   8  20
HETATM   20  C9  UNL     1      -2.592  34.717  34.190  1.00  0.00     0.267 C 
HETATM   21  N2  UNL     1      -2.935  33.651  33.348  1.00  0.00    -0.057 NA
HETATM   22  O1  UNL     1      -1.793  35.618  33.754  1.00  0.00    -0.271 OA
ENDBRANCH   8  20
TORSDOF 2
ENDMDL
