MODEL 2
REMARK VINA RESULT: -8.560593015      1.553      2.176
REMARK  11 active torsions:
REMARK  status: ('A' for Active; 'I' for Inactive)
REMARK    1  A    between atoms: C2_2  and  O1_3 
REMARK    2  A    between atoms: O1_3  and  C3_4 
REMARK    3  A    between atoms: C3_4  and  C4_6 
REMARK    4  A    between atoms: C4_6  and  C5_7 
REMARK    5  A    between atoms: C5_7  and  C6_8 
REMARK    6  A    between atoms: C6_8  and  O3_9 
REMARK    7  A    between atoms: O3_9  and  C7_10 
REMARK    8  A    between atoms: C9_12  and  N1_13 
REMARK    9  A    between atoms: N1_13  and  C10_15 
REMARK   10  A    between atoms: C10_15  and  C11_16 
REMARK   11  A    between atoms: C21_32  and  O4_33 
ROOT
HETATM    1  C7  UNL     1      24.709  36.057  24.936  1.00  0.00     0.104 A 
HETATM    2  C8  UNL     1      24.677  37.355  25.340  1.00  0.00     0.068 A 
HETATM    3  C9  UNL     1      23.513  37.977  25.744  1.00  0.00     0.031 A 
HETATM    4  C19 UNL     1      22.345  37.278  25.743  1.00  0.00     0.032 A 
HETATM    5  C20 UNL     1      22.367  35.954  25.332  1.00  0.00     0.042 A 
HETATM    6  C21 UNL     1      23.508  35.322  24.930  1.00  0.00     0.101 A 
ENDROOT
BRANCH   3   7
HETATM    7  N1  UNL     1      23.561  39.320  26.161  1.00  0.00    -0.386 N 
ATOM      8  H1  UNL     1      24.267  39.931  25.750  1.00  0.00     0.160 HD
BRANCH   7   9
HETATM    9  C10 UNL     1      22.661  39.874  27.143  1.00  0.00     0.158 C 
BRANCH   9  10
HETATM   10  C11 UNL     1      21.420  40.448  26.535  1.00  0.00    -0.040 A 
HETATM   11  C12 UNL     1      20.199  40.382  27.176  1.00  0.00     0.011 A 
HETATM   12  C13 UNL     1      19.064  40.910  26.579  1.00  0.00     0.031 A 
HETATM   13  C14 UNL     1      19.099  41.521  25.329  1.00  0.00     0.048 A 
HETATM   14  N2  UNL     1      18.003  42.029  24.746  1.00  0.00    -0.330 N 
HETATM   15  C17 UNL     1      20.320  41.588  24.691  1.00  0.00     0.032 A 
HETATM   16  C15 UNL     1      18.018  42.622  23.527  1.00  0.00     0.194 A 
ATOM     17  H2  UNL     1      17.115  41.965  25.243  1.00  0.00     0.168 HD
HETATM   18  N3  UNL     1      16.823  43.137  22.954  1.00  0.00    -0.063 NA
HETATM   19  N4  UNL     1      19.206  42.689  22.900  1.00  0.00    -0.318 N 
HETATM   20  C16 UNL     1      20.359  42.191  23.443  1.00  0.00     0.131 A 
ATOM     21  H4  UNL     1      19.249  43.129  21.981  1.00  0.00     0.169 HD
HETATM   22  N5  UNL     1      21.591  42.281  22.763  1.00  0.00    -0.082 NA
HETATM   23  C18 UNL     1      21.445  41.060  25.289  1.00  0.00     0.026 A 
ENDBRANCH   9  10
ENDBRANCH   7   9
ENDBRANCH   3   7
BRANCH   1  24
HETATM   24  O3  UNL     1      25.812  35.405  24.539  1.00  0.00    -0.348 OA
BRANCH  24  25
HETATM   25  C6  UNL     1      26.690  35.647  23.527  1.00  0.00     0.176 C 
BRANCH  25  26
HETATM   26  C5  UNL     1      27.793  36.622  23.815  1.00  0.00     0.036 C 
BRANCH  26  27
HETATM   27  C4  UNL     1      27.484  37.958  23.224  1.00  0.00     0.113 C 
BRANCH  27  28
HETATM   28  C3  UNL     1      28.079  39.117  23.898  1.00  0.00     0.258 C 
HETATM   29  O2  UNL     1      27.591  39.570  24.949  1.00  0.00    -0.265 OA
BRANCH  28  30
HETATM   30  O1  UNL     1      29.198  39.721  23.366  1.00  0.00    -0.322 OA
BRANCH  30  31
HETATM   31  C2  UNL     1      29.318  40.054  21.995  1.00  0.00     0.174 C 
HETATM   32  C1  UNL     1      30.758  40.404  21.690  1.00  0.00     0.034 C 
ENDBRANCH  30  31
ENDBRANCH  28  30
ENDBRANCH  27  28
ENDBRANCH  26  27
ENDBRANCH  25  26
ENDBRANCH  24  25
ENDBRANCH   1  24
BRANCH   6  33
HETATM   33  O4  UNL     1      23.519  33.982  24.514  1.00  0.00    -0.353 OA
HETATM   34  C22 UNL     1      22.749  33.043  25.208  1.00  0.00     0.210 C 
ENDBRANCH   6  33
TORSDOF 11
ENDMDL
