MODEL 3
REMARK VINA RESULT: -8.346790187      1.256      2.125
REMARK  11 active torsions:
REMARK  status: ('A' for Active; 'I' for Inactive)
REMARK    1  A    between atoms: C2_2  and  O1_3 
REMARK    2  A    between atoms: O1_3  and  C3_4 
REMARK    3  A    between atoms: C3_4  and  C4_6 
REMARK    4  A    between atoms: C4_6  and  C5_7 
REMARK    5  A    between atoms: C5_7  and  C6_8 
REMARK    6  A    between atoms: C6_8  and  O3_9 
REMARK    7  A    between atoms: O3_9  and  C7_10 
REMARK    8  A    between atoms: C9_12  and  N1_13 
REMARK    9  A    between atoms: N1_13  and  C10_15 
REMARK   10  A    between atoms: C10_15  and  C11_16 
REMARK   11  A    between atoms: C21_32  and  O4_33 
ROOT
HETATM    1  C7  UNL     1      25.490  37.224  25.212  1.00  0.00     0.104 A 
HETATM    2  C8  UNL     1      24.462  38.009  25.631  1.00  0.00     0.068 A 
HETATM    3  C9  UNL     1      23.142  37.618  25.533  1.00  0.00     0.031 A 
HETATM    4  C19 UNL     1      22.843  36.402  24.999  1.00  0.00     0.032 A 
HETATM    5  C20 UNL     1      23.883  35.595  24.567  1.00  0.00     0.042 A 
HETATM    6  C21 UNL     1      25.194  35.964  24.656  1.00  0.00     0.101 A 
ENDROOT
BRANCH   3   7
HETATM    7  N1  UNL     1      22.134  38.480  26.001  1.00  0.00    -0.386 N 
ATOM      8  H1  UNL     1      21.200  38.098  26.150  1.00  0.00     0.160 HD
BRANCH   7   9
HETATM    9  C10 UNL     1      22.356  39.878  26.277  1.00  0.00     0.158 C 
BRANCH   9  10
HETATM   10  C11 UNL     1      21.694  40.780  25.284  1.00  0.00    -0.040 A 
HETATM   11  C12 UNL     1      20.394  41.215  25.447  1.00  0.00     0.011 A 
HETATM   12  C13 UNL     1      19.805  42.038  24.501  1.00  0.00     0.031 A 
HETATM   13  C14 UNL     1      20.482  42.461  23.360  1.00  0.00     0.048 A 
HETATM   14  N2  UNL     1      19.914  43.253  22.439  1.00  0.00    -0.330 N 
HETATM   15  C17 UNL     1      21.782  42.027  23.199  1.00  0.00     0.032 A 
HETATM   16  C15 UNL     1      20.557  43.669  21.321  1.00  0.00     0.194 A 
ATOM     17  H2  UNL     1      18.952  43.558  22.587  1.00  0.00     0.168 HD
HETATM   18  N3  UNL     1      19.903  44.504  20.374  1.00  0.00    -0.063 NA
HETATM   19  N4  UNL     1      21.824  43.249  21.158  1.00  0.00    -0.318 N 
HETATM   20  C16 UNL     1      22.458  42.441  22.061  1.00  0.00     0.131 A 
ATOM     21  H4  UNL     1      22.334  43.545  20.325  1.00  0.00     0.169 HD
HETATM   22  N5  UNL     1      23.791  42.022  21.866  1.00  0.00    -0.082 NA
HETATM   23  C18 UNL     1      22.362  41.207  24.144  1.00  0.00     0.026 A 
ENDBRANCH   9  10
ENDBRANCH   7   9
ENDBRANCH   3   7
BRANCH   1  24
HETATM   24  O3  UNL     1      26.787  37.554  25.289  1.00  0.00    -0.348 OA
BRANCH  24  25
HETATM   25  C6  UNL     1      27.431  38.739  25.098  1.00  0.00     0.176 C 
BRANCH  25  26
HETATM   26  C5  UNL     1      27.436  39.281  23.700  1.00  0.00     0.036 C 
BRANCH  26  27
HETATM   27  C4  UNL     1      26.829  40.644  23.660  1.00  0.00     0.113 C 
BRANCH  27  28
HETATM   28  C3  UNL     1      27.337  41.550  22.624  1.00  0.00     0.258 C 
HETATM   29  O2  UNL     1      27.054  42.762  22.635  1.00  0.00    -0.265 OA
BRANCH  28  30
HETATM   30  O1  UNL     1      28.142  41.061  21.619  1.00  0.00    -0.322 OA
BRANCH  30  31
HETATM   31  C2  UNL     1      29.363  41.671  21.239  1.00  0.00     0.174 C 
HETATM   32  C1  UNL     1      30.513  40.764  21.617  1.00  0.00     0.034 C 
ENDBRANCH  30  31
ENDBRANCH  28  30
ENDBRANCH  27  28
ENDBRANCH  26  27
ENDBRANCH  25  26
ENDBRANCH  24  25
ENDBRANCH   1  24
BRANCH   6  33
HETATM   33  O4  UNL     1      26.240  35.139  24.216  1.00  0.00    -0.353 OA
HETATM   34  C22 UNL     1      26.978  35.512  23.087  1.00  0.00     0.210 C 
ENDBRANCH   6  33
TORSDOF 11
ENDMDL
