MODEL 1
REMARK VINA RESULT: -8.669574221      0.000      0.000
REMARK  11 active torsions:
REMARK  status: ('A' for Active; 'I' for Inactive)
REMARK    1  A    between atoms: C2_2  and  O1_3 
REMARK    2  A    between atoms: O1_3  and  C3_4 
REMARK    3  A    between atoms: C3_4  and  C4_6 
REMARK    4  A    between atoms: C4_6  and  C5_7 
REMARK    5  A    between atoms: C5_7  and  C6_8 
REMARK    6  A    between atoms: C6_8  and  O3_9 
REMARK    7  A    between atoms: O3_9  and  C7_10 
REMARK    8  A    between atoms: C9_12  and  N1_13 
REMARK    9  A    between atoms: N1_13  and  C10_15 
REMARK   10  A    between atoms: C10_15  and  C11_16 
REMARK   11  A    between atoms: C21_32  and  O4_33 
ROOT
HETATM    1  C7  UNL     1      24.564  36.433  25.014  1.00  0.00     0.104 A 
HETATM    2  C8  UNL     1      24.353  37.741  25.323  1.00  0.00     0.068 A 
HETATM    3  C9  UNL     1      23.096  38.249  25.580  1.00  0.00     0.031 A 
HETATM    4  C19 UNL     1      22.016  37.421  25.526  1.00  0.00     0.032 A 
HETATM    5  C20 UNL     1      22.220  36.087  25.211  1.00  0.00     0.042 A 
HETATM    6  C21 UNL     1      23.455  35.567  24.955  1.00  0.00     0.101 A 
ENDROOT
BRANCH   3   7
HETATM    7  N1  UNL     1      22.958  39.610  25.905  1.00  0.00    -0.386 N 
ATOM      8  H1  UNL     1      23.798  40.187  25.944  1.00  0.00     0.160 HD
BRANCH   7   9
HETATM    9  C10 UNL     1      21.686  40.230  26.186  1.00  0.00     0.158 C 
BRANCH   9  10
HETATM   10  C11 UNL     1      21.210  41.112  25.075  1.00  0.00    -0.040 A 
HETATM   11  C12 UNL     1      19.927  41.620  25.047  1.00  0.00     0.011 A 
HETATM   12  C13 UNL     1      19.512  42.422  23.995  1.00  0.00     0.031 A 
HETATM   13  C14 UNL     1      20.353  42.749  22.935  1.00  0.00     0.048 A 
HETATM   14  N2  UNL     1      19.954  43.520  21.912  1.00  0.00    -0.330 N 
HETATM   15  C17 UNL     1      21.635  42.242  22.964  1.00  0.00     0.032 A 
HETATM   16  C15 UNL     1      20.757  43.844  20.870  1.00  0.00     0.194 A 
ATOM     17  H2  UNL     1      19.000  43.881  21.919  1.00  0.00     0.168 HD
HETATM   18  N3  UNL     1      20.280  44.661  19.809  1.00  0.00    -0.063 NA
HETATM   19  N4  UNL     1      22.009  43.352  20.893  1.00  0.00    -0.318 N 
HETATM   20  C16 UNL     1      22.474  42.561  21.908  1.00  0.00     0.131 A 
ATOM     21  H4  UNL     1      22.637  43.577  20.122  1.00  0.00     0.169 HD
HETATM   22  N5  UNL     1      23.795  42.064  21.907  1.00  0.00    -0.082 NA
HETATM   23  C18 UNL     1      22.042  41.444  24.014  1.00  0.00     0.026 A 
ENDBRANCH   9  10
ENDBRANCH   7   9
ENDBRANCH   3   7
BRANCH   1  24
HETATM   24  O3  UNL     1      25.763  35.890  24.762  1.00  0.00    -0.348 OA
BRANCH  24  25
HETATM   25  C6  UNL     1      26.600  36.003  23.693  1.00  0.00     0.176 C 
BRANCH  25  26
HETATM   26  C5  UNL     1      27.806  36.875  23.876  1.00  0.00     0.036 C 
BRANCH  26  27
HETATM   27  C4  UNL     1      27.509  38.279  23.466  1.00  0.00     0.113 C 
BRANCH  27  28
HETATM   28  C3  UNL     1      27.666  39.305  24.503  1.00  0.00     0.258 C 
HETATM   29  O2  UNL     1      27.494  39.034  25.705  1.00  0.00    -0.265 OA
BRANCH  28  30
HETATM   30  O1  UNL     1      28.010  40.591  24.150  1.00  0.00    -0.322 OA
BRANCH  30  31
HETATM   31  C2  UNL     1      27.058  41.569  23.770  1.00  0.00     0.174 C 
HETATM   32  C1  UNL     1      27.501  42.221  22.478  1.00  0.00     0.034 C 
ENDBRANCH  30  31
ENDBRANCH  28  30
ENDBRANCH  27  28
ENDBRANCH  26  27
ENDBRANCH  25  26
ENDBRANCH  24  25
ENDBRANCH   1  24
BRANCH   6  33
HETATM   33  O4  UNL     1      23.651  34.215  24.637  1.00  0.00    -0.353 OA
HETATM   34  C22 UNL     1      22.870  33.242  25.269  1.00  0.00     0.210 C 
ENDBRANCH   6  33
TORSDOF 11
ENDMDL
