MODEL 2
REMARK VINA RESULT: -7.199754752      0.070      1.174
REMARK  6 active torsions:
REMARK  status: ('A' for Active; 'I' for Inactive)
REMARK    1  A    between atoms: C1_2  and  C2_3 
REMARK       I    between atoms: C1_2  and  N1_12 
REMARK    2  A    between atoms: C2_3  and  O2_4 
REMARK    3  A    between atoms: O2_4  and  C3_5 
REMARK    4  A    between atoms: N1_12  and  C9_14 
REMARK    5  A    between atoms: C9_14  and  C10_15 
REMARK    6  A    between atoms: C10_15  and  C11_16 
ROOT
HETATM    1  O1  UNL     1      -7.534 -37.418   2.650  1.00  0.00    -0.271 OA
HETATM    2  C1  UNL     1      -6.533 -36.727   2.391  1.00  0.00     0.241 C 
HETATM    3  N1  UNL     1      -6.512 -35.339   2.661  1.00  0.00    -0.359 N 
ATOM      4  H1  UNL     1      -5.665 -34.819   2.432  1.00  0.00     0.162 HD
ENDROOT
BRANCH   3   5
HETATM    5  C9  UNL     1      -7.619 -34.611   3.245  1.00  0.00     0.130 C 
BRANCH   5   6
HETATM    6  C10 UNL     1      -7.569 -33.190   2.731  1.00  0.00     0.096 C 
BRANCH   6   7
HETATM    7  C11 UNL     1      -7.277 -32.319   3.880  1.00  0.00     0.083 A 
HETATM    8  N2  UNL     1      -8.117 -31.455   4.446  1.00  0.00    -0.344 N 
HETATM    9  C12 UNL     1      -7.501 -30.834   5.473  1.00  0.00     0.060 A 
ATOM     10  H2  UNL     1      -9.078 -31.287   4.148  1.00  0.00     0.167 HD
HETATM   11  C13 UNL     1      -7.901 -29.873   6.373  1.00  0.00     0.032 A 
HETATM   12  C17 UNL     1      -6.219 -31.350   5.534  1.00  0.00     0.060 A 
HETATM   13  C14 UNL     1      -7.038 -29.412   7.344  1.00  0.00     0.002 A 
HETATM   14  C15 UNL     1      -5.752 -29.907   7.429  1.00  0.00     0.002 A 
HETATM   15  C16 UNL     1      -5.378 -30.868   6.517  1.00  0.00     0.032 A 
HETATM   16  N3  UNL     1      -6.118 -32.254   4.546  1.00  0.00    -0.344 N 
ATOM     17  H3  UNL     1      -5.287 -32.805   4.335  1.00  0.00     0.167 HD
ENDBRANCH   6   7
ENDBRANCH   5   6
ENDBRANCH   3   5
BRANCH   2  18
HETATM   18  C2  UNL     1      -5.348 -37.382   1.789  1.00  0.00     0.278 C 
BRANCH  18  19
HETATM   19  O2  UNL     1      -4.208 -37.171   2.595  1.00  0.00    -0.341 OA
BRANCH  19  20
HETATM   20  C3  UNL     1      -2.977 -37.044   1.975  1.00  0.00     0.086 A 
HETATM   21  C4  UNL     1      -2.791 -36.138   0.955  1.00  0.00     0.038 A 
HETATM   22  C5  UNL     1      -1.551 -36.024   0.344  1.00  0.00     0.003 A 
HETATM   23  C6  UNL     1      -0.471 -36.796   0.719  1.00  0.00     0.002 A 
HETATM   24  C7  UNL     1      -0.657 -37.707   1.743  1.00  0.00     0.022 A 
HETATM   25  C8  UNL     1      -1.891 -37.816   2.346  1.00  0.00     0.044 A 
HETATM   26 BR1  UNL     1      -2.153 -39.069   3.756  1.00  0.00    -0.048 Br
ENDBRANCH  19  20
ENDBRANCH  18  19
ENDBRANCH   2  18
TORSDOF 6
ENDMDL
