MODEL 1
REMARK VINA RESULT: -7.215278375      0.000      0.000
REMARK  6 active torsions:
REMARK  status: ('A' for Active; 'I' for Inactive)
REMARK    1  A    between atoms: C1_2  and  C2_3 
REMARK       I    between atoms: C1_2  and  N1_12 
REMARK    2  A    between atoms: C2_3  and  O2_4 
REMARK    3  A    between atoms: O2_4  and  C3_5 
REMARK    4  A    between atoms: N1_12  and  C9_14 
REMARK    5  A    between atoms: C9_14  and  C10_15 
REMARK    6  A    between atoms: C10_15  and  C11_16 
ROOT
HETATM    1  O1  UNL     1      -7.512 -37.384   2.694  1.00  0.00    -0.271 OA
HETATM    2  C1  UNL     1      -6.524 -36.696   2.378  1.00  0.00     0.241 C 
HETATM    3  N1  UNL     1      -6.514 -35.296   2.576  1.00  0.00    -0.359 N 
ATOM      4  H1  UNL     1      -5.678 -34.780   2.302  1.00  0.00     0.162 HD
ENDROOT
BRANCH   3   5
HETATM    5  C9  UNL     1      -7.617 -34.551   3.145  1.00  0.00     0.130 C 
BRANCH   5   6
HETATM    6  C10 UNL     1      -7.521 -33.123   2.656  1.00  0.00     0.096 C 
BRANCH   6   7
HETATM    7  C11 UNL     1      -7.238 -32.278   3.826  1.00  0.00     0.083 A 
HETATM    8  N2  UNL     1      -6.118 -32.280   4.546  1.00  0.00    -0.344 N 
HETATM    9  C12 UNL     1      -6.220 -31.373   5.540  1.00  0.00     0.060 A 
ATOM     10  H2  UNL     1      -5.308 -32.875   4.373  1.00  0.00     0.167 HD
HETATM   11  C13 UNL     1      -5.371 -30.978   6.548  1.00  0.00     0.032 A 
HETATM   12  C17 UNL     1      -7.468 -30.790   5.415  1.00  0.00     0.060 A 
HETATM   13  C14 UNL     1      -5.748 -30.001   7.446  1.00  0.00     0.002 A 
HETATM   14  C15 UNL     1      -6.987 -29.401   7.348  1.00  0.00     0.002 A 
HETATM   15  C16 UNL     1      -7.816 -29.815   6.329  1.00  0.00     0.032 A 
HETATM   16  N3  UNL     1      -8.061 -31.368   4.358  1.00  0.00    -0.344 N 
ATOM     17  H3  UNL     1      -8.995 -31.146   4.014  1.00  0.00     0.167 HD
ENDBRANCH   6   7
ENDBRANCH   5   6
ENDBRANCH   3   5
BRANCH   2  18
HETATM   18  C2  UNL     1      -5.344 -37.369   1.785  1.00  0.00     0.278 C 
BRANCH  18  19
HETATM   19  O2  UNL     1      -4.207 -37.172   2.598  1.00  0.00    -0.341 OA
BRANCH  19  20
HETATM   20  C3  UNL     1      -2.973 -37.045   1.985  1.00  0.00     0.086 A 
HETATM   21  C4  UNL     1      -2.780 -36.135   0.970  1.00  0.00     0.038 A 
HETATM   22  C5  UNL     1      -1.537 -36.022   0.365  1.00  0.00     0.003 A 
HETATM   23  C6  UNL     1      -0.460 -36.796   0.744  1.00  0.00     0.002 A 
HETATM   24  C7  UNL     1      -0.652 -37.710   1.763  1.00  0.00     0.022 A 
HETATM   25  C8  UNL     1      -1.890 -37.819   2.359  1.00  0.00     0.044 A 
HETATM   26 BR1  UNL     1      -2.161 -39.077   3.764  1.00  0.00    -0.048 Br
ENDBRANCH  19  20
ENDBRANCH  18  19
ENDBRANCH   2  18
TORSDOF 6
ENDMDL
