MODEL 1
REMARK VINA RESULT: -7.971873770      0.000      0.000
REMARK  8 active torsions:
REMARK  status: ('A' for Active; 'I' for Inactive)
REMARK       I    between atoms: C1_2  and  N1_3 
REMARK    1  A    between atoms: C1_2  and  C8_12 
REMARK    2  A    between atoms: N1_3  and  C2_5 
REMARK    3  A    between atoms: C2_5  and  C3_6 
REMARK    4  A    between atoms: C3_6  and  C4_7 
REMARK    5  A    between atoms: C8_12  and  O2_13 
REMARK    6  A    between atoms: C8_12  and  C9_15 
REMARK    7  A    between atoms: C9_15  and  O3_16 
REMARK    8  A    between atoms: C9_15  and  C10_18 
REMARK       I    between atoms: C10_18  and  N2_20 
ROOT
HETATM    1  C8  UNL     1      49.994  33.459  39.878  1.00  0.00     0.247 C 
ENDROOT
BRANCH   1   2
HETATM    2  C1  UNL     1      48.926  33.249  40.880  1.00  0.00     0.249 C 
HETATM    3  O1  UNL     1      47.760  33.074  40.442  1.00  0.00    -0.271 OA
HETATM    4  N1  UNL     1      49.233  33.250  42.250  1.00  0.00    -0.358 N 
ATOM      5  H1  UNL     1      50.198  33.402  42.543  1.00  0.00     0.162 HD
BRANCH   4   6
HETATM    6  C2  UNL     1      48.227  33.044  43.244  1.00  0.00     0.128 C 
BRANCH   6   7
HETATM    7  C3  UNL     1      48.202  31.606  43.649  1.00  0.00     0.066 C 
BRANCH   7   8
HETATM    8  C4  UNL     1      48.991  31.354  44.888  1.00  0.00    -0.016 A 
HETATM    9  C5  UNL     1      48.578  31.126  46.172  1.00  0.00     0.015 A 
HETATM   10  C6  UNL     1      49.522  30.929  47.098  1.00  0.00     0.008 A 
HETATM   11  C7  UNL     1      50.828  30.972  46.693  1.00  0.00     0.050 A 
HETATM   12  S1  UNL     1      50.686  31.288  45.019  1.00  0.00    -0.106 SA
ENDBRANCH   7   8
ENDBRANCH   6   7
ENDBRANCH   4   6
ENDBRANCH   1   2
BRANCH   1  13
HETATM   13  O2  UNL     1      51.229  33.219  40.549  1.00  0.00    -0.383 OA
ATOM     14  H2  UNL     1      51.512  32.351  40.286  1.00  0.00     0.210 HD
ENDBRANCH   1  13
BRANCH   1  15
HETATM   15  C9  UNL     1      50.080  34.954  39.502  1.00  0.00     0.247 C 
BRANCH  15  16
HETATM   16  O3  UNL     1      50.521  35.602  40.676  1.00  0.00    -0.383 OA
ATOM     17  H3  UNL     1      49.904  36.312  40.813  1.00  0.00     0.210 HD
ENDBRANCH  15  16
BRANCH  15  18
HETATM   18  C10 UNL     1      51.045  35.212  38.419  1.00  0.00     0.251 C 
HETATM   19  O4  UNL     1      52.186  35.702  38.734  1.00  0.00    -0.270 OA
HETATM   20  N2  UNL     1      50.786  34.953  37.072  1.00  0.00    -0.347 N 
HETATM   21  C11 UNL     1      51.794  35.234  36.065  1.00  0.00     0.153 C 
HETATM   22  C14 UNL     1      49.546  34.413  36.598  1.00  0.00     0.153 C 
HETATM   23  C12 UNL     1      51.165  36.125  35.024  1.00  0.00     0.252 C 
HETATM   24  N3  UNL     1      49.996  35.547  34.456  1.00  0.00    -0.072 N 
HETATM   25  C13 UNL     1      49.591  34.309  35.061  1.00  0.00     0.252 C 
ATOM     26  H32 UNL     1      49.226  36.217  34.468  1.00  0.00     0.277 HD
ATOM     27  H31 UNL     1      50.110  35.431  33.450  1.00  0.00     0.277 HD
ENDBRANCH  15  18
ENDBRANCH   1  15
TORSDOF 8
ENDMDL
