MODEL 16
REMARK VINA RESULT: -7.014092481      1.038      1.179
REMARK  8 active torsions:
REMARK  status: ('A' for Active; 'I' for Inactive)
REMARK       I    between atoms: C1_2  and  N1_3 
REMARK    1  A    between atoms: C1_2  and  C8_12 
REMARK    2  A    between atoms: N1_3  and  C2_5 
REMARK    3  A    between atoms: C2_5  and  C3_6 
REMARK    4  A    between atoms: C3_6  and  C4_7 
REMARK    5  A    between atoms: C8_12  and  O2_13 
REMARK    6  A    between atoms: C8_12  and  C9_15 
REMARK    7  A    between atoms: C9_15  and  O3_16 
REMARK    8  A    between atoms: C9_15  and  C10_18 
REMARK       I    between atoms: C10_18  and  N2_20 
ROOT
HETATM    1  C8  UNL     1      50.017  32.801  40.090  1.00  0.00     0.247 C 
ENDROOT
BRANCH   1   2
HETATM    2  C1  UNL     1      48.925  32.908  41.083  1.00  0.00     0.249 C 
HETATM    3  O1  UNL     1      47.748  32.881  40.642  1.00  0.00    -0.271 OA
HETATM    4  N1  UNL     1      49.225  33.033  42.449  1.00  0.00    -0.358 N 
ATOM      5  H1  UNL     1      50.201  33.054  42.745  1.00  0.00     0.162 HD
BRANCH   4   6
HETATM    6  C2  UNL     1      48.195  33.132  43.436  1.00  0.00     0.128 C 
BRANCH   6   7
HETATM    7  C3  UNL     1      47.929  31.786  44.028  1.00  0.00     0.066 C 
BRANCH   7   8
HETATM    8  C4  UNL     1      48.898  31.443  45.108  1.00  0.00    -0.016 A 
HETATM    9  C5  UNL     1      48.691  31.171  46.432  1.00  0.00     0.015 A 
HETATM   10  C6  UNL     1      49.764  30.890  47.179  1.00  0.00     0.008 A 
HETATM   11  C7  UNL     1      50.986  30.897  46.564  1.00  0.00     0.050 A 
HETATM   12  S1  UNL     1      50.586  31.299  44.951  1.00  0.00    -0.106 SA
ENDBRANCH   7   8
ENDBRANCH   6   7
ENDBRANCH   4   6
ENDBRANCH   1   2
BRANCH   1  13
HETATM   13  O2  UNL     1      51.222  33.128  40.778  1.00  0.00    -0.383 OA
ATOM     14  H2  UNL     1      51.054  33.941  41.240  1.00  0.00     0.210 HD
ENDBRANCH   1  13
BRANCH   1  15
HETATM   15  C9  UNL     1      49.890  33.928  39.042  1.00  0.00     0.247 C 
BRANCH  15  16
HETATM   16  O3  UNL     1      50.634  35.005  39.570  1.00  0.00    -0.383 OA
ATOM     17  H3  UNL     1      49.992  35.681  39.753  1.00  0.00     0.210 HD
ENDBRANCH  15  16
BRANCH  15  18
HETATM   18  C10 UNL     1      50.453  33.550  37.733  1.00  0.00     0.251 C 
HETATM   19  O4  UNL     1      51.527  32.852  37.718  1.00  0.00    -0.270 OA
HETATM   20  N2  UNL     1      49.882  33.911  36.511  1.00  0.00    -0.347 N 
HETATM   21  C11 UNL     1      50.499  33.496  35.264  1.00  0.00     0.153 C 
HETATM   22  C14 UNL     1      48.688  34.694  36.400  1.00  0.00     0.153 C 
HETATM   23  C12 UNL     1      50.725  34.733  34.431  1.00  0.00     0.252 C 
HETATM   24  N3  UNL     1      49.522  35.460  34.211  1.00  0.00    -0.072 N 
HETATM   25  C13 UNL     1      48.379  34.944  34.911  1.00  0.00     0.252 C 
ATOM     26  H32 UNL     1      49.658  36.447  34.430  1.00  0.00     0.277 HD
ATOM     27  H31 UNL     1      49.327  35.528  33.212  1.00  0.00     0.277 HD
ENDBRANCH  15  18
ENDBRANCH   1  15
TORSDOF 8
ENDMDL
