MODEL 5
REMARK VINA RESULT: -7.457479574      1.552      1.822
REMARK  8 active torsions:
REMARK  status: ('A' for Active; 'I' for Inactive)
REMARK       I    between atoms: C1_2  and  N1_3 
REMARK    1  A    between atoms: C1_2  and  C8_12 
REMARK    2  A    between atoms: N1_3  and  C2_5 
REMARK    3  A    between atoms: C2_5  and  C3_6 
REMARK    4  A    between atoms: C3_6  and  C4_7 
REMARK    5  A    between atoms: C8_12  and  O2_13 
REMARK    6  A    between atoms: C8_12  and  C9_15 
REMARK    7  A    between atoms: C9_15  and  O3_16 
REMARK    8  A    between atoms: C9_15  and  C10_18 
REMARK       I    between atoms: C10_18  and  N2_20 
ROOT
HETATM    1  C8  UNL     1      50.701  32.007  40.292  1.00  0.00     0.247 C 
ENDROOT
BRANCH   1   2
HETATM    2  C1  UNL     1      49.984  31.376  41.422  1.00  0.00     0.249 C 
HETATM    3  O1  UNL     1      50.577  30.444  42.023  1.00  0.00    -0.271 OA
HETATM    4  N1  UNL     1      48.701  31.820  41.780  1.00  0.00    -0.358 N 
ATOM      5  H1  UNL     1      48.271  32.577  41.250  1.00  0.00     0.162 HD
BRANCH   4   6
HETATM    6  C2  UNL     1      47.984  31.237  42.870  1.00  0.00     0.128 C 
BRANCH   6   7
HETATM    7  C3  UNL     1      48.019  32.155  44.049  1.00  0.00     0.066 C 
BRANCH   7   8
HETATM    8  C4  UNL     1      48.860  31.619  45.157  1.00  0.00    -0.016 A 
HETATM    9  C5  UNL     1      50.219  31.598  45.309  1.00  0.00     0.015 A 
HETATM   10  C6  UNL     1      50.707  31.044  46.424  1.00  0.00     0.008 A 
HETATM   11  C7  UNL     1      49.811  30.539  47.327  1.00  0.00     0.050 A 
HETATM   12  S1  UNL     1      48.309  30.862  46.578  1.00  0.00    -0.106 SA
ENDBRANCH   7   8
ENDBRANCH   6   7
ENDBRANCH   4   6
ENDBRANCH   1   2
BRANCH   1  13
HETATM   13  O2  UNL     1      51.975  32.402  40.794  1.00  0.00    -0.383 OA
ATOM     14  H2  UNL     1      52.069  33.325  40.590  1.00  0.00     0.210 HD
ENDBRANCH   1  13
BRANCH   1  15
HETATM   15  C9  UNL     1      50.032  33.350  39.925  1.00  0.00     0.247 C 
BRANCH  15  16
HETATM   16  O3  UNL     1      50.217  34.172  41.057  1.00  0.00    -0.383 OA
ATOM     17  H3  UNL     1      49.756  34.978  40.854  1.00  0.00     0.210 HD
ENDBRANCH  15  16
BRANCH  15  18
HETATM   18  C10 UNL     1      50.657  33.993  38.756  1.00  0.00     0.251 C 
HETATM   19  O4  UNL     1      51.539  34.898  38.967  1.00  0.00    -0.270 OA
HETATM   20  N2  UNL     1      50.342  33.673  37.434  1.00  0.00    -0.347 N 
HETATM   21  C11 UNL     1      51.006  34.354  36.337  1.00  0.00     0.153 C 
HETATM   22  C14 UNL     1      49.368  32.686  37.073  1.00  0.00     0.153 C 
HETATM   23  C12 UNL     1      49.939  34.931  35.442  1.00  0.00     0.252 C 
HETATM   24  N3  UNL     1      49.032  33.939  34.978  1.00  0.00    -0.072 N 
HETATM   25  C13 UNL     1      49.241  32.633  35.539  1.00  0.00     0.252 C 
ATOM     26  H32 UNL     1      48.068  34.239  35.127  1.00  0.00     0.277 HD
ATOM     27  H31 UNL     1      49.045  33.894  33.959  1.00  0.00     0.277 HD
ENDBRANCH  15  18
ENDBRANCH   1  15
TORSDOF 8
ENDMDL
