MODEL 2
REMARK VINA RESULT: -6.284108267      1.304      1.628
REMARK  7 active torsions:
REMARK  status: ('A' for Active; 'I' for Inactive)
REMARK    1  A    between atoms: C2_2  and  C3_3 
REMARK    2  A    between atoms: C3_3  and  C4_4 
REMARK    3  A    between atoms: C4_4  and  O1_5 
REMARK    4  A    between atoms: O1_5  and  C5_6 
REMARK    5  A    between atoms: C8_9  and  C9_10 
REMARK    6  A    between atoms: C9_10  and  S1_11 
REMARK    7  A    between atoms: S1_11  and  C10_12 
ROOT
HETATM    1  C5  UNL     1      24.405  11.507  19.264  1.00  0.00     0.090 A 
HETATM    2  C6  UNL     1      24.480  10.201  19.721  1.00  0.00     0.039 A 
HETATM    3  C7  UNL     1      23.471   9.660  20.485  1.00  0.00     0.011 A 
HETATM    4  C8  UNL     1      22.350  10.365  20.834  1.00  0.00    -0.047 A 
HETATM    5  C11 UNL     1      22.280  11.659  20.381  1.00  0.00     0.034 A 
HETATM    6  C12 UNL     1      23.249  12.241  19.624  1.00  0.00     0.068 A 
HETATM    7 CL1  UNL     1      23.066  13.901  19.094  1.00  0.00    -0.081 Cl
ENDROOT
BRANCH   4   8
HETATM    8  C9  UNL     1      21.232   9.814  21.634  1.00  0.00     0.120 C 
BRANCH   8   9
HETATM    9  S1  UNL     1      21.116  10.649  23.199  1.00  0.00    -0.093 SA
BRANCH   9  10
HETATM   10  C10 UNL     1      22.567  10.437  24.194  1.00  0.00     0.148 C 
HETATM   11  N1  UNL     1      23.467  11.526  24.518  1.00  0.00    -0.075 NA
HETATM   12  N2  UNL     1      22.809   9.254  24.636  1.00  0.00    -0.382 N 
ATOM     13  H22 UNL     1      22.176   8.487  24.408  1.00  0.00     0.157 HD
ATOM     14  H21 UNL     1      23.645   9.132  25.209  1.00  0.00     0.157 HD
ENDBRANCH   9  10
ENDBRANCH   8   9
ENDBRANCH   4   8
BRANCH   1  15
HETATM   15  O1  UNL     1      25.298  12.171  18.524  1.00  0.00    -0.349 OA
BRANCH  15  16
HETATM   16  C4  UNL     1      26.452  12.817  18.614  1.00  0.00     0.175 C 
BRANCH  16  17
HETATM   17  C3  UNL     1      27.125  13.081  19.906  1.00  0.00     0.026 C 
BRANCH  17  18
HETATM   18  C2  UNL     1      26.563  14.094  20.829  1.00  0.00    -0.002 C 
HETATM   19  C1  UNL     1      25.939  13.332  22.023  1.00  0.00     0.005 C 
ENDBRANCH  17  18
ENDBRANCH  16  17
ENDBRANCH  15  16
ENDBRANCH   1  15
TORSDOF 7
ENDMDL
