MODEL 6
REMARK VINA RESULT: -5.804837771      3.283      5.442
REMARK  7 active torsions:
REMARK  status: ('A' for Active; 'I' for Inactive)
REMARK    1  A    between atoms: C2_2  and  C3_3 
REMARK    2  A    between atoms: C3_3  and  C4_4 
REMARK    3  A    between atoms: C4_4  and  O1_5 
REMARK    4  A    between atoms: O1_5  and  C5_6 
REMARK    5  A    between atoms: C8_9  and  C9_10 
REMARK    6  A    between atoms: C9_10  and  S1_11 
REMARK    7  A    between atoms: S1_11  and  C10_12 
ROOT
HETATM    1  C5  UNL     1      23.522  10.816  20.168  1.00  0.00     0.090 A 
HETATM    2  C6  UNL     1      24.571   9.928  20.344  1.00  0.00     0.039 A 
HETATM    3  C7  UNL     1      25.877  10.360  20.310  1.00  0.00     0.011 A 
HETATM    4  C8  UNL     1      26.217  11.670  20.103  1.00  0.00    -0.047 A 
HETATM    5  C11 UNL     1      25.175  12.547  19.928  1.00  0.00     0.034 A 
HETATM    6  C12 UNL     1      23.867  12.172  19.952  1.00  0.00     0.068 A 
HETATM    7 CL1  UNL     1      22.610  13.369  19.717  1.00  0.00    -0.081 Cl
ENDROOT
BRANCH   4   8
HETATM    8  C9  UNL     1      27.607  12.180  20.082  1.00  0.00     0.120 C 
BRANCH   8   9
HETATM    9  S1  UNL     1      28.746  10.902  20.560  1.00  0.00    -0.093 SA
BRANCH   9  10
HETATM   10  C10 UNL     1      29.308  11.080  22.232  1.00  0.00     0.148 C 
HETATM   11  N1  UNL     1      28.898  12.173  23.090  1.00  0.00    -0.075 NA
HETATM   12  N2  UNL     1      30.118  10.185  22.678  1.00  0.00    -0.382 N 
ATOM     13  H22 UNL     1      30.407   9.416  22.074  1.00  0.00     0.157 HD
ATOM     14  H21 UNL     1      30.441  10.288  23.640  1.00  0.00     0.157 HD
ENDBRANCH   9  10
ENDBRANCH   8   9
ENDBRANCH   4   8
BRANCH   1  15
HETATM   15  O1  UNL     1      22.212  10.552  20.170  1.00  0.00    -0.349 OA
BRANCH  15  16
HETATM   16  C4  UNL     1      21.267   9.975  20.897  1.00  0.00     0.175 C 
BRANCH  16  17
HETATM   17  C3  UNL     1      21.152  10.167  22.361  1.00  0.00     0.026 C 
BRANCH  17  18
HETATM   18  C2  UNL     1      21.338  11.518  22.938  1.00  0.00    -0.002 C 
HETATM   19  C1  UNL     1      22.684  11.508  23.703  1.00  0.00     0.005 C 
ENDBRANCH  17  18
ENDBRANCH  16  17
ENDBRANCH  15  16
ENDBRANCH   1  15
TORSDOF 7
ENDMDL
