MODEL 10
REMARK VINA RESULT: -5.743021147      3.207      5.254
REMARK  7 active torsions:
REMARK  status: ('A' for Active; 'I' for Inactive)
REMARK    1  A    between atoms: C2_2  and  C3_3 
REMARK    2  A    between atoms: C3_3  and  C4_4 
REMARK    3  A    between atoms: C4_4  and  O1_5 
REMARK    4  A    between atoms: O1_5  and  C5_6 
REMARK    5  A    between atoms: C8_9  and  C9_10 
REMARK    6  A    between atoms: C9_10  and  S1_11 
REMARK    7  A    between atoms: S1_11  and  C10_12 
ROOT
HETATM    1  C5  UNL     1      23.644  11.078  20.050  1.00  0.00     0.090 A 
HETATM    2  C6  UNL     1      24.767  10.296  20.268  1.00  0.00     0.039 A 
HETATM    3  C7  UNL     1      26.025  10.853  20.280  1.00  0.00     0.011 A 
HETATM    4  C8  UNL     1      26.243  12.190  20.081  1.00  0.00    -0.047 A 
HETATM    5  C11 UNL     1      25.128  12.962  19.865  1.00  0.00     0.034 A 
HETATM    6  C12 UNL     1      23.863  12.462  19.842  1.00  0.00     0.068 A 
HETATM    7 CL1  UNL     1      22.504  13.530  19.557  1.00  0.00    -0.081 Cl
ENDROOT
BRANCH   4   8
HETATM    8  C9  UNL     1      27.577  12.833  20.109  1.00  0.00     0.120 C 
BRANCH   8   9
HETATM    9  S1  UNL     1      27.731  13.885  21.534  1.00  0.00    -0.093 SA
BRANCH   9  10
HETATM   10  C10 UNL     1      28.405  13.038  22.938  1.00  0.00     0.148 C 
HETATM   11  N1  UNL     1      28.584  13.670  24.229  1.00  0.00    -0.075 NA
HETATM   12  N2  UNL     1      28.743  11.808  22.775  1.00  0.00    -0.382 N 
ATOM     13  H22 UNL     1      28.617  11.363  21.865  1.00  0.00     0.157 HD
ATOM     14  H21 UNL     1      29.131  11.320  23.583  1.00  0.00     0.157 HD
ENDBRANCH   9  10
ENDBRANCH   8   9
ENDBRANCH   4   8
BRANCH   1  15
HETATM   15  O1  UNL     1      22.366  10.688  20.004  1.00  0.00    -0.349 OA
BRANCH  15  16
HETATM   16  C4  UNL     1      21.462  10.000  20.688  1.00  0.00     0.175 C 
BRANCH  16  17
HETATM   17  C3  UNL     1      21.265  10.163  22.146  1.00  0.00     0.026 C 
BRANCH  17  18
HETATM   18  C2  UNL     1      21.405  11.504  22.758  1.00  0.00    -0.002 C 
HETATM   19  C1  UNL     1      22.712  11.495  23.587  1.00  0.00     0.005 C 
ENDBRANCH  17  18
ENDBRANCH  16  17
ENDBRANCH  15  16
ENDBRANCH   1  15
TORSDOF 7
ENDMDL
