MODEL 3
REMARK VINA RESULT: -6.205758292      0.889      1.090
REMARK  7 active torsions:
REMARK  status: ('A' for Active; 'I' for Inactive)
REMARK    1  A    between atoms: C2_2  and  C3_3 
REMARK    2  A    between atoms: C3_3  and  C4_4 
REMARK    3  A    between atoms: C4_4  and  O1_5 
REMARK    4  A    between atoms: O1_5  and  C5_6 
REMARK    5  A    between atoms: C8_9  and  C9_10 
REMARK    6  A    between atoms: C9_10  and  S1_11 
REMARK    7  A    between atoms: S1_11  and  C10_12 
ROOT
HETATM    1  C5  UNL     1      24.272  11.232  19.457  1.00  0.00     0.090 A 
HETATM    2  C6  UNL     1      24.259   9.982  20.055  1.00  0.00     0.039 A 
HETATM    3  C7  UNL     1      23.234   9.611  20.895  1.00  0.00     0.011 A 
HETATM    4  C8  UNL     1      22.184  10.438  21.190  1.00  0.00    -0.047 A 
HETATM    5  C11 UNL     1      22.201  11.677  20.597  1.00  0.00     0.034 A 
HETATM    6  C12 UNL     1      23.189  12.093  19.759  1.00  0.00     0.068 A 
HETATM    7 CL1  UNL     1      23.120  13.694  19.052  1.00  0.00    -0.081 Cl
ENDROOT
BRANCH   4   8
HETATM    8  C9  UNL     1      21.051  10.070  22.070  1.00  0.00     0.120 C 
BRANCH   8   9
HETATM    9  S1  UNL     1      21.045  11.081  23.532  1.00  0.00    -0.093 SA
BRANCH   9  10
HETATM   10  C10 UNL     1      21.335  10.145  25.009  1.00  0.00     0.148 C 
HETATM   11  N1  UNL     1      20.712  10.460  26.278  1.00  0.00    -0.075 NA
HETATM   12  N2  UNL     1      22.141   9.146  24.923  1.00  0.00    -0.382 N 
ATOM     13  H22 UNL     1      22.581   8.924  24.029  1.00  0.00     0.157 HD
ATOM     14  H21 UNL     1      22.308   8.607  25.773  1.00  0.00     0.157 HD
ENDBRANCH   9  10
ENDBRANCH   8   9
ENDBRANCH   4   8
BRANCH   1  15
HETATM   15  O1  UNL     1      25.191  11.737  18.628  1.00  0.00    -0.349 OA
BRANCH  15  16
HETATM   16  C4  UNL     1      26.458  12.122  18.588  1.00  0.00     0.175 C 
BRANCH  16  17
HETATM   17  C3  UNL     1      27.214  12.524  19.796  1.00  0.00     0.026 C 
BRANCH  17  18
HETATM   18  C2  UNL     1      27.788  11.484  20.680  1.00  0.00    -0.002 C 
HETATM   19  C1  UNL     1      28.008  10.219  19.816  1.00  0.00     0.005 C 
ENDBRANCH  17  18
ENDBRANCH  16  17
ENDBRANCH  15  16
ENDBRANCH   1  15
TORSDOF 7
ENDMDL
