MODEL 13
REMARK VINA RESULT: -5.626999495      3.632      5.625
REMARK  7 active torsions:
REMARK  status: ('A' for Active; 'I' for Inactive)
REMARK    1  A    between atoms: C2_2  and  C3_3 
REMARK    2  A    between atoms: C3_3  and  C4_4 
REMARK    3  A    between atoms: C4_4  and  O1_5 
REMARK    4  A    between atoms: O1_5  and  C5_6 
REMARK    5  A    between atoms: C8_9  and  C9_10 
REMARK    6  A    between atoms: C9_10  and  S1_11 
REMARK    7  A    between atoms: S1_11  and  C10_12 
ROOT
HETATM    1  C5  UNL     1      24.837  12.768  20.499  1.00  0.00     0.090 A 
HETATM    2  C6  UNL     1      25.250  13.326  21.698  1.00  0.00     0.039 A 
HETATM    3  C7  UNL     1      26.573  13.291  22.076  1.00  0.00     0.011 A 
HETATM    4  C8  UNL     1      27.546  12.713  21.304  1.00  0.00    -0.047 A 
HETATM    5  C11 UNL     1      27.133  12.161  20.117  1.00  0.00     0.034 A 
HETATM    6  C12 UNL     1      25.839  12.168  19.698  1.00  0.00     0.068 A 
HETATM    7 CL1  UNL     1      25.411  11.436  18.165  1.00  0.00    -0.081 Cl
ENDROOT
BRANCH   4   8
HETATM    8  C9  UNL     1      28.983  12.674  21.662  1.00  0.00     0.120 C 
BRANCH   8   9
HETATM    9  S1  UNL     1      29.721  11.155  21.108  1.00  0.00    -0.093 SA
BRANCH   9  10
HETATM   10  C10 UNL     1      29.309   9.778  22.146  1.00  0.00     0.148 C 
HETATM   11  N1  UNL     1      29.843   9.609  23.482  1.00  0.00    -0.075 NA
HETATM   12  N2  UNL     1      28.497   8.903  21.666  1.00  0.00    -0.382 N 
ATOM     13  H22 UNL     1      28.121   9.022  20.725  1.00  0.00     0.157 HD
ATOM     14  H21 UNL     1      28.259   8.111  22.263  1.00  0.00     0.157 HD
ENDBRANCH   9  10
ENDBRANCH   8   9
ENDBRANCH   4   8
BRANCH   1  15
HETATM   15  O1  UNL     1      23.598  12.719  19.999  1.00  0.00    -0.349 OA
BRANCH  15  16
HETATM   16  C4  UNL     1      22.450  12.070  20.125  1.00  0.00     0.175 C 
BRANCH  16  17
HETATM   17  C3  UNL     1      22.044  11.392  21.377  1.00  0.00     0.026 C 
BRANCH  17  18
HETATM   18  C2  UNL     1      22.090   9.913  21.455  1.00  0.00    -0.002 C 
HETATM   19  C1  UNL     1      23.580   9.504  21.533  1.00  0.00     0.005 C 
ENDBRANCH  17  18
ENDBRANCH  16  17
ENDBRANCH  15  16
ENDBRANCH   1  15
TORSDOF 7
ENDMDL
