MODEL 7
REMARK VINA RESULT: -5.798871547      1.808      2.071
REMARK  7 active torsions:
REMARK  status: ('A' for Active; 'I' for Inactive)
REMARK    1  A    between atoms: C2_2  and  C3_3 
REMARK    2  A    between atoms: C3_3  and  C4_4 
REMARK    3  A    between atoms: C4_4  and  O1_5 
REMARK    4  A    between atoms: O1_5  and  C5_6 
REMARK    5  A    between atoms: C8_9  and  C9_10 
REMARK    6  A    between atoms: C9_10  and  S1_11 
REMARK    7  A    between atoms: S1_11  and  C10_12 
ROOT
HETATM    1  C5  UNL     1      23.895  11.162  19.770  1.00  0.00     0.090 A 
HETATM    2  C6  UNL     1      23.945   9.943  20.426  1.00  0.00     0.039 A 
HETATM    3  C7  UNL     1      23.020   9.621  21.393  1.00  0.00     0.011 A 
HETATM    4  C8  UNL     1      22.012  10.471  21.762  1.00  0.00    -0.047 A 
HETATM    5  C11 UNL     1      21.966  11.679  21.112  1.00  0.00     0.034 A 
HETATM    6  C12 UNL     1      22.854  12.045  20.148  1.00  0.00     0.068 A 
HETATM    7 CL1  UNL     1      22.711  13.611  19.376  1.00  0.00    -0.081 Cl
ENDROOT
BRANCH   4   8
HETATM    8  C9  UNL     1      20.985  10.155  22.781  1.00  0.00     0.120 C 
BRANCH   8   9
HETATM    9  S1  UNL     1      21.729   9.998  24.388  1.00  0.00    -0.093 SA
BRANCH   9  10
HETATM   10  C10 UNL     1      20.705  10.649  25.680  1.00  0.00     0.148 C 
HETATM   11  N1  UNL     1      19.863  11.816  25.508  1.00  0.00    -0.075 NA
HETATM   12  N2  UNL     1      20.731  10.040  26.813  1.00  0.00    -0.382 N 
ATOM     13  H22 UNL     1      21.324   9.219  26.935  1.00  0.00     0.157 HD
ATOM     14  H21 UNL     1      20.141  10.415  27.557  1.00  0.00     0.157 HD
ENDBRANCH   9  10
ENDBRANCH   8   9
ENDBRANCH   4   8
BRANCH   1  15
HETATM   15  O1  UNL     1      24.715  11.619  18.819  1.00  0.00    -0.349 OA
BRANCH  15  16
HETATM   16  C4  UNL     1      25.934  12.110  18.642  1.00  0.00     0.175 C 
BRANCH  16  17
HETATM   17  C3  UNL     1      26.776  12.588  19.762  1.00  0.00     0.026 C 
BRANCH  17  18
HETATM   18  C2  UNL     1      26.384  13.808  20.504  1.00  0.00    -0.002 C 
HETATM   19  C1  UNL     1      25.895  13.358  21.902  1.00  0.00     0.005 C 
ENDBRANCH  17  18
ENDBRANCH  16  17
ENDBRANCH  15  16
ENDBRANCH   1  15
TORSDOF 7
ENDMDL
