MODEL 1
REMARK VINA RESULT: -6.403664783      0.000      0.000
REMARK  7 active torsions:
REMARK  status: ('A' for Active; 'I' for Inactive)
REMARK    1  A    between atoms: C2_2  and  C3_3 
REMARK    2  A    between atoms: C3_3  and  C4_4 
REMARK    3  A    between atoms: C4_4  and  O1_5 
REMARK    4  A    between atoms: O1_5  and  C5_6 
REMARK    5  A    between atoms: C8_9  and  C9_10 
REMARK    6  A    between atoms: C9_10  and  S1_11 
REMARK    7  A    between atoms: S1_11  and  C10_12 
ROOT
HETATM    1  C5  UNL     1      24.254  11.207  19.528  1.00  0.00     0.090 A 
HETATM    2  C6  UNL     1      24.205   9.929  20.062  1.00  0.00     0.039 A 
HETATM    3  C7  UNL     1      23.149   9.531  20.849  1.00  0.00     0.011 A 
HETATM    4  C8  UNL     1      22.098  10.357  21.148  1.00  0.00    -0.047 A 
HETATM    5  C11 UNL     1      22.149  11.622  20.618  1.00  0.00     0.034 A 
HETATM    6  C12 UNL     1      23.170  12.066  19.835  1.00  0.00     0.068 A 
HETATM    7 CL1  UNL     1      23.144  13.700  19.205  1.00  0.00    -0.081 Cl
ENDROOT
BRANCH   4   8
HETATM    8  C9  UNL     1      20.932   9.961  21.970  1.00  0.00     0.120 C 
BRANCH   8   9
HETATM    9  S1  UNL     1      21.013  10.727  23.573  1.00  0.00    -0.093 SA
BRANCH   9  10
HETATM   10  C10 UNL     1      22.559  10.436  24.391  1.00  0.00     0.148 C 
HETATM   11  N1  UNL     1      23.493  11.496  24.711  1.00  0.00    -0.075 NA
HETATM   12  N2  UNL     1      22.839   9.220  24.701  1.00  0.00    -0.382 N 
ATOM     13  H22 UNL     1      22.181   8.473  24.475  1.00  0.00     0.157 HD
ATOM     14  H21 UNL     1      23.729   9.052  25.172  1.00  0.00     0.157 HD
ENDBRANCH   9  10
ENDBRANCH   8   9
ENDBRANCH   4   8
BRANCH   1  15
HETATM   15  O1  UNL     1      25.206  11.740  18.756  1.00  0.00    -0.349 OA
BRANCH  15  16
HETATM   16  C4  UNL     1      26.514  11.946  18.708  1.00  0.00     0.175 C 
BRANCH  16  17
HETATM   17  C3  UNL     1      27.437  11.492  19.773  1.00  0.00     0.026 C 
BRANCH  17  18
HETATM   18  C2  UNL     1      27.953  10.104  19.752  1.00  0.00    -0.002 C 
HETATM   19  C1  UNL     1      28.794   9.907  21.036  1.00  0.00     0.005 C 
ENDBRANCH  17  18
ENDBRANCH  16  17
ENDBRANCH  15  16
ENDBRANCH   1  15
TORSDOF 7
ENDMDL
