MODEL 8
REMARK VINA RESULT: -5.752066456      1.525      1.745
REMARK  7 active torsions:
REMARK  status: ('A' for Active; 'I' for Inactive)
REMARK    1  A    between atoms: C2_2  and  C3_3 
REMARK    2  A    between atoms: C3_3  and  C4_4 
REMARK    3  A    between atoms: C4_4  and  O1_5 
REMARK    4  A    between atoms: O1_5  and  C5_6 
REMARK    5  A    between atoms: C8_9  and  C9_10 
REMARK    6  A    between atoms: C9_10  and  S1_11 
REMARK    7  A    between atoms: S1_11  and  C10_12 
ROOT
HETATM    1  C5  UNL     1      25.093  11.147  20.073  1.00  0.00     0.090 A 
HETATM    2  C6  UNL     1      24.234  10.200  19.540  1.00  0.00     0.039 A 
HETATM    3  C7  UNL     1      23.023   9.929  20.135  1.00  0.00     0.011 A 
HETATM    4  C8  UNL     1      22.599  10.565  21.270  1.00  0.00    -0.047 A 
HETATM    5  C11 UNL     1      23.453  11.502  21.797  1.00  0.00     0.034 A 
HETATM    6  C12 UNL     1      24.661  11.807  21.249  1.00  0.00     0.068 A 
HETATM    7 CL1  UNL     1      25.681  13.019  21.997  1.00  0.00    -0.081 Cl
ENDROOT
BRANCH   4   8
HETATM    8  C9  UNL     1      21.295  10.320  21.929  1.00  0.00     0.120 C 
BRANCH   8   9
HETATM    9  S1  UNL     1      21.186  11.231  23.451  1.00  0.00    -0.093 SA
BRANCH   9  10
HETATM   10  C10 UNL     1      21.462  10.213  24.876  1.00  0.00     0.148 C 
HETATM   11  N1  UNL     1      20.797  10.433  26.144  1.00  0.00    -0.075 NA
HETATM   12  N2  UNL     1      22.297   9.242  24.751  1.00  0.00    -0.382 N 
ATOM     13  H22 UNL     1      22.766   9.087  23.859  1.00  0.00     0.157 HD
ATOM     14  H21 UNL     1      22.456   8.656  25.572  1.00  0.00     0.157 HD
ENDBRANCH   9  10
ENDBRANCH   8   9
ENDBRANCH   4   8
BRANCH   1  15
HETATM   15  O1  UNL     1      26.295  11.515  19.618  1.00  0.00    -0.349 OA
BRANCH  15  16
HETATM   16  C4  UNL     1      27.561  11.127  19.588  1.00  0.00     0.175 C 
BRANCH  16  17
HETATM   17  C3  UNL     1      28.042   9.902  20.268  1.00  0.00     0.026 C 
BRANCH  17  18
HETATM   18  C2  UNL     1      29.092  10.007  21.307  1.00  0.00    -0.002 C 
HETATM   19  C1  UNL     1      29.451  11.506  21.447  1.00  0.00     0.005 C 
ENDBRANCH  17  18
ENDBRANCH  16  17
ENDBRANCH  15  16
ENDBRANCH   1  15
TORSDOF 7
ENDMDL
