MODEL 1
REMARK VINA RESULT: -6.981650203      0.000      0.000
REMARK  3 active torsions:
REMARK  status: ('A' for Active; 'I' for Inactive)
REMARK    1  A    between atoms: C5_8  and  C6_9 
REMARK    2  A    between atoms: C6_9  and  C7_10 
REMARK    3  A    between atoms: C7_10  and  C8_11 
ROOT
HETATM    1  C6  UNL     1      22.776  10.728  19.398  1.00  0.00     0.047 C 
ENDROOT
BRANCH   1   2
HETATM    2  C5  UNL     1      24.241  10.811  19.528  1.00  0.00    -0.017 A 
HETATM    3  C1  UNL     1      24.925  10.181  20.552  1.00  0.00     0.122 A 
HETATM    4  N1  UNL     1      24.134   9.443  21.481  1.00  0.00    -0.082 NA
HETATM    5  N2  UNL     1      26.266  10.261  20.665  1.00  0.00    -0.354 N 
HETATM    6  C2  UNL     1      27.025  10.951  19.798  1.00  0.00     0.089 A 
ATOM      7  H2  UNL     1      26.722   9.779  21.440  1.00  0.00     0.166 HD
HETATM    8  C3  UNL     1      26.389  11.596  18.759  1.00  0.00     0.018 A 
HETATM    9  C4  UNL     1      25.019  11.522  18.634  1.00  0.00     0.012 A 
ENDBRANCH   1   2
BRANCH   1  10
HETATM   10  C7  UNL     1      22.081  12.047  19.610  1.00  0.00     0.043 C 
BRANCH  10  11
HETATM   11  C8  UNL     1      21.668  12.184  21.028  1.00  0.00    -0.056 A 
HETATM   12  C9  UNL     1      21.836  13.381  21.701  1.00  0.00     0.007 A 
HETATM   13  C10 UNL     1      21.452  13.500  23.014  1.00  0.00     0.002 A 
HETATM   14  C11 UNL     1      20.885  12.437  23.716  1.00  0.00     0.024 A 
HETATM   15  C12 UNL     1      20.720  11.243  23.034  1.00  0.00     0.034 A 
HETATM   16 CL1  UNL     1      20.009   9.905  23.905  1.00  0.00    -0.084 Cl
HETATM   17  C13 UNL     1      21.105  11.118  21.713  1.00  0.00     0.031 A 
ENDBRANCH  10  11
ENDBRANCH   1  10
TORSDOF 3
ENDMDL
