MODEL 3
REMARK VINA RESULT: -6.868291256      2.563      3.707
REMARK  3 active torsions:
REMARK  status: ('A' for Active; 'I' for Inactive)
REMARK    1  A    between atoms: C5_8  and  C6_9 
REMARK    2  A    between atoms: C6_9  and  C7_10 
REMARK    3  A    between atoms: C7_10  and  C8_11 
ROOT
HETATM    1  C6  UNL     1      26.224  11.680  18.564  1.00  0.00     0.047 C 
ENDROOT
BRANCH   1   2
HETATM    2  C5  UNL     1      27.139  11.329  19.662  1.00  0.00    -0.017 A 
HETATM    3  C1  UNL     1      27.312  12.145  20.766  1.00  0.00     0.122 A 
HETATM    4  N1  UNL     1      26.551  13.351  20.785  1.00  0.00    -0.082 NA
HETATM    5  N2  UNL     1      28.151  11.817  21.768  1.00  0.00    -0.354 N 
HETATM    6  C2  UNL     1      28.873  10.684  21.766  1.00  0.00     0.089 A 
ATOM      7  H2  UNL     1      28.242  12.454  22.560  1.00  0.00     0.166 HD
HETATM    8  C3  UNL     1      28.735   9.837  20.687  1.00  0.00     0.018 A 
HETATM    9  C4  UNL     1      27.881  10.162  19.656  1.00  0.00     0.012 A 
ENDBRANCH   1   2
BRANCH   1  10
HETATM   10  C7  UNL     1      25.055  10.740  18.434  1.00  0.00     0.043 C 
BRANCH  10  11
HETATM   11  C8  UNL     1      23.917  11.225  19.254  1.00  0.00    -0.056 A 
HETATM   12  C9  UNL     1      23.290  10.388  20.160  1.00  0.00     0.007 A 
HETATM   13  C10 UNL     1      22.237  10.844  20.914  1.00  0.00     0.002 A 
HETATM   14  C11 UNL     1      21.760  12.148  20.801  1.00  0.00     0.024 A 
HETATM   15  C12 UNL     1      22.392  12.979  19.891  1.00  0.00     0.034 A 
HETATM   16 CL1  UNL     1      21.801  14.617  19.743  1.00  0.00    -0.084 Cl
HETATM   17  C13 UNL     1      23.453  12.526  19.130  1.00  0.00     0.031 A 
ENDBRANCH  10  11
ENDBRANCH   1  10
TORSDOF 3
ENDMDL
