MODEL 2
REMARK VINA RESULT: -6.934580158      2.391      2.990
REMARK  3 active torsions:
REMARK  status: ('A' for Active; 'I' for Inactive)
REMARK    1  A    between atoms: C5_8  and  C6_9 
REMARK    2  A    between atoms: C6_9  and  C7_10 
REMARK    3  A    between atoms: C7_10  and  C8_11 
ROOT
HETATM    1  C6  UNL     1      21.998  12.190  19.497  1.00  0.00     0.047 C 
ENDROOT
BRANCH   1   2
HETATM    2  C5  UNL     1      23.378  12.373  19.016  1.00  0.00    -0.017 A 
HETATM    3  C1  UNL     1      23.801  13.550  18.426  1.00  0.00     0.122 A 
HETATM    4  N1  UNL     1      22.827  14.584  18.308  1.00  0.00    -0.082 NA
HETATM    5  N2  UNL     1      25.066  13.711  17.988  1.00  0.00    -0.354 N 
HETATM    6  C2  UNL     1      25.996  12.748  18.093  1.00  0.00     0.089 A 
ATOM      7  H2  UNL     1      25.327  14.599  17.559  1.00  0.00     0.166 HD
HETATM    8  C3  UNL     1      25.622  11.555  18.674  1.00  0.00     0.018 A 
HETATM    9  C4  UNL     1      24.332  11.379  19.126  1.00  0.00     0.012 A 
ENDBRANCH   1   2
BRANCH   1  10
HETATM   10  C7  UNL     1      21.742  10.824  20.076  1.00  0.00     0.043 C 
BRANCH  10  11
HETATM   11  C8  UNL     1      21.231  10.944  21.463  1.00  0.00    -0.056 A 
HETATM   12  C9  UNL     1      20.680   9.854  22.111  1.00  0.00     0.007 A 
HETATM   13  C10 UNL     1      20.208   9.974  23.395  1.00  0.00     0.002 A 
HETATM   14  C11 UNL     1      20.263  11.180  24.092  1.00  0.00     0.024 A 
HETATM   15  C12 UNL     1      20.816  12.267  23.435  1.00  0.00     0.034 A 
HETATM   16 CL1  UNL     1      20.890  13.784  24.300  1.00  0.00    -0.084 Cl
HETATM   17  C13 UNL     1      21.293  12.152  22.143  1.00  0.00     0.031 A 
ENDBRANCH  10  11
ENDBRANCH   1  10
TORSDOF 3
ENDMDL
