MODEL 13
REMARK VINA RESULT: -3.324419851      0.823      1.395
REMARK  4 active torsions:
REMARK  status: ('A' for Active; 'I' for Inactive)
REMARK    1  A    between atoms: N1_1  and  C1_5 
REMARK    2  A    between atoms: C1_5  and  C2_6 
REMARK    3  A    between atoms: C2_6  and  O1_7 
REMARK    4  A    between atoms: O1_7  and  P1_8 
ROOT
HETATM    1  C2  UNL     1      18.522  15.956  55.136  1.00  0.00     0.209 C 
ENDROOT
BRANCH   1   2
HETATM    2  C1  UNL     1      18.392  14.912  54.088  1.00  0.00     0.256 C 
BRANCH   2   3
HETATM    3  N1  UNL     1      18.386  13.560  54.631  1.00  0.00    -0.077 N 
ATOM      4  H13 UNL     1      17.894  12.919  54.008  1.00  0.00     0.274 HD
ATOM      5  H12 UNL     1      19.318  13.147  54.592  1.00  0.00     0.274 HD
ATOM      6  H11 UNL     1      18.005  13.512  55.576  1.00  0.00     0.274 HD
ENDBRANCH   2   3
ENDBRANCH   1   2
BRANCH   1   7
HETATM    7  O1  UNL     1      17.221  16.062  55.673  1.00  0.00    -0.281 OA
BRANCH   7   8
HETATM    8  P1  UNL     1      17.008  15.932  57.193  1.00  0.00     0.422 P 
HETATM    9  O2  UNL     1      18.543  16.543  57.359  1.00  0.00    -0.617 OA
HETATM   10  O3  UNL     1      16.854  14.304  57.115  1.00  0.00    -0.617 OA
HETATM   11  O4  UNL     1      16.811  15.979  58.711  1.00  0.00    -0.617 OA
ENDBRANCH   7   8
ENDBRANCH   1   7
TORSDOF 4
ENDMDL
