MODEL 1
REMARK VINA RESULT: -3.753806391      0.000      0.000
REMARK  4 active torsions:
REMARK  status: ('A' for Active; 'I' for Inactive)
REMARK    1  A    between atoms: N1_1  and  C1_5 
REMARK    2  A    between atoms: C1_5  and  C2_6 
REMARK    3  A    between atoms: C2_6  and  O1_7 
REMARK    4  A    between atoms: O1_7  and  P1_8 
ROOT
HETATM    1  C2  UNL     1      18.524  15.845  55.152  1.00  0.00     0.209 C 
ENDROOT
BRANCH   1   2
HETATM    2  C1  UNL     1      18.377  14.767  54.142  1.00  0.00     0.256 C 
BRANCH   2   3
HETATM    3  N1  UNL     1      18.303  13.438  54.736  1.00  0.00    -0.077 N 
ATOM      4  H13 UNL     1      19.234  13.033  54.839  1.00  0.00     0.274 HD
ATOM      5  H12 UNL     1      18.036  13.493  55.719  1.00  0.00     0.274 HD
ATOM      6  H11 UNL     1      17.685  12.808  54.225  1.00  0.00     0.274 HD
ENDBRANCH   2   3
ENDBRANCH   1   2
BRANCH   1   7
HETATM    7  O1  UNL     1      17.213  16.031  55.643  1.00  0.00    -0.281 OA
BRANCH   7   8
HETATM    8  P1  UNL     1      16.975  16.150  57.160  1.00  0.00     0.422 P 
HETATM    9  O2  UNL     1      16.943  14.491  57.186  1.00  0.00    -0.617 OA
HETATM   10  O3  UNL     1      15.546  16.924  56.958  1.00  0.00    -0.617 OA
HETATM   11  O4  UNL     1      16.894  16.189  58.690  1.00  0.00    -0.617 OA
ENDBRANCH   7   8
ENDBRANCH   1   7
TORSDOF 4
ENDMDL
