MODEL 7
REMARK VINA RESULT: -7.068108000      2.265      6.809
REMARK  10 active torsions:
REMARK  status: ('A' for Active; 'I' for Inactive)
REMARK    1  A    between atoms: C2_2  and  C4_4 
REMARK    2  A    between atoms: C4_4  and  C5_5 
REMARK    3  A    between atoms: C5_5  and  N1_6 
REMARK    4  A    between atoms: C5_5  and  C16_25 
REMARK       I    between atoms: N1_6  and  C6_8 
REMARK    5  A    between atoms: C6_8  and  C7_10 
REMARK    6  A    between atoms: C7_10  and  O2_11 
REMARK    7  A    between atoms: C7_10  and  C8_13 
REMARK    8  A    between atoms: C8_13  and  N2_14 
REMARK    9  A    between atoms: C8_13  and  C9_18 
REMARK   10  A    between atoms: C9_18  and  C10_19 
ROOT
HETATM    1  C7  UNL     1      86.011  75.291  30.139  1.00  0.00     0.240 C 
ENDROOT
BRANCH   1   2
HETATM    2  C6  UNL     1      85.351  74.172  30.838  1.00  0.00     0.249 C 
HETATM    3  N1  UNL     1      84.499  73.238  30.232  1.00  0.00    -0.344 N 
ATOM      4  H1  UNL     1      84.321  73.338  29.232  1.00  0.00     0.163 HD
HETATM    5  O1  UNL     1      85.567  74.043  32.069  1.00  0.00    -0.271 OA
BRANCH   3   6
HETATM    6  C5  UNL     1      83.847  72.129  30.930  1.00  0.00     0.185 C 
BRANCH   6   7
HETATM    7  C4  UNL     1      82.466  72.492  31.313  1.00  0.00     0.040 C 
BRANCH   7   8
HETATM    8  C2  UNL     1      81.798  71.744  32.396  1.00  0.00    -0.020 C 
HETATM    9  C1  UNL     1      80.291  71.905  32.433  1.00  0.00     0.009 C 
HETATM   10  C3  UNL     1      82.400  71.779  33.746  1.00  0.00     0.009 C 
ENDBRANCH   7   8
ENDBRANCH   6   7
BRANCH   6  11
HETATM   11  C16 UNL     1      84.062  70.917  30.166  1.00  0.00     0.196 C 
HETATM   12  O3  UNL     1      84.417  71.017  28.936  1.00  0.00    -0.646 OA
HETATM   13  O4  UNL     1      83.931  69.626  30.616  1.00  0.00    -0.646 OA
ENDBRANCH   6  11
ENDBRANCH   3   6
ENDBRANCH   1   2
BRANCH   1  14
HETATM   14  O2  UNL     1      85.379  76.489  30.416  1.00  0.00    -0.384 OA
ATOM     15  H2  UNL     1      85.482  76.724  31.330  1.00  0.00     0.210 HD
ENDBRANCH   1  14
BRANCH   1  16
HETATM   16  C8  UNL     1      87.488  75.316  30.299  1.00  0.00     0.225 C 
BRANCH  16  17
HETATM   17  N2  UNL     1      88.111  76.484  29.713  1.00  0.00    -0.072 N 
ATOM     18  H23 UNL     1      88.266  76.348  28.714  1.00  0.00     0.274 HD
ATOM     19  H22 UNL     1      87.456  77.264  29.678  1.00  0.00     0.274 HD
ATOM     20  H21 UNL     1      88.976  76.759  30.178  1.00  0.00     0.274 HD
ENDBRANCH  16  17
BRANCH  16  21
HETATM   21  C9  UNL     1      88.081  74.031  29.783  1.00  0.00     0.074 C 
BRANCH  21  22
HETATM   22  C10 UNL     1      89.097  73.424  30.648  1.00  0.00    -0.056 A 
HETATM   23  C11 UNL     1      88.797  72.536  31.657  1.00  0.00     0.007 A 
HETATM   24  C12 UNL     1      89.740  71.962  32.470  1.00  0.00     0.001 A 
HETATM   25  C13 UNL     1      91.061  72.259  32.301  1.00  0.00     0.000 A 
HETATM   26  C14 UNL     1      91.408  73.146  31.299  1.00  0.00     0.001 A 
HETATM   27  C15 UNL     1      90.445  73.717  30.489  1.00  0.00     0.007 A 
ENDBRANCH  21  22
ENDBRANCH  16  21
ENDBRANCH   1  16
TORSDOF 10
ENDMDL
