MODEL 3
REMARK VINA RESULT: -7.874560553      0.483      1.490
REMARK  10 active torsions:
REMARK  status: ('A' for Active; 'I' for Inactive)
REMARK    1  A    between atoms: C2_2  and  C4_4 
REMARK    2  A    between atoms: C4_4  and  C5_5 
REMARK    3  A    between atoms: C5_5  and  N1_6 
REMARK    4  A    between atoms: C5_5  and  C16_25 
REMARK       I    between atoms: N1_6  and  C6_8 
REMARK    5  A    between atoms: C6_8  and  C7_10 
REMARK    6  A    between atoms: C7_10  and  O2_11 
REMARK    7  A    between atoms: C7_10  and  C8_13 
REMARK    8  A    between atoms: C8_13  and  N2_14 
REMARK    9  A    between atoms: C8_13  and  C9_18 
REMARK   10  A    between atoms: C9_18  and  C10_19 
ROOT
HETATM    1  C7  UNL     1      87.082  75.473  30.153  1.00  0.00     0.240 C 
ENDROOT
BRANCH   1   2
HETATM    2  C6  UNL     1      88.017  74.331  30.145  1.00  0.00     0.249 C 
HETATM    3  N1  UNL     1      88.955  74.054  31.149  1.00  0.00    -0.344 N 
ATOM      4  H1  UNL     1      88.996  74.689  31.947  1.00  0.00     0.163 HD
HETATM    5  O1  UNL     1      87.971  73.544  29.166  1.00  0.00    -0.271 OA
BRANCH   3   6
HETATM    6  C5  UNL     1      89.879  72.919  31.136  1.00  0.00     0.185 C 
BRANCH   6   7
HETATM    7  C4  UNL     1      91.281  73.386  31.182  1.00  0.00     0.040 C 
BRANCH   7   8
HETATM    8  C2  UNL     1      92.316  72.630  30.450  1.00  0.00    -0.020 C 
HETATM    9  C1  UNL     1      93.682  72.636  31.110  1.00  0.00     0.009 C 
HETATM   10  C3  UNL     1      92.400  72.795  28.984  1.00  0.00     0.009 C 
ENDBRANCH   7   8
ENDBRANCH   6   7
BRANCH   6  11
HETATM   11  C16 UNL     1      89.433  71.955  32.122  1.00  0.00     0.196 C 
HETATM   12  O3  UNL     1      90.148  71.771  33.173  1.00  0.00    -0.646 OA
HETATM   13  O4  UNL     1      88.295  71.188  32.068  1.00  0.00    -0.646 OA
ENDBRANCH   6  11
ENDBRANCH   3   6
ENDBRANCH   1   2
BRANCH   1  14
HETATM   14  O2  UNL     1      87.456  76.424  29.223  1.00  0.00    -0.384 OA
ATOM     15  H2  UNL     1      86.694  76.855  28.853  1.00  0.00     0.210 HD
ENDBRANCH   1  14
BRANCH   1  16
HETATM   16  C8  UNL     1      85.650  75.082  30.102  1.00  0.00     0.225 C 
BRANCH  16  17
HETATM   17  N2  UNL     1      84.809  76.059  29.443  1.00  0.00    -0.072 N 
ATOM     18  H23 UNL     1      84.196  76.519  30.115  1.00  0.00     0.274 HD
ATOM     19  H22 UNL     1      85.360  76.862  29.138  1.00  0.00     0.274 HD
ATOM     20  H21 UNL     1      84.271  75.674  28.667  1.00  0.00     0.274 HD
ENDBRANCH  16  17
BRANCH  16  21
HETATM   21  C9  UNL     1      85.161  74.746  31.486  1.00  0.00     0.074 C 
BRANCH  21  22
HETATM   22  C10 UNL     1      84.188  73.652  31.554  1.00  0.00    -0.056 A 
HETATM   23  C11 UNL     1      83.042  73.707  32.315  1.00  0.00     0.007 A 
HETATM   24  C12 UNL     1      82.125  72.690  32.385  1.00  0.00     0.001 A 
HETATM   25  C13 UNL     1      82.322  71.543  31.673  1.00  0.00     0.000 A 
HETATM   26  C14 UNL     1      83.459  71.444  30.895  1.00  0.00     0.001 A 
HETATM   27  C15 UNL     1      84.374  72.478  30.836  1.00  0.00     0.007 A 
ENDBRANCH  21  22
ENDBRANCH  16  21
ENDBRANCH   1  16
TORSDOF 10
ENDMDL
