MODEL 12
REMARK VINA RESULT: -6.700430525      1.358      1.804
REMARK  10 active torsions:
REMARK  status: ('A' for Active; 'I' for Inactive)
REMARK    1  A    between atoms: C2_2  and  C4_4 
REMARK    2  A    between atoms: C4_4  and  C5_5 
REMARK    3  A    between atoms: C5_5  and  N1_6 
REMARK    4  A    between atoms: C5_5  and  C16_25 
REMARK       I    between atoms: N1_6  and  C6_8 
REMARK    5  A    between atoms: C6_8  and  C7_10 
REMARK    6  A    between atoms: C7_10  and  O2_11 
REMARK    7  A    between atoms: C7_10  and  C8_13 
REMARK    8  A    between atoms: C8_13  and  N2_14 
REMARK    9  A    between atoms: C8_13  and  C9_18 
REMARK   10  A    between atoms: C9_18  and  C10_19 
ROOT
HETATM    1  C7  UNL     1      86.765  75.253  30.208  1.00  0.00     0.240 C 
ENDROOT
BRANCH   1   2
HETATM    2  C6  UNL     1      87.575  74.024  30.313  1.00  0.00     0.249 C 
HETATM    3  N1  UNL     1      88.445  73.549  29.323  1.00  0.00    -0.344 N 
ATOM      4  H1  UNL     1      88.527  74.092  28.464  1.00  0.00     0.163 HD
HETATM    5  O1  UNL     1      87.479  73.350  31.370  1.00  0.00    -0.271 OA
BRANCH   3   6
HETATM    6  C5  UNL     1      89.246  72.329  29.434  1.00  0.00     0.185 C 
BRANCH   6   7
HETATM    7  C4  UNL     1      90.256  72.462  30.506  1.00  0.00     0.040 C 
BRANCH   7   8
HETATM    8  C2  UNL     1      91.681  72.256  30.182  1.00  0.00    -0.020 C 
HETATM    9  C1  UNL     1      92.632  72.527  31.332  1.00  0.00     0.009 C 
HETATM   10  C3  UNL     1      92.191  72.781  28.897  1.00  0.00     0.009 C 
ENDBRANCH   7   8
ENDBRANCH   6   7
BRANCH   6  11
HETATM   11  C16 UNL     1      88.348  71.192  29.461  1.00  0.00     0.196 C 
HETATM   12  O3  UNL     1      87.500  71.053  28.507  1.00  0.00    -0.646 OA
HETATM   13  O4  UNL     1      88.295  70.208  30.417  1.00  0.00    -0.646 OA
ENDBRANCH   6  11
ENDBRANCH   3   6
ENDBRANCH   1   2
BRANCH   1  14
HETATM   14  O2  UNL     1      87.337  76.148  29.323  1.00  0.00    -0.384 OA
ATOM     15  H2  UNL     1      86.741  76.351  28.612  1.00  0.00     0.210 HD
ENDBRANCH   1  14
BRANCH   1  16
HETATM   16  C8  UNL     1      85.316  75.006  29.992  1.00  0.00     0.225 C 
BRANCH  16  17
HETATM   17  N2  UNL     1      84.699  75.952  29.087  1.00  0.00    -0.072 N 
ATOM     18  H23 UNL     1      85.280  76.783  28.983  1.00  0.00     0.274 HD
ATOM     19  H22 UNL     1      84.724  75.605  28.128  1.00  0.00     0.274 HD
ATOM     20  H21 UNL     1      83.748  76.207  29.354  1.00  0.00     0.274 HD
ENDBRANCH  16  17
BRANCH  16  21
HETATM   21  C9  UNL     1      84.606  74.934  31.318  1.00  0.00     0.074 C 
BRANCH  21  22
HETATM   22  C10 UNL     1      83.824  73.714  31.540  1.00  0.00    -0.056 A 
HETATM   23  C11 UNL     1      84.049  72.539  30.858  1.00  0.00     0.007 A 
HETATM   24  C12 UNL     1      83.324  71.392  31.058  1.00  0.00     0.001 A 
HETATM   25  C13 UNL     1      82.316  71.373  31.978  1.00  0.00     0.000 A 
HETATM   26  C14 UNL     1      82.056  72.531  32.686  1.00  0.00     0.001 A 
HETATM   27  C15 UNL     1      82.795  73.678  32.471  1.00  0.00     0.007 A 
ENDBRANCH  21  22
ENDBRANCH  16  21
ENDBRANCH   1  16
TORSDOF 10
ENDMDL
