MODEL 1
REMARK VINA RESULT: -8.095500377      0.000      0.000
REMARK  10 active torsions:
REMARK  status: ('A' for Active; 'I' for Inactive)
REMARK    1  A    between atoms: C2_2  and  C4_4 
REMARK    2  A    between atoms: C4_4  and  C5_5 
REMARK    3  A    between atoms: C5_5  and  N1_6 
REMARK    4  A    between atoms: C5_5  and  C16_25 
REMARK       I    between atoms: N1_6  and  C6_8 
REMARK    5  A    between atoms: C6_8  and  C7_10 
REMARK    6  A    between atoms: C7_10  and  O2_11 
REMARK    7  A    between atoms: C7_10  and  C8_13 
REMARK    8  A    between atoms: C8_13  and  N2_14 
REMARK    9  A    between atoms: C8_13  and  C9_18 
REMARK   10  A    between atoms: C9_18  and  C10_19 
ROOT
HETATM    1  C7  UNL     1      87.116  75.486  30.117  1.00  0.00     0.240 C 
ENDROOT
BRANCH   1   2
HETATM    2  C6  UNL     1      88.051  74.345  30.086  1.00  0.00     0.249 C 
HETATM    3  N1  UNL     1      89.092  74.134  31.000  1.00  0.00    -0.344 N 
ATOM      4  H1  UNL     1      89.215  74.821  31.744  1.00  0.00     0.163 HD
HETATM    5  O1  UNL     1      87.905  73.495  29.171  1.00  0.00    -0.271 OA
BRANCH   3   6
HETATM    6  C5  UNL     1      90.016  72.999  30.964  1.00  0.00     0.185 C 
BRANCH   6   7
HETATM    7  C4  UNL     1      91.395  73.457  30.690  1.00  0.00     0.040 C 
BRANCH   7   8
HETATM    8  C2  UNL     1      92.080  72.988  29.470  1.00  0.00    -0.020 C 
HETATM    9  C1  UNL     1      91.206  72.179  28.531  1.00  0.00     0.009 C 
HETATM   10  C3  UNL     1      93.438  72.418  29.604  1.00  0.00     0.009 C 
ENDBRANCH   7   8
ENDBRANCH   6   7
BRANCH   6  11
HETATM   11  C16 UNL     1      89.774  72.175  32.131  1.00  0.00     0.196 C 
HETATM   12  O3  UNL     1      88.644  71.577  32.241  1.00  0.00    -0.646 OA
HETATM   13  O4  UNL     1      90.642  71.945  33.170  1.00  0.00    -0.646 OA
ENDBRANCH   6  11
ENDBRANCH   3   6
ENDBRANCH   1   2
BRANCH   1  14
HETATM   14  O2  UNL     1      87.488  76.456  29.205  1.00  0.00    -0.384 OA
ATOM     15  H2  UNL     1      86.983  77.251  29.329  1.00  0.00     0.210 HD
ENDBRANCH   1  14
BRANCH   1  16
HETATM   16  C8  UNL     1      85.684  75.096  30.060  1.00  0.00     0.225 C 
BRANCH  16  17
HETATM   17  N2  UNL     1      84.846  76.076  29.401  1.00  0.00    -0.072 N 
ATOM     18  H23 UNL     1      84.992  77.003  29.800  1.00  0.00     0.274 HD
ATOM     19  H22 UNL     1      85.171  76.247  28.449  1.00  0.00     0.274 HD
ATOM     20  H21 UNL     1      83.855  75.832  29.406  1.00  0.00     0.274 HD
ENDBRANCH  16  17
BRANCH  16  21
HETATM   21  C9  UNL     1      85.190  74.757  31.442  1.00  0.00     0.074 C 
BRANCH  21  22
HETATM   22  C10 UNL     1      84.217  73.662  31.504  1.00  0.00    -0.056 A 
HETATM   23  C11 UNL     1      84.374  72.475  30.825  1.00  0.00     0.007 A 
HETATM   24  C12 UNL     1      83.471  71.444  30.877  1.00  0.00     0.001 A 
HETATM   25  C13 UNL     1      82.343  71.562  31.634  1.00  0.00     0.000 A 
HETATM   26  C14 UNL     1      82.144  72.737  32.333  1.00  0.00     0.001 A 
HETATM   27  C15 UNL     1      83.064  73.767  32.269  1.00  0.00     0.007 A 
ENDBRANCH  21  22
ENDBRANCH  16  21
ENDBRANCH   1  16
TORSDOF 10
ENDMDL
