MODEL 10
REMARK VINA RESULT: -6.812096861      2.158      8.140
REMARK  10 active torsions:
REMARK  status: ('A' for Active; 'I' for Inactive)
REMARK    1  A    between atoms: C2_2  and  C4_4 
REMARK    2  A    between atoms: C4_4  and  C5_5 
REMARK    3  A    between atoms: C5_5  and  N1_6 
REMARK    4  A    between atoms: C5_5  and  C16_25 
REMARK       I    between atoms: N1_6  and  C6_8 
REMARK    5  A    between atoms: C6_8  and  C7_10 
REMARK    6  A    between atoms: C7_10  and  O2_11 
REMARK    7  A    between atoms: C7_10  and  C8_13 
REMARK    8  A    between atoms: C8_13  and  N2_14 
REMARK    9  A    between atoms: C8_13  and  C9_18 
REMARK   10  A    between atoms: C9_18  and  C10_19 
ROOT
HETATM    1  C7  UNL     1      91.099  73.397  30.537  1.00  0.00     0.240 C 
ENDROOT
BRANCH   1   2
HETATM    2  C6  UNL     1      89.678  73.409  30.140  1.00  0.00     0.249 C 
HETATM    3  N1  UNL     1      88.723  74.326  30.599  1.00  0.00    -0.344 N 
ATOM      4  H1  UNL     1      89.032  75.040  31.259  1.00  0.00     0.163 HD
HETATM    5  O1  UNL     1      89.291  72.531  29.327  1.00  0.00    -0.271 OA
BRANCH   3   6
HETATM    6  C5  UNL     1      87.315  74.333  30.201  1.00  0.00     0.185 C 
BRANCH   6   7
HETATM    7  C4  UNL     1      86.514  73.472  31.098  1.00  0.00     0.040 C 
BRANCH   7   8
HETATM    8  C2  UNL     1      85.386  72.701  30.538  1.00  0.00    -0.020 C 
HETATM    9  C1  UNL     1      84.059  72.936  31.232  1.00  0.00     0.009 C 
HETATM   10  C3  UNL     1      85.605  71.276  30.211  1.00  0.00     0.009 C 
ENDBRANCH   7   8
ENDBRANCH   6   7
BRANCH   6  11
HETATM   11  C16 UNL     1      86.902  75.707  30.004  1.00  0.00     0.196 C 
HETATM   12  O3  UNL     1      87.790  76.581  29.695  1.00  0.00    -0.646 OA
HETATM   13  O4  UNL     1      85.626  76.207  30.108  1.00  0.00    -0.646 OA
ENDBRANCH   6  11
ENDBRANCH   3   6
ENDBRANCH   1   2
BRANCH   1  14
HETATM   14  O2  UNL     1      91.241  73.718  31.874  1.00  0.00    -0.384 OA
ATOM     15  H2  UNL     1      91.169  74.656  32.008  1.00  0.00     0.210 HD
ENDBRANCH   1  14
BRANCH   1  16
HETATM   16  C8  UNL     1      91.836  72.181  30.108  1.00  0.00     0.225 C 
BRANCH  16  17
HETATM   17  N2  UNL     1      91.702  71.071  31.028  1.00  0.00    -0.072 N 
ATOM     18  H23 UNL     1      90.929  71.229  31.673  1.00  0.00     0.274 HD
ATOM     19  H22 UNL     1      91.353  70.242  30.545  1.00  0.00     0.274 HD
ATOM     20  H21 UNL     1      92.560  70.858  31.536  1.00  0.00     0.274 HD
ENDBRANCH  16  17
BRANCH  16  21
HETATM   21  C9  UNL     1      93.276  72.525  29.833  1.00  0.00     0.074 C 
BRANCH  21  22
HETATM   22  C10 UNL     1      94.245  71.941  30.766  1.00  0.00    -0.056 A 
HETATM   23  C11 UNL     1      94.402  72.376  32.062  1.00  0.00     0.007 A 
HETATM   24  C12 UNL     1      95.303  71.836  32.943  1.00  0.00     0.001 A 
HETATM   25  C13 UNL     1      96.107  70.806  32.551  1.00  0.00     0.000 A 
HETATM   26  C14 UNL     1      95.984  70.336  31.258  1.00  0.00     0.001 A 
HETATM   27  C15 UNL     1      95.070  70.892  30.382  1.00  0.00     0.007 A 
ENDBRANCH  21  22
ENDBRANCH  16  21
ENDBRANCH   1  16
TORSDOF 10
ENDMDL
