MODEL 5
REMARK VINA RESULT: -7.245068983      1.449      7.664
REMARK  10 active torsions:
REMARK  status: ('A' for Active; 'I' for Inactive)
REMARK    1  A    between atoms: C2_2  and  C4_4 
REMARK    2  A    between atoms: C4_4  and  C5_5 
REMARK    3  A    between atoms: C5_5  and  N1_6 
REMARK    4  A    between atoms: C5_5  and  C16_25 
REMARK       I    between atoms: N1_6  and  C6_8 
REMARK    5  A    between atoms: C6_8  and  C7_10 
REMARK    6  A    between atoms: C7_10  and  O2_11 
REMARK    7  A    between atoms: C7_10  and  C8_13 
REMARK    8  A    between atoms: C8_13  and  N2_14 
REMARK    9  A    between atoms: C8_13  and  C9_18 
REMARK   10  A    between atoms: C9_18  and  C10_19 
ROOT
HETATM    1  C7  UNL     1      89.286  72.747  31.269  1.00  0.00     0.240 C 
ENDROOT
BRANCH   1   2
HETATM    2  C6  UNL     1      87.996  73.175  30.694  1.00  0.00     0.249 C 
HETATM    3  N1  UNL     1      86.957  73.781  31.414  1.00  0.00    -0.344 N 
ATOM      4  H1  UNL     1      87.101  73.938  32.412  1.00  0.00     0.163 HD
HETATM    5  O1  UNL     1      87.812  72.984  29.466  1.00  0.00    -0.271 OA
BRANCH   3   6
HETATM    6  C5  UNL     1      85.680  74.203  30.837  1.00  0.00     0.185 C 
BRANCH   6   7
HETATM    7  C4  UNL     1      84.578  74.001  31.803  1.00  0.00     0.040 C 
BRANCH   7   8
HETATM    8  C2  UNL     1      83.486  73.068  31.463  1.00  0.00    -0.020 C 
HETATM    9  C1  UNL     1      82.461  72.873  32.564  1.00  0.00     0.009 C 
HETATM   10  C3  UNL     1      83.832  71.799  30.788  1.00  0.00     0.009 C 
ENDBRANCH   7   8
ENDBRANCH   6   7
BRANCH   6  11
HETATM   11  C16 UNL     1      85.856  75.515  30.247  1.00  0.00     0.196 C 
HETATM   12  O3  UNL     1      84.883  76.031  29.587  1.00  0.00    -0.646 OA
HETATM   13  O4  UNL     1      86.979  76.303  30.313  1.00  0.00    -0.646 OA
ENDBRANCH   6  11
ENDBRANCH   3   6
ENDBRANCH   1   2
BRANCH   1  14
HETATM   14  O2  UNL     1      89.580  71.446  30.910  1.00  0.00    -0.384 OA
ATOM     15  H2  UNL     1      89.968  71.413  30.042  1.00  0.00     0.210 HD
ENDBRANCH   1  14
BRANCH   1  16
HETATM   16  C8  UNL     1      90.392  73.717  31.060  1.00  0.00     0.225 C 
BRANCH  16  17
HETATM   17  N2  UNL     1      89.936  75.072  30.834  1.00  0.00    -0.072 N 
ATOM     18  H23 UNL     1      90.606  75.588  30.264  1.00  0.00     0.274 HD
ATOM     19  H22 UNL     1      89.133  75.083  30.204  1.00  0.00     0.274 HD
ATOM     20  H21 UNL     1      89.727  75.579  31.694  1.00  0.00     0.274 HD
ENDBRANCH  16  17
BRANCH  16  21
HETATM   21  C9  UNL     1      91.300  73.228  29.962  1.00  0.00     0.074 C 
BRANCH  21  22
HETATM   22  C10 UNL     1      92.540  72.592  30.417  1.00  0.00    -0.056 A 
HETATM   23  C11 UNL     1      92.910  72.522  31.741  1.00  0.00     0.007 A 
HETATM   24  C12 UNL     1      94.067  71.929  32.178  1.00  0.00     0.001 A 
HETATM   25  C13 UNL     1      94.925  71.363  31.281  1.00  0.00     0.000 A 
HETATM   26  C14 UNL     1      94.593  71.409  29.940  1.00  0.00     0.001 A 
HETATM   27  C15 UNL     1      93.423  72.012  29.517  1.00  0.00     0.007 A 
ENDBRANCH  21  22
ENDBRANCH  16  21
ENDBRANCH   1  16
TORSDOF 10
ENDMDL
