MODEL 2
REMARK VINA RESULT: -8.072788746      0.140      1.011
REMARK  10 active torsions:
REMARK  status: ('A' for Active; 'I' for Inactive)
REMARK    1  A    between atoms: C2_2  and  C4_4 
REMARK    2  A    between atoms: C4_4  and  C5_5 
REMARK    3  A    between atoms: C5_5  and  N1_6 
REMARK    4  A    between atoms: C5_5  and  C16_25 
REMARK       I    between atoms: N1_6  and  C6_8 
REMARK    5  A    between atoms: C6_8  and  C7_10 
REMARK    6  A    between atoms: C7_10  and  O2_11 
REMARK    7  A    between atoms: C7_10  and  C8_13 
REMARK    8  A    between atoms: C8_13  and  N2_14 
REMARK    9  A    between atoms: C8_13  and  C9_18 
REMARK   10  A    between atoms: C9_18  and  C10_19 
ROOT
HETATM    1  C7  UNL     1      87.133  75.475  30.124  1.00  0.00     0.240 C 
ENDROOT
BRANCH   1   2
HETATM    2  C6  UNL     1      88.084  74.347  30.089  1.00  0.00     0.249 C 
HETATM    3  N1  UNL     1      89.162  74.179  30.969  1.00  0.00    -0.344 N 
ATOM      4  H1  UNL     1      89.302  74.889  31.688  1.00  0.00     0.163 HD
HETATM    5  O1  UNL     1      87.917  73.469  29.206  1.00  0.00    -0.271 OA
BRANCH   3   6
HETATM    6  C5  UNL     1      90.102  73.058  30.930  1.00  0.00     0.185 C 
BRANCH   6   7
HETATM    7  C4  UNL     1      91.454  73.522  30.553  1.00  0.00     0.040 C 
BRANCH   7   8
HETATM    8  C2  UNL     1      92.157  72.861  29.437  1.00  0.00    -0.020 C 
HETATM    9  C1  UNL     1      91.247  72.150  28.455  1.00  0.00     0.009 C 
HETATM   10  C3  UNL     1      93.376  72.080  29.740  1.00  0.00     0.009 C 
ENDBRANCH   7   8
ENDBRANCH   6   7
BRANCH   6  11
HETATM   11  C16 UNL     1      89.944  72.286  32.146  1.00  0.00     0.196 C 
HETATM   12  O3  UNL     1      88.827  71.689  32.358  1.00  0.00    -0.646 OA
HETATM   13  O4  UNL     1      90.880  72.107  33.135  1.00  0.00    -0.646 OA
ENDBRANCH   6  11
ENDBRANCH   3   6
ENDBRANCH   1   2
BRANCH   1  14
HETATM   14  O2  UNL     1      87.482  76.445  29.204  1.00  0.00    -0.384 OA
ATOM     15  H2  UNL     1      87.018  77.257  29.373  1.00  0.00     0.210 HD
ENDBRANCH   1  14
BRANCH   1  16
HETATM   16  C8  UNL     1      85.706  75.064  30.081  1.00  0.00     0.225 C 
BRANCH  16  17
HETATM   17  N2  UNL     1      84.847  76.029  29.428  1.00  0.00    -0.072 N 
ATOM     18  H23 UNL     1      83.867  75.763  29.522  1.00  0.00     0.274 HD
ATOM     19  H22 UNL     1      84.834  76.909  29.944  1.00  0.00     0.274 HD
ATOM     20  H21 UNL     1      85.085  76.187  28.449  1.00  0.00     0.274 HD
ENDBRANCH  16  17
BRANCH  16  21
HETATM   21  C9  UNL     1      85.230  74.721  31.469  1.00  0.00     0.074 C 
BRANCH  21  22
HETATM   22  C10 UNL     1      84.247  73.635  31.539  1.00  0.00    -0.056 A 
HETATM   23  C11 UNL     1      83.100  73.704  32.297  1.00  0.00     0.007 A 
HETATM   24  C12 UNL     1      82.174  72.695  32.369  1.00  0.00     0.001 A 
HETATM   25  C13 UNL     1      82.362  71.543  31.663  1.00  0.00     0.000 A 
HETATM   26  C14 UNL     1      83.501  71.431  30.888  1.00  0.00     0.001 A 
HETATM   27  C15 UNL     1      84.425  72.457  30.827  1.00  0.00     0.007 A 
ENDBRANCH  21  22
ENDBRANCH  16  21
ENDBRANCH   1  16
TORSDOF 10
ENDMDL
