MODEL 8
REMARK VINA RESULT: -7.053213977      1.700      2.454
REMARK  10 active torsions:
REMARK  status: ('A' for Active; 'I' for Inactive)
REMARK    1  A    between atoms: C2_2  and  C4_4 
REMARK    2  A    between atoms: C4_4  and  C5_5 
REMARK    3  A    between atoms: C5_5  and  N1_6 
REMARK    4  A    between atoms: C5_5  and  C16_25 
REMARK       I    between atoms: N1_6  and  C6_8 
REMARK    5  A    between atoms: C6_8  and  C7_10 
REMARK    6  A    between atoms: C7_10  and  O2_11 
REMARK    7  A    between atoms: C7_10  and  C8_13 
REMARK    8  A    between atoms: C8_13  and  N2_14 
REMARK    9  A    between atoms: C8_13  and  C9_18 
REMARK   10  A    between atoms: C9_18  and  C10_19 
ROOT
HETATM    1  C7  UNL     1      85.959  75.031  30.729  1.00  0.00     0.240 C 
ENDROOT
BRANCH   1   2
HETATM    2  C6  UNL     1      87.007  74.242  30.053  1.00  0.00     0.249 C 
HETATM    3  N1  UNL     1      87.466  72.987  30.476  1.00  0.00    -0.344 N 
ATOM      4  H1  UNL     1      87.045  72.588  31.316  1.00  0.00     0.163 HD
HETATM    5  O1  UNL     1      87.528  74.728  29.018  1.00  0.00    -0.271 OA
BRANCH   3   6
HETATM    6  C5  UNL     1      88.505  72.208  29.801  1.00  0.00     0.185 C 
BRANCH   6   7
HETATM    7  C4  UNL     1      89.680  72.031  30.681  1.00  0.00     0.040 C 
BRANCH   7   8
HETATM    8  C2  UNL     1      90.888  72.844  30.441  1.00  0.00    -0.020 C 
HETATM    9  C1  UNL     1      90.796  74.271  30.946  1.00  0.00     0.009 C 
HETATM   10  C3  UNL     1      91.538  72.759  29.116  1.00  0.00     0.009 C 
ENDBRANCH   7   8
ENDBRANCH   6   7
BRANCH   6  11
HETATM   11  C16 UNL     1      87.889  71.034  29.216  1.00  0.00     0.196 C 
HETATM   12  O3  UNL     1      88.583  69.959  29.115  1.00  0.00    -0.646 OA
HETATM   13  O4  UNL     1      86.605  70.928  28.742  1.00  0.00    -0.646 OA
ENDBRANCH   6  11
ENDBRANCH   3   6
ENDBRANCH   1   2
BRANCH   1  14
HETATM   14  O2  UNL     1      86.412  76.302  31.026  1.00  0.00    -0.384 OA
ATOM     15  H2  UNL     1      86.111  76.579  31.884  1.00  0.00     0.210 HD
ENDBRANCH   1  14
BRANCH   1  16
HETATM   16  C8  UNL     1      84.637  74.985  30.053  1.00  0.00     0.225 C 
BRANCH  16  17
HETATM   17  N2  UNL     1      84.444  76.047  29.089  1.00  0.00    -0.072 N 
ATOM     18  H23 UNL     1      85.323  76.278  28.626  1.00  0.00     0.274 HD
ATOM     19  H22 UNL     1      83.911  75.714  28.286  1.00  0.00     0.274 HD
ATOM     20  H21 UNL     1      84.015  76.883  29.487  1.00  0.00     0.274 HD
ENDBRANCH  16  17
BRANCH  16  21
HETATM   21  C9  UNL     1      83.538  74.939  31.082  1.00  0.00     0.074 C 
BRANCH  21  22
HETATM   22  C10 UNL     1      83.142  73.593  31.510  1.00  0.00    -0.056 A 
HETATM   23  C11 UNL     1      82.309  73.357  32.581  1.00  0.00     0.007 A 
HETATM   24  C12 UNL     1      81.933  72.103  32.989  1.00  0.00     0.001 A 
HETATM   25  C13 UNL     1      82.385  71.003  32.322  1.00  0.00     0.000 A 
HETATM   26  C14 UNL     1      83.224  71.193  31.240  1.00  0.00     0.001 A 
HETATM   27  C15 UNL     1      83.595  72.464  30.842  1.00  0.00     0.007 A 
ENDBRANCH  21  22
ENDBRANCH  16  21
ENDBRANCH   1  16
TORSDOF 10
ENDMDL
