MODEL 2
REMARK VINA RESULT: -11.372039192      0.633      1.378
REMARK  2 active torsions:
REMARK  status: ('A' for Active; 'I' for Inactive)
REMARK    1  A    between atoms: C2_5  and  C3_6 
REMARK    2  A    between atoms: C6_9  and  C7_10 
ROOT
HETATM    1  O1  UNL     1      37.626 -10.458 -15.019  1.00  0.00    -0.268 OA
HETATM    2  C1  UNL     1      38.264 -11.177 -14.232  1.00  0.00     0.256 A 
HETATM    3  N1  UNL     1      38.332 -10.871 -12.930  1.00  0.00    -0.308 N 
ATOM      4  H1  UNL     1      37.865 -10.036 -12.577  1.00  0.00     0.170 HD
HETATM    5  C2  UNL     1      39.026 -11.676 -12.079  1.00  0.00     0.118 A 
HETATM    6  N2  UNL     1      39.616 -12.757 -12.586  1.00  0.00    -0.344 N 
ATOM      7  H2  UNL     1      40.135 -13.352 -11.940  1.00  0.00     0.167 HD
HETATM    8  C10 UNL     1      39.587 -13.130 -13.876  1.00  0.00     0.024 A 
HETATM    9  C11 UNL     1      38.887 -12.318 -14.727  1.00  0.00     0.042 A 
HETATM   10  C12 UNL     1      38.636 -12.734 -16.161  1.00  0.00     0.120 C 
HETATM   11  S1  UNL     1      40.129 -13.387 -16.891  1.00  0.00    -0.164 SA
HETATM   12  C13 UNL     1      41.147 -13.992 -15.544  1.00  0.00     0.080 C 
HETATM   13  C14 UNL     1      40.327 -14.347 -14.291  1.00  0.00     0.068 C 
ENDROOT
BRANCH   5  14
HETATM   14  C3  UNL     1      38.938 -11.431 -10.620  1.00  0.00     0.008 A 
HETATM   15  C4  UNL     1      38.532 -10.177 -10.223  1.00  0.00     0.016 A 
HETATM   16  C5  UNL     1      38.609  -9.781  -8.910  1.00  0.00     0.017 A 
HETATM   17  C6  UNL     1      39.103 -10.685  -7.978  1.00  0.00     0.048 A 
HETATM   18  C8  UNL     1      39.496 -11.948  -8.387  1.00  0.00     0.017 A 
HETATM   19  C9  UNL     1      39.408 -12.327  -9.740  1.00  0.00     0.016 A 
BRANCH  17  20
HETATM   20  C7  UNL     1      39.339 -10.213  -6.603  1.00  0.00     0.417 C 
HETATM   21  F1  UNL     1      40.198 -11.009  -5.918  1.00  0.00    -0.166 F 
HETATM   22  F2  UNL     1      39.772  -8.918  -6.555  1.00  0.00    -0.166 F 
HETATM   23  F3  UNL     1      38.113 -10.305  -5.910  1.00  0.00    -0.166 F 
ENDBRANCH  17  20
ENDBRANCH   5  14
TORSDOF 2
ENDMDL
