MODEL 1
REMARK VINA RESULT: -11.457333989      0.000      0.000
REMARK  2 active torsions:
REMARK  status: ('A' for Active; 'I' for Inactive)
REMARK    1  A    between atoms: C2_5  and  C3_6 
REMARK    2  A    between atoms: C6_9  and  C7_10 
ROOT
HETATM    1  O1  UNL     1      37.423 -10.688 -15.098  1.00  0.00    -0.268 OA
HETATM    2  C1  UNL     1      38.154 -11.332 -14.329  1.00  0.00     0.256 A 
HETATM    3  N1  UNL     1      38.292 -10.964 -13.049  1.00  0.00    -0.308 N 
ATOM      4  H1  UNL     1      37.800 -10.142 -12.699  1.00  0.00     0.170 HD
HETATM    5  C2  UNL     1      39.089 -11.688 -12.216  1.00  0.00     0.118 A 
HETATM    6  N2  UNL     1      39.708 -12.755 -12.718  1.00  0.00    -0.344 N 
ATOM      7  H2  UNL     1      40.305 -13.289 -12.085  1.00  0.00     0.167 HD
HETATM    8  C10 UNL     1      39.614 -13.188 -13.986  1.00  0.00     0.024 A 
HETATM    9  C11 UNL     1      38.810 -12.457 -14.819  1.00  0.00     0.042 A 
HETATM   10  C12 UNL     1      38.489 -12.951 -16.213  1.00  0.00     0.120 C 
HETATM   11  S1  UNL     1      39.966 -13.550 -17.018  1.00  0.00    -0.164 SA
HETATM   12  C13 UNL     1      41.108 -14.033 -15.722  1.00  0.00     0.080 C 
HETATM   13  C14 UNL     1      40.397 -14.377 -14.400  1.00  0.00     0.068 C 
ENDROOT
BRANCH   5  14
HETATM   14  C3  UNL     1      39.085 -11.381 -10.766  1.00  0.00     0.008 A 
HETATM   15  C4  UNL     1      39.457 -12.396  -9.914  1.00  0.00     0.016 A 
HETATM   16  C5  UNL     1      39.296 -12.285  -8.554  1.00  0.00     0.017 A 
HETATM   17  C6  UNL     1      38.752 -11.112  -8.049  1.00  0.00     0.048 A 
HETATM   18  C8  UNL     1      38.392 -10.092  -8.915  1.00  0.00     0.017 A 
HETATM   19  C9  UNL     1      38.567 -10.233 -10.305  1.00  0.00     0.016 A 
BRANCH  17  20
HETATM   20  C7  UNL     1      38.428 -11.052  -6.614  1.00  0.00     0.417 C 
HETATM   21  F1  UNL     1      37.509 -11.980  -6.247  1.00  0.00    -0.166 F 
HETATM   22  F2  UNL     1      39.532 -11.155  -5.817  1.00  0.00    -0.166 F 
HETATM   23  F3  UNL     1      37.812  -9.804  -6.373  1.00  0.00    -0.166 F 
ENDBRANCH  17  20
ENDBRANCH   5  14
TORSDOF 2
ENDMDL
