MODEL 4
REMARK VINA RESULT: -10.598864129      5.129      7.351
REMARK  2 active torsions:
REMARK  status: ('A' for Active; 'I' for Inactive)
REMARK    1  A    between atoms: C2_5  and  C3_6 
REMARK    2  A    between atoms: C6_9  and  C7_10 
ROOT
HETATM    1  O1  UNL     1      38.250  -8.110  -9.469  1.00  0.00    -0.268 OA
HETATM    2  C1  UNL     1      38.619  -9.294  -9.520  1.00  0.00     0.256 A 
HETATM    3  N1  UNL     1      38.563  -9.979 -10.669  1.00  0.00    -0.308 N 
ATOM      4  H1  UNL     1      38.206  -9.531 -11.513  1.00  0.00     0.170 HD
HETATM    5  C2  UNL     1      38.982 -11.274 -10.710  1.00  0.00     0.118 A 
HETATM    6  N2  UNL     1      39.442 -11.815  -9.584  1.00  0.00    -0.344 N 
ATOM      7  H2  UNL     1      39.752 -12.786  -9.626  1.00  0.00     0.167 HD
HETATM    8  C10 UNL     1      39.534 -11.191  -8.398  1.00  0.00     0.024 A 
HETATM    9  C11 UNL     1      39.113  -9.889  -8.363  1.00  0.00     0.042 A 
HETATM   10  C12 UNL     1      39.337  -9.037  -7.132  1.00  0.00     0.120 C 
HETATM   11  S1  UNL     1      38.909  -9.949  -5.657  1.00  0.00    -0.164 SA
HETATM   12  C13 UNL     1      39.073 -11.690  -6.053  1.00  0.00     0.080 C 
HETATM   13  C14 UNL     1      40.039 -11.946  -7.225  1.00  0.00     0.068 C 
ENDROOT
BRANCH   5  14
HETATM   14  C3  UNL     1      39.089 -11.957 -12.021  1.00  0.00     0.008 A 
HETATM   15  C4  UNL     1      39.974 -13.006 -12.106  1.00  0.00     0.016 A 
HETATM   16  C5  UNL     1      40.299 -13.574 -13.314  1.00  0.00     0.017 A 
HETATM   17  C6  UNL     1      39.702 -13.068 -14.461  1.00  0.00     0.048 A 
HETATM   18  C8  UNL     1      38.802 -12.020 -14.362  1.00  0.00     0.017 A 
HETATM   19  C9  UNL     1      38.489 -11.455 -13.112  1.00  0.00     0.016 A 
BRANCH  17  20
HETATM   20  C7  UNL     1      40.166 -13.563 -15.768  1.00  0.00     0.417 C 
HETATM   21  F1  UNL     1      39.260 -14.372 -16.372  1.00  0.00    -0.166 F 
HETATM   22  F2  UNL     1      40.526 -12.556 -16.618  1.00  0.00    -0.166 F 
HETATM   23  F3  UNL     1      41.295 -14.379 -15.533  1.00  0.00    -0.166 F 
ENDBRANCH  17  20
ENDBRANCH   5  14
TORSDOF 2
ENDMDL
