MODEL 6
REMARK VINA RESULT: -9.002381868      5.787      8.666
REMARK  2 active torsions:
REMARK  status: ('A' for Active; 'I' for Inactive)
REMARK    1  A    between atoms: C2_5  and  C3_6 
REMARK    2  A    between atoms: C6_9  and  C7_10 
ROOT
HETATM    1  O1  UNL     1      40.326  -9.927  -4.007  1.00  0.00    -0.268 OA
HETATM    2  C1  UNL     1      39.388 -10.492  -4.592  1.00  0.00     0.256 A 
HETATM    3  N1  UNL     1      39.336 -10.521  -5.930  1.00  0.00    -0.308 N 
ATOM      4  H1  UNL     1      40.067 -10.069  -6.479  1.00  0.00     0.170 HD
HETATM    5  C2  UNL     1      38.306 -11.154  -6.557  1.00  0.00     0.118 A 
HETATM    6  N2  UNL     1      37.377 -11.732  -5.798  1.00  0.00    -0.344 N 
ATOM      7  H2  UNL     1      36.609 -12.202  -6.278  1.00  0.00     0.167 HD
HETATM    8  C10 UNL     1      37.365 -11.750  -4.455  1.00  0.00     0.024 A 
HETATM    9  C11 UNL     1      38.403 -11.114  -3.830  1.00  0.00     0.042 A 
HETATM   10  C12 UNL     1      38.589 -11.223  -2.332  1.00  0.00     0.120 C 
HETATM   11  S1  UNL     1      37.028 -11.000  -1.493  1.00  0.00    -0.164 SA
HETATM   12  C13 UNL     1      35.740 -11.448  -2.659  1.00  0.00     0.080 C 
HETATM   13  C14 UNL     1      36.236 -12.409  -3.754  1.00  0.00     0.068 C 
ENDROOT
BRANCH   5  14
HETATM   14  C3  UNL     1      38.359 -11.338  -8.026  1.00  0.00     0.008 A 
HETATM   15  C4  UNL     1      39.221 -12.299  -8.502  1.00  0.00     0.016 A 
HETATM   16  C5  UNL     1      39.497 -12.414  -9.843  1.00  0.00     0.017 A 
HETATM   17  C6  UNL     1      38.875 -11.535 -10.721  1.00  0.00     0.048 A 
HETATM   18  C8  UNL     1      38.000 -10.580 -10.232  1.00  0.00     0.017 A 
HETATM   19  C9  UNL     1      37.736 -10.484  -8.852  1.00  0.00     0.016 A 
BRANCH  17  20
HETATM   20  C7  UNL     1      39.290 -11.548 -12.134  1.00  0.00     0.417 C 
HETATM   21  F1  UNL     1      38.235 -11.563 -12.987  1.00  0.00    -0.166 F 
HETATM   22  F2  UNL     1      40.124 -10.514 -12.450  1.00  0.00    -0.166 F 
HETATM   23  F3  UNL     1      39.971 -12.763 -12.362  1.00  0.00    -0.166 F 
ENDBRANCH  17  20
ENDBRANCH   5  14
TORSDOF 2
ENDMDL
