MODEL 3
REMARK VINA RESULT: -10.809153463      5.081      7.401
REMARK  2 active torsions:
REMARK  status: ('A' for Active; 'I' for Inactive)
REMARK    1  A    between atoms: C2_5  and  C3_6 
REMARK    2  A    between atoms: C6_9  and  C7_10 
ROOT
HETATM    1  O1  UNL     1      38.209  -8.147  -9.490  1.00  0.00    -0.268 OA
HETATM    2  C1  UNL     1      38.636  -9.311  -9.571  1.00  0.00     0.256 A 
HETATM    3  N1  UNL     1      38.691  -9.937 -10.753  1.00  0.00    -0.308 N 
ATOM      4  H1  UNL     1      38.372  -9.463 -11.598  1.00  0.00     0.170 HD
HETATM    5  C2  UNL     1      39.172 -11.209 -10.826  1.00  0.00     0.118 A 
HETATM    6  N2  UNL     1      39.579 -11.786  -9.697  1.00  0.00    -0.344 N 
ATOM      7  H2  UNL     1      39.936 -12.740  -9.763  1.00  0.00     0.167 HD
HETATM    8  C10 UNL     1      39.561 -11.221  -8.480  1.00  0.00     0.024 A 
HETATM    9  C11 UNL     1      39.078  -9.941  -8.412  1.00  0.00     0.042 A 
HETATM   10  C12 UNL     1      39.176  -9.144  -7.129  1.00  0.00     0.120 C 
HETATM   11  S1  UNL     1      38.692 -10.147  -5.733  1.00  0.00    -0.164 SA
HETATM   12  C13 UNL     1      38.964 -11.858  -6.200  1.00  0.00     0.080 C 
HETATM   13  C14 UNL     1      40.019 -12.011  -7.311  1.00  0.00     0.068 C 
ENDROOT
BRANCH   5  14
HETATM   14  C3  UNL     1      39.400 -11.819 -12.157  1.00  0.00     0.008 A 
HETATM   15  C4  UNL     1      38.730 -11.261 -13.221  1.00  0.00     0.016 A 
HETATM   16  C5  UNL     1      38.710 -11.867 -14.454  1.00  0.00     0.017 A 
HETATM   17  C6  UNL     1      39.396 -13.065 -14.609  1.00  0.00     0.048 A 
HETATM   18  C8  UNL     1      40.077 -13.612 -13.535  1.00  0.00     0.017 A 
HETATM   19  C9  UNL     1      40.079 -12.970 -12.282  1.00  0.00     0.016 A 
BRANCH  17  20
HETATM   20  C7  UNL     1      39.244 -13.798 -15.878  1.00  0.00     0.417 C 
HETATM   21  F1  UNL     1      39.911 -13.212 -16.903  1.00  0.00    -0.166 F 
HETATM   22  F2  UNL     1      39.611 -15.110 -15.778  1.00  0.00    -0.166 F 
HETATM   23  F3  UNL     1      37.880 -13.738 -16.238  1.00  0.00    -0.166 F 
ENDBRANCH  17  20
ENDBRANCH   5  14
TORSDOF 2
ENDMDL
