MODEL 4
REMARK VINA RESULT: -6.789019174      1.346      1.592
REMARK  6 active torsions:
REMARK  status: ('A' for Active; 'I' for Inactive)
REMARK       I    between atoms: C1_2  and  N3_7 
REMARK    1  A    between atoms: N2_3  and  O1_5 
REMARK    2  A    between atoms: N3_7  and  C2_9 
REMARK    3  A    between atoms: C2_9  and  C3_10 
REMARK    4  A    between atoms: C3_10  and  C4_11 
REMARK    5  A    between atoms: C4_11  and  N4_12 
REMARK    6  A    between atoms: C4_11  and  C5_16 
ROOT
HETATM    1  C2  UNL     1      25.086 -12.678  -4.874  1.00  0.00     0.125 C 
ENDROOT
BRANCH   1   2
HETATM    2  N3  UNL     1      25.656 -13.919  -5.274  1.00  0.00    -0.363 N 
HETATM    3  C1  UNL     1      25.057 -15.188  -4.998  1.00  0.00     0.208 C 
HETATM    4  N1  UNL     1      25.748 -16.361  -5.400  1.00  0.00    -0.062 NA
HETATM    5  N2  UNL     1      23.916 -15.223  -4.394  1.00  0.00    -0.241 N 
ATOM      6  H2  UNL     1      23.419 -14.381  -4.104  1.00  0.00     0.197 HD
ATOM      7  H3  UNL     1      26.539 -13.902  -5.786  1.00  0.00     0.162 HD
BRANCH   5   8
HETATM    8  O1  UNL     1      23.421 -16.510  -4.172  1.00  0.00    -0.287 OA
ATOM      9  H1  UNL     1      24.078 -17.143  -3.908  1.00  0.00     0.244 HD
ENDBRANCH   5   8
ENDBRANCH   1   2
BRANCH   1  10
HETATM   10  C3  UNL     1      26.022 -11.495  -4.902  1.00  0.00     0.063 C 
BRANCH  10  11
HETATM   11  C4  UNL     1      25.251 -10.329  -4.275  1.00  0.00     0.285 C 
BRANCH  11  12
HETATM   12  N4  UNL     1      25.868  -9.070  -4.555  1.00  0.00    -0.065 N 
ATOM     13  H43 UNL     1      25.928  -8.901  -5.558  1.00  0.00     0.275 HD
ATOM     14  H42 UNL     1      25.259  -8.293  -4.298  1.00  0.00     0.275 HD
ATOM     15  H41 UNL     1      26.782  -8.988  -4.110  1.00  0.00     0.275 HD
ENDBRANCH  11  12
BRANCH  11  16
HETATM   16  C5  UNL     1      25.278 -10.571  -2.817  1.00  0.00     0.204 C 
HETATM   17  O2  UNL     1      24.230 -10.359  -2.149  1.00  0.00    -0.646 OA
HETATM   18  O3  UNL     1      26.380 -11.017  -2.122  1.00  0.00    -0.646 OA
ENDBRANCH  11  16
ENDBRANCH  10  11
ENDBRANCH   1  10
TORSDOF 6
ENDMDL
