MODEL 1
REMARK VINA RESULT: -7.026036847      0.000      0.000
REMARK  6 active torsions:
REMARK  status: ('A' for Active; 'I' for Inactive)
REMARK       I    between atoms: C1_2  and  N3_7 
REMARK    1  A    between atoms: N2_3  and  O1_5 
REMARK    2  A    between atoms: N3_7  and  C2_9 
REMARK    3  A    between atoms: C2_9  and  C3_10 
REMARK    4  A    between atoms: C3_10  and  C4_11 
REMARK    5  A    between atoms: C4_11  and  N4_12 
REMARK    6  A    between atoms: C4_11  and  C5_16 
ROOT
HETATM    1  C2  UNL     1      24.879 -12.620  -4.783  1.00  0.00     0.125 C 
ENDROOT
BRANCH   1   2
HETATM    2  N3  UNL     1      25.555 -13.818  -5.147  1.00  0.00    -0.363 N 
HETATM    3  C1  UNL     1      25.024 -15.126  -4.913  1.00  0.00     0.208 C 
HETATM    4  N1  UNL     1      25.815 -16.248  -5.272  1.00  0.00    -0.062 NA
HETATM    5  N2  UNL     1      23.850 -15.239  -4.388  1.00  0.00    -0.241 N 
ATOM      6  H2  UNL     1      23.280 -14.434  -4.130  1.00  0.00     0.197 HD
ATOM      7  H3  UNL     1      26.467 -13.741  -5.598  1.00  0.00     0.162 HD
BRANCH   5   8
HETATM    8  O1  UNL     1      23.427 -16.557  -4.202  1.00  0.00    -0.287 OA
ATOM      9  H1  UNL     1      22.724 -16.829  -4.782  1.00  0.00     0.244 HD
ENDBRANCH   5   8
ENDBRANCH   1   2
BRANCH   1  10
HETATM   10  C3  UNL     1      25.240 -12.056  -3.430  1.00  0.00     0.063 C 
BRANCH  10  11
HETATM   11  C4  UNL     1      25.748 -10.634  -3.686  1.00  0.00     0.285 C 
BRANCH  11  12
HETATM   12  N4  UNL     1      26.406 -10.089  -2.539  1.00  0.00    -0.065 N 
ATOM     13  H43 UNL     1      27.163  -9.461  -2.809  1.00  0.00     0.275 HD
ATOM     14  H42 UNL     1      25.810  -9.420  -2.053  1.00  0.00     0.275 HD
ATOM     15  H41 UNL     1      26.736 -10.818  -1.908  1.00  0.00     0.275 HD
ENDBRANCH  11  12
BRANCH  11  16
HETATM   16  C5  UNL     1      24.544  -9.829  -3.984  1.00  0.00     0.204 C 
HETATM   17  O2  UNL     1      23.675  -9.684  -3.082  1.00  0.00    -0.646 OA
HETATM   18  O3  UNL     1      24.296  -9.217  -5.192  1.00  0.00    -0.646 OA
ENDBRANCH  11  16
ENDBRANCH  10  11
ENDBRANCH   1  10
TORSDOF 6
ENDMDL
