MODEL 5
REMARK VINA RESULT: -6.762770166      1.292      1.621
REMARK  6 active torsions:
REMARK  status: ('A' for Active; 'I' for Inactive)
REMARK       I    between atoms: C1_2  and  N3_7 
REMARK    1  A    between atoms: N2_3  and  O1_5 
REMARK    2  A    between atoms: N3_7  and  C2_9 
REMARK    3  A    between atoms: C2_9  and  C3_10 
REMARK    4  A    between atoms: C3_10  and  C4_11 
REMARK    5  A    between atoms: C4_11  and  N4_12 
REMARK    6  A    between atoms: C4_11  and  C5_16 
ROOT
HETATM    1  C2  UNL     1      25.407 -13.340  -4.769  1.00  0.00     0.125 C 
ENDROOT
BRANCH   1   2
HETATM    2  N3  UNL     1      24.509 -14.389  -4.426  1.00  0.00    -0.363 N 
HETATM    3  C1  UNL     1      24.639 -15.729  -4.910  1.00  0.00     0.208 C 
HETATM    4  N1  UNL     1      23.649 -16.677  -4.542  1.00  0.00    -0.062 NA
HETATM    5  N2  UNL     1      25.646 -16.028  -5.661  1.00  0.00    -0.241 N 
ATOM      6  H2  UNL     1      26.358 -15.348  -5.926  1.00  0.00     0.197 HD
ATOM      7  H3  UNL     1      23.730 -14.174  -3.802  1.00  0.00     0.162 HD
BRANCH   5   8
HETATM    8  O1  UNL     1      25.678 -17.360  -6.079  1.00  0.00    -0.287 OA
ATOM      9  H1  UNL     1      25.666 -17.476  -7.022  1.00  0.00     0.244 HD
ENDBRANCH   5   8
ENDBRANCH   1   2
BRANCH   1  10
HETATM   10  C3  UNL     1      24.766 -12.006  -5.060  1.00  0.00     0.063 C 
BRANCH  10  11
HETATM   11  C4  UNL     1      25.183 -11.077  -3.916  1.00  0.00     0.285 C 
BRANCH  11  12
HETATM   12  N4  UNL     1      24.954 -11.671  -2.636  1.00  0.00    -0.065 N 
ATOM     13  H43 UNL     1      23.982 -11.961  -2.529  1.00  0.00     0.275 HD
ATOM     14  H42 UNL     1      25.400 -12.586  -2.567  1.00  0.00     0.275 HD
ATOM     15  H41 UNL     1      25.244 -11.059  -1.874  1.00  0.00     0.275 HD
ENDBRANCH  11  12
BRANCH  11  16
HETATM   16  C5  UNL     1      24.334  -9.873  -4.051  1.00  0.00     0.204 C 
HETATM   17  O2  UNL     1      23.576  -9.557  -3.094  1.00  0.00    -0.646 OA
HETATM   18  O3  UNL     1      24.308  -9.059  -5.160  1.00  0.00    -0.646 OA
ENDBRANCH  11  16
ENDBRANCH  10  11
ENDBRANCH   1  10
TORSDOF 6
ENDMDL
