MODEL 2
REMARK VINA RESULT: -6.963405745      1.433      1.688
REMARK  6 active torsions:
REMARK  status: ('A' for Active; 'I' for Inactive)
REMARK       I    between atoms: C1_2  and  N3_7 
REMARK    1  A    between atoms: N2_3  and  O1_5 
REMARK    2  A    between atoms: N3_7  and  C2_9 
REMARK    3  A    between atoms: C2_9  and  C3_10 
REMARK    4  A    between atoms: C3_10  and  C4_11 
REMARK    5  A    between atoms: C4_11  and  N4_12 
REMARK    6  A    between atoms: C4_11  and  C5_16 
ROOT
HETATM    1  C2  UNL     1      24.569 -12.880  -4.547  1.00  0.00     0.125 C 
ENDROOT
BRANCH   1   2
HETATM    2  N3  UNL     1      25.353 -13.973  -5.012  1.00  0.00    -0.363 N 
HETATM    3  C1  UNL     1      24.951 -15.341  -4.889  1.00  0.00     0.208 C 
HETATM    4  N1  UNL     1      25.843 -16.348  -5.342  1.00  0.00    -0.062 NA
HETATM    5  N2  UNL     1      23.799 -15.610  -4.373  1.00  0.00    -0.241 N 
ATOM      6  H2  UNL     1      23.157 -14.888  -4.047  1.00  0.00     0.197 HD
ATOM      7  H3  UNL     1      26.248 -13.771  -5.457  1.00  0.00     0.162 HD
BRANCH   5   8
HETATM    8  O1  UNL     1      23.505 -16.974  -4.299  1.00  0.00    -0.287 OA
ATOM      9  H1  UNL     1      22.767 -17.246  -4.833  1.00  0.00     0.244 HD
ENDBRANCH   5   8
ENDBRANCH   1   2
BRANCH   1  10
HETATM   10  C3  UNL     1      25.228 -11.526  -4.633  1.00  0.00     0.063 C 
BRANCH  10  11
HETATM   11  C4  UNL     1      24.145 -10.558  -5.121  1.00  0.00     0.285 C 
BRANCH  11  12
HETATM   12  N4  UNL     1      24.597  -9.764  -6.221  1.00  0.00    -0.065 N 
ATOM     13  H43 UNL     1      25.512  -9.356  -6.033  1.00  0.00     0.275 HD
ATOM     14  H42 UNL     1      24.843 -10.346  -7.022  1.00  0.00     0.275 HD
ATOM     15  H41 UNL     1      23.918  -9.048  -6.478  1.00  0.00     0.275 HD
ENDBRANCH  11  12
BRANCH  11  16
HETATM   16  C5  UNL     1      23.854  -9.674  -3.971  1.00  0.00     0.204 C 
HETATM   17  O2  UNL     1      23.342  -8.543  -4.193  1.00  0.00    -0.646 OA
HETATM   18  O3  UNL     1      24.103  -9.999  -2.657  1.00  0.00    -0.646 OA
ENDBRANCH  11  16
ENDBRANCH  10  11
ENDBRANCH   1  10
TORSDOF 6
ENDMDL
