MODEL 13
REMARK VINA RESULT: -6.430839012      2.991      5.713
REMARK  6 active torsions:
REMARK  status: ('A' for Active; 'I' for Inactive)
REMARK       I    between atoms: C1_2  and  N3_7 
REMARK    1  A    between atoms: N2_3  and  O1_5 
REMARK    2  A    between atoms: N3_7  and  C2_9 
REMARK    3  A    between atoms: C2_9  and  C3_10 
REMARK    4  A    between atoms: C3_10  and  C4_11 
REMARK    5  A    between atoms: C4_11  and  N4_12 
REMARK    6  A    between atoms: C4_11  and  C5_16 
ROOT
HETATM    1  C2  UNL     1      25.000  -9.977  -5.653  1.00  0.00     0.125 C 
ENDROOT
BRANCH   1   2
HETATM    2  N3  UNL     1      23.713  -9.867  -5.056  1.00  0.00    -0.363 N 
HETATM    3  C1  UNL     1      23.229  -8.670  -4.441  1.00  0.00     0.208 C 
HETATM    4  N1  UNL     1      21.948  -8.697  -3.830  1.00  0.00    -0.062 NA
HETATM    5  N2  UNL     1      23.969  -7.612  -4.462  1.00  0.00    -0.241 N 
ATOM      6  H2  UNL     1      24.890  -7.591  -4.901  1.00  0.00     0.197 HD
ATOM      7  H3  UNL     1      23.104 -10.685  -5.067  1.00  0.00     0.162 HD
BRANCH   5   8
HETATM    8  O1  UNL     1      23.404  -6.500  -3.834  1.00  0.00    -0.287 OA
ATOM      9  H1  UNL     1      23.957  -6.100  -3.173  1.00  0.00     0.244 HD
ENDBRANCH   5   8
ENDBRANCH   1   2
BRANCH   1  10
HETATM   10  C3  UNL     1      25.908 -11.022  -5.052  1.00  0.00     0.063 C 
BRANCH  10  11
HETATM   11  C4  UNL     1      24.987 -12.104  -4.479  1.00  0.00     0.285 C 
BRANCH  11  12
HETATM   12  N4  UNL     1      25.100 -12.202  -3.057  1.00  0.00    -0.065 N 
ATOM     13  H43 UNL     1      26.076 -12.204  -2.762  1.00  0.00     0.275 HD
ATOM     14  H42 UNL     1      24.797 -11.342  -2.601  1.00  0.00     0.275 HD
ATOM     15  H41 UNL     1      24.601 -13.012  -2.691  1.00  0.00     0.275 HD
ENDBRANCH  11  12
BRANCH  11  16
HETATM   16  C5  UNL     1      25.435 -13.374  -5.091  1.00  0.00     0.204 C 
HETATM   17  O2  UNL     1      26.503 -13.377  -5.762  1.00  0.00    -0.646 OA
HETATM   18  O3  UNL     1      24.764 -14.570  -4.982  1.00  0.00    -0.646 OA
ENDBRANCH  11  16
ENDBRANCH  10  11
ENDBRANCH   1  10
TORSDOF 6
ENDMDL
