MODEL 11
REMARK VINA RESULT: -6.491945698      2.903      5.565
REMARK  6 active torsions:
REMARK  status: ('A' for Active; 'I' for Inactive)
REMARK       I    between atoms: C1_2  and  N3_7 
REMARK    1  A    between atoms: N2_3  and  O1_5 
REMARK    2  A    between atoms: N3_7  and  C2_9 
REMARK    3  A    between atoms: C2_9  and  C3_10 
REMARK    4  A    between atoms: C3_10  and  C4_11 
REMARK    5  A    between atoms: C4_11  and  N4_12 
REMARK    6  A    between atoms: C4_11  and  C5_16 
ROOT
HETATM    1  C2  UNL     1      25.338 -10.129  -4.060  1.00  0.00     0.125 C 
ENDROOT
BRANCH   1   2
HETATM    2  N3  UNL     1      24.905  -8.781  -4.206  1.00  0.00    -0.363 N 
HETATM    3  C1  UNL     1      23.528  -8.399  -4.280  1.00  0.00     0.208 C 
HETATM    4  N1  UNL     1      23.221  -7.028  -4.480  1.00  0.00    -0.062 NA
HETATM    5  N2  UNL     1      22.619  -9.308  -4.165  1.00  0.00    -0.241 N 
ATOM      6  H2  UNL     1      22.839 -10.294  -4.021  1.00  0.00     0.197 HD
ATOM      7  H3  UNL     1      25.613  -8.049  -4.259  1.00  0.00     0.162 HD
BRANCH   5   8
HETATM    8  O1  UNL     1      21.310  -8.830  -4.253  1.00  0.00    -0.287 OA
ATOM      9  H1  UNL     1      20.722  -9.171  -3.589  1.00  0.00     0.244 HD
ENDBRANCH   5   8
ENDBRANCH   1   2
BRANCH   1  10
HETATM   10  C3  UNL     1      25.393 -10.934  -5.335  1.00  0.00     0.063 C 
BRANCH  10  11
HETATM   11  C4  UNL     1      24.960 -12.354  -4.959  1.00  0.00     0.285 C 
BRANCH  11  12
HETATM   12  N4  UNL     1      24.913 -12.539  -3.542  1.00  0.00    -0.065 N 
ATOM     13  H43 UNL     1      25.827 -12.385  -3.117  1.00  0.00     0.275 HD
ATOM     14  H42 UNL     1      24.396 -11.787  -3.087  1.00  0.00     0.275 HD
ATOM     15  H41 UNL     1      24.537 -13.453  -3.290  1.00  0.00     0.275 HD
ENDBRANCH  11  12
BRANCH  11  16
HETATM   16  C5  UNL     1      25.989 -13.249  -5.532  1.00  0.00     0.204 C 
HETATM   17  O2  UNL     1      27.017 -12.734  -6.050  1.00  0.00    -0.646 OA
HETATM   18  O3  UNL     1      25.906 -14.623  -5.545  1.00  0.00    -0.646 OA
ENDBRANCH  11  16
ENDBRANCH  10  11
ENDBRANCH   1  10
TORSDOF 6
ENDMDL
