MODEL 9
REMARK VINA RESULT: -4.136079050      1.598      3.320
REMARK  13 active torsions:
REMARK  status: ('A' for Active; 'I' for Inactive)
REMARK    1  A    between atoms: N1_1  and  C1_5 
REMARK    2  A    between atoms: C1_5  and  C2_6 
REMARK    3  A    between atoms: C2_6  and  C3_7 
REMARK    4  A    between atoms: C3_7  and  N2_8 
REMARK    5  A    between atoms: N2_8  and  C4_11 
REMARK    6  A    between atoms: C4_11  and  C5_12 
REMARK    7  A    between atoms: C5_12  and  C6_13 
REMARK    8  A    between atoms: C6_13  and  C7_14 
REMARK    9  A    between atoms: C7_14  and  N3_15 
REMARK   10  A    between atoms: N3_15  and  C8_18 
REMARK   11  A    between atoms: C8_18  and  C9_19 
REMARK   12  A    between atoms: C9_19  and  C10_20 
REMARK   13  A    between atoms: C10_20  and  N4_21 
ROOT
HETATM    1  C5  UNL     1      -4.409   2.433  11.267  1.00  0.00     0.029 C 
ENDROOT
BRANCH   1   2
HETATM    2  C4  UNL     1      -3.524   3.551  10.855  1.00  0.00     0.232 C 
BRANCH   2   3
HETATM    3  N2  UNL     1      -3.679   4.768  11.567  1.00  0.00    -0.075 N 
ATOM      4  H22 UNL     1      -4.580   4.806  12.042  1.00  0.00     0.277 HD
ATOM      5  H21 UNL     1      -3.800   5.556  10.930  1.00  0.00     0.277 HD
BRANCH   3   6
HETATM    6  C3  UNL     1      -2.571   5.005  12.504  1.00  0.00     0.233 C 
BRANCH   6   7
HETATM    7  C2  UNL     1      -3.013   5.741  13.726  1.00  0.00     0.055 C 
BRANCH   7   8
HETATM    8  C1  UNL     1      -2.794   4.828  14.915  1.00  0.00     0.231 C 
BRANCH   8   9
HETATM    9  N1  UNL     1      -1.487   4.241  14.913  1.00  0.00    -0.079 N 
ATOM     10  H13 UNL     1      -0.763   4.953  14.816  1.00  0.00     0.274 HD
ATOM     11  H12 UNL     1      -1.242   3.885  15.837  1.00  0.00     0.274 HD
ATOM     12  H11 UNL     1      -1.390   3.517  14.201  1.00  0.00     0.274 HD
ENDBRANCH   8   9
ENDBRANCH   7   8
ENDBRANCH   6   7
ENDBRANCH   3   6
ENDBRANCH   2   3
ENDBRANCH   1   2
BRANCH   1  13
HETATM   13  C6  UNL     1      -4.083   1.625  12.452  1.00  0.00     0.029 C 
BRANCH  13  14
HETATM   14  C7  UNL     1      -4.671   2.049  13.737  1.00  0.00     0.232 C 
BRANCH  14  15
HETATM   15  N3  UNL     1      -4.331   1.143  14.835  1.00  0.00    -0.075 N 
ATOM     16  H32 UNL     1      -4.792   0.239  14.729  1.00  0.00     0.277 HD
ATOM     17  H31 UNL     1      -3.360   0.834  14.777  1.00  0.00     0.277 HD
BRANCH  15  18
HETATM   18  C8  UNL     1      -4.619   1.733  16.120  1.00  0.00     0.233 C 
BRANCH  18  19
HETATM   19  C9  UNL     1      -5.782   2.686  15.939  1.00  0.00     0.055 C 
BRANCH  19  20
HETATM   20  C10 UNL     1      -6.759   2.542  17.111  1.00  0.00     0.231 C 
BRANCH  20  21
HETATM   21  N4  UNL     1      -7.421   1.260  17.067  1.00  0.00    -0.079 N 
ATOM     22  H43 UNL     1      -8.137   1.228  16.341  1.00  0.00     0.274 HD
ATOM     23  H42 UNL     1      -6.807   0.528  16.708  1.00  0.00     0.274 HD
ATOM     24  H41 UNL     1      -7.801   1.020  17.983  1.00  0.00     0.274 HD
ENDBRANCH  20  21
ENDBRANCH  19  20
ENDBRANCH  18  19
ENDBRANCH  15  18
ENDBRANCH  14  15
ENDBRANCH  13  14
ENDBRANCH   1  13
TORSDOF 13
ENDMDL
