MODEL 2
REMARK VINA RESULT: -5.980686217      2.583      7.046
REMARK  16 active torsions:
REMARK  status: ('A' for Active; 'I' for Inactive)
REMARK    1  A    between atoms: C2_2  and  C3_3 
REMARK    2  A    between atoms: C3_3  and  C4_4 
REMARK    3  A    between atoms: C4_4  and  C5_5 
REMARK    4  A    between atoms: C5_5  and  C6_6 
REMARK    5  A    between atoms: C6_6  and  C7_7 
REMARK    6  A    between atoms: C7_7  and  C8_8 
REMARK    7  A    between atoms: C8_8  and  C9_9 
REMARK    8  A    between atoms: C9_9  and  C10_10 
REMARK    9  A    between atoms: C10_10  and  C11_11 
REMARK   10  A    between atoms: C11_11  and  C12_12 
REMARK   11  A    between atoms: C12_12  and  O1_13 
REMARK   12  A    between atoms: O1_13  and  P1_14 
REMARK   13  A    between atoms: P1_14  and  O4_17 
REMARK   14  A    between atoms: O4_17  and  C13_18 
REMARK   15  A    between atoms: C13_18  and  C14_19 
REMARK   16  A    between atoms: C14_19  and  N1_20 
ROOT
HETATM    1  C12 UNL     1      -0.177  15.205  12.182  1.00  0.00     0.181 C 
ENDROOT
BRANCH   1   2
HETATM    2  C11 UNL     1      -1.658  15.720  12.571  1.00  0.00     0.027 C 
BRANCH   2   3
HETATM    3  C10 UNL     1      -2.522  14.521  12.495  1.00  0.00     0.002 C 
BRANCH   3   4
HETATM    4  C9  UNL     1      -1.735  13.229  12.157  1.00  0.00     0.000 C 
BRANCH   4   5
HETATM    5  C8  UNL     1      -2.591  12.095  11.740  1.00  0.00     0.000 C 
BRANCH   5   6
HETATM    6  C7  UNL     1      -4.076  12.192  11.571  1.00  0.00     0.000 C 
BRANCH   6   7
HETATM    7  C6  UNL     1      -4.301  11.640  10.165  1.00  0.00     0.000 C 
BRANCH   7   8
HETATM    8  C5  UNL     1      -4.287  12.650   9.107  1.00  0.00     0.000 C 
BRANCH   8   9
HETATM    9  C4  UNL     1      -5.169  13.847   9.475  1.00  0.00     0.000 C 
BRANCH   9  10
HETATM   10  C3  UNL     1      -4.308  15.103   9.226  1.00  0.00    -0.000 C 
BRANCH  10  11
HETATM   11  C2  UNL     1      -3.073  14.634   8.445  1.00  0.00    -0.005 C 
HETATM   12  C1  UNL     1      -1.846  15.447   8.806  1.00  0.00     0.005 C 
ENDBRANCH  10  11
ENDBRANCH   9  10
ENDBRANCH   8   9
ENDBRANCH   7   8
ENDBRANCH   6   7
ENDBRANCH   5   6
ENDBRANCH   4   5
ENDBRANCH   3   4
ENDBRANCH   2   3
ENDBRANCH   1   2
BRANCH   1  13
HETATM   13  O1  UNL     1       0.459  16.334  12.129  1.00  0.00    -0.290 OA
BRANCH  13  14
HETATM   14  P1  UNL     1       0.563  17.756  11.809  1.00  0.00     0.408 P 
HETATM   15  O2  UNL     1       2.083  17.810  12.595  1.00  0.00    -0.624 OA
HETATM   16  O3  UNL     1       0.515  17.723  10.250  1.00  0.00    -0.624 OA
BRANCH  14  17
HETATM   17  O4  UNL     1       0.669  19.364  11.855  1.00  0.00    -0.288 OA
BRANCH  17  18
HETATM   18  C13 UNL     1      -0.562  20.021  11.419  1.00  0.00     0.209 C 
BRANCH  18  19
HETATM   19  C14 UNL     1      -1.102  20.778  12.582  1.00  0.00     0.262 C 
BRANCH  19  20
HETATM   20  N1  UNL     1      -2.310  20.129  13.129  1.00  0.00    -0.077 N 
HETATM   21  C15 UNL     1      -3.329  21.013  13.466  1.00  0.00     0.271 C 
HETATM   22  C16 UNL     1      -2.869  19.373  11.934  1.00  0.00     0.271 C 
HETATM   23  C17 UNL     1      -2.143  19.126  14.092  1.00  0.00     0.271 C 
ENDBRANCH  19  20
ENDBRANCH  18  19
ENDBRANCH  17  18
ENDBRANCH  14  17
ENDBRANCH  13  14
ENDBRANCH   1  13
TORSDOF 16
ENDMDL
