MODEL 1
REMARK VINA RESULT: -6.033681404      0.000      0.000
REMARK  16 active torsions:
REMARK  status: ('A' for Active; 'I' for Inactive)
REMARK    1  A    between atoms: C2_2  and  C3_3 
REMARK    2  A    between atoms: C3_3  and  C4_4 
REMARK    3  A    between atoms: C4_4  and  C5_5 
REMARK    4  A    between atoms: C5_5  and  C6_6 
REMARK    5  A    between atoms: C6_6  and  C7_7 
REMARK    6  A    between atoms: C7_7  and  C8_8 
REMARK    7  A    between atoms: C8_8  and  C9_9 
REMARK    8  A    between atoms: C9_9  and  C10_10 
REMARK    9  A    between atoms: C10_10  and  C11_11 
REMARK   10  A    between atoms: C11_11  and  C12_12 
REMARK   11  A    between atoms: C12_12  and  O1_13 
REMARK   12  A    between atoms: O1_13  and  P1_14 
REMARK   13  A    between atoms: P1_14  and  O4_17 
REMARK   14  A    between atoms: O4_17  and  C13_18 
REMARK   15  A    between atoms: C13_18  and  C14_19 
REMARK   16  A    between atoms: C14_19  and  N1_20 
ROOT
HETATM    1  C12 UNL     1      -1.129  17.336  10.581  1.00  0.00     0.181 C 
ENDROOT
BRANCH   1   2
HETATM    2  C11 UNL     1      -2.725  17.579  10.499  1.00  0.00     0.027 C 
BRANCH   2   3
HETATM    3  C10 UNL     1      -2.887  18.882   9.818  1.00  0.00     0.002 C 
BRANCH   3   4
HETATM    4  C9  UNL     1      -3.562  19.953  10.714  1.00  0.00     0.000 C 
BRANCH   4   5
HETATM    5  C8  UNL     1      -3.089  19.948  12.117  1.00  0.00     0.000 C 
BRANCH   5   6
HETATM    6  C7  UNL     1      -3.511  20.956  13.141  1.00  0.00     0.000 C 
BRANCH   6   7
HETATM    7  C6  UNL     1      -2.868  20.434  14.425  1.00  0.00     0.000 C 
BRANCH   7   8
HETATM    8  C5  UNL     1      -1.828  19.427  14.218  1.00  0.00     0.000 C 
BRANCH   8   9
HETATM    9  C4  UNL     1      -0.464  19.939  14.690  1.00  0.00     0.000 C 
BRANCH   9  10
HETATM   10  C3  UNL     1       0.495  19.761  13.494  1.00  0.00    -0.000 C 
BRANCH  10  11
HETATM   11  C2  UNL     1       0.363  21.031  12.641  1.00  0.00    -0.005 C 
HETATM   12  C1  UNL     1       0.460  20.718  11.160  1.00  0.00     0.005 C 
ENDBRANCH  10  11
ENDBRANCH   9  10
ENDBRANCH   8   9
ENDBRANCH   7   8
ENDBRANCH   6   7
ENDBRANCH   5   6
ENDBRANCH   4   5
ENDBRANCH   3   4
ENDBRANCH   2   3
ENDBRANCH   1   2
BRANCH   1  13
HETATM   13  O1  UNL     1      -1.082  16.365  11.441  1.00  0.00    -0.290 OA
BRANCH  13  14
HETATM   14  P1  UNL     1      -1.680  15.270  12.202  1.00  0.00     0.408 P 
HETATM   15  O2  UNL     1      -0.177  14.451  12.179  1.00  0.00    -0.624 OA
HETATM   16  O3  UNL     1      -2.122  16.009  13.503  1.00  0.00    -0.624 OA
BRANCH  14  17
HETATM   17  O4  UNL     1      -2.256  13.853  12.710  1.00  0.00    -0.288 OA
BRANCH  17  18
HETATM   18  C13 UNL     1      -2.451  12.902  11.617  1.00  0.00     0.209 C 
BRANCH  18  19
HETATM   19  C14 UNL     1      -3.182  13.611  10.531  1.00  0.00     0.262 C 
BRANCH  19  20
HETATM   20  N1  UNL     1      -4.444  12.921  10.195  1.00  0.00    -0.077 N 
HETATM   21  C15 UNL     1      -5.084  12.341  11.285  1.00  0.00     0.271 C 
HETATM   22  C16 UNL     1      -5.368  14.061   9.799  1.00  0.00     0.271 C 
HETATM   23  C17 UNL     1      -4.462  12.088   9.069  1.00  0.00     0.271 C 
ENDBRANCH  19  20
ENDBRANCH  18  19
ENDBRANCH  17  18
ENDBRANCH  14  17
ENDBRANCH  13  14
ENDBRANCH   1  13
TORSDOF 16
ENDMDL
