MODEL 3
REMARK VINA RESULT: -7.706760528      1.986      6.485
REMARK  3 active torsions:
REMARK  status: ('A' for Active; 'I' for Inactive)
REMARK    1  A    between atoms: O1_2  and  C2_3 
REMARK    2  A    between atoms: N2_9  and  C6_10 
REMARK    3  A    between atoms: C6_10  and  C7_11 
ROOT
HETATM    1  C2  UNL     1       7.246  13.599  21.415  1.00  0.00     0.069 A 
HETATM    2  C3  UNL     1       6.686  14.176  22.521  1.00  0.00     0.039 A 
HETATM    3  C4  UNL     1       6.089  13.369  23.487  1.00  0.00     0.035 A 
HETATM    4  C5  UNL     1       6.062  11.998  23.331  1.00  0.00     0.064 A 
HETATM    5  N1  UNL     1       5.582  10.992  24.054  1.00  0.00    -0.295 N 
ATOM      6  H1  UNL     1       5.101  11.105  24.946  1.00  0.00     0.187 HD
HETATM    7  N2  UNL     1       5.807   9.827  23.472  1.00  0.00    -0.254 N 
HETATM    8  C11 UNL     1       6.459  10.088  22.323  1.00  0.00     0.274 A 
HETATM    9  O4  UNL     1       6.866   9.276  21.462  1.00  0.00    -0.266 OA
HETATM   10  C12 UNL     1       6.633  11.452  22.208  1.00  0.00     0.064 A 
HETATM   11  C13 UNL     1       7.229  12.234  21.240  1.00  0.00     0.056 A 
ENDROOT
BRANCH   7  12
HETATM   12  C6  UNL     1       5.436   8.526  23.952  1.00  0.00     0.193 C 
BRANCH  12  13
HETATM   13  C7  UNL     1       6.237   8.062  25.122  1.00  0.00     0.130 C 
HETATM   14  C8  UNL     1       6.002   6.603  25.429  1.00  0.00     0.051 C 
HETATM   15  N3  UNL     1       7.628   8.364  25.062  1.00  0.00    -0.323 N 
HETATM   16  C9  UNL     1       8.064   8.593  26.396  1.00  0.00     0.323 C 
ATOM     17  H3  UNL     1       8.202   8.407  24.221  1.00  0.00     0.165 HD
HETATM   18  O2  UNL     1       9.257   8.543  26.847  1.00  0.00    -0.247 OA
HETATM   19  N4  UNL     1       6.942   8.900  27.188  1.00  0.00    -0.277 N 
HETATM   20  C10 UNL     1       5.807   8.855  26.320  1.00  0.00     0.255 C 
ATOM     21  H4  UNL     1       6.939   9.113  28.185  1.00  0.00     0.173 HD
HETATM   22  O3  UNL     1       4.694   9.374  26.531  1.00  0.00    -0.270 OA
ENDBRANCH  12  13
ENDBRANCH   7  12
BRANCH   1  23
HETATM   23  O1  UNL     1       7.838  14.411  20.458  1.00  0.00    -0.356 OA
HETATM   24  C1  UNL     1       8.104  15.769  20.699  1.00  0.00     0.210 C 
ENDBRANCH   1  23
TORSDOF 3
ENDMDL
