MODEL 13
REMARK VINA RESULT: -7.054666318      2.405      6.878
REMARK  3 active torsions:
REMARK  status: ('A' for Active; 'I' for Inactive)
REMARK    1  A    between atoms: O1_2  and  C2_3 
REMARK    2  A    between atoms: N2_9  and  C6_10 
REMARK    3  A    between atoms: C6_10  and  C7_11 
ROOT
HETATM    1  C2  UNL     1       7.643  15.143  21.213  1.00  0.00     0.069 A 
HETATM    2  C3  UNL     1       6.865  15.676  22.204  1.00  0.00     0.039 A 
HETATM    3  C4  UNL     1       6.114  14.829  23.016  1.00  0.00     0.035 A 
HETATM    4  C5  UNL     1       6.152  13.464  22.823  1.00  0.00     0.064 A 
HETATM    5  N1  UNL     1       5.567  12.428  23.415  1.00  0.00    -0.295 N 
ATOM      6  H1  UNL     1       4.921  12.505  24.200  1.00  0.00     0.187 HD
HETATM    7  N2  UNL     1       5.929  11.285  22.859  1.00  0.00    -0.254 N 
HETATM    8  C11 UNL     1       6.783  11.592  21.864  1.00  0.00     0.274 A 
HETATM    9  O4  UNL     1       7.369  10.814  21.077  1.00  0.00    -0.266 OA
HETATM   10  C12 UNL     1       6.942  12.962  21.819  1.00  0.00     0.064 A 
HETATM   11  C13 UNL     1       7.694  13.784  21.004  1.00  0.00     0.056 A 
ENDROOT
BRANCH   7  12
HETATM   12  C6  UNL     1       5.505   9.963  23.225  1.00  0.00     0.193 C 
BRANCH  12  13
HETATM   13  C7  UNL     1       6.054   9.492  24.530  1.00  0.00     0.130 C 
HETATM   14  C8  UNL     1       7.563   9.512  24.552  1.00  0.00     0.051 C 
HETATM   15  N3  UNL     1       5.509  10.129  25.682  1.00  0.00    -0.323 N 
HETATM   16  C9  UNL     1       5.488   9.162  26.724  1.00  0.00     0.323 C 
ATOM     17  H3  UNL     1       5.193  11.097  25.746  1.00  0.00     0.165 HD
HETATM   18  O2  UNL     1       5.422   9.371  27.981  1.00  0.00    -0.247 OA
HETATM   19  N4  UNL     1       5.552   7.880  26.147  1.00  0.00    -0.277 N 
HETATM   20  C10 UNL     1       5.614   8.074  24.732  1.00  0.00     0.255 C 
ATOM     21  H4  UNL     1       5.554   6.989  26.642  1.00  0.00     0.173 HD
HETATM   22  O3  UNL     1       5.352   7.225  23.859  1.00  0.00    -0.270 OA
ENDBRANCH  12  13
ENDBRANCH   7  12
BRANCH   1  23
HETATM   23  O1  UNL     1       8.387  15.994  20.409  1.00  0.00    -0.356 OA
HETATM   24  C1  UNL     1       9.752  15.777  20.162  1.00  0.00     0.210 C 
ENDBRANCH   1  23
TORSDOF 3
ENDMDL
