MODEL 2
REMARK VINA RESULT: -7.824775656      1.305      1.756
REMARK  3 active torsions:
REMARK  status: ('A' for Active; 'I' for Inactive)
REMARK    1  A    between atoms: O1_2  and  C2_3 
REMARK    2  A    between atoms: N2_9  and  C6_10 
REMARK    3  A    between atoms: C6_10  and  C7_11 
ROOT
HETATM    1  C2  UNL     1       7.994   8.729  28.243  1.00  0.00     0.069 A 
HETATM    2  C3  UNL     1       6.792   9.115  28.770  1.00  0.00     0.039 A 
HETATM    3  C4  UNL     1       5.721   9.373  27.917  1.00  0.00     0.035 A 
HETATM    4  C5  UNL     1       5.870   9.242  26.551  1.00  0.00     0.064 A 
HETATM    5  N1  UNL     1       5.061   9.412  25.511  1.00  0.00    -0.295 N 
ATOM      6  H1  UNL     1       4.086   9.702  25.583  1.00  0.00     0.187 HD
HETATM    7  N2  UNL     1       5.679   9.158  24.370  1.00  0.00    -0.254 N 
HETATM    8  C11 UNL     1       6.942   8.809  24.684  1.00  0.00     0.274 A 
HETATM    9  O4  UNL     1       7.872   8.487  23.911  1.00  0.00    -0.266 OA
HETATM   10  C12 UNL     1       7.090   8.854  26.056  1.00  0.00     0.064 A 
HETATM   11  C13 UNL     1       8.163   8.594  26.884  1.00  0.00     0.056 A 
ENDROOT
BRANCH   7  12
HETATM   12  C6  UNL     1       5.133   9.232  23.045  1.00  0.00     0.193 C 
BRANCH  12  13
HETATM   13  C7  UNL     1       5.386  10.532  22.359  1.00  0.00     0.130 C 
HETATM   14  C8  UNL     1       4.215  10.964  21.509  1.00  0.00     0.051 C 
HETATM   15  N3  UNL     1       5.831  11.588  23.205  1.00  0.00    -0.323 N 
HETATM   16  C9  UNL     1       6.711  12.397  22.436  1.00  0.00     0.323 C 
ATOM     17  H3  UNL     1       5.568  11.735  24.180  1.00  0.00     0.165 HD
HETATM   18  O2  UNL     1       7.054  13.606  22.658  1.00  0.00    -0.247 OA
HETATM   19  N4  UNL     1       7.175  11.642  21.343  1.00  0.00    -0.277 N 
HETATM   20  C10 UNL     1       6.566  10.353  21.452  1.00  0.00     0.255 C 
ATOM     21  H4  UNL     1       7.820  11.953  20.617  1.00  0.00     0.173 HD
HETATM   22  O3  UNL     1       6.950   9.306  20.897  1.00  0.00    -0.270 OA
ENDBRANCH  12  13
ENDBRANCH   7  12
BRANCH   1  23
HETATM   23  O1  UNL     1       9.054   8.475  29.100  1.00  0.00    -0.356 OA
HETATM   24  C1  UNL     1       8.854   8.031  30.417  1.00  0.00     0.210 C 
ENDBRANCH   1  23
TORSDOF 3
ENDMDL
