MODEL 12
REMARK VINA RESULT: -7.056627301      2.145      6.844
REMARK  3 active torsions:
REMARK  status: ('A' for Active; 'I' for Inactive)
REMARK    1  A    between atoms: O1_2  and  C2_3 
REMARK    2  A    between atoms: N2_9  and  C6_10 
REMARK    3  A    between atoms: C6_10  and  C7_11 
ROOT
HETATM    1  C2  UNL     1       7.288  14.407  21.256  1.00  0.00     0.069 A 
HETATM    2  C3  UNL     1       6.664  15.067  22.280  1.00  0.00     0.039 A 
HETATM    3  C4  UNL     1       6.056  14.334  23.297  1.00  0.00     0.035 A 
HETATM    4  C5  UNL     1       6.081  12.955  23.274  1.00  0.00     0.064 A 
HETATM    5  N1  UNL     1       5.605  12.006  24.074  1.00  0.00    -0.295 N 
ATOM      6  H1  UNL     1       5.085  12.186  24.932  1.00  0.00     0.187 HD
HETATM    7  N2  UNL     1       5.892  10.799  23.617  1.00  0.00    -0.254 N 
HETATM    8  C11 UNL     1       6.581  10.972  22.473  1.00  0.00     0.274 A 
HETATM    9  O4  UNL     1       7.049  10.097  21.710  1.00  0.00    -0.266 OA
HETATM   10  C12 UNL     1       6.715  12.325  22.232  1.00  0.00     0.064 A 
HETATM   11  C13 UNL     1       7.323  13.032  21.215  1.00  0.00     0.056 A 
ENDROOT
BRANCH   7  12
HETATM   12  C6  UNL     1       5.545   9.537  24.207  1.00  0.00     0.193 C 
BRANCH  12  13
HETATM   13  C7  UNL     1       6.326   9.210  25.435  1.00  0.00     0.130 C 
HETATM   14  C8  UNL     1       7.780   8.946  25.130  1.00  0.00     0.051 C 
HETATM   15  N3  UNL     1       6.179  10.133  26.510  1.00  0.00    -0.323 N 
HETATM   16  C9  UNL     1       6.277   9.388  27.717  1.00  0.00     0.323 C 
ATOM     17  H3  UNL     1       6.031  11.139  26.429  1.00  0.00     0.165 HD
HETATM   18  O2  UNL     1       6.554   9.825  28.884  1.00  0.00    -0.247 OA
HETATM   19  N4  UNL     1       6.012   8.035  27.432  1.00  0.00    -0.277 N 
HETATM   20  C10 UNL     1       5.750   7.960  26.029  1.00  0.00     0.255 C 
ATOM     21  H4  UNL     1       6.008   7.262  28.097  1.00  0.00     0.173 HD
HETATM   22  O3  UNL     1       5.161   7.035  25.437  1.00  0.00    -0.270 OA
ENDBRANCH  12  13
ENDBRANCH   7  12
BRANCH   1  23
HETATM   23  O1  UNL     1       7.890  15.145  20.248  1.00  0.00    -0.356 OA
HETATM   24  C1  UNL     1       7.165  15.624  19.145  1.00  0.00     0.210 C 
ENDBRANCH   1  23
TORSDOF 3
ENDMDL
