MODEL 1
REMARK VINA RESULT: -8.742420323      0.000      0.000
REMARK  3 active torsions:
REMARK  status: ('A' for Active; 'I' for Inactive)
REMARK    1  A    between atoms: O1_2  and  C2_3 
REMARK    2  A    between atoms: N2_9  and  C6_10 
REMARK    3  A    between atoms: C6_10  and  C7_11 
ROOT
HETATM    1  C2  UNL     1       7.726   8.633  28.739  1.00  0.00     0.069 A 
HETATM    2  C3  UNL     1       8.943   8.468  28.137  1.00  0.00     0.039 A 
HETATM    3  C4  UNL     1       9.030   8.502  26.747  1.00  0.00     0.035 A 
HETATM    4  C5  UNL     1       7.899   8.699  25.982  1.00  0.00     0.064 A 
HETATM    5  N1  UNL     1       7.665   8.778  24.676  1.00  0.00    -0.295 N 
ATOM      6  H1  UNL     1       8.384   8.693  23.958  1.00  0.00     0.187 HD
HETATM    7  N2  UNL     1       6.383   8.980  24.425  1.00  0.00    -0.254 N 
HETATM    8  C11 UNL     1       5.759   9.035  25.617  1.00  0.00     0.274 A 
HETATM    9  O4  UNL     1       4.542   9.211  25.847  1.00  0.00    -0.266 OA
HETATM   10  C12 UNL     1       6.693   8.859  26.618  1.00  0.00     0.064 A 
HETATM   11  C13 UNL     1       6.586   8.830  27.994  1.00  0.00     0.056 A 
ENDROOT
BRANCH   7  12
HETATM   12  C6  UNL     1       5.757   9.118  23.141  1.00  0.00     0.193 C 
BRANCH  12  13
HETATM   13  C7  UNL     1       5.661  10.528  22.663  1.00  0.00     0.130 C 
HETATM   14  C8  UNL     1       4.525  10.721  21.688  1.00  0.00     0.051 C 
HETATM   15  N3  UNL     1       5.639  11.516  23.689  1.00  0.00    -0.323 N 
HETATM   16  C9  UNL     1       6.299  12.666  23.177  1.00  0.00     0.323 C 
ATOM     17  H3  UNL     1       5.227  11.416  24.617  1.00  0.00     0.165 HD
HETATM   18  O2  UNL     1       6.207  13.869  23.593  1.00  0.00    -0.247 OA
HETATM   19  N4  UNL     1       7.109  12.273  22.095  1.00  0.00    -0.277 N 
HETATM   20  C10 UNL     1       6.936  10.862  21.949  1.00  0.00     0.255 C 
ATOM     21  H4  UNL     1       7.702  12.878  21.527  1.00  0.00     0.173 HD
HETATM   22  O3  UNL     1       7.699  10.083  21.347  1.00  0.00    -0.270 OA
ENDBRANCH  12  13
ENDBRANCH   7  12
BRANCH   1  23
HETATM   23  O1  UNL     1       7.650   8.597  30.123  1.00  0.00    -0.356 OA
HETATM   24  C1  UNL     1       7.982   7.446  30.856  1.00  0.00     0.210 C 
ENDBRANCH   1  23
TORSDOF 3
ENDMDL
