MODEL 6
REMARK VINA RESULT: -8.125388970      3.573      5.935
REMARK  2 active torsions:
REMARK  status: ('A' for Active; 'I' for Inactive)
REMARK    1  A    between atoms: C1_2  and  C2_4 
REMARK    2  A    between atoms: N2_12  and  C9_13 
ROOT
HETATM    1  C2  UNL     1     -24.895  62.015  28.098  1.00  0.00     0.045 A 
HETATM    2  C3  UNL     1     -23.712  61.291  28.284  1.00  0.00     0.018 A 
HETATM    3  C4  UNL     1     -22.675  61.527  27.446  1.00  0.00     0.002 A 
HETATM    4  C5  UNL     1     -22.733  62.441  26.428  1.00  0.00     0.010 A 
HETATM    5  C6  UNL     1     -23.905  63.171  26.228  1.00  0.00    -0.024 A 
HETATM    6  C7  UNL     1     -24.986  62.954  27.068  1.00  0.00     0.055 A 
HETATM    7  C8  UNL     1     -26.016  63.865  26.584  1.00  0.00     0.256 A 
HETATM    8  O2  UNL     1     -27.176  64.004  27.059  1.00  0.00    -0.267 OA
HETATM    9  N2  UNL     1     -25.549  64.616  25.468  1.00  0.00    -0.339 N 
HETATM   10  C14 UNL     1     -24.204  64.204  25.206  1.00  0.00     0.166 A 
ENDROOT
BRANCH   9  11
HETATM   11  C9  UNL     1     -26.346  65.624  24.744  1.00  0.00     0.091 C 
HETATM   12  C10 UNL     1     -25.514  66.278  23.691  1.00  0.00     0.053 C 
HETATM   13  C11 UNL     1     -26.286  66.378  22.390  1.00  0.00     0.234 C 
HETATM   14  N3  UNL     1     -27.649  66.816  22.617  1.00  0.00    -0.075 N 
HETATM   15  C12 UNL     1     -28.415  65.908  23.419  1.00  0.00     0.234 C 
ATOM     16  H32 UNL     1     -27.665  67.754  23.019  1.00  0.00     0.277 HD
ATOM     17  H31 UNL     1     -28.121  67.004  21.732  1.00  0.00     0.277 HD
HETATM   18  C13 UNL     1     -27.498  64.888  24.089  1.00  0.00     0.053 C 
ENDBRANCH   9  11
BRANCH   1  19
HETATM   19  C1  UNL     1     -26.017  61.795  28.963  1.00  0.00     0.266 C 
HETATM   20  N1  UNL     1     -26.255  62.774  30.009  1.00  0.00    -0.057 NA
HETATM   21  O1  UNL     1     -26.778  60.822  28.858  1.00  0.00    -0.271 OA
ENDBRANCH   1  19
TORSDOF 2
ENDMDL
