MODEL 7
REMARK VINA RESULT: -8.102919619      2.223      3.094
REMARK  2 active torsions:
REMARK  status: ('A' for Active; 'I' for Inactive)
REMARK    1  A    between atoms: C1_2  and  C2_4 
REMARK    2  A    between atoms: N2_12  and  C9_13 
ROOT
HETATM    1  C2  UNL     1     -26.064  64.122  26.364  1.00  0.00     0.045 A 
HETATM    2  C3  UNL     1     -27.418  63.986  26.036  1.00  0.00     0.018 A 
HETATM    3  C4  UNL     1     -27.883  64.638  24.944  1.00  0.00     0.002 A 
HETATM    4  C5  UNL     1     -27.090  65.422  24.150  1.00  0.00     0.010 A 
HETATM    5  C6  UNL     1     -25.738  65.568  24.463  1.00  0.00    -0.024 A 
HETATM    6  C7  UNL     1     -25.229  64.915  25.574  1.00  0.00     0.055 A 
HETATM    7  C8  UNL     1     -23.818  65.281  25.600  1.00  0.00     0.256 A 
HETATM    8  O2  UNL     1     -22.964  64.908  26.450  1.00  0.00    -0.267 OA
HETATM    9  N2  UNL     1     -23.495  66.144  24.514  1.00  0.00    -0.339 N 
HETATM   10  C14 UNL     1     -24.693  66.354  23.762  1.00  0.00     0.166 A 
ENDROOT
BRANCH   9  11
HETATM   11  C9  UNL     1     -22.152  66.696  24.255  1.00  0.00     0.091 C 
HETATM   12  C10 UNL     1     -21.713  67.541  25.404  1.00  0.00     0.053 C 
HETATM   13  C11 UNL     1     -20.277  67.228  25.777  1.00  0.00     0.234 C 
HETATM   14  N3  UNL     1     -19.440  67.108  24.600  1.00  0.00    -0.075 N 
HETATM   15  C12 UNL     1     -19.826  66.035  23.731  1.00  0.00     0.234 C 
ATOM     16  H32 UNL     1     -19.404  67.991  24.091  1.00  0.00     0.277 HD
ATOM     17  H31 UNL     1     -18.457  67.025  24.862  1.00  0.00     0.277 HD
HETATM   18  C13 UNL     1     -21.210  65.516  24.111  1.00  0.00     0.053 C 
ENDBRANCH   9  11
BRANCH   1  19
HETATM   19  C1  UNL     1     -25.531  63.448  27.511  1.00  0.00     0.266 C 
HETATM   20  N1  UNL     1     -25.685  64.101  28.800  1.00  0.00    -0.057 NA
HETATM   21  O1  UNL     1     -24.954  62.353  27.451  1.00  0.00    -0.271 OA
ENDBRANCH   1  19
TORSDOF 2
ENDMDL
