MODEL 8
REMARK VINA RESULT: -8.047154304      3.178      4.765
REMARK  2 active torsions:
REMARK  status: ('A' for Active; 'I' for Inactive)
REMARK    1  A    between atoms: C1_2  and  C2_4 
REMARK    2  A    between atoms: N2_12  and  C9_13 
ROOT
HETATM    1  C2  UNL     1     -26.461  65.591  23.869  1.00  0.00     0.045 A 
HETATM    2  C3  UNL     1     -27.645  65.867  23.177  1.00  0.00     0.018 A 
HETATM    3  C4  UNL     1     -28.811  65.400  23.684  1.00  0.00     0.002 A 
HETATM    4  C5  UNL     1     -28.881  64.671  24.840  1.00  0.00     0.010 A 
HETATM    5  C6  UNL     1     -27.709  64.385  25.543  1.00  0.00    -0.024 A 
HETATM    6  C7  UNL     1     -26.499  64.849  25.052  1.00  0.00     0.055 A 
HETATM    7  C8  UNL     1     -25.508  64.379  26.013  1.00  0.00     0.256 A 
HETATM    8  O2  UNL     1     -24.263  64.574  25.960  1.00  0.00    -0.267 OA
HETATM    9  N2  UNL     1     -26.127  63.644  27.064  1.00  0.00    -0.339 N 
HETATM   10  C14 UNL     1     -27.533  63.622  26.803  1.00  0.00     0.166 A 
ENDROOT
BRANCH   9  11
HETATM   11  C9  UNL     1     -25.404  63.033  28.196  1.00  0.00     0.091 C 
HETATM   12  C10 UNL     1     -24.495  61.956  27.704  1.00  0.00     0.053 C 
HETATM   13  C11 UNL     1     -23.133  62.069  28.361  1.00  0.00     0.234 C 
HETATM   14  N3  UNL     1     -23.252  62.328  29.782  1.00  0.00    -0.075 N 
HETATM   15  C12 UNL     1     -23.899  63.571  30.084  1.00  0.00     0.234 C 
ATOM     16  H32 UNL     1     -23.721  61.553  30.252  1.00  0.00     0.277 HD
ATOM     17  H31 UNL     1     -22.341  62.275  30.236  1.00  0.00     0.277 HD
HETATM   18  C13 UNL     1     -24.580  64.131  28.838  1.00  0.00     0.053 C 
ENDBRANCH   9  11
BRANCH   1  19
HETATM   19  C1  UNL     1     -25.206  66.067  23.367  1.00  0.00     0.266 C 
HETATM   20  N1  UNL     1     -25.145  67.450  22.925  1.00  0.00    -0.057 NA
HETATM   21  O1  UNL     1     -24.190  65.362  23.294  1.00  0.00    -0.271 OA
ENDBRANCH   1  19
TORSDOF 2
ENDMDL
