MODEL 4
REMARK VINA RESULT: -8.223362119      2.580      3.423
REMARK  2 active torsions:
REMARK  status: ('A' for Active; 'I' for Inactive)
REMARK    1  A    between atoms: C1_2  and  C2_4 
REMARK    2  A    between atoms: N2_12  and  C9_13 
ROOT
HETATM    1  C2  UNL     1     -26.135  64.036  26.516  1.00  0.00     0.045 A 
HETATM    2  C3  UNL     1     -27.387  64.086  25.895  1.00  0.00     0.018 A 
HETATM    3  C4  UNL     1     -27.520  64.832  24.773  1.00  0.00     0.002 A 
HETATM    4  C5  UNL     1     -26.486  65.539  24.222  1.00  0.00     0.010 A 
HETATM    5  C6  UNL     1     -25.230  65.502  24.829  1.00  0.00    -0.024 A 
HETATM    6  C7  UNL     1     -25.059  64.747  25.979  1.00  0.00     0.055 A 
HETATM    7  C8  UNL     1     -23.657  64.931  26.334  1.00  0.00     0.256 A 
HETATM    8  O2  UNL     1     -23.062  64.420  27.322  1.00  0.00    -0.267 OA
HETATM    9  N2  UNL     1     -23.003  65.786  25.402  1.00  0.00    -0.339 N 
HETATM   10  C14 UNL     1     -23.972  66.175  24.423  1.00  0.00     0.166 A 
ENDROOT
BRANCH   9  11
HETATM   11  C9  UNL     1     -21.582  66.174  25.476  1.00  0.00     0.091 C 
HETATM   12  C10 UNL     1     -20.815  65.531  24.369  1.00  0.00     0.053 C 
HETATM   13  C11 UNL     1     -19.888  66.534  23.711  1.00  0.00     0.234 C 
HETATM   14  N3  UNL     1     -19.201  67.344  24.697  1.00  0.00    -0.075 N 
HETATM   15  C12 UNL     1     -20.083  68.143  25.495  1.00  0.00     0.234 C 
ATOM     16  H32 UNL     1     -18.604  66.764  25.287  1.00  0.00     0.277 HD
ATOM     17  H31 UNL     1     -18.488  67.925  24.254  1.00  0.00     0.277 HD
HETATM   18  C13 UNL     1     -21.527  67.681  25.314  1.00  0.00     0.053 C 
ENDBRANCH   9  11
BRANCH   1  19
HETATM   19  C1  UNL     1     -25.951  63.258  27.705  1.00  0.00     0.266 C 
HETATM   20  N1  UNL     1     -26.421  63.828  28.956  1.00  0.00    -0.057 NA
HETATM   21  O1  UNL     1     -25.417  62.139  27.711  1.00  0.00    -0.271 OA
ENDBRANCH   1  19
TORSDOF 2
ENDMDL
