MODEL 11
REMARK VINA RESULT: -7.937327358      3.427      5.039
REMARK  2 active torsions:
REMARK  status: ('A' for Active; 'I' for Inactive)
REMARK    1  A    between atoms: C1_2  and  C2_4 
REMARK    2  A    between atoms: N2_12  and  C9_13 
ROOT
HETATM    1  C2  UNL     1     -25.519  65.153  24.768  1.00  0.00     0.045 A 
HETATM    2  C3  UNL     1     -26.740  65.399  24.132  1.00  0.00     0.018 A 
HETATM    3  C4  UNL     1     -27.869  64.910  24.696  1.00  0.00     0.002 A 
HETATM    4  C5  UNL     1     -27.869  64.187  25.858  1.00  0.00     0.010 A 
HETATM    5  C6  UNL     1     -26.659  63.931  26.505  1.00  0.00    -0.024 A 
HETATM    6  C7  UNL     1     -25.484  64.418  25.955  1.00  0.00     0.055 A 
HETATM    7  C8  UNL     1     -24.439  63.976  26.871  1.00  0.00     0.256 A 
HETATM    8  O2  UNL     1     -23.203  64.198  26.759  1.00  0.00    -0.267 OA
HETATM    9  N2  UNL     1     -24.991  63.235  27.955  1.00  0.00    -0.339 N 
HETATM   10  C14 UNL     1     -26.408  63.181  27.760  1.00  0.00     0.166 A 
ENDROOT
BRANCH   9  11
HETATM   11  C9  UNL     1     -24.203  62.647  29.054  1.00  0.00     0.091 C 
HETATM   12  C10 UNL     1     -23.247  61.635  28.517  1.00  0.00     0.053 C 
HETATM   13  C11 UNL     1     -21.876  61.815  29.139  1.00  0.00     0.234 C 
HETATM   14  N3  UNL     1     -21.970  62.041  30.568  1.00  0.00    -0.075 N 
HETATM   15  C12 UNL     1     -22.680  63.239  30.911  1.00  0.00     0.234 C 
ATOM     16  H32 UNL     1     -22.379  61.232  31.035  1.00  0.00     0.277 HD
ATOM     17  H31 UNL     1     -21.045  62.034  30.997  1.00  0.00     0.277 HD
HETATM   18  C13 UNL     1     -23.427  63.780  29.695  1.00  0.00     0.053 C 
ENDBRANCH   9  11
BRANCH   1  19
HETATM   19  C1  UNL     1     -24.300  65.653  24.204  1.00  0.00     0.266 C 
HETATM   20  N1  UNL     1     -23.465  64.713  23.477  1.00  0.00    -0.057 NA
HETATM   21  O1  UNL     1     -23.934  66.833  24.311  1.00  0.00    -0.271 OA
ENDBRANCH   1  19
TORSDOF 2
ENDMDL
