MODEL 2
REMARK VINA RESULT: -8.547262432      3.228      4.300
REMARK  2 active torsions:
REMARK  status: ('A' for Active; 'I' for Inactive)
REMARK    1  A    between atoms: C1_2  and  C2_4 
REMARK    2  A    between atoms: N2_12  and  C9_13 
ROOT
HETATM    1  C2  UNL     1     -26.602  65.832  23.804  1.00  0.00     0.045 A 
HETATM    2  C3  UNL     1     -27.918  65.738  23.339  1.00  0.00     0.018 A 
HETATM    3  C4  UNL     1     -28.785  64.950  24.018  1.00  0.00     0.002 A 
HETATM    4  C5  UNL     1     -28.432  64.243  25.135  1.00  0.00     0.010 A 
HETATM    5  C6  UNL     1     -27.123  64.325  25.612  1.00  0.00    -0.024 A 
HETATM    6  C7  UNL     1     -26.209  65.123  24.941  1.00  0.00     0.055 A 
HETATM    7  C8  UNL     1     -24.970  64.977  25.696  1.00  0.00     0.256 A 
HETATM    8  O2  UNL     1     -23.868  65.532  25.439  1.00  0.00    -0.267 OA
HETATM    9  N2  UNL     1     -25.149  64.101  26.805  1.00  0.00    -0.339 N 
HETATM   10  C14 UNL     1     -26.510  63.660  26.789  1.00  0.00     0.166 A 
ENDROOT
BRANCH   9  11
HETATM   11  C9  UNL     1     -24.091  63.742  27.767  1.00  0.00     0.091 C 
HETATM   12  C10 UNL     1     -24.373  64.359  29.096  1.00  0.00     0.053 C 
HETATM   13  C11 UNL     1     -24.160  63.350  30.208  1.00  0.00     0.234 C 
HETATM   14  N3  UNL     1     -22.944  62.589  30.003  1.00  0.00    -0.075 N 
HETATM   15  C12 UNL     1     -22.957  61.803  28.804  1.00  0.00     0.234 C 
ATOM     16  H32 UNL     1     -22.127  63.199  30.026  1.00  0.00     0.277 HD
ATOM     17  H31 UNL     1     -22.741  62.005  30.815  1.00  0.00     0.277 HD
HETATM   18  C13 UNL     1     -24.110  62.232  27.901  1.00  0.00     0.053 C 
ENDBRANCH   9  11
BRANCH   1  19
HETATM   19  C1  UNL     1     -25.652  66.655  23.115  1.00  0.00     0.266 C 
HETATM   20  N1  UNL     1     -26.085  67.983  22.715  1.00  0.00    -0.057 NA
HETATM   21  O1  UNL     1     -24.498  66.288  22.850  1.00  0.00    -0.271 OA
ENDBRANCH   1  19
TORSDOF 2
ENDMDL
