MODEL 1
REMARK VINA RESULT: -10.306221506      0.000      0.000
REMARK  3 active torsions:
REMARK  status: ('A' for Active; 'I' for Inactive)
REMARK    1  A    between atoms: C1_2  and  C2_4 
REMARK    2  A    between atoms: C7_11  and  C8_12 
REMARK    3  A    between atoms: C11_15  and  C12_16 
ROOT
HETATM    1  C8  UNL     1      26.631  11.030  27.510  1.00  0.00     0.047 A 
HETATM    2  C9  UNL     1      26.095  12.165  28.125  1.00  0.00     0.019 A 
HETATM    3  C10 UNL     1      26.876  12.945  28.932  1.00  0.00     0.010 A 
HETATM    4  C11 UNL     1      28.199  12.678  29.188  1.00  0.00    -0.025 A 
HETATM    5  C17 UNL     1      28.731  11.566  28.589  1.00  0.00     0.052 A 
HETATM    6  C18 UNL     1      27.952  10.752  27.757  1.00  0.00     0.131 A 
HETATM    7  F1  UNL     1      28.534   9.677  27.200  1.00  0.00    -0.205 F 
ENDROOT
BRANCH   1   8
HETATM    8  C7  UNL     1      25.771  10.211  26.649  1.00  0.00     0.119 A 
HETATM    9  N2  UNL     1      25.484   8.918  26.802  1.00  0.00    -0.340 N 
HETATM   10  C6  UNL     1      24.649   8.491  25.805  1.00  0.00     0.061 A 
ATOM     11  H2  UNL     1      25.836   8.330  27.557  1.00  0.00     0.167 HD
HETATM   12  C5  UNL     1      24.054   7.299  25.479  1.00  0.00     0.032 A 
HETATM   13  C19 UNL     1      24.442   9.616  25.024  1.00  0.00     0.076 A 
HETATM   14  C4  UNL     1      23.240   7.171  24.382  1.00  0.00     0.003 A 
HETATM   15  C3  UNL     1      23.051   8.323  23.614  1.00  0.00     0.019 A 
HETATM   16  C2  UNL     1      23.631   9.521  23.915  1.00  0.00     0.058 A 
HETATM   17  N4  UNL     1      25.118  10.647  25.532  1.00  0.00    -0.339 N 
ATOM     18  H4  UNL     1      25.142  11.594  25.153  1.00  0.00     0.167 HD
BRANCH  16  19
HETATM   19  C1  UNL     1      23.402  10.694  23.082  1.00  0.00     0.267 C 
HETATM   20  N1  UNL     1      22.220  10.866  22.332  1.00  0.00    -0.057 NA
HETATM   21  O1  UNL     1      24.278  11.596  23.017  1.00  0.00    -0.271 OA
ENDBRANCH  16  19
ENDBRANCH   1   8
BRANCH   4  22
HETATM   22  C12 UNL     1      29.045  13.509  30.055  1.00  0.00     0.218 C 
HETATM   23  C13 UNL     1      30.198  12.672  30.528  1.00  0.00     0.038 C 
HETATM   24  C14 UNL     1      30.886  13.196  31.737  1.00  0.00     0.004 C 
HETATM   25  C15 UNL     1      29.975  13.793  32.766  1.00  0.00     0.027 C 
HETATM   26  C16 UNL     1      29.123  14.834  32.028  1.00  0.00     0.233 C 
HETATM   27  N3  UNL     1      28.280  14.097  31.121  1.00  0.00    -0.067 N 
ATOM     28  H32 UNL     1      27.520  14.676  30.762  1.00  0.00     0.277 HD
ATOM     29  H31 UNL     1      27.724  13.396  31.613  1.00  0.00     0.277 HD
ENDBRANCH   4  22
TORSDOF 3
ENDMDL
