MODEL 5
REMARK VINA RESULT: -9.807900427      5.003      5.711
REMARK  3 active torsions:
REMARK  status: ('A' for Active; 'I' for Inactive)
REMARK    1  A    between atoms: C1_2  and  C2_4 
REMARK    2  A    between atoms: C7_11  and  C8_12 
REMARK    3  A    between atoms: C11_15  and  C12_16 
ROOT
HETATM    1  C8  UNL     1      26.269  13.416  24.451  1.00  0.00     0.047 A 
HETATM    2  C9  UNL     1      27.584  13.483  23.981  1.00  0.00     0.019 A 
HETATM    3  C10 UNL     1      28.174  14.695  23.752  1.00  0.00     0.010 A 
HETATM    4  C11 UNL     1      27.537  15.894  23.962  1.00  0.00    -0.025 A 
HETATM    5  C17 UNL     1      26.246  15.837  24.422  1.00  0.00     0.052 A 
HETATM    6  C18 UNL     1      25.622  14.607  24.664  1.00  0.00     0.131 A 
HETATM    7  F1  UNL     1      24.357  14.620  25.116  1.00  0.00    -0.205 F 
ENDROOT
BRANCH   1   8
HETATM    8  C7  UNL     1      25.661  12.102  24.687  1.00  0.00     0.119 A 
HETATM    9  N2  UNL     1      25.989  11.228  25.639  1.00  0.00    -0.340 N 
HETATM   10  C6  UNL     1      25.205  10.109  25.552  1.00  0.00     0.061 A 
ATOM     11  H2  UNL     1      26.721  11.372  26.333  1.00  0.00     0.167 HD
HETATM   12  C5  UNL     1      25.110   8.932  26.250  1.00  0.00     0.032 A 
HETATM   13  C19 UNL     1      24.369  10.357  24.477  1.00  0.00     0.076 A 
HETATM   14  C4  UNL     1      24.195   7.964  25.920  1.00  0.00     0.003 A 
HETATM   15  C3  UNL     1      23.366   8.244  24.830  1.00  0.00     0.019 A 
HETATM   16  C2  UNL     1      23.439   9.406  24.118  1.00  0.00     0.058 A 
HETATM   17  N4  UNL     1      24.644  11.554  23.959  1.00  0.00    -0.339 N 
ATOM     18  H4  UNL     1      24.179  11.984  23.159  1.00  0.00     0.167 HD
BRANCH  16  19
HETATM   19  C1  UNL     1      22.551   9.649  22.990  1.00  0.00     0.267 C 
HETATM   20  N1  UNL     1      22.138  10.948  22.623  1.00  0.00    -0.057 NA
HETATM   21  O1  UNL     1      22.128   8.681  22.305  1.00  0.00    -0.271 OA
ENDBRANCH  16  19
ENDBRANCH   1   8
BRANCH   4  22
HETATM   22  C12 UNL     1      28.161  17.202  23.718  1.00  0.00     0.218 C 
HETATM   23  C13 UNL     1      28.163  17.454  22.239  1.00  0.00     0.038 C 
HETATM   24  C14 UNL     1      29.132  18.487  21.789  1.00  0.00     0.004 C 
HETATM   25  C15 UNL     1      30.448  18.463  22.504  1.00  0.00     0.027 C 
HETATM   26  C16 UNL     1      30.121  18.520  24.003  1.00  0.00     0.233 C 
HETATM   27  N3  UNL     1      29.466  17.275  24.320  1.00  0.00    -0.067 N 
ATOM     28  H32 UNL     1      29.423  17.122  25.328  1.00  0.00     0.277 HD
ATOM     29  H31 UNL     1      30.042  16.473  24.063  1.00  0.00     0.277 HD
ENDBRANCH   4  22
TORSDOF 3
ENDMDL
