MODEL 2
REMARK VINA RESULT: -10.052781515      5.909      9.198
REMARK  3 active torsions:
REMARK  status: ('A' for Active; 'I' for Inactive)
REMARK    1  A    between atoms: C1_2  and  C2_4 
REMARK    2  A    between atoms: C7_11  and  C8_12 
REMARK    3  A    between atoms: C11_15  and  C12_16 
ROOT
HETATM    1  C8  UNL     1      27.945  14.195  24.298  1.00  0.00     0.047 A 
HETATM    2  C9  UNL     1      26.696  14.809  24.422  1.00  0.00     0.019 A 
HETATM    3  C10 UNL     1      25.556  14.054  24.448  1.00  0.00     0.010 A 
HETATM    4  C11 UNL     1      25.558  12.684  24.357  1.00  0.00    -0.025 A 
HETATM    5  C17 UNL     1      26.780  12.074  24.234  1.00  0.00     0.052 A 
HETATM    6  C18 UNL     1      27.961  12.827  24.206  1.00  0.00     0.131 A 
HETATM    7  F1  UNL     1      29.126  12.168  24.085  1.00  0.00    -0.205 F 
ENDROOT
BRANCH   1   8
HETATM    8  C7  UNL     1      29.152  15.030  24.273  1.00  0.00     0.119 A 
HETATM    9  N2  UNL     1      30.093  15.104  25.215  1.00  0.00    -0.340 N 
HETATM   10  C6  UNL     1      31.070  15.988  24.846  1.00  0.00     0.061 A 
ATOM     11  H2  UNL     1      30.086  14.576  26.087  1.00  0.00     0.167 HD
HETATM   12  C5  UNL     1      32.235  16.441  25.411  1.00  0.00     0.032 A 
HETATM   13  C19 UNL     1      30.664  16.455  23.608  1.00  0.00     0.076 A 
HETATM   14  C4  UNL     1      33.037  17.361  24.784  1.00  0.00     0.003 A 
HETATM   15  C3  UNL     1      32.598  17.813  23.536  1.00  0.00     0.019 A 
HETATM   16  C2  UNL     1      31.444  17.380  22.950  1.00  0.00     0.058 A 
HETATM   17  N4  UNL     1      29.511  15.879  23.266  1.00  0.00    -0.339 N 
ATOM     18  H4  UNL     1      28.989  16.043  22.404  1.00  0.00     0.167 HD
BRANCH  16  19
HETATM   19  C1  UNL     1      31.032  17.882  21.647  1.00  0.00     0.267 C 
HETATM   20  N1  UNL     1      31.255  19.217  21.248  1.00  0.00    -0.057 NA
HETATM   21  O1  UNL     1      30.456  17.112  20.834  1.00  0.00    -0.271 OA
ENDBRANCH  16  19
ENDBRANCH   1   8
BRANCH   4  22
HETATM   22  C12 UNL     1      24.339  11.863  24.382  1.00  0.00     0.218 C 
HETATM   23  C13 UNL     1      24.716  10.475  24.811  1.00  0.00     0.038 C 
HETATM   24  C14 UNL     1      23.718   9.429  24.465  1.00  0.00     0.004 C 
HETATM   25  C15 UNL     1      23.065   9.605  23.128  1.00  0.00     0.027 C 
HETATM   26  C16 UNL     1      22.509  11.035  23.109  1.00  0.00     0.233 C 
HETATM   27  N3  UNL     1      23.652  11.914  23.120  1.00  0.00    -0.067 N 
ATOM     28  H32 UNL     1      23.392  12.869  22.873  1.00  0.00     0.277 HD
ATOM     29  H31 UNL     1      24.282  11.716  22.342  1.00  0.00     0.277 HD
ENDBRANCH   4  22
TORSDOF 3
ENDMDL
