MODEL 4
REMARK VINA RESULT: -9.945717253      6.079      9.349
REMARK  3 active torsions:
REMARK  status: ('A' for Active; 'I' for Inactive)
REMARK    1  A    between atoms: C1_2  and  C2_4 
REMARK    2  A    between atoms: C7_11  and  C8_12 
REMARK    3  A    between atoms: C11_15  and  C12_16 
ROOT
HETATM    1  C8  UNL     1      27.871  14.351  24.292  1.00  0.00     0.047 A 
HETATM    2  C9  UNL     1      27.966  12.958  24.229  1.00  0.00     0.019 A 
HETATM    3  C10 UNL     1      26.837  12.188  24.258  1.00  0.00     0.010 A 
HETATM    4  C11 UNL     1      25.570  12.711  24.347  1.00  0.00    -0.025 A 
HETATM    5  C17 UNL     1      25.469  14.077  24.410  1.00  0.00     0.052 A 
HETATM    6  C18 UNL     1      26.611  14.886  24.381  1.00  0.00     0.131 A 
HETATM    7  F1  UNL     1      26.442  16.218  24.446  1.00  0.00    -0.205 F 
ENDROOT
BRANCH   1   8
HETATM    8  C7  UNL     1      29.099  15.154  24.260  1.00  0.00     0.119 A 
HETATM    9  N2  UNL     1      30.049  15.201  25.193  1.00  0.00    -0.340 N 
HETATM   10  C6  UNL     1      31.045  16.062  24.819  1.00  0.00     0.061 A 
ATOM     11  H2  UNL     1      30.035  14.671  26.064  1.00  0.00     0.167 HD
HETATM   12  C5  UNL     1      32.226  16.483  25.376  1.00  0.00     0.032 A 
HETATM   13  C19 UNL     1      30.640  16.543  23.586  1.00  0.00     0.076 A 
HETATM   14  C4  UNL     1      33.046  17.384  24.745  1.00  0.00     0.003 A 
HETATM   15  C3  UNL     1      32.609  17.851  23.502  1.00  0.00     0.019 A 
HETATM   16  C2  UNL     1      31.439  17.450  22.925  1.00  0.00     0.058 A 
HETATM   17  N4  UNL     1      29.471  15.998  23.252  1.00  0.00    -0.339 N 
ATOM     18  H4  UNL     1      28.946  16.178  22.395  1.00  0.00     0.167 HD
BRANCH  16  19
HETATM   19  C1  UNL     1      31.029  17.967  21.627  1.00  0.00     0.267 C 
HETATM   20  N1  UNL     1      31.235  19.311  21.251  1.00  0.00    -0.057 NA
HETATM   21  O1  UNL     1      30.470  17.202  20.797  1.00  0.00    -0.271 OA
ENDBRANCH  16  19
ENDBRANCH   1   8
BRANCH   4  22
HETATM   22  C12 UNL     1      24.351  11.891  24.380  1.00  0.00     0.218 C 
HETATM   23  C13 UNL     1      24.722  10.515  24.850  1.00  0.00     0.038 C 
HETATM   24  C14 UNL     1      23.728   9.461  24.519  1.00  0.00     0.004 C 
HETATM   25  C15 UNL     1      23.092   9.600  23.170  1.00  0.00     0.027 C 
HETATM   26  C16 UNL     1      22.537  11.030  23.106  1.00  0.00     0.233 C 
HETATM   27  N3  UNL     1      23.680  11.908  23.108  1.00  0.00    -0.067 N 
ATOM     28  H32 UNL     1      23.423  12.856  22.832  1.00  0.00     0.277 HD
ATOM     29  H31 UNL     1      24.320  11.690  22.344  1.00  0.00     0.277 HD
ENDBRANCH   4  22
TORSDOF 3
ENDMDL
