MODEL 3
REMARK VINA RESULT: -8.907465913      1.629      2.316
REMARK  16 active torsions:
REMARK  status: ('A' for Active; 'I' for Inactive)
REMARK    1  A    between atoms: N1_1  and  C1_5 
REMARK    2  A    between atoms: C1_5  and  C2_6 
REMARK    3  A    between atoms: C2_6  and  C3_7 
REMARK    4  A    between atoms: C3_7  and  C4_8 
REMARK    5  A    between atoms: C4_8  and  C5_9 
REMARK    6  A    between atoms: C5_9  and  N2_10 
REMARK    7  A    between atoms: C5_9  and  C16_25 
REMARK    8  A    between atoms: N2_10  and  C6_13 
REMARK    9  A    between atoms: C6_13  and  C7_14 
REMARK   10  A    between atoms: C6_13  and  C15_22 
REMARK   11  A    between atoms: C7_14  and  C8_15 
REMARK   12  A    between atoms: C8_15  and  C9_16 
REMARK       I    between atoms: C16_25  and  N3_27 
REMARK   13  A    between atoms: N3_27  and  C17_29 
REMARK   14  A    between atoms: C17_29  and  C18_30 
REMARK   15  A    between atoms: C17_29  and  C27_41 
REMARK   16  A    between atoms: C18_30  and  C19_31 
ROOT
HETATM    1  C5  UNL     1      42.261  11.947 110.707  1.00  0.00     0.278 C 
ENDROOT
BRANCH   1   2
HETATM    2  C4  UNL     1      41.627  12.019 112.105  1.00  0.00     0.043 C 
BRANCH   2   3
HETATM    3  C3  UNL     1      41.732  13.431 112.646  1.00  0.00     0.004 C 
BRANCH   3   4
HETATM    4  C2  UNL     1      40.402  14.049 112.906  1.00  0.00     0.027 C 
BRANCH   4   5
HETATM    5  C1  UNL     1      40.434  15.471 113.350  1.00  0.00     0.229 C 
BRANCH   5   6
HETATM    6  N1  UNL     1      40.370  16.424 112.269  1.00  0.00    -0.079 N 
ATOM      7  H13 UNL     1      41.005  16.156 111.517  1.00  0.00     0.274 HD
ATOM      8  H12 UNL     1      39.480  16.349 111.777  1.00  0.00     0.274 HD
ATOM      9  H11 UNL     1      40.541  17.388 112.555  1.00  0.00     0.274 HD
ENDBRANCH   5   6
ENDBRANCH   4   5
ENDBRANCH   3   4
ENDBRANCH   2   3
ENDBRANCH   1   2
BRANCH   1  10
HETATM   10  N2  UNL     1      41.263  12.403 109.760  1.00  0.00    -0.048 N 
ATOM     11  H22 UNL     1      40.853  11.634 109.230  1.00  0.00     0.279 HD
ATOM     12  H21 UNL     1      40.415  12.730 110.221  1.00  0.00     0.279 HD
BRANCH  10  13
HETATM   13  C6  UNL     1      41.863  13.443 108.873  1.00  0.00     0.287 C 
BRANCH  13  14
HETATM   14  C7  UNL     1      41.254  13.174 107.525  1.00  0.00     0.049 C 
BRANCH  14  15
HETATM   15  C8  UNL     1      40.343  12.017 107.425  1.00  0.00     0.041 C 
BRANCH  15  16
HETATM   16  C9  UNL     1      39.284  12.101 106.420  1.00  0.00    -0.058 A 
HETATM   17  C10 UNL     1      37.945  11.899 106.709  1.00  0.00     0.007 A 
HETATM   18  C11 UNL     1      36.937  11.982 105.777  1.00  0.00     0.001 A 
HETATM   19  C12 UNL     1      37.242  12.282 104.470  1.00  0.00     0.000 A 
HETATM   20  C13 UNL     1      38.560  12.486 104.157  1.00  0.00     0.001 A 
HETATM   21  C14 UNL     1      39.576  12.398 105.122  1.00  0.00     0.007 A 
ENDBRANCH  15  16
ENDBRANCH  14  15
ENDBRANCH  13  14
BRANCH  13  22
HETATM   22  C15 UNL     1      41.350  14.759 109.385  1.00  0.00     0.204 C 
HETATM   23  O1  UNL     1      42.139  15.646 109.840  1.00  0.00    -0.646 OA
HETATM   24  O2  UNL     1      40.015  15.077 109.391  1.00  0.00    -0.646 OA
ENDBRANCH  13  22
ENDBRANCH  10  13
ENDBRANCH   1  10
BRANCH   1  25
HETATM   25  C16 UNL     1      42.614  10.539 110.431  1.00  0.00     0.249 C 
HETATM   26  O3  UNL     1      42.753   9.740 111.401  1.00  0.00    -0.271 OA
HETATM   27  N3  UNL     1      42.808  10.026 109.136  1.00  0.00    -0.344 N 
ATOM     28  H3  UNL     1      42.702  10.645 108.332  1.00  0.00     0.163 HD
BRANCH  27  29
HETATM   29  C17 UNL     1      43.163   8.603 108.917  1.00  0.00     0.190 C 
BRANCH  29  30
HETATM   30  C18 UNL     1      42.606   8.253 107.585  1.00  0.00     0.077 C 
BRANCH  30  31
HETATM   31  C19 UNL     1      41.156   8.058 107.565  1.00  0.00    -0.028 A 
HETATM   32  C20 UNL     1      40.394   7.549 108.618  1.00  0.00     0.096 A 
HETATM   33  N4  UNL     1      39.117   7.481 108.231  1.00  0.00    -0.365 N 
HETATM   34  C21 UNL     1      38.990   7.923 106.962  1.00  0.00     0.042 A 
ATOM     35  H4  UNL     1      38.349   7.143 108.811  1.00  0.00     0.165 HD
HETATM   36  C22 UNL     1      37.883   8.065 106.121  1.00  0.00     0.030 A 
HETATM   37  C26 UNL     1      40.249   8.281 106.548  1.00  0.00    -0.002 A 
HETATM   38  C23 UNL     1      38.016   8.565 104.859  1.00  0.00     0.002 A 
HETATM   39  C24 UNL     1      39.280   8.929 104.435  1.00  0.00     0.001 A 
HETATM   40  C25 UNL     1      40.363   8.789 105.261  1.00  0.00     0.014 A 
ENDBRANCH  30  31
ENDBRANCH  29  30
BRANCH  29  41
HETATM   41  C27 UNL     1      44.603   8.449 109.073  1.00  0.00     0.197 C 
HETATM   42  O4  UNL     1      45.083   7.372 109.506  1.00  0.00    -0.646 OA
HETATM   43  O5  UNL     1      45.494   9.448 108.756  1.00  0.00    -0.646 OA
ENDBRANCH  29  41
ENDBRANCH  27  29
ENDBRANCH   1  25
TORSDOF 16
ENDMDL
