MODEL 2
REMARK VINA RESULT: -9.003960265      1.256      2.165
REMARK  16 active torsions:
REMARK  status: ('A' for Active; 'I' for Inactive)
REMARK    1  A    between atoms: N1_1  and  C1_5 
REMARK    2  A    between atoms: C1_5  and  C2_6 
REMARK    3  A    between atoms: C2_6  and  C3_7 
REMARK    4  A    between atoms: C3_7  and  C4_8 
REMARK    5  A    between atoms: C4_8  and  C5_9 
REMARK    6  A    between atoms: C5_9  and  N2_10 
REMARK    7  A    between atoms: C5_9  and  C16_25 
REMARK    8  A    between atoms: N2_10  and  C6_13 
REMARK    9  A    between atoms: C6_13  and  C7_14 
REMARK   10  A    between atoms: C6_13  and  C15_22 
REMARK   11  A    between atoms: C7_14  and  C8_15 
REMARK   12  A    between atoms: C8_15  and  C9_16 
REMARK       I    between atoms: C16_25  and  N3_27 
REMARK   13  A    between atoms: N3_27  and  C17_29 
REMARK   14  A    between atoms: C17_29  and  C18_30 
REMARK   15  A    between atoms: C17_29  and  C27_41 
REMARK   16  A    between atoms: C18_30  and  C19_31 
ROOT
HETATM    1  C5  UNL     1      42.583  12.034 111.566  1.00  0.00     0.278 C 
ENDROOT
BRANCH   1   2
HETATM    2  C4  UNL     1      42.035  12.740 112.816  1.00  0.00     0.043 C 
BRANCH   2   3
HETATM    3  C3  UNL     1      41.444  14.082 112.433  1.00  0.00     0.004 C 
BRANCH   3   4
HETATM    4  C2  UNL     1      40.150  14.358 113.118  1.00  0.00     0.027 C 
BRANCH   4   5
HETATM    5  C1  UNL     1      40.220  15.323 114.251  1.00  0.00     0.229 C 
BRANCH   5   6
HETATM    6  N1  UNL     1      39.381  16.485 114.084  1.00  0.00    -0.079 N 
ATOM      7  H13 UNL     1      39.531  17.148 114.845  1.00  0.00     0.274 HD
ATOM      8  H12 UNL     1      39.703  17.050 113.298  1.00  0.00     0.274 HD
ATOM      9  H11 UNL     1      38.389  16.270 113.988  1.00  0.00     0.274 HD
ENDBRANCH   5   6
ENDBRANCH   4   5
ENDBRANCH   3   4
ENDBRANCH   2   3
ENDBRANCH   1   2
BRANCH   1  10
HETATM   10  N2  UNL     1      42.079  12.754 110.413  1.00  0.00    -0.048 N 
ATOM     11  H22 UNL     1      41.060  12.790 110.395  1.00  0.00     0.279 HD
ATOM     12  H21 UNL     1      42.259  13.756 110.474  1.00  0.00     0.279 HD
BRANCH  10  13
HETATM   13  C6  UNL     1      42.645  12.152 109.169  1.00  0.00     0.287 C 
BRANCH  13  14
HETATM   14  C7  UNL     1      41.585  12.392 108.129  1.00  0.00     0.049 C 
BRANCH  14  15
HETATM   15  C8  UNL     1      41.949  12.102 106.729  1.00  0.00     0.041 C 
BRANCH  15  16
HETATM   16  C9  UNL     1      41.214  11.024 106.070  1.00  0.00    -0.058 A 
HETATM   17  C10 UNL     1      39.945  11.183 105.539  1.00  0.00     0.007 A 
HETATM   18  C11 UNL     1      39.244  10.181 104.909  1.00  0.00     0.001 A 
HETATM   19  C12 UNL     1      39.809   8.932 104.782  1.00  0.00     0.000 A 
HETATM   20  C13 UNL     1      41.063   8.748 105.300  1.00  0.00     0.001 A 
HETATM   21  C14 UNL     1      41.765   9.783 105.939  1.00  0.00     0.007 A 
ENDBRANCH  15  16
ENDBRANCH  14  15
ENDBRANCH  13  14
BRANCH  13  22
HETATM   22  C15 UNL     1      43.854  12.977 108.831  1.00  0.00     0.204 C 
HETATM   23  O1  UNL     1      43.824  14.247 108.879  1.00  0.00    -0.646 OA
HETATM   24  O2  UNL     1      45.048  12.415 108.456  1.00  0.00    -0.646 OA
ENDBRANCH  13  22
ENDBRANCH  10  13
ENDBRANCH   1  10
BRANCH   1  25
HETATM   25  C16 UNL     1      42.076  10.647 111.557  1.00  0.00     0.249 C 
HETATM   26  O3  UNL     1      40.915  10.415 112.001  1.00  0.00    -0.271 OA
HETATM   27  N3  UNL     1      42.817   9.552 111.078  1.00  0.00    -0.344 N 
ATOM     28  H3  UNL     1      43.757   9.705 110.712  1.00  0.00     0.163 HD
BRANCH  27  29
HETATM   29  C17 UNL     1      42.258   8.179 111.095  1.00  0.00     0.190 C 
BRANCH  29  30
HETATM   30  C18 UNL     1      42.497   7.633 109.734  1.00  0.00     0.077 C 
BRANCH  30  31
HETATM   31  C19 UNL     1      41.287   7.214 109.027  1.00  0.00    -0.028 A 
HETATM   32  C20 UNL     1      41.082   5.959 108.450  1.00  0.00     0.096 A 
HETATM   33  N4  UNL     1      39.882   5.946 107.863  1.00  0.00    -0.365 N 
HETATM   34  C21 UNL     1      39.272   7.140 108.022  1.00  0.00     0.042 A 
ATOM     35  H4  UNL     1      39.483   5.149 107.367  1.00  0.00     0.165 HD
HETATM   36  C22 UNL     1      38.024   7.622 107.617  1.00  0.00     0.030 A 
HETATM   37  C26 UNL     1      40.138   7.926 108.741  1.00  0.00    -0.002 A 
HETATM   38  C23 UNL     1      37.624   8.889 107.924  1.00  0.00     0.002 A 
HETATM   39  C24 UNL     1      38.490   9.685 108.649  1.00  0.00     0.001 A 
HETATM   40  C25 UNL     1      39.712   9.211 109.044  1.00  0.00     0.014 A 
ENDBRANCH  30  31
ENDBRANCH  29  30
BRANCH  29  41
HETATM   41  C27 UNL     1      42.859   7.441 112.197  1.00  0.00     0.197 C 
HETATM   42  O4  UNL     1      44.005   7.743 112.613  1.00  0.00    -0.646 OA
HETATM   43  O5  UNL     1      42.218   6.402 112.831  1.00  0.00    -0.646 OA
ENDBRANCH  29  41
ENDBRANCH  27  29
ENDBRANCH   1  25
TORSDOF 16
ENDMDL
