MODEL 1
REMARK VINA RESULT: -9.086724317      0.000      0.000
REMARK  16 active torsions:
REMARK  status: ('A' for Active; 'I' for Inactive)
REMARK    1  A    between atoms: N1_1  and  C1_5 
REMARK    2  A    between atoms: C1_5  and  C2_6 
REMARK    3  A    between atoms: C2_6  and  C3_7 
REMARK    4  A    between atoms: C3_7  and  C4_8 
REMARK    5  A    between atoms: C4_8  and  C5_9 
REMARK    6  A    between atoms: C5_9  and  N2_10 
REMARK    7  A    between atoms: C5_9  and  C16_25 
REMARK    8  A    between atoms: N2_10  and  C6_13 
REMARK    9  A    between atoms: C6_13  and  C7_14 
REMARK   10  A    between atoms: C6_13  and  C15_22 
REMARK   11  A    between atoms: C7_14  and  C8_15 
REMARK   12  A    between atoms: C8_15  and  C9_16 
REMARK       I    between atoms: C16_25  and  N3_27 
REMARK   13  A    between atoms: N3_27  and  C17_29 
REMARK   14  A    between atoms: C17_29  and  C18_30 
REMARK   15  A    between atoms: C17_29  and  C27_41 
REMARK   16  A    between atoms: C18_30  and  C19_31 
ROOT
HETATM    1  C5  UNL     1      42.684  12.092 110.847  1.00  0.00     0.278 C 
ENDROOT
BRANCH   1   2
HETATM    2  C4  UNL     1      42.211  12.929 112.046  1.00  0.00     0.043 C 
BRANCH   2   3
HETATM    3  C3  UNL     1      41.292  14.038 111.570  1.00  0.00     0.004 C 
BRANCH   3   4
HETATM    4  C2  UNL     1      40.180  14.313 112.522  1.00  0.00     0.027 C 
BRANCH   4   5
HETATM    5  C1  UNL     1      40.453  15.372 113.534  1.00  0.00     0.229 C 
BRANCH   5   6
HETATM    6  N1  UNL     1      40.202  16.712 113.061  1.00  0.00    -0.079 N 
ATOM      7  H13 UNL     1      40.864  16.963 112.328  1.00  0.00     0.274 HD
ATOM      8  H12 UNL     1      39.333  16.748 112.529  1.00  0.00     0.274 HD
ATOM      9  H11 UNL     1      40.200  17.418 113.798  1.00  0.00     0.274 HD
ENDBRANCH   5   6
ENDBRANCH   4   5
ENDBRANCH   3   4
ENDBRANCH   2   3
ENDBRANCH   1   2
BRANCH   1  10
HETATM   10  N2  UNL     1      42.194  12.745 109.649  1.00  0.00    -0.048 N 
ATOM     11  H22 UNL     1      41.175  12.771 109.612  1.00  0.00     0.279 HD
ATOM     12  H21 UNL     1      42.364  13.751 109.660  1.00  0.00     0.279 HD
BRANCH  10  13
HETATM   13  C6  UNL     1      42.787  12.084 108.449  1.00  0.00     0.287 C 
BRANCH  13  14
HETATM   14  C7  UNL     1      41.763  12.297 107.368  1.00  0.00     0.049 C 
BRANCH  14  15
HETATM   15  C8  UNL     1      40.376  11.901 107.678  1.00  0.00     0.041 C 
BRANCH  15  16
HETATM   16  C9  UNL     1      39.406  12.002 106.589  1.00  0.00    -0.058 A 
HETATM   17  C10 UNL     1      39.765  12.224 105.270  1.00  0.00     0.007 A 
HETATM   18  C11 UNL     1      38.865  12.313 104.234  1.00  0.00     0.001 A 
HETATM   19  C12 UNL     1      37.519  12.180 104.488  1.00  0.00     0.000 A 
HETATM   20  C13 UNL     1      37.137  11.961 105.785  1.00  0.00     0.001 A 
HETATM   21  C14 UNL     1      38.070  11.871 106.830  1.00  0.00     0.007 A 
ENDBRANCH  15  16
ENDBRANCH  14  15
ENDBRANCH  13  14
BRANCH  13  22
HETATM   22  C15 UNL     1      44.019  12.877 108.115  1.00  0.00     0.204 C 
HETATM   23  O1  UNL     1      45.177  12.477 108.456  1.00  0.00    -0.646 OA
HETATM   24  O2  UNL     1      43.967  14.064 107.430  1.00  0.00    -0.646 OA
ENDBRANCH  13  22
ENDBRANCH  10  13
ENDBRANCH   1  10
BRANCH   1  25
HETATM   25  C16 UNL     1      42.095  10.742 110.964  1.00  0.00     0.249 C 
HETATM   26  O3  UNL     1      40.838  10.626 111.034  1.00  0.00    -0.271 OA
HETATM   27  N3  UNL     1      42.859   9.562 111.002  1.00  0.00    -0.344 N 
ATOM     28  H3  UNL     1      43.876   9.622 110.946  1.00  0.00     0.163 HD
BRANCH  27  29
HETATM   29  C17 UNL     1      42.214   8.232 111.122  1.00  0.00     0.190 C 
BRANCH  29  30
HETATM   30  C18 UNL     1      42.312   7.618 109.773  1.00  0.00     0.077 C 
BRANCH  30  31
HETATM   31  C19 UNL     1      41.159   7.867 108.908  1.00  0.00    -0.028 A 
HETATM   32  C20 UNL     1      39.822   7.823 109.309  1.00  0.00     0.096 A 
HETATM   33  N4  UNL     1      39.047   8.067 108.249  1.00  0.00    -0.365 N 
HETATM   34  C21 UNL     1      39.806   8.273 107.153  1.00  0.00     0.042 A 
ATOM     35  H4  UNL     1      38.027   8.094 108.266  1.00  0.00     0.165 HD
HETATM   36  C22 UNL     1      39.484   8.574 105.826  1.00  0.00     0.030 A 
HETATM   37  C26 UNL     1      41.112   8.150 107.556  1.00  0.00    -0.002 A 
HETATM   38  C23 UNL     1      40.457   8.758 104.888  1.00  0.00     0.002 A 
HETATM   39  C24 UNL     1      41.774   8.637 105.288  1.00  0.00     0.001 A 
HETATM   40  C25 UNL     1      42.088   8.342 106.587  1.00  0.00     0.014 A 
ENDBRANCH  30  31
ENDBRANCH  29  30
BRANCH  29  41
HETATM   41  C27 UNL     1      42.848   7.500 112.209  1.00  0.00     0.197 C 
HETATM   42  O4  UNL     1      44.020   7.780 112.565  1.00  0.00    -0.646 OA
HETATM   43  O5  UNL     1      42.212   6.490 112.894  1.00  0.00    -0.646 OA
ENDBRANCH  29  41
ENDBRANCH  27  29
ENDBRANCH   1  25
TORSDOF 16
ENDMDL
