MODEL 10
REMARK VINA RESULT: -4.514261577      1.380      4.112
REMARK  8 active torsions:
REMARK  status: ('A' for Active; 'I' for Inactive)
REMARK    1  A    between atoms: O1_1  and  C1_3 
REMARK    2  A    between atoms: C1_3  and  C2_4 
REMARK    3  A    between atoms: C2_4  and  N1_5 
REMARK    4  A    between atoms: C4_7  and  O2_8 
REMARK    5  A    between atoms: C5_10  and  O3_11 
REMARK    6  A    between atoms: C6_13  and  O4_14 
REMARK    7  A    between atoms: C7_16  and  C8_17 
REMARK    8  A    between atoms: C8_17  and  O5_18 
ROOT
HETATM    1  N1  UNL     1      45.557  92.320  34.187  1.00  0.00     0.102 N 
HETATM    2  C3  UNL     1      45.574  92.959  35.470  1.00  0.00     0.307 C 
HETATM    3  C4  UNL     1      44.277  92.969  36.190  1.00  0.00     0.177 C 
HETATM    4  C5  UNL     1      43.646  91.578  36.188  1.00  0.00     0.179 C 
HETATM    5  C6  UNL     1      43.485  91.256  34.702  1.00  0.00     0.184 C 
HETATM    6  C7  UNL     1      44.894  91.036  34.184  1.00  0.00     0.277 C 
ENDROOT
BRANCH   1   7
HETATM    7  C2  UNL     1      46.896  92.268  33.682  1.00  0.00     0.299 C 
BRANCH   7   8
HETATM    8  C1  UNL     1      47.777  93.388  34.164  1.00  0.00     0.194 C 
BRANCH   8   9
HETATM    9  O1  UNL     1      49.098  93.056  33.865  1.00  0.00    -0.399 OA
ATOM     10  H1  UNL     1      49.316  93.447  33.027  1.00  0.00     0.209 HD
ENDBRANCH   8   9
ENDBRANCH   7   8
ENDBRANCH   1   7
BRANCH   6  11
HETATM   11  C8  UNL     1      44.707  90.605  32.734  1.00  0.00     0.202 C 
BRANCH  11  12
HETATM   12  O5  UNL     1      44.803  89.223  32.709  1.00  0.00    -0.399 OA
ATOM     13  H5  UNL     1      44.095  88.907  32.162  1.00  0.00     0.209 HD
ENDBRANCH  11  12
ENDBRANCH   6  11
BRANCH   3  14
HETATM   14  O2  UNL     1      44.490  93.406  37.496  1.00  0.00    -0.391 OA
ATOM     15  H2  UNL     1      44.098  94.265  37.600  1.00  0.00     0.210 HD
ENDBRANCH   3  14
BRANCH   5  16
HETATM   16  O4  UNL     1      42.657  90.187  34.478  1.00  0.00    -0.391 OA
ATOM     17  H4  UNL     1      42.313  90.168  33.593  1.00  0.00     0.210 HD
ENDBRANCH   5  16
BRANCH   4  18
HETATM   18  O3  UNL     1      42.462  91.529  36.873  1.00  0.00    -0.390 OA
ATOM     19  H3  UNL     1      41.857  90.887  36.521  1.00  0.00     0.210 HD
ENDBRANCH   4  18
TORSDOF 8
ENDMDL
