MODEL 1
REMARK VINA RESULT: -5.960773372      0.000      0.000
REMARK  8 active torsions:
REMARK  status: ('A' for Active; 'I' for Inactive)
REMARK    1  A    between atoms: O1_1  and  C1_3 
REMARK    2  A    between atoms: C1_3  and  C2_4 
REMARK    3  A    between atoms: C2_4  and  N1_5 
REMARK    4  A    between atoms: C4_7  and  O2_8 
REMARK    5  A    between atoms: C5_10  and  O3_11 
REMARK    6  A    between atoms: C6_13  and  O4_14 
REMARK    7  A    between atoms: C7_16  and  C8_17 
REMARK    8  A    between atoms: C8_17  and  O5_18 
ROOT
HETATM    1  N1  UNL     1      44.408  91.479  34.198  1.00  0.00     0.102 N 
HETATM    2  C3  UNL     1      45.726  91.599  33.648  1.00  0.00     0.307 C 
HETATM    3  C4  UNL     1      46.525  92.739  34.160  1.00  0.00     0.177 C 
HETATM    4  C5  UNL     1      46.473  92.794  35.686  1.00  0.00     0.179 C 
HETATM    5  C6  UNL     1      44.983  92.943  35.992  1.00  0.00     0.184 C 
HETATM    6  C7  UNL     1      44.364  91.604  35.637  1.00  0.00     0.277 C 
ENDROOT
BRANCH   1   7
HETATM    7  C2  UNL     1      43.817  90.267  33.715  1.00  0.00     0.299 C 
BRANCH   7   8
HETATM    8  C1  UNL     1      44.815  89.207  33.336  1.00  0.00     0.194 C 
BRANCH   8   9
HETATM    9  O1  UNL     1      44.576  88.847  32.010  1.00  0.00    -0.399 OA
ATOM     10  H1  UNL     1      44.933  89.529  31.453  1.00  0.00     0.209 HD
ENDBRANCH   8   9
ENDBRANCH   7   8
ENDBRANCH   1   7
BRANCH   6  11
HETATM   11  C8  UNL     1      42.904  91.733  36.055  1.00  0.00     0.202 C 
BRANCH  11  12
HETATM   12  O5  UNL     1      42.430  92.912  35.504  1.00  0.00    -0.399 OA
ATOM     13  H5  UNL     1      42.090  93.435  36.220  1.00  0.00     0.209 HD
ENDBRANCH  11  12
ENDBRANCH   6  11
BRANCH   3  14
HETATM   14  O2  UNL     1      47.841  92.600  33.722  1.00  0.00    -0.391 OA
ATOM     15  H2  UNL     1      48.371  93.279  34.121  1.00  0.00     0.210 HD
ENDBRANCH   3  14
BRANCH   5  16
HETATM   16  O4  UNL     1      44.743  93.319  37.288  1.00  0.00    -0.391 OA
ATOM     17  H4  UNL     1      45.227  92.797  37.918  1.00  0.00     0.210 HD
ENDBRANCH   5  16
BRANCH   4  18
HETATM   18  O3  UNL     1      47.227  93.809  36.209  1.00  0.00    -0.390 OA
ATOM     19  H3  UNL     1      46.938  94.078  37.072  1.00  0.00     0.210 HD
ENDBRANCH   4  18
TORSDOF 8
ENDMDL
