MODEL 12
REMARK VINA RESULT: -6.259525323      1.652      2.472
REMARK  2 active torsions:
REMARK  status: ('A' for Active; 'I' for Inactive)
REMARK    1  A    between atoms: N3_8  and  C5_9 
REMARK    2  A    between atoms: C5_9  and  C6_10 
ROOT
HETATM    1  C1  UNL     1      23.187  14.288  25.564  1.00  0.00     0.048 C 
HETATM    2  C2  UNL     1      22.164  13.172  25.578  1.00  0.00     0.106 A 
HETATM    3  C3  UNL     1      21.271  13.274  26.802  1.00  0.00     0.048 C 
HETATM    4  N1  UNL     1      22.777  11.871  25.458  1.00  0.00    -0.347 N 
ATOM      5  H1  UNL     1      23.406  11.470  26.155  1.00  0.00     0.163 HD
HETATM    6  C4  UNL     1      22.438  11.275  24.367  1.00  0.00     0.194 A 
HETATM    7  N2  UNL     1      22.888   9.990  23.991  1.00  0.00    -0.063 NA
HETATM    8  N3  UNL     1      21.558  12.077  23.601  1.00  0.00    -0.286 N 
HETATM    9  C12 UNL     1      21.372  13.275  24.345  1.00  0.00     0.254 A 
HETATM   10  O1  UNL     1      20.660  14.276  24.034  1.00  0.00    -0.270 OA
ENDROOT
BRANCH   8  11
HETATM   11  C5  UNL     1      20.921  11.837  22.327  1.00  0.00     0.173 C 
BRANCH  11  12
HETATM   12  C6  UNL     1      21.804  12.068  21.183  1.00  0.00    -0.038 A 
HETATM   13  C7  UNL     1      22.059  13.357  20.786  1.00  0.00     0.009 A 
HETATM   14  C8  UNL     1      22.901  13.590  19.694  1.00  0.00     0.002 A 
HETATM   15  C9  UNL     1      23.476  12.548  19.012  1.00  0.00     0.024 A 
HETATM   16  C10 UNL     1      23.227  11.251  19.402  1.00  0.00     0.034 A 
HETATM   17 CL1  UNL     1      23.971   9.935  18.518  1.00  0.00    -0.084 Cl
HETATM   18  C11 UNL     1      22.390  11.040  20.486  1.00  0.00     0.032 A 
ENDBRANCH  11  12
ENDBRANCH   8  11
TORSDOF 2
ENDMDL
