MODEL 9
REMARK VINA RESULT: -6.315082022      5.808      7.352
REMARK  2 active torsions:
REMARK  status: ('A' for Active; 'I' for Inactive)
REMARK    1  A    between atoms: N3_8  and  C5_9 
REMARK    2  A    between atoms: C5_9  and  C6_10 
ROOT
HETATM    1  C1  UNL     1      27.266  15.642  20.347  1.00  0.00     0.048 C 
HETATM    2  C2  UNL     1      26.263  16.276  19.407  1.00  0.00     0.106 A 
HETATM    3  C3  UNL     1      26.868  17.479  18.703  1.00  0.00     0.048 C 
HETATM    4  N1  UNL     1      25.024  16.602  20.073  1.00  0.00    -0.347 N 
ATOM      5  H1  UNL     1      24.942  17.290  20.821  1.00  0.00     0.163 HD
HETATM    6  C4  UNL     1      24.033  15.921  19.610  1.00  0.00     0.194 A 
HETATM    7  N2  UNL     1      22.704  16.035  20.076  1.00  0.00    -0.063 NA
HETATM    8  N3  UNL     1      24.453  15.047  18.578  1.00  0.00    -0.286 N 
HETATM    9  C12 UNL     1      25.852  15.255  18.434  1.00  0.00     0.254 A 
HETATM   10  O1  UNL     1      26.641  14.681  17.625  1.00  0.00    -0.270 OA
ENDROOT
BRANCH   8  11
HETATM   11  C5  UNL     1      23.712  14.103  17.773  1.00  0.00     0.173 C 
BRANCH  11  12
HETATM   12  C6  UNL     1      23.650  12.763  18.358  1.00  0.00    -0.038 A 
HETATM   13  C7  UNL     1      24.624  11.849  18.039  1.00  0.00     0.009 A 
HETATM   14  C8  UNL     1      24.574  10.566  18.592  1.00  0.00     0.002 A 
HETATM   15  C9  UNL     1      23.565  10.206  19.448  1.00  0.00     0.024 A 
HETATM   16  C10 UNL     1      22.582  11.114  19.774  1.00  0.00     0.034 A 
HETATM   17 CL1  UNL     1      21.302  10.633  20.869  1.00  0.00    -0.084 Cl
HETATM   18  C11 UNL     1      22.649  12.381  19.216  1.00  0.00     0.032 A 
ENDBRANCH  11  12
ENDBRANCH   8  11
TORSDOF 2
ENDMDL
