MODEL 3
REMARK VINA RESULT: -6.365369322      1.658      2.241
REMARK  2 active torsions:
REMARK  status: ('A' for Active; 'I' for Inactive)
REMARK    1  A    between atoms: N3_8  and  C5_9 
REMARK    2  A    between atoms: C5_9  and  C6_10 
ROOT
HETATM    1  C1  UNL     1      20.416  13.403  25.785  1.00  0.00     0.048 C 
HETATM    2  C2  UNL     1      20.260  11.913  25.568  1.00  0.00     0.106 A 
HETATM    3  C3  UNL     1      19.313  11.314  26.593  1.00  0.00     0.048 C 
HETATM    4  N1  UNL     1      21.532  11.232  25.540  1.00  0.00    -0.347 N 
ATOM      5  H1  UNL     1      22.166  11.174  26.337  1.00  0.00     0.163 HD
HETATM    6  C4  UNL     1      21.773  10.705  24.389  1.00  0.00     0.194 A 
HETATM    7  N2  UNL     1      22.944   9.979  24.077  1.00  0.00    -0.063 NA
HETATM    8  N3  UNL     1      20.713  10.951  23.484  1.00  0.00    -0.286 N 
HETATM    9  C12 UNL     1      19.750  11.710  24.205  1.00  0.00     0.254 A 
HETATM   10  O1  UNL     1      18.639  12.151  23.785  1.00  0.00    -0.270 OA
ENDROOT
BRANCH   8  11
HETATM   11  C5  UNL     1      20.535  10.567  22.103  1.00  0.00     0.173 C 
BRANCH  11  12
HETATM   12  C6  UNL     1      21.491  11.201  21.194  1.00  0.00    -0.038 A 
HETATM   13  C7  UNL     1      21.584  12.571  21.173  1.00  0.00     0.009 A 
HETATM   14  C8  UNL     1      22.495  13.188  20.309  1.00  0.00     0.002 A 
HETATM   15  C9  UNL     1      23.295  12.443  19.480  1.00  0.00     0.024 A 
HETATM   16  C10 UNL     1      23.208  11.069  19.492  1.00  0.00     0.034 A 
HETATM   17 CL1  UNL     1      24.239  10.138  18.425  1.00  0.00    -0.084 Cl
HETATM   18  C11 UNL     1      22.301  10.476  20.355  1.00  0.00     0.032 A 
ENDBRANCH  11  12
ENDBRANCH   8  11
TORSDOF 2
ENDMDL
