MODEL 2
REMARK VINA RESULT: -6.449482755      4.394      6.757
REMARK  2 active torsions:
REMARK  status: ('A' for Active; 'I' for Inactive)
REMARK    1  A    between atoms: N3_8  and  C5_9 
REMARK    2  A    between atoms: C5_9  and  C6_10 
ROOT
HETATM    1  C1  UNL     1      26.854  14.337  18.647  1.00  0.00     0.048 C 
HETATM    2  C2  UNL     1      25.705  13.364  18.488  1.00  0.00     0.106 A 
HETATM    3  C3  UNL     1      26.218  11.974  18.151  1.00  0.00     0.048 C 
HETATM    4  N1  UNL     1      24.726  13.829  17.535  1.00  0.00    -0.347 N 
ATOM      5  H1  UNL     1      24.915  13.959  16.541  1.00  0.00     0.163 HD
HETATM    6  C4  UNL     1      23.585  14.060  18.087  1.00  0.00     0.194 A 
HETATM    7  N2  UNL     1      22.446  14.524  17.393  1.00  0.00    -0.063 NA
HETATM    8  N3  UNL     1      23.627  13.789  19.476  1.00  0.00    -0.286 N 
HETATM    9  C12 UNL     1      24.952  13.350  19.749  1.00  0.00     0.254 A 
HETATM   10  O1  UNL     1      25.437  13.000  20.867  1.00  0.00    -0.270 OA
ENDROOT
BRANCH   8  11
HETATM   11  C5  UNL     1      22.610  13.898  20.496  1.00  0.00     0.173 C 
BRANCH  11  12
HETATM   12  C6  UNL     1      21.998  12.615  20.846  1.00  0.00    -0.038 A 
HETATM   13  C7  UNL     1      22.040  11.585  19.939  1.00  0.00     0.009 A 
HETATM   14  C8  UNL     1      21.458  10.355  20.263  1.00  0.00     0.002 A 
HETATM   15  C9  UNL     1      20.845  10.163  21.475  1.00  0.00     0.024 A 
HETATM   16  C10 UNL     1      20.797  11.190  22.392  1.00  0.00     0.034 A 
HETATM   17 CL1  UNL     1      20.008  10.923  23.933  1.00  0.00    -0.084 Cl
HETATM   18  C11 UNL     1      21.378  12.400  22.052  1.00  0.00     0.032 A 
ENDBRANCH  11  12
ENDBRANCH   8  11
TORSDOF 2
ENDMDL
