MODEL 8
REMARK VINA RESULT: -6.349787013      1.662      2.128
REMARK  2 active torsions:
REMARK  status: ('A' for Active; 'I' for Inactive)
REMARK    1  A    between atoms: N3_8  and  C5_9 
REMARK    2  A    between atoms: C5_9  and  C6_10 
ROOT
HETATM    1  C1  UNL     1      20.432  13.418  25.885  1.00  0.00     0.048 C 
HETATM    2  C2  UNL     1      20.279  11.924  25.699  1.00  0.00     0.106 A 
HETATM    3  C3  UNL     1      19.375  11.336  26.768  1.00  0.00     0.048 C 
HETATM    4  N1  UNL     1      21.554  11.251  25.634  1.00  0.00    -0.347 N 
ATOM      5  H1  UNL     1      22.218  11.210  26.407  1.00  0.00     0.163 HD
HETATM    6  C4  UNL     1      21.756  10.707  24.483  1.00  0.00     0.194 A 
HETATM    7  N2  UNL     1      22.919   9.983  24.139  1.00  0.00    -0.063 NA
HETATM    8  N3  UNL     1      20.660  10.931  23.615  1.00  0.00    -0.286 N 
HETATM    9  C12 UNL     1      19.720  11.695  24.359  1.00  0.00     0.254 A 
HETATM   10  O1  UNL     1      18.591  12.122  23.974  1.00  0.00    -0.270 OA
ENDROOT
BRANCH   8  11
HETATM   11  C5  UNL     1      20.433  10.522  22.248  1.00  0.00     0.173 C 
BRANCH  11  12
HETATM   12  C6  UNL     1      21.250  11.253  21.278  1.00  0.00    -0.038 A 
HETATM   13  C7  UNL     1      21.762  10.582  20.196  1.00  0.00     0.009 A 
HETATM   14  C8  UNL     1      22.543  11.270  19.262  1.00  0.00     0.002 A 
HETATM   15  C9  UNL     1      22.808  12.607  19.414  1.00  0.00     0.024 A 
HETATM   16  C10 UNL     1      22.300  13.291  20.496  1.00  0.00     0.034 A 
HETATM   17 CL1  UNL     1      22.649  14.998  20.670  1.00  0.00    -0.084 Cl
HETATM   18  C11 UNL     1      21.528  12.592  21.410  1.00  0.00     0.032 A 
ENDBRANCH  11  12
ENDBRANCH   8  11
TORSDOF 2
ENDMDL
