MODEL 4
REMARK VINA RESULT: -6.364722532      5.275      7.080
REMARK  2 active torsions:
REMARK  status: ('A' for Active; 'I' for Inactive)
REMARK    1  A    between atoms: N3_8  and  C5_9 
REMARK    2  A    between atoms: C5_9  and  C6_10 
ROOT
HETATM    1  C1  UNL     1      28.034   9.761  19.131  1.00  0.00     0.048 C 
HETATM    2  C2  UNL     1      27.151  10.657  19.973  1.00  0.00     0.106 A 
HETATM    3  C3  UNL     1      27.983  11.677  20.732  1.00  0.00     0.048 C 
HETATM    4  N1  UNL     1      26.286   9.902  20.848  1.00  0.00    -0.347 N 
ATOM      5  H1  UNL     1      26.620   9.310  21.608  1.00  0.00     0.163 HD
HETATM    6  C4  UNL     1      25.042  10.063  20.555  1.00  0.00     0.194 A 
HETATM    7  N2  UNL     1      23.976   9.444  21.245  1.00  0.00    -0.063 NA
HETATM    8  N3  UNL     1      24.887  10.939  19.454  1.00  0.00    -0.286 N 
HETATM    9  C12 UNL     1      26.202  11.325  19.072  1.00  0.00     0.254 A 
HETATM   10  O1  UNL     1      26.538  12.102  18.130  1.00  0.00    -0.270 OA
ENDROOT
BRANCH   8  11
HETATM   11  C5  UNL     1      23.702  11.413  18.776  1.00  0.00     0.173 C 
BRANCH  11  12
HETATM   12  C6  UNL     1      23.283  12.749  19.203  1.00  0.00    -0.038 A 
HETATM   13  C7  UNL     1      23.466  13.810  18.352  1.00  0.00     0.009 A 
HETATM   14  C8  UNL     1      23.068  15.091  18.749  1.00  0.00     0.002 A 
HETATM   15  C9  UNL     1      22.498  15.302  19.978  1.00  0.00     0.024 A 
HETATM   16  C10 UNL     1      22.310  14.245  20.841  1.00  0.00     0.034 A 
HETATM   17 CL1  UNL     1      21.581  14.537  22.406  1.00  0.00    -0.084 Cl
HETATM   18  C11 UNL     1      22.711  12.984  20.429  1.00  0.00     0.032 A 
ENDBRANCH  11  12
ENDBRANCH   8  11
TORSDOF 2
ENDMDL
