MODEL 4
REMARK VINA RESULT: -8.799390775      1.410      2.533
REMARK  4 active torsions:
REMARK  status: ('A' for Active; 'I' for Inactive)
REMARK    1  A    between atoms: C2_3  and  C3_4 
REMARK    2  A    between atoms: C6_7  and  O2_8 
REMARK    3  A    between atoms: C7_10  and  O3_11 
REMARK    4  A    between atoms: C12_18  and  O5_19 
ROOT
HETATM    1  O1  UNL     1      15.449 -34.613 -24.603  1.00  0.00    -0.286 OA
HETATM    2  C1  UNL     1      15.583 -35.527 -23.749  1.00  0.00     0.197 A 
HETATM    3  C2  UNL     1      15.966 -36.809 -24.079  1.00  0.00     0.048 A 
HETATM    4  C9  UNL     1      16.087 -37.742 -23.087  1.00  0.00     0.159 A 
HETATM    5  O4  UNL     1      15.839 -37.409 -21.828  1.00  0.00    -0.321 OA
HETATM    6  C10 UNL     1      15.478 -36.225 -21.449  1.00  0.00     0.091 A 
HETATM    7  C11 UNL     1      15.221 -35.890 -20.129  1.00  0.00     0.074 A 
HETATM    8  C12 UNL     1      14.839 -34.618 -19.778  1.00  0.00     0.068 A 
HETATM    9  C13 UNL     1      14.715 -33.670 -20.786  1.00  0.00     0.037 A 
HETATM   10  C14 UNL     1      14.960 -33.968 -22.095  1.00  0.00     0.021 A 
HETATM   11  C15 UNL     1      15.339 -35.238 -22.427  1.00  0.00     0.049 A 
ENDROOT
BRANCH   3  12
HETATM   12  C3  UNL     1      16.233 -37.151 -25.476  1.00  0.00    -0.017 A 
HETATM   13  C4  UNL     1      17.210 -36.458 -26.167  1.00  0.00     0.015 A 
HETATM   14  C5  UNL     1      17.526 -36.711 -27.472  1.00  0.00     0.040 A 
HETATM   15  C6  UNL     1      16.837 -37.713 -28.158  1.00  0.00     0.098 A 
HETATM   16  C7  UNL     1      15.862 -38.406 -27.473  1.00  0.00     0.099 A 
HETATM   17  C8  UNL     1      15.544 -38.140 -26.131  1.00  0.00     0.052 A 
BRANCH  15  18
HETATM   18  O2  UNL     1      17.154 -37.975 -29.493  1.00  0.00    -0.358 OA
ATOM     19  H2  UNL     1      17.080 -38.862 -29.825  1.00  0.00     0.217 HD
ENDBRANCH  15  18
BRANCH  16  20
HETATM   20  O3  UNL     1      15.144 -39.415 -28.108  1.00  0.00    -0.358 OA
ATOM     21  H3  UNL     1      14.194 -39.406 -28.095  1.00  0.00     0.217 HD
ENDBRANCH  16  20
ENDBRANCH   3  12
BRANCH   8  22
HETATM   22  O5  UNL     1      14.587 -34.293 -18.467  1.00  0.00    -0.361 OA
ATOM     23  H5  UNL     1      13.864 -33.723 -18.236  1.00  0.00     0.217 HD
ENDBRANCH   8  22
TORSDOF 4
ENDMDL
