MODEL 2
REMARK VINA RESULT: -8.962190531      1.480      2.320
REMARK  4 active torsions:
REMARK  status: ('A' for Active; 'I' for Inactive)
REMARK    1  A    between atoms: C2_3  and  C3_4 
REMARK    2  A    between atoms: C6_7  and  O2_8 
REMARK    3  A    between atoms: C7_10  and  O3_11 
REMARK    4  A    between atoms: C12_18  and  O5_19 
ROOT
HETATM    1  O1  UNL     1      15.451 -34.655 -24.676  1.00  0.00    -0.286 OA
HETATM    2  C1  UNL     1      15.567 -35.566 -23.817  1.00  0.00     0.197 A 
HETATM    3  C2  UNL     1      15.928 -36.857 -24.139  1.00  0.00     0.048 A 
HETATM    4  C9  UNL     1      16.031 -37.787 -23.142  1.00  0.00     0.159 A 
HETATM    5  O4  UNL     1      15.787 -37.442 -21.886  1.00  0.00    -0.321 OA
HETATM    6  C10 UNL     1      15.446 -36.249 -21.513  1.00  0.00     0.091 A 
HETATM    7  C11 UNL     1      15.194 -35.903 -20.196  1.00  0.00     0.074 A 
HETATM    8  C12 UNL     1      14.834 -34.623 -19.852  1.00  0.00     0.068 A 
HETATM    9  C13 UNL     1      14.729 -33.678 -20.866  1.00  0.00     0.037 A 
HETATM   10  C14 UNL     1      14.970 -33.987 -22.173  1.00  0.00     0.021 A 
HETATM   11  C15 UNL     1      15.326 -35.266 -22.497  1.00  0.00     0.049 A 
ENDROOT
BRANCH   3  12
HETATM   12  C3  UNL     1      16.191 -37.211 -25.535  1.00  0.00    -0.017 A 
HETATM   13  C4  UNL     1      15.424 -38.187 -26.141  1.00  0.00     0.015 A 
HETATM   14  C5  UNL     1      15.599 -38.578 -27.438  1.00  0.00     0.040 A 
HETATM   15  C6  UNL     1      16.600 -37.975 -28.203  1.00  0.00     0.098 A 
HETATM   16  C7  UNL     1      17.368 -37.001 -27.601  1.00  0.00     0.099 A 
HETATM   17  C8  UNL     1      17.180 -36.604 -26.268  1.00  0.00     0.052 A 
BRANCH  15  18
HETATM   18  O2  UNL     1      16.785 -38.372 -29.530  1.00  0.00    -0.358 OA
ATOM     19  H2  UNL     1      16.890 -39.294 -29.731  1.00  0.00     0.217 HD
ENDBRANCH  15  18
BRANCH  16  20
HETATM   20  O3  UNL     1      18.379 -36.367 -28.317  1.00  0.00    -0.358 OA
ATOM     21  H3  UNL     1      19.266 -36.347 -27.975  1.00  0.00     0.217 HD
ENDBRANCH  16  20
ENDBRANCH   3  12
BRANCH   8  22
HETATM   22  O5  UNL     1      14.586 -34.286 -18.543  1.00  0.00    -0.361 OA
ATOM     23  H5  UNL     1      14.519 -33.377 -18.277  1.00  0.00     0.217 HD
ENDBRANCH   8  22
TORSDOF 4
ENDMDL
