MODEL 6
REMARK VINA RESULT: -7.626254258      1.190      7.090
REMARK  4 active torsions:
REMARK  status: ('A' for Active; 'I' for Inactive)
REMARK    1  A    between atoms: C2_3  and  C3_4 
REMARK    2  A    between atoms: C6_7  and  O2_8 
REMARK    3  A    between atoms: C7_10  and  O3_11 
REMARK    4  A    between atoms: C12_18  and  O5_19 
ROOT
HETATM    1  O1  UNL     1      16.086 -34.970 -25.019  1.00  0.00    -0.286 OA
HETATM    2  C1  UNL     1      16.124 -36.214 -24.841  1.00  0.00     0.197 A 
HETATM    3  C2  UNL     1      15.868 -36.803 -23.621  1.00  0.00     0.048 A 
HETATM    4  C9  UNL     1      15.931 -38.165 -23.514  1.00  0.00     0.159 A 
HETATM    5  O4  UNL     1      16.234 -38.900 -24.575  1.00  0.00    -0.321 OA
HETATM    6  C10 UNL     1      16.484 -38.413 -25.748  1.00  0.00     0.091 A 
HETATM    7  C11 UNL     1      16.800 -39.194 -26.848  1.00  0.00     0.074 A 
HETATM    8  C12 UNL     1      17.058 -38.629 -28.073  1.00  0.00     0.068 A 
HETATM    9  C13 UNL     1      16.995 -37.244 -28.182  1.00  0.00     0.037 A 
HETATM   10  C14 UNL     1      16.687 -36.447 -27.117  1.00  0.00     0.021 A 
HETATM   11  C15 UNL     1      16.433 -37.026 -25.906  1.00  0.00     0.049 A 
ENDROOT
BRANCH   3  12
HETATM   12  C3  UNL     1      15.536 -35.967 -22.467  1.00  0.00    -0.017 A 
HETATM   13  C4  UNL     1      15.190 -36.571 -21.272  1.00  0.00     0.015 A 
HETATM   14  C5  UNL     1      14.867 -35.869 -20.146  1.00  0.00     0.040 A 
HETATM   15  C6  UNL     1      14.880 -34.473 -20.185  1.00  0.00     0.098 A 
HETATM   16  C7  UNL     1      15.225 -33.868 -21.374  1.00  0.00     0.099 A 
HETATM   17  C8  UNL     1      15.556 -34.597 -22.527  1.00  0.00     0.052 A 
BRANCH  15  18
HETATM   18  O2  UNL     1      14.550 -33.750 -19.036  1.00  0.00    -0.358 OA
ATOM     19  H2  UNL     1      15.229 -33.277 -18.570  1.00  0.00     0.217 HD
ENDBRANCH  15  18
BRANCH  16  20
HETATM   20  O3  UNL     1      15.254 -32.480 -21.470  1.00  0.00    -0.358 OA
ATOM     21  H3  UNL     1      15.477 -32.062 -22.294  1.00  0.00     0.217 HD
ENDBRANCH  16  20
ENDBRANCH   3  12
BRANCH   8  22
HETATM   22  O5  UNL     1      17.370 -39.409 -29.160  1.00  0.00    -0.361 OA
ATOM     23  H5  UNL     1      16.727 -39.585 -29.836  1.00  0.00     0.217 HD
ENDBRANCH   8  22
TORSDOF 4
ENDMDL
