MODEL 7
REMARK VINA RESULT: -7.075338598      1.525      7.025
REMARK  4 active torsions:
REMARK  status: ('A' for Active; 'I' for Inactive)
REMARK    1  A    between atoms: C2_3  and  C3_4 
REMARK    2  A    between atoms: C6_7  and  O2_8 
REMARK    3  A    between atoms: C7_10  and  O3_11 
REMARK    4  A    between atoms: C12_18  and  O5_19 
ROOT
HETATM    1  O1  UNL     1      18.098 -36.300 -24.793  1.00  0.00    -0.286 OA
HETATM    2  C1  UNL     1      17.161 -37.053 -25.160  1.00  0.00     0.197 A 
HETATM    3  C2  UNL     1      15.977 -37.167 -24.463  1.00  0.00     0.048 A 
HETATM    4  C9  UNL     1      15.009 -38.011 -24.933  1.00  0.00     0.159 A 
HETATM    5  O4  UNL     1      15.214 -38.704 -26.044  1.00  0.00    -0.321 OA
HETATM    6  C10 UNL     1      16.300 -38.643 -26.747  1.00  0.00     0.091 A 
HETATM    7  C11 UNL     1      16.501 -39.374 -27.906  1.00  0.00     0.074 A 
HETATM    8  C12 UNL     1      17.673 -39.275 -28.616  1.00  0.00     0.068 A 
HETATM    9  C13 UNL     1      18.657 -38.418 -28.139  1.00  0.00     0.037 A 
HETATM   10  C14 UNL     1      18.490 -37.685 -27.000  1.00  0.00     0.021 A 
HETATM   11  C15 UNL     1      17.319 -37.796 -26.305  1.00  0.00     0.049 A 
ENDROOT
BRANCH   3  12
HETATM   12  C3  UNL     1      15.776 -36.391 -23.239  1.00  0.00    -0.017 A 
HETATM   13  C4  UNL     1      15.907 -37.015 -22.013  1.00  0.00     0.015 A 
HETATM   14  C5  UNL     1      15.738 -36.368 -20.822  1.00  0.00     0.040 A 
HETATM   15  C6  UNL     1      15.416 -35.009 -20.824  1.00  0.00     0.098 A 
HETATM   16  C7  UNL     1      15.285 -34.383 -22.045  1.00  0.00     0.099 A 
HETATM   17  C8  UNL     1      15.460 -35.056 -23.265  1.00  0.00     0.052 A 
BRANCH  15  18
HETATM   18  O2  UNL     1      15.241 -34.342 -19.610  1.00  0.00    -0.358 OA
ATOM     19  H2  UNL     1      15.841 -33.646 -19.368  1.00  0.00     0.217 HD
ENDBRANCH  15  18
BRANCH  16  20
HETATM   20  O3  UNL     1      14.965 -33.030 -22.106  1.00  0.00    -0.358 OA
ATOM     21  H3  UNL     1      14.505 -32.681 -22.861  1.00  0.00     0.217 HD
ENDBRANCH  16  20
ENDBRANCH   3  12
BRANCH   8  22
HETATM   22  O5  UNL     1      17.866 -40.002 -29.766  1.00  0.00    -0.361 OA
ATOM     23  H5  UNL     1      18.083 -39.573 -30.585  1.00  0.00     0.217 HD
ENDBRANCH   8  22
TORSDOF 4
ENDMDL
