MODEL 5
REMARK VINA RESULT: -7.755588590      1.474      6.960
REMARK  4 active torsions:
REMARK  status: ('A' for Active; 'I' for Inactive)
REMARK    1  A    between atoms: C2_3  and  C3_4 
REMARK    2  A    between atoms: C6_7  and  O2_8 
REMARK    3  A    between atoms: C7_10  and  O3_11 
REMARK    4  A    between atoms: C12_18  and  O5_19 
ROOT
HETATM    1  O1  UNL     1      14.691 -38.202 -25.008  1.00  0.00    -0.286 OA
HETATM    2  C1  UNL     1      15.809 -37.795 -25.416  1.00  0.00     0.197 A 
HETATM    3  C2  UNL     1      16.558 -36.859 -24.737  1.00  0.00     0.048 A 
HETATM    4  C9  UNL     1      17.764 -36.472 -25.252  1.00  0.00     0.159 A 
HETATM    5  O4  UNL     1      18.199 -36.997 -26.388  1.00  0.00    -0.321 OA
HETATM    6  C10 UNL     1      17.548 -37.881 -27.076  1.00  0.00     0.091 A 
HETATM    7  C11 UNL     1      18.015 -38.421 -28.263  1.00  0.00     0.074 A 
HETATM    8  C12 UNL     1      17.285 -39.355 -28.956  1.00  0.00     0.068 A 
HETATM    9  C13 UNL     1      16.059 -39.748 -28.433  1.00  0.00     0.037 A 
HETATM   10  C14 UNL     1      15.571 -39.235 -27.267  1.00  0.00     0.021 A 
HETATM   11  C15 UNL     1      16.309 -38.306 -26.590  1.00  0.00     0.049 A 
ENDROOT
BRANCH   3  12
HETATM   12  C3  UNL     1      16.054 -36.296 -23.484  1.00  0.00    -0.017 A 
HETATM   13  C4  UNL     1      16.080 -37.066 -22.337  1.00  0.00     0.015 A 
HETATM   14  C5  UNL     1      15.631 -36.620 -21.125  1.00  0.00     0.040 A 
HETATM   15  C6  UNL     1      15.116 -35.327 -21.023  1.00  0.00     0.098 A 
HETATM   16  C7  UNL     1      15.088 -34.555 -22.165  1.00  0.00     0.099 A 
HETATM   17  C8  UNL     1      15.552 -35.021 -23.406  1.00  0.00     0.052 A 
BRANCH  15  18
HETATM   18  O2  UNL     1      14.654 -34.866 -19.788  1.00  0.00    -0.358 OA
ATOM     19  H2  UNL     1      15.063 -35.180 -18.990  1.00  0.00     0.217 HD
ENDBRANCH  15  18
BRANCH  16  20
HETATM   20  O3  UNL     1      14.585 -33.258 -22.121  1.00  0.00    -0.358 OA
ATOM     21  H3  UNL     1      14.871 -32.613 -22.757  1.00  0.00     0.217 HD
ENDBRANCH  16  20
ENDBRANCH   3  12
BRANCH   8  22
HETATM   22  O5  UNL     1      17.754 -39.887 -30.133  1.00  0.00    -0.361 OA
ATOM     23  H5  UNL     1      18.050 -39.325 -30.839  1.00  0.00     0.217 HD
ENDBRANCH   8  22
TORSDOF 4
ENDMDL
