MODEL 12
REMARK VINA RESULT: -8.890551638      2.076      3.065
REMARK  8 active torsions:
REMARK  status: ('A' for Active; 'I' for Inactive)
REMARK    1  A    between atoms: C5_12  and  N5_13 
REMARK    2  A    between atoms: N5_13  and  C6_15 
REMARK    3  A    between atoms: C6_15  and  C7_16 
REMARK    4  A    between atoms: N7_27  and  C16_28 
REMARK    5  A    between atoms: C17_30  and  C18_31 
REMARK    6  A    between atoms: C18_31  and  O2_32 
REMARK    7  A    between atoms: C19_34  and  O3_35 
REMARK    8  A    between atoms: C20_37  and  O4_38 
ROOT
HETATM    1  N1  UNL     1      12.946 -10.863   4.428  1.00  0.00    -0.080 NA
HETATM    2  C1  UNL     1      13.570  -9.880   5.223  1.00  0.00     0.148 A 
HETATM    3  N2  UNL     1      12.942  -9.375   6.290  1.00  0.00    -0.339 N 
ATOM      4  H2  UNL     1      12.006  -9.708   6.523  1.00  0.00     0.167 HD
HETATM    5  C2  UNL     1      13.527  -8.426   7.072  1.00  0.00     0.183 A 
HETATM    6  N3  UNL     1      14.759  -7.980   6.775  1.00  0.00    -0.336 N 
ATOM      7  H3  UNL     1      15.184  -7.269   7.369  1.00  0.00     0.168 HD
HETATM    8  C3  UNL     1      15.453  -8.446   5.713  1.00  0.00     0.158 A 
HETATM    9  C4  UNL     1      14.831  -9.421   4.925  1.00  0.00     0.135 A 
HETATM   10  N4  UNL     1      15.736  -9.695   3.956  1.00  0.00    -0.184 N 
ATOM     11  H4  UNL     1      15.599 -10.371   3.205  1.00  0.00     0.184 HD
HETATM   12  C5  UNL     1      16.841  -8.949   4.123  1.00  0.00     0.685 A 
HETATM   13  N7  UNL     1      16.667  -8.176   5.208  1.00  0.00    -0.136 N 
ENDROOT
BRANCH  12  14
HETATM   14  N5  UNL     1      17.977  -9.006   3.265  1.00  0.00    -0.220 N 
ATOM     15  H5  UNL     1      18.497  -8.144   3.096  1.00  0.00     0.178 HD
BRANCH  14  16
HETATM   16  C6  UNL     1      18.429 -10.201   2.626  1.00  0.00     0.195 C 
BRANCH  16  17
HETATM   17  C7  UNL     1      19.494 -10.865   3.417  1.00  0.00     0.028 A 
HETATM   18  C8  UNL     1      20.360 -10.127   4.206  1.00  0.00     0.027 A 
HETATM   19  C9  UNL     1      21.359 -10.711   4.953  1.00  0.00     0.015 A 
HETATM   20  C10 UNL     1      21.507 -12.094   4.917  1.00  0.00    -0.009 A 
HETATM   21  C11 UNL     1      22.482 -12.739   5.636  1.00  0.00     0.013 A 
HETATM   22  C15 UNL     1      20.629 -12.796   4.122  1.00  0.00     0.042 A 
HETATM   23  C12 UNL     1      22.627 -14.112   5.599  1.00  0.00     0.001 A 
HETATM   24  C13 UNL     1      21.754 -14.817   4.809  1.00  0.00     0.002 A 
HETATM   25  C14 UNL     1      20.784 -14.175   4.092  1.00  0.00     0.030 A 
HETATM   26  N6  UNL     1      19.653 -12.189   3.397  1.00  0.00    -0.358 N 
ATOM     27  H6  UNL     1      19.029 -12.759   2.826  1.00  0.00     0.166 HD
ENDBRANCH  16  17
ENDBRANCH  14  16
ENDBRANCH  12  14
BRANCH  13  28
HETATM   28  C16 UNL     1      17.641  -7.249   5.693  1.00  0.00     0.279 C 
HETATM   29  O1  UNL     1      17.439  -6.939   7.057  1.00  0.00    -0.353 OA
HETATM   30  C17 UNL     1      18.388  -5.933   7.219  1.00  0.00     0.179 C 
HETATM   31  C19 UNL     1      18.011  -4.966   6.136  1.00  0.00     0.182 C 
HETATM   32  C20 UNL     1      17.476  -5.894   5.056  1.00  0.00     0.199 C 
BRANCH  30  33
HETATM   33  C18 UNL     1      18.324  -5.316   8.596  1.00  0.00     0.198 C 
BRANCH  33  34
HETATM   34  O2  UNL     1      18.179  -6.316   9.546  1.00  0.00    -0.398 OA
ATOM     35  H2  UNL     1      18.779  -6.159  10.267  1.00  0.00     0.209 HD
ENDBRANCH  33  34
ENDBRANCH  30  33
BRANCH  31  36
HETATM   36  O3  UNL     1      19.140  -4.284   5.735  1.00  0.00    -0.390 OA
ATOM     37  H3  UNL     1      19.693  -4.134   6.493  1.00  0.00     0.210 HD
ENDBRANCH  31  36
BRANCH  32  38
HETATM   38  O4  UNL     1      18.278  -5.767   3.904  1.00  0.00    -0.388 OA
ATOM     39  H4  UNL     1      17.782  -5.417   3.174  1.00  0.00     0.210 HD
ENDBRANCH  32  38
ENDBRANCH  13  28
TORSDOF 8
ENDMDL
