MODEL 19
REMARK VINA RESULT: -8.321496066      2.187      3.110
REMARK  8 active torsions:
REMARK  status: ('A' for Active; 'I' for Inactive)
REMARK    1  A    between atoms: C5_12  and  N5_13 
REMARK    2  A    between atoms: N5_13  and  C6_15 
REMARK    3  A    between atoms: C6_15  and  C7_16 
REMARK    4  A    between atoms: N7_27  and  C16_28 
REMARK    5  A    between atoms: C17_30  and  C18_31 
REMARK    6  A    between atoms: C18_31  and  O2_32 
REMARK    7  A    between atoms: C19_34  and  O3_35 
REMARK    8  A    between atoms: C20_37  and  O4_38 
ROOT
HETATM    1  N1  UNL     1      13.377 -11.174   4.101  1.00  0.00    -0.080 NA
HETATM    2  C1  UNL     1      13.670 -10.106   4.975  1.00  0.00     0.148 A 
HETATM    3  N2  UNL     1      12.789  -9.740   5.912  1.00  0.00    -0.339 N 
ATOM      4  H2  UNL     1      11.903 -10.239   5.988  1.00  0.00     0.167 HD
HETATM    5  C2  UNL     1      13.052  -8.713   6.766  1.00  0.00     0.183 A 
HETATM    6  N3  UNL     1      14.216  -8.048   6.676  1.00  0.00    -0.336 N 
ATOM      7  H3  UNL     1      14.398  -7.280   7.323  1.00  0.00     0.168 HD
HETATM    8  C3  UNL     1      15.151  -8.364   5.754  1.00  0.00     0.158 A 
HETATM    9  C4  UNL     1      14.859  -9.423   4.888  1.00  0.00     0.135 A 
HETATM   10  N4  UNL     1      15.950  -9.514   4.090  1.00  0.00    -0.184 N 
ATOM     11  H4  UNL     1      16.066 -10.192   3.338  1.00  0.00     0.184 HD
HETATM   12  C5  UNL     1      16.857  -8.583   4.431  1.00  0.00     0.685 A 
HETATM   13  N7  UNL     1      16.365  -7.871   5.459  1.00  0.00    -0.136 N 
ENDROOT
BRANCH  12  14
HETATM   14  N5  UNL     1      18.113  -8.421   3.779  1.00  0.00    -0.220 N 
ATOM     15  H5  UNL     1      18.613  -7.541   3.908  1.00  0.00     0.178 HD
BRANCH  14  16
HETATM   16  C6  UNL     1      18.713  -9.421   2.954  1.00  0.00     0.195 C 
BRANCH  16  17
HETATM   17  C7  UNL     1      19.926  -9.990   3.592  1.00  0.00     0.028 A 
HETATM   18  C8  UNL     1      20.021 -10.099   4.968  1.00  0.00     0.027 A 
HETATM   19  C9  UNL     1      21.131 -10.622   5.593  1.00  0.00     0.015 A 
HETATM   20  C10 UNL     1      22.199 -11.059   4.816  1.00  0.00    -0.009 A 
HETATM   21  C11 UNL     1      23.335 -11.590   5.375  1.00  0.00     0.013 A 
HETATM   22  C15 UNL     1      22.070 -10.936   3.451  1.00  0.00     0.042 A 
HETATM   23  C12 UNL     1      24.393 -12.024   4.601  1.00  0.00     0.001 A 
HETATM   24  C13 UNL     1      24.270 -11.904   3.240  1.00  0.00     0.002 A 
HETATM   25  C14 UNL     1      23.140 -11.375   2.683  1.00  0.00     0.030 A 
HETATM   26  N6  UNL     1      20.960 -10.415   2.865  1.00  0.00    -0.358 N 
ATOM     27  H6  UNL     1      20.917 -10.348   1.848  1.00  0.00     0.166 HD
ENDBRANCH  16  17
ENDBRANCH  14  16
ENDBRANCH  12  14
BRANCH  13  28
HETATM   28  C16 UNL     1      17.059  -6.792   6.086  1.00  0.00     0.279 C 
HETATM   29  O1  UNL     1      18.444  -7.052   6.200  1.00  0.00    -0.353 OA
HETATM   30  C17 UNL     1      18.835  -5.954   6.963  1.00  0.00     0.179 C 
HETATM   31  C19 UNL     1      17.923  -6.054   8.150  1.00  0.00     0.182 C 
HETATM   32  C20 UNL     1      16.667  -6.652   7.534  1.00  0.00     0.199 C 
BRANCH  30  33
HETATM   33  C18 UNL     1      20.294  -6.025   7.345  1.00  0.00     0.198 C 
BRANCH  33  34
HETATM   34  O2  UNL     1      20.409  -6.141   8.721  1.00  0.00    -0.398 OA
ATOM     35  H2  UNL     1      21.256  -5.810   8.999  1.00  0.00     0.209 HD
ENDBRANCH  33  34
ENDBRANCH  30  33
BRANCH  31  36
HETATM   36  O3  UNL     1      17.712  -4.790   8.657  1.00  0.00    -0.390 OA
ATOM     37  H3  UNL     1      17.529  -4.859   9.587  1.00  0.00     0.210 HD
ENDBRANCH  31  36
BRANCH  32  38
HETATM   38  O4  UNL     1      15.601  -5.743   7.692  1.00  0.00    -0.388 OA
ATOM     39  H4  UNL     1      15.289  -5.427   6.852  1.00  0.00     0.210 HD
ENDBRANCH  32  38
ENDBRANCH  13  28
TORSDOF 8
ENDMDL
