MODEL 7
REMARK VINA RESULT: -8.991909723      2.831      7.331
REMARK  8 active torsions:
REMARK  status: ('A' for Active; 'I' for Inactive)
REMARK    1  A    between atoms: C5_12  and  N5_13 
REMARK    2  A    between atoms: N5_13  and  C6_15 
REMARK    3  A    between atoms: C6_15  and  C7_16 
REMARK    4  A    between atoms: N7_27  and  C16_28 
REMARK    5  A    between atoms: C17_30  and  C18_31 
REMARK    6  A    between atoms: C18_31  and  O2_32 
REMARK    7  A    between atoms: C19_34  and  O3_35 
REMARK    8  A    between atoms: C20_37  and  O4_38 
ROOT
HETATM    1  N1  UNL     1      12.326  -8.596   7.164  1.00  0.00    -0.080 NA
HETATM    2  C1  UNL     1      13.274  -9.079   6.238  1.00  0.00     0.148 A 
HETATM    3  N2  UNL     1      12.988 -10.133   5.468  1.00  0.00    -0.339 N 
ATOM      4  H2  UNL     1      12.078 -10.586   5.556  1.00  0.00     0.167 HD
HETATM    5  C2  UNL     1      13.888 -10.615   4.567  1.00  0.00     0.183 A 
HETATM    6  N3  UNL     1      15.090 -10.028   4.441  1.00  0.00    -0.336 N 
ATOM      7  H3  UNL     1      15.755 -10.400   3.762  1.00  0.00     0.168 HD
HETATM    8  C3  UNL     1      15.446  -8.959   5.187  1.00  0.00     0.158 A 
HETATM    9  C4  UNL     1      14.505  -8.481   6.105  1.00  0.00     0.135 A 
HETATM   10  N4  UNL     1      15.119  -7.430   6.698  1.00  0.00    -0.184 N 
ATOM     11  H4  UNL     1      14.704  -6.849   7.426  1.00  0.00     0.184 HD
HETATM   12  C5  UNL     1      16.351  -7.261   6.190  1.00  0.00     0.685 A 
HETATM   13  N7  UNL     1      16.555  -8.205   5.256  1.00  0.00    -0.136 N 
ENDROOT
BRANCH  12  14
HETATM   14  N5  UNL     1      17.249  -6.237   6.607  1.00  0.00    -0.220 N 
ATOM     15  H5  UNL     1      17.892  -5.849   5.917  1.00  0.00     0.178 HD
BRANCH  14  16
HETATM   16  C6  UNL     1      17.302  -5.722   7.939  1.00  0.00     0.195 C 
BRANCH  16  17
HETATM   17  C7  UNL     1      18.697  -5.660   8.438  1.00  0.00     0.028 A 
HETATM   18  C8  UNL     1      19.700  -5.084   7.679  1.00  0.00     0.027 A 
HETATM   19  C9  UNL     1      21.005  -5.009   8.112  1.00  0.00     0.015 A 
HETATM   20  C10 UNL     1      21.333  -5.531   9.359  1.00  0.00    -0.009 A 
HETATM   21  C11 UNL     1      22.614  -5.490   9.850  1.00  0.00     0.013 A 
HETATM   22  C15 UNL     1      20.310  -6.097  10.087  1.00  0.00     0.042 A 
HETATM   23  C12 UNL     1      22.936  -6.009  11.088  1.00  0.00     0.001 A 
HETATM   24  C13 UNL     1      21.921  -6.573  11.819  1.00  0.00     0.002 A 
HETATM   25  C14 UNL     1      20.647  -6.615  11.331  1.00  0.00     0.030 A 
HETATM   26  N6  UNL     1      19.032  -6.154   9.631  1.00  0.00    -0.358 N 
ATOM     27  H6  UNL     1      18.313  -6.584  10.213  1.00  0.00     0.166 HD
ENDBRANCH  16  17
ENDBRANCH  14  16
ENDBRANCH  12  14
BRANCH  13  28
HETATM   28  C16 UNL     1      17.762  -8.333   4.502  1.00  0.00     0.279 C 
HETATM   29  O1  UNL     1      17.596  -9.185   3.386  1.00  0.00    -0.353 OA
HETATM   30  C17 UNL     1      18.914  -9.258   2.940  1.00  0.00     0.179 C 
HETATM   31  C19 UNL     1      19.638  -9.718   4.170  1.00  0.00     0.182 C 
HETATM   32  C20 UNL     1      18.821  -9.070   5.278  1.00  0.00     0.199 C 
BRANCH  30  33
HETATM   33  C18 UNL     1      19.064 -10.219   1.785  1.00  0.00     0.198 C 
BRANCH  33  34
HETATM   34  O2  UNL     1      20.124 -11.079   2.030  1.00  0.00    -0.398 OA
ATOM     35  H2  UNL     1      20.844 -10.871   1.445  1.00  0.00     0.209 HD
ENDBRANCH  33  34
ENDBRANCH  30  33
BRANCH  31  36
HETATM   36  O3  UNL     1      20.933  -9.249   4.126  1.00  0.00    -0.390 OA
ATOM     37  H3  UNL     1      21.514  -9.922   4.461  1.00  0.00     0.210 HD
ENDBRANCH  31  36
BRANCH  32  38
HETATM   38  O4  UNL     1      19.646  -8.178   5.994  1.00  0.00    -0.388 OA
ATOM     39  H4  UNL     1      20.562  -8.420   5.921  1.00  0.00     0.210 HD
ENDBRANCH  32  38
ENDBRANCH  13  28
TORSDOF 8
ENDMDL
