MODEL 9
REMARK VINA RESULT: -8.941051927      3.306      8.061
REMARK  8 active torsions:
REMARK  status: ('A' for Active; 'I' for Inactive)
REMARK    1  A    between atoms: C5_12  and  N5_13 
REMARK    2  A    between atoms: N5_13  and  C6_15 
REMARK    3  A    between atoms: C6_15  and  C7_16 
REMARK    4  A    between atoms: N7_27  and  C16_28 
REMARK    5  A    between atoms: C17_30  and  C18_31 
REMARK    6  A    between atoms: C18_31  and  O2_32 
REMARK    7  A    between atoms: C19_34  and  O3_35 
REMARK    8  A    between atoms: C20_37  and  O4_38 
ROOT
HETATM    1  N1  UNL     1      17.641 -11.210  -0.672  1.00  0.00    -0.080 NA
HETATM    2  C1  UNL     1      18.897 -11.506  -0.104  1.00  0.00     0.148 A 
HETATM    3  N2  UNL     1      19.748 -12.321  -0.736  1.00  0.00    -0.339 N 
ATOM      4  H2  UNL     1      19.480 -12.725  -1.634  1.00  0.00     0.167 HD
HETATM    5  C2  UNL     1      20.966 -12.619  -0.207  1.00  0.00     0.183 A 
HETATM    6  N3  UNL     1      21.331 -12.092   0.974  1.00  0.00    -0.336 N 
ATOM      7  H3  UNL     1      22.247 -12.326   1.359  1.00  0.00     0.168 HD
HETATM    8  C3  UNL     1      20.522 -11.262   1.668  1.00  0.00     0.158 A 
HETATM    9  C4  UNL     1      19.276 -10.969   1.103  1.00  0.00     0.135 A 
HETATM   10  N4  UNL     1      18.692 -10.134   1.996  1.00  0.00    -0.184 N 
ATOM     11  H4  UNL     1      17.764  -9.726   1.890  1.00  0.00     0.184 HD
HETATM   12  C5  UNL     1      19.510  -9.919   3.040  1.00  0.00     0.685 A 
HETATM   13  N7  UNL     1      20.641 -10.616   2.839  1.00  0.00    -0.136 N 
ENDROOT
BRANCH  12  14
HETATM   14  N5  UNL     1      19.184  -9.085   4.147  1.00  0.00    -0.220 N 
ATOM     15  H5  UNL     1      19.459  -9.393   5.080  1.00  0.00     0.178 HD
BRANCH  14  16
HETATM   16  C6  UNL     1      18.491  -7.841   4.026  1.00  0.00     0.195 C 
BRANCH  16  17
HETATM   17  C7  UNL     1      17.249  -7.834   4.837  1.00  0.00     0.028 A 
HETATM   18  C8  UNL     1      17.050  -6.887   5.826  1.00  0.00     0.027 A 
HETATM   19  C9  UNL     1      15.909  -6.852   6.597  1.00  0.00     0.015 A 
HETATM   20  C10 UNL     1      14.917  -7.802   6.376  1.00  0.00    -0.009 A 
HETATM   21  C11 UNL     1      13.757  -7.823   7.109  1.00  0.00     0.013 A 
HETATM   22  C15 UNL     1      15.149  -8.729   5.385  1.00  0.00     0.042 A 
HETATM   23  C12 UNL     1      12.773  -8.768   6.888  1.00  0.00     0.001 A 
HETATM   24  C13 UNL     1      12.998  -9.693   5.901  1.00  0.00     0.002 A 
HETATM   25  C14 UNL     1      14.153  -9.672   5.172  1.00  0.00     0.030 A 
HETATM   26  N6  UNL     1      16.286  -8.736   4.642  1.00  0.00    -0.358 N 
ATOM     27  H6  UNL     1      16.405  -9.445   3.918  1.00  0.00     0.166 HD
ENDBRANCH  16  17
ENDBRANCH  14  16
ENDBRANCH  12  14
BRANCH  13  28
HETATM   28  C16 UNL     1      21.743 -10.627   3.748  1.00  0.00     0.279 C 
HETATM   29  O1  UNL     1      22.942 -11.031   3.116  1.00  0.00    -0.353 OA
HETATM   30  C17 UNL     1      23.785 -11.108   4.223  1.00  0.00     0.179 C 
HETATM   31  C19 UNL     1      23.031 -12.035   5.130  1.00  0.00     0.182 C 
HETATM   32  C20 UNL     1      21.585 -11.701   4.792  1.00  0.00     0.199 C 
BRANCH  30  33
HETATM   33  C18 UNL     1      25.150 -11.638   3.855  1.00  0.00     0.198 C 
BRANCH  33  34
HETATM   34  O2  UNL     1      25.967 -11.633   4.975  1.00  0.00    -0.398 OA
ATOM     35  H2  UNL     1      26.877 -11.689   4.704  1.00  0.00     0.209 HD
ENDBRANCH  33  34
ENDBRANCH  30  33
BRANCH  31  36
HETATM   36  O3  UNL     1      23.350 -11.735   6.437  1.00  0.00    -0.390 OA
ATOM     37  H3  UNL     1      23.202 -12.506   6.973  1.00  0.00     0.210 HD
ENDBRANCH  31  36
BRANCH  32  38
HETATM   38  O4  UNL     1      20.947 -11.205   5.947  1.00  0.00    -0.388 OA
ATOM     39  H4  UNL     1      21.563 -10.762   6.519  1.00  0.00     0.210 HD
ENDBRANCH  32  38
ENDBRANCH  13  28
TORSDOF 8
ENDMDL
