MODEL 8
REMARK VINA RESULT: -8.982364058      4.764      7.379
REMARK  8 active torsions:
REMARK  status: ('A' for Active; 'I' for Inactive)
REMARK    1  A    between atoms: C5_12  and  N5_13 
REMARK    2  A    between atoms: N5_13  and  C6_15 
REMARK    3  A    between atoms: C6_15  and  C7_16 
REMARK    4  A    between atoms: N7_27  and  C16_28 
REMARK    5  A    between atoms: C17_30  and  C18_31 
REMARK    6  A    between atoms: C18_31  and  O2_32 
REMARK    7  A    between atoms: C19_34  and  O3_35 
REMARK    8  A    between atoms: C20_37  and  O4_38 
ROOT
HETATM    1  N1  UNL     1      21.288  -4.135   8.254  1.00  0.00    -0.080 NA
HETATM    2  C1  UNL     1      20.148  -4.966   8.251  1.00  0.00     0.148 A 
HETATM    3  N2  UNL     1      19.760  -5.582   9.372  1.00  0.00    -0.339 N 
ATOM      4  H2  UNL     1      20.296  -5.446  10.229  1.00  0.00     0.167 HD
HETATM    5  C2  UNL     1      18.662  -6.387   9.392  1.00  0.00     0.183 A 
HETATM    6  N3  UNL     1      17.948  -6.574   8.270  1.00  0.00    -0.336 N 
ATOM      7  H3  UNL     1      17.128  -7.180   8.300  1.00  0.00     0.168 HD
HETATM    8  C3  UNL     1      18.282  -5.983   7.102  1.00  0.00     0.158 A 
HETATM    9  C4  UNL     1      19.413  -5.159   7.106  1.00  0.00     0.135 A 
HETATM   10  N4  UNL     1      19.507  -4.713   5.831  1.00  0.00    -0.184 N 
ATOM     11  H4  UNL     1      20.231  -4.083   5.487  1.00  0.00     0.184 HD
HETATM   12  C5  UNL     1      18.510  -5.217   5.084  1.00  0.00     0.685 A 
HETATM   13  N7  UNL     1      17.753  -6.002   5.868  1.00  0.00    -0.136 N 
ENDROOT
BRANCH  12  14
HETATM   14  N5  UNL     1      18.332  -4.934   3.699  1.00  0.00    -0.220 N 
ATOM     15  H5  UNL     1      17.385  -4.952   3.322  1.00  0.00     0.178 HD
BRANCH  14  16
HETATM   16  C6  UNL     1      19.407  -4.628   2.808  1.00  0.00     0.195 C 
BRANCH  16  17
HETATM   17  C7  UNL     1      19.244  -3.281   2.210  1.00  0.00     0.028 A 
HETATM   18  C8  UNL     1      19.486  -2.138   2.952  1.00  0.00     0.027 A 
HETATM   19  C9  UNL     1      19.346  -0.873   2.428  1.00  0.00     0.015 A 
HETATM   20  C10 UNL     1      18.943  -0.732   1.103  1.00  0.00    -0.009 A 
HETATM   21  C11 UNL     1      18.783   0.500   0.520  1.00  0.00     0.013 A 
HETATM   22  C15 UNL     1      18.710  -1.890   0.396  1.00  0.00     0.042 A 
HETATM   23  C12 UNL     1      18.384   0.636  -0.795  1.00  0.00     0.001 A 
HETATM   24  C13 UNL     1      18.151  -0.514  -1.506  1.00  0.00     0.002 A 
HETATM   25  C14 UNL     1      18.310  -1.740  -0.926  1.00  0.00     0.030 A 
HETATM   26  N6  UNL     1      18.860  -3.124   0.942  1.00  0.00    -0.358 N 
ATOM     27  H6  UNL     1      18.674  -3.949   0.371  1.00  0.00     0.166 HD
ENDBRANCH  16  17
ENDBRANCH  14  16
ENDBRANCH  12  14
BRANCH  13  28
HETATM   28  C16 UNL     1      16.597  -6.708   5.412  1.00  0.00     0.279 C 
HETATM   29  O1  UNL     1      15.800  -7.163   6.487  1.00  0.00    -0.353 OA
HETATM   30  C17 UNL     1      14.866  -7.927   5.790  1.00  0.00     0.179 C 
HETATM   31  C19 UNL     1      15.743  -8.867   5.017  1.00  0.00     0.182 C 
HETATM   32  C20 UNL     1      16.971  -8.010   4.753  1.00  0.00     0.199 C 
BRANCH  30  33
HETATM   33  C18 UNL     1      13.921  -8.646   6.721  1.00  0.00     0.198 C 
BRANCH  33  34
HETATM   34  O2  UNL     1      12.793  -9.046   6.020  1.00  0.00    -0.398 OA
ATOM     35  H2  UNL     1      12.880  -9.960   5.773  1.00  0.00     0.209 HD
ENDBRANCH  33  34
ENDBRANCH  30  33
BRANCH  31  36
HETATM   36  O3  UNL     1      15.093  -9.230   3.857  1.00  0.00    -0.390 OA
ATOM     37  H3  UNL     1      15.570  -9.941   3.447  1.00  0.00     0.210 HD
ENDBRANCH  31  36
BRANCH  32  38
HETATM   38  O4  UNL     1      17.131  -7.854   3.361  1.00  0.00    -0.388 OA
ATOM     39  H4  UNL     1      17.013  -8.679   2.905  1.00  0.00     0.210 HD
ENDBRANCH  32  38
ENDBRANCH  13  28
TORSDOF 8
ENDMDL
