MODEL 10
REMARK VINA RESULT: -8.933682207      1.936      3.640
REMARK  8 active torsions:
REMARK  status: ('A' for Active; 'I' for Inactive)
REMARK    1  A    between atoms: C5_12  and  N5_13 
REMARK    2  A    between atoms: N5_13  and  C6_15 
REMARK    3  A    between atoms: C6_15  and  C7_16 
REMARK    4  A    between atoms: N7_27  and  C16_28 
REMARK    5  A    between atoms: C17_30  and  C18_31 
REMARK    6  A    between atoms: C18_31  and  O2_32 
REMARK    7  A    between atoms: C19_34  and  O3_35 
REMARK    8  A    between atoms: C20_37  and  O4_38 
ROOT
HETATM    1  N1  UNL     1      12.955 -11.246   4.751  1.00  0.00    -0.080 NA
HETATM    2  C1  UNL     1      13.301 -10.063   5.436  1.00  0.00     0.148 A 
HETATM    3  N2  UNL     1      12.472  -9.543   6.347  1.00  0.00    -0.339 N 
ATOM      4  H2  UNL     1      11.586 -10.010   6.541  1.00  0.00     0.167 HD
HETATM    5  C2  UNL     1      12.787  -8.403   7.021  1.00  0.00     0.183 A 
HETATM    6  N3  UNL     1      13.951  -7.779   6.774  1.00  0.00    -0.336 N 
ATOM      7  H3  UNL     1      14.173  -6.925   7.286  1.00  0.00     0.168 HD
HETATM    8  C3  UNL     1      14.836  -8.248   5.868  1.00  0.00     0.158 A 
HETATM    9  C4  UNL     1      14.491  -9.421   5.188  1.00  0.00     0.135 A 
HETATM   10  N4  UNL     1      15.540  -9.651   4.363  1.00  0.00    -0.184 N 
ATOM     11  H4  UNL     1      15.612 -10.438   3.719  1.00  0.00     0.184 HD
HETATM   12  C5  UNL     1      16.472  -8.695   4.513  1.00  0.00     0.685 A 
HETATM   13  N7  UNL     1      16.038  -7.827   5.443  1.00  0.00    -0.136 N 
ENDROOT
BRANCH  12  14
HETATM   14  N5  UNL     1      17.696  -8.655   3.785  1.00  0.00    -0.220 N 
ATOM     15  H5  UNL     1      18.281  -7.824   3.871  1.00  0.00     0.178 HD
BRANCH  14  16
HETATM   16  C6  UNL     1      18.150  -9.714   2.940  1.00  0.00     0.195 C 
BRANCH  16  17
HETATM   17  C7  UNL     1      19.463 -10.237   3.389  1.00  0.00     0.028 A 
HETATM   18  C8  UNL     1      20.399 -10.691   2.477  1.00  0.00     0.027 A 
HETATM   19  C9  UNL     1      21.627 -11.182   2.860  1.00  0.00     0.015 A 
HETATM   20  C10 UNL     1      21.943 -11.226   4.214  1.00  0.00    -0.009 A 
HETATM   21  C11 UNL     1      23.149 -11.704   4.663  1.00  0.00     0.013 A 
HETATM   22  C15 UNL     1      20.989 -10.767   5.093  1.00  0.00     0.042 A 
HETATM   23  C12 UNL     1      23.460 -11.746   6.008  1.00  0.00     0.001 A 
HETATM   24  C13 UNL     1      22.513 -11.289   6.889  1.00  0.00     0.002 A 
HETATM   25  C14 UNL     1      21.313 -10.814   6.443  1.00  0.00     0.030 A 
HETATM   26  N6  UNL     1      19.786 -10.287   4.683  1.00  0.00    -0.358 N 
ATOM     27  H6  UNL     1      19.116  -9.958   5.378  1.00  0.00     0.166 HD
ENDBRANCH  16  17
ENDBRANCH  14  16
ENDBRANCH  12  14
BRANCH  13  28
HETATM   28  C16 UNL     1      16.773  -6.676   5.864  1.00  0.00     0.279 C 
HETATM   29  O1  UNL     1      17.344  -5.987   4.770  1.00  0.00    -0.353 OA
HETATM   30  C17 UNL     1      18.108  -5.041   5.451  1.00  0.00     0.179 C 
HETATM   31  C19 UNL     1      18.944  -5.902   6.352  1.00  0.00     0.182 C 
HETATM   32  C20 UNL     1      18.004  -7.063   6.641  1.00  0.00     0.199 C 
BRANCH  30  33
HETATM   33  C18 UNL     1      18.940  -4.206   4.509  1.00  0.00     0.198 C 
BRANCH  33  34
HETATM   34  O2  UNL     1      18.285  -4.086   3.292  1.00  0.00    -0.398 OA
ATOM     35  H2  UNL     1      18.366  -4.899   2.807  1.00  0.00     0.209 HD
ENDBRANCH  33  34
ENDBRANCH  30  33
BRANCH  31  36
HETATM   36  O3  UNL     1      19.261  -5.184   7.485  1.00  0.00    -0.390 OA
ATOM     37  H3  UNL     1      19.858  -5.698   8.016  1.00  0.00     0.210 HD
ENDBRANCH  31  36
BRANCH  32  38
HETATM   38  O4  UNL     1      17.745  -7.108   8.026  1.00  0.00    -0.388 OA
ATOM     39  H4  UNL     1      17.216  -6.369   8.303  1.00  0.00     0.210 HD
ENDBRANCH  32  38
ENDBRANCH  13  28
TORSDOF 8
ENDMDL
