MODEL 6
REMARK VINA RESULT: -9.203422444      1.963      3.123
REMARK  8 active torsions:
REMARK  status: ('A' for Active; 'I' for Inactive)
REMARK    1  A    between atoms: C5_12  and  N5_13 
REMARK    2  A    between atoms: N5_13  and  C6_15 
REMARK    3  A    between atoms: C6_15  and  C7_16 
REMARK    4  A    between atoms: N7_27  and  C16_28 
REMARK    5  A    between atoms: C17_30  and  C18_31 
REMARK    6  A    between atoms: C18_31  and  O2_32 
REMARK    7  A    between atoms: C19_34  and  O3_35 
REMARK    8  A    between atoms: C20_37  and  O4_38 
ROOT
HETATM    1  N1  UNL     1      12.936 -11.273   4.755  1.00  0.00    -0.080 NA
HETATM    2  C1  UNL     1      13.291 -10.106   5.463  1.00  0.00     0.148 A 
HETATM    3  N2  UNL     1      12.488  -9.624   6.416  1.00  0.00    -0.339 N 
ATOM      4  H2  UNL     1      11.615 -10.109   6.627  1.00  0.00     0.167 HD
HETATM    5  C2  UNL     1      12.812  -8.500   7.113  1.00  0.00     0.183 A 
HETATM    6  N3  UNL     1      13.959  -7.853   6.844  1.00  0.00    -0.336 N 
ATOM      7  H3  UNL     1      14.188  -7.012   7.374  1.00  0.00     0.168 HD
HETATM    8  C3  UNL     1      14.818  -8.283   5.894  1.00  0.00     0.158 A 
HETATM    9  C4  UNL     1      14.464  -9.441   5.193  1.00  0.00     0.135 A 
HETATM   10  N4  UNL     1      15.485  -9.633   4.325  1.00  0.00    -0.184 N 
ATOM     11  H4  UNL     1      15.544 -10.399   3.656  1.00  0.00     0.184 HD
HETATM   12  C5  UNL     1      16.410  -8.669   4.471  1.00  0.00     0.685 A 
HETATM   13  N7  UNL     1      15.999  -7.834   5.440  1.00  0.00    -0.136 N 
ENDROOT
BRANCH  12  14
HETATM   14  N5  UNL     1      17.607  -8.592   3.702  1.00  0.00    -0.220 N 
ATOM     15  H5  UNL     1      18.116  -7.708   3.691  1.00  0.00     0.178 HD
BRANCH  14  16
HETATM   16  C6  UNL     1      18.135  -9.683   2.946  1.00  0.00     0.195 C 
BRANCH  16  17
HETATM   17  C7  UNL     1      19.469 -10.092   3.449  1.00  0.00     0.028 A 
HETATM   18  C8  UNL     1      19.789  -9.979   4.791  1.00  0.00     0.027 A 
HETATM   19  C9  UNL     1      21.016 -10.350   5.292  1.00  0.00     0.015 A 
HETATM   20  C10 UNL     1      21.975 -10.858   4.421  1.00  0.00    -0.009 A 
HETATM   21  C11 UNL     1      23.218 -11.246   4.855  1.00  0.00     0.013 A 
HETATM   22  C15 UNL     1      21.622 -10.957   3.094  1.00  0.00     0.042 A 
HETATM   23  C12 UNL     1      24.167 -11.750   3.987  1.00  0.00     0.001 A 
HETATM   24  C13 UNL     1      23.821 -11.852   2.664  1.00  0.00     0.002 A 
HETATM   25  C14 UNL     1      22.585 -11.465   2.232  1.00  0.00     0.030 A 
HETATM   26  N6  UNL     1      20.401 -10.582   2.631  1.00  0.00    -0.358 N 
ATOM     27  H6  UNL     1      20.193 -10.678   1.637  1.00  0.00     0.166 HD
ENDBRANCH  16  17
ENDBRANCH  14  16
ENDBRANCH  12  14
BRANCH  13  28
HETATM   28  C16 UNL     1      16.734  -6.687   5.870  1.00  0.00     0.279 C 
HETATM   29  O1  UNL     1      17.319  -6.000   4.782  1.00  0.00    -0.353 OA
HETATM   30  C17 UNL     1      18.079  -5.058   5.472  1.00  0.00     0.179 C 
HETATM   31  C19 UNL     1      18.902  -5.921   6.382  1.00  0.00     0.182 C 
HETATM   32  C20 UNL     1      17.954  -7.078   6.661  1.00  0.00     0.199 C 
BRANCH  30  33
HETATM   33  C18 UNL     1      18.926  -4.226   4.539  1.00  0.00     0.198 C 
BRANCH  33  34
HETATM   34  O2  UNL     1      18.280  -4.094   3.319  1.00  0.00    -0.398 OA
ATOM     35  H2  UNL     1      17.366  -3.878   3.465  1.00  0.00     0.209 HD
ENDBRANCH  33  34
ENDBRANCH  30  33
BRANCH  31  36
HETATM   36  O3  UNL     1      19.209  -5.205   7.518  1.00  0.00    -0.390 OA
ATOM     37  H3  UNL     1      19.247  -5.802   8.256  1.00  0.00     0.210 HD
ENDBRANCH  31  36
BRANCH  32  38
HETATM   38  O4  UNL     1      17.679  -7.122   8.042  1.00  0.00    -0.388 OA
ATOM     39  H4  UNL     1      18.211  -7.775   8.481  1.00  0.00     0.210 HD
ENDBRANCH  32  38
ENDBRANCH  13  28
TORSDOF 8
ENDMDL
