MODEL 2
REMARK VINA RESULT: -8.879220927      3.713      8.417
REMARK  8 active torsions:
REMARK  status: ('A' for Active; 'I' for Inactive)
REMARK    1  A    between atoms: C5_12  and  N5_13 
REMARK    2  A    between atoms: N5_13  and  C6_15 
REMARK    3  A    between atoms: C6_15  and  C7_16 
REMARK    4  A    between atoms: N7_27  and  C16_28 
REMARK    5  A    between atoms: C17_30  and  C18_31 
REMARK    6  A    between atoms: C18_31  and  O2_32 
REMARK    7  A    between atoms: C19_34  and  O3_35 
REMARK    8  A    between atoms: C20_37  and  O4_38 
ROOT
HETATM    1  N1  UNL     1      20.088   0.176   4.780  1.00  0.00    -0.080 NA
HETATM    2  C1  UNL     1      19.056   1.137   4.823  1.00  0.00     0.148 A 
HETATM    3  N2  UNL     1      19.272   2.334   5.378  1.00  0.00    -0.339 N 
ATOM      4  H2  UNL     1      20.190   2.546   5.770  1.00  0.00     0.167 HD
HETATM    5  C2  UNL     1      18.291   3.277   5.429  1.00  0.00     0.183 A 
HETATM    6  N3  UNL     1      17.078   3.010   4.916  1.00  0.00    -0.336 N 
ATOM      7  H3  UNL     1      16.353   3.726   4.962  1.00  0.00     0.168 HD
HETATM    8  C3  UNL     1      16.790   1.822   4.341  1.00  0.00     0.158 A 
HETATM    9  C4  UNL     1      17.814   0.870   4.299  1.00  0.00     0.135 A 
HETATM   10  N4  UNL     1      17.254  -0.197   3.682  1.00  0.00    -0.184 N 
ATOM     11  H4  UNL     1      17.734  -1.075   3.488  1.00  0.00     0.184 HD
HETATM   12  C5  UNL     1      15.976   0.066   3.360  1.00  0.00     0.685 A 
HETATM   13  N7  UNL     1      15.688   1.313   3.767  1.00  0.00    -0.136 N 
ENDROOT
BRANCH  12  14
HETATM   14  N5  UNL     1      15.116  -0.858   2.699  1.00  0.00    -0.220 N 
ATOM     15  H5  UNL     1      14.434  -0.491   2.036  1.00  0.00     0.178 HD
BRANCH  14  16
HETATM   16  C6  UNL     1      15.154  -2.270   2.914  1.00  0.00     0.195 C 
BRANCH  16  17
HETATM   17  C7  UNL     1      15.895  -2.960   1.830  1.00  0.00     0.028 A 
HETATM   18  C8  UNL     1      17.273  -2.861   1.735  1.00  0.00     0.027 A 
HETATM   19  C9  UNL     1      17.991  -3.489   0.742  1.00  0.00     0.015 A 
HETATM   20  C10 UNL     1      17.312  -4.252  -0.203  1.00  0.00    -0.009 A 
HETATM   21  C11 UNL     1      17.968  -4.902  -1.218  1.00  0.00     0.013 A 
HETATM   22  C15 UNL     1      15.944  -4.327  -0.078  1.00  0.00     0.042 A 
HETATM   23  C12 UNL     1      17.292  -5.659  -2.155  1.00  0.00     0.001 A 
HETATM   24  C13 UNL     1      15.928  -5.738  -2.035  1.00  0.00     0.002 A 
HETATM   25  C14 UNL     1      15.275  -5.091  -1.025  1.00  0.00     0.030 A 
HETATM   26  N6  UNL     1      15.264  -3.696   0.915  1.00  0.00    -0.358 N 
ATOM     27  H6  UNL     1      14.249  -3.787   0.961  1.00  0.00     0.166 HD
ENDBRANCH  16  17
ENDBRANCH  14  16
ENDBRANCH  12  14
BRANCH  13  28
HETATM   28  C16 UNL     1      14.414   1.935   3.591  1.00  0.00     0.279 C 
HETATM   29  O1  UNL     1      14.531   3.218   3.009  1.00  0.00    -0.353 OA
HETATM   30  C17 UNL     1      13.208   3.646   3.099  1.00  0.00     0.179 C 
HETATM   31  C19 UNL     1      12.920   3.478   4.561  1.00  0.00     0.182 C 
HETATM   32  C20 UNL     1      13.777   2.271   4.915  1.00  0.00     0.199 C 
BRANCH  30  33
HETATM   33  C18 UNL     1      13.046   5.074   2.636  1.00  0.00     0.198 C 
BRANCH  33  34
HETATM   34  O2  UNL     1      11.707   5.333   2.386  1.00  0.00    -0.398 OA
ATOM     35  H2  UNL     1      11.632   5.979   1.693  1.00  0.00     0.209 HD
ENDBRANCH  33  34
ENDBRANCH  30  33
BRANCH  31  36
HETATM   36  O3  UNL     1      11.574   3.235   4.725  1.00  0.00    -0.390 OA
ATOM     37  H3  UNL     1      11.287   3.638   5.537  1.00  0.00     0.210 HD
ENDBRANCH  31  36
BRANCH  32  38
HETATM   38  O4  UNL     1      12.939   1.229   5.361  1.00  0.00    -0.388 OA
ATOM     39  H4  UNL     1      12.225   1.562   5.891  1.00  0.00     0.210 HD
ENDBRANCH  32  38
ENDBRANCH  13  28
TORSDOF 8
ENDMDL
