MODEL 1
REMARK VINA RESULT: -8.948282371      0.000      0.000
REMARK  8 active torsions:
REMARK  status: ('A' for Active; 'I' for Inactive)
REMARK    1  A    between atoms: C5_12  and  N5_13 
REMARK    2  A    between atoms: N5_13  and  C6_15 
REMARK    3  A    between atoms: C6_15  and  C7_16 
REMARK    4  A    between atoms: N7_27  and  C16_28 
REMARK    5  A    between atoms: C17_30  and  C18_31 
REMARK    6  A    between atoms: C18_31  and  O2_32 
REMARK    7  A    between atoms: C19_34  and  O3_35 
REMARK    8  A    between atoms: C20_37  and  O4_38 
ROOT
HETATM    1  N1  UNL     1      14.135  -5.163  -0.928  1.00  0.00    -0.080 NA
HETATM    2  C1  UNL     1      15.488  -4.803  -0.757  1.00  0.00     0.148 A 
HETATM    3  N2  UNL     1      16.415  -5.229  -1.621  1.00  0.00    -0.339 N 
ATOM      4  H2  UNL     1      16.134  -5.818  -2.406  1.00  0.00     0.167 HD
HETATM    5  C2  UNL     1      17.726  -4.892  -1.476  1.00  0.00     0.183 A 
HETATM    6  N3  UNL     1      18.108  -4.117  -0.447  1.00  0.00    -0.336 N 
ATOM      7  H3  UNL     1      19.094  -3.874  -0.350  1.00  0.00     0.168 HD
HETATM    8  C3  UNL     1      17.227  -3.651   0.464  1.00  0.00     0.158 A 
HETATM    9  C4  UNL     1      15.885  -4.009   0.294  1.00  0.00     0.135 A 
HETATM   10  N4  UNL     1      15.245  -3.414   1.328  1.00  0.00    -0.184 N 
ATOM     11  H4  UNL     1      14.243  -3.474   1.504  1.00  0.00     0.184 HD
HETATM   12  C5  UNL     1      16.119  -2.734   2.089  1.00  0.00     0.685 A 
HETATM   13  N7  UNL     1      17.344  -2.880   1.557  1.00  0.00    -0.136 N 
ENDROOT
BRANCH  12  14
HETATM   14  N5  UNL     1      15.755  -2.000   3.255  1.00  0.00    -0.220 N 
ATOM     15  H5  UNL     1      16.013  -2.382   4.165  1.00  0.00     0.178 HD
BRANCH  14  16
HETATM   16  C6  UNL     1      15.047  -0.759   3.221  1.00  0.00     0.195 C 
BRANCH  16  17
HETATM   17  C7  UNL     1      15.869   0.345   3.775  1.00  0.00     0.028 A 
HETATM   18  C8  UNL     1      16.973   0.082   4.568  1.00  0.00     0.027 A 
HETATM   19  C9  UNL     1      17.758   1.082   5.097  1.00  0.00     0.015 A 
HETATM   20  C10 UNL     1      17.433   2.408   4.829  1.00  0.00    -0.009 A 
HETATM   21  C11 UNL     1      18.172   3.452   5.326  1.00  0.00     0.013 A 
HETATM   22  C15 UNL     1      16.329   2.632   4.037  1.00  0.00     0.042 A 
HETATM   23  C12 UNL     1      17.847   4.767   5.058  1.00  0.00     0.001 A 
HETATM   24  C13 UNL     1      16.749   4.997   4.269  1.00  0.00     0.002 A 
HETATM   25  C14 UNL     1      16.012   3.958   3.775  1.00  0.00     0.030 A 
HETATM   26  N6  UNL     1      15.575   1.622   3.529  1.00  0.00    -0.358 N 
ATOM     27  H6  UNL     1      14.768   1.846   2.948  1.00  0.00     0.166 HD
ENDBRANCH  16  17
ENDBRANCH  14  16
ENDBRANCH  12  14
BRANCH  13  28
HETATM   28  C16 UNL     1      18.526  -2.292   2.103  1.00  0.00     0.279 C 
HETATM   29  O1  UNL     1      19.556  -2.193   1.141  1.00  0.00    -0.353 OA
HETATM   30  C17 UNL     1      20.602  -1.754   1.951  1.00  0.00     0.179 C 
HETATM   31  C19 UNL     1      20.634  -2.804   3.021  1.00  0.00     0.182 C 
HETATM   32  C20 UNL     1      19.166  -3.191   3.127  1.00  0.00     0.199 C 
BRANCH  30  33
HETATM   33  C18 UNL     1      21.903  -1.662   1.189  1.00  0.00     0.198 C 
BRANCH  33  34
HETATM   34  O2  UNL     1      22.207  -0.330   0.949  1.00  0.00    -0.398 OA
ATOM     35  H2  UNL     1      22.744  -0.263   0.168  1.00  0.00     0.209 HD
ENDBRANCH  33  34
ENDBRANCH  30  33
BRANCH  31  36
HETATM   36  O3  UNL     1      21.117  -2.242   4.183  1.00  0.00    -0.390 OA
ATOM     37  H3  UNL     1      20.896  -2.808   4.912  1.00  0.00     0.210 HD
ENDBRANCH  31  36
BRANCH  32  38
HETATM   38  O4  UNL     1      18.708  -2.897   4.427  1.00  0.00    -0.388 OA
ATOM     39  H4  UNL     1      18.898  -3.607   5.030  1.00  0.00     0.210 HD
ENDBRANCH  32  38
ENDBRANCH  13  28
TORSDOF 8
ENDMDL
