MODEL 3
REMARK VINA RESULT: -8.710824377      0.801      1.401
REMARK  8 active torsions:
REMARK  status: ('A' for Active; 'I' for Inactive)
REMARK    1  A    between atoms: C5_12  and  N5_13 
REMARK    2  A    between atoms: N5_13  and  C6_15 
REMARK    3  A    between atoms: C6_15  and  C7_16 
REMARK    4  A    between atoms: N7_27  and  C16_28 
REMARK    5  A    between atoms: C17_30  and  C18_31 
REMARK    6  A    between atoms: C18_31  and  O2_32 
REMARK    7  A    between atoms: C19_34  and  O3_35 
REMARK    8  A    between atoms: C20_37  and  O4_38 
ROOT
HETATM    1  N1  UNL     1      14.481  -5.162  -0.932  1.00  0.00    -0.080 NA
HETATM    2  C1  UNL     1      15.798  -4.675  -0.796  1.00  0.00     0.148 A 
HETATM    3  N2  UNL     1      16.674  -4.811  -1.797  1.00  0.00    -0.339 N 
ATOM      4  H2  UNL     1      16.381  -5.271  -2.659  1.00  0.00     0.167 HD
HETATM    5  C2  UNL     1      17.949  -4.346  -1.688  1.00  0.00     0.183 A 
HETATM    6  N3  UNL     1      18.346  -3.738  -0.557  1.00  0.00    -0.336 N 
ATOM      7  H3  UNL     1      19.305  -3.396  -0.490  1.00  0.00     0.168 HD
HETATM    8  C3  UNL     1      17.514  -3.566   0.493  1.00  0.00     0.158 A 
HETATM    9  C4  UNL     1      16.209  -4.051   0.358  1.00  0.00     0.135 A 
HETATM   10  N4  UNL     1      15.615  -3.747   1.536  1.00  0.00    -0.184 N 
ATOM     11  H4  UNL     1      14.647  -3.964   1.773  1.00  0.00     0.184 HD
HETATM   12  C5  UNL     1      16.481  -3.120   2.349  1.00  0.00     0.685 A 
HETATM   13  N7  UNL     1      17.656  -3.007   1.706  1.00  0.00    -0.136 N 
ENDROOT
BRANCH  12  14
HETATM   14  N5  UNL     1      16.158  -2.670   3.661  1.00  0.00    -0.220 N 
ATOM     15  H5  UNL     1      16.738  -2.991   4.437  1.00  0.00     0.178 HD
BRANCH  14  16
HETATM   16  C6  UNL     1      15.066  -1.796   3.954  1.00  0.00     0.195 C 
BRANCH  16  17
HETATM   17  C7  UNL     1      15.527  -0.397   4.125  1.00  0.00     0.028 A 
HETATM   18  C8  UNL     1      14.719   0.669   3.767  1.00  0.00     0.027 A 
HETATM   19  C9  UNL     1      15.116   1.979   3.913  1.00  0.00     0.015 A 
HETATM   20  C10 UNL     1      16.376   2.248   4.439  1.00  0.00    -0.009 A 
HETATM   21  C11 UNL     1      16.832   3.531   4.609  1.00  0.00     0.013 A 
HETATM   22  C15 UNL     1      17.153   1.165   4.783  1.00  0.00     0.042 A 
HETATM   23  C12 UNL     1      18.083   3.795   5.132  1.00  0.00     0.001 A 
HETATM   24  C13 UNL     1      18.862   2.720   5.478  1.00  0.00     0.002 A 
HETATM   25  C14 UNL     1      18.408   1.443   5.307  1.00  0.00     0.030 A 
HETATM   26  N6  UNL     1      16.731  -0.117   4.627  1.00  0.00    -0.358 N 
ATOM     27  H6  UNL     1      17.348  -0.882   4.900  1.00  0.00     0.166 HD
ENDBRANCH  16  17
ENDBRANCH  14  16
ENDBRANCH  12  14
BRANCH  13  28
HETATM   28  C16 UNL     1      18.816  -2.390   2.266  1.00  0.00     0.279 C 
HETATM   29  O1  UNL     1      19.797  -2.124   1.283  1.00  0.00    -0.353 OA
HETATM   30  C17 UNL     1      20.842  -1.691   2.096  1.00  0.00     0.179 C 
HETATM   31  C19 UNL     1      20.991  -2.834   3.056  1.00  0.00     0.182 C 
HETATM   32  C20 UNL     1      19.559  -3.335   3.174  1.00  0.00     0.199 C 
BRANCH  30  33
HETATM   33  C18 UNL     1      22.101  -1.432   1.303  1.00  0.00     0.198 C 
BRANCH  33  34
HETATM   34  O2  UNL     1      22.185  -0.083   0.993  1.00  0.00    -0.398 OA
ATOM     35  H2  UNL     1      23.075   0.129   0.733  1.00  0.00     0.209 HD
ENDBRANCH  33  34
ENDBRANCH  30  33
BRANCH  31  36
HETATM   36  O3  UNL     1      21.481  -2.352   4.250  1.00  0.00    -0.390 OA
ATOM     37  H3  UNL     1      22.050  -3.008   4.635  1.00  0.00     0.210 HD
ENDBRANCH  31  36
BRANCH  32  38
HETATM   38  O4  UNL     1      19.136  -3.201   4.512  1.00  0.00    -0.388 OA
ATOM     39  H4  UNL     1      19.554  -3.844   5.073  1.00  0.00     0.210 HD
ENDBRANCH  32  38
ENDBRANCH  13  28
TORSDOF 8
ENDMDL
