MODEL 13
REMARK VINA RESULT: -5.934154619      6.257      7.523
REMARK  6 active torsions:
REMARK  status: ('A' for Active; 'I' for Inactive)
REMARK    1  A    between atoms: C2_2  and  C4_4 
REMARK    2  A    between atoms: C4_4  and  C5_5 
REMARK    3  A    between atoms: C5_5  and  O1_6 
REMARK    4  A    between atoms: O1_6  and  P1_7 
REMARK    5  A    between atoms: P1_7  and  O4_10 
REMARK    6  A    between atoms: O4_10  and  P2_11 
ROOT
HETATM    1  P1  UNL     1      -4.433  12.864 -32.578  1.00  0.00     0.418 P 
HETATM    2  O2  UNL     1      -4.949  11.459 -32.322  1.00  0.00    -0.624 OA
HETATM    3  O3  UNL     1      -2.759  12.888 -32.262  1.00  0.00    -0.624 OA
ENDROOT
BRANCH   1   4
HETATM    4  O1  UNL     1      -4.644  13.201 -34.209  1.00  0.00    -0.289 OA
BRANCH   4   5
HETATM    5  C5  UNL     1      -5.790  13.969 -34.350  1.00  0.00     0.185 C 
BRANCH   5   6
HETATM    6  C4  UNL     1      -6.870  13.112 -34.937  1.00  0.00     0.059 C 
BRANCH   6   7
HETATM    7  C2  UNL     1      -6.671  12.849 -36.368  1.00  0.00    -0.091 C 
HETATM    8  C1  UNL     1      -6.807  11.635 -36.863  1.00  0.00     0.014 C 
HETATM    9  C3  UNL     1      -6.295  14.009 -37.245  1.00  0.00     0.042 C 
ENDBRANCH   6   7
ENDBRANCH   5   6
ENDBRANCH   4   5
ENDBRANCH   1   4
BRANCH   1  10
HETATM   10  O4  UNL     1      -5.259  14.013 -31.684  1.00  0.00    -0.173 OA
BRANCH  10  11
HETATM   11  P2  UNL     1      -4.727  14.125 -30.099  1.00  0.00     0.431 P 
HETATM   12  O5  UNL     1      -3.358  14.808 -30.052  1.00  0.00    -0.616 OA
HETATM   13  O6  UNL     1      -4.543  12.611 -29.391  1.00  0.00    -0.616 OA
HETATM   14  O7  UNL     1      -5.803  15.073 -29.203  1.00  0.00    -0.616 OA
ENDBRANCH  10  11
ENDBRANCH   1  10
TORSDOF 6
ENDMDL
