MODEL 1
REMARK VINA RESULT: -6.341983823      0.000      0.000
REMARK  6 active torsions:
REMARK  status: ('A' for Active; 'I' for Inactive)
REMARK    1  A    between atoms: C2_2  and  C4_4 
REMARK    2  A    between atoms: C4_4  and  C5_5 
REMARK    3  A    between atoms: C5_5  and  O1_6 
REMARK    4  A    between atoms: O1_6  and  P1_7 
REMARK    5  A    between atoms: P1_7  and  O4_10 
REMARK    6  A    between atoms: O4_10  and  P2_11 
ROOT
HETATM    1  P1  UNL     1     -11.399  15.485 -37.298  1.00  0.00     0.418 P 
HETATM    2  O2  UNL     1     -12.464  16.317 -37.990  1.00  0.00    -0.624 OA
HETATM    3  O3  UNL     1     -11.909  13.860 -37.286  1.00  0.00    -0.624 OA
ENDROOT
BRANCH   1   4
HETATM    4  O1  UNL     1     -10.000  15.567 -38.221  1.00  0.00    -0.289 OA
BRANCH   4   5
HETATM    5  C5  UNL     1      -9.634  16.900 -38.340  1.00  0.00     0.185 C 
BRANCH   5   6
HETATM    6  C4  UNL     1      -8.189  16.967 -38.730  1.00  0.00     0.059 C 
BRANCH   6   7
HETATM    7  C2  UNL     1      -7.421  17.906 -37.901  1.00  0.00    -0.091 C 
HETATM    8  C1  UNL     1      -6.544  18.729 -38.440  1.00  0.00     0.014 C 
HETATM    9  C3  UNL     1      -7.661  17.886 -36.418  1.00  0.00     0.042 C 
ENDBRANCH   6   7
ENDBRANCH   5   6
ENDBRANCH   4   5
ENDBRANCH   1   4
BRANCH   1  10
HETATM   10  O4  UNL     1     -11.058  16.049 -35.759  1.00  0.00    -0.173 OA
BRANCH  10  11
HETATM   11  P2  UNL     1     -10.076  15.016 -34.878  1.00  0.00     0.431 P 
HETATM   12  O5  UNL     1      -9.265  15.811 -33.853  1.00  0.00    -0.616 OA
HETATM   13  O6  UNL     1      -8.971  14.213 -35.859  1.00  0.00    -0.616 OA
HETATM   14  O7  UNL     1     -11.031  13.910 -34.028  1.00  0.00    -0.616 OA
ENDBRANCH  10  11
ENDBRANCH   1  10
TORSDOF 6
ENDMDL
