MODEL 18
REMARK VINA RESULT: -5.866942610      6.255      7.503
REMARK  6 active torsions:
REMARK  status: ('A' for Active; 'I' for Inactive)
REMARK    1  A    between atoms: C2_2  and  C4_4 
REMARK    2  A    between atoms: C4_4  and  C5_5 
REMARK    3  A    between atoms: C5_5  and  O1_6 
REMARK    4  A    between atoms: O1_6  and  P1_7 
REMARK    5  A    between atoms: P1_7  and  O4_10 
REMARK    6  A    between atoms: O4_10  and  P2_11 
ROOT
HETATM    1  P1  UNL     1      -4.437  12.853 -32.593  1.00  0.00     0.418 P 
HETATM    2  O2  UNL     1      -4.946  11.443 -32.351  1.00  0.00    -0.624 OA
HETATM    3  O3  UNL     1      -2.767  12.888 -32.257  1.00  0.00    -0.624 OA
ENDROOT
BRANCH   1   4
HETATM    4  O1  UNL     1      -4.631  13.198 -34.223  1.00  0.00    -0.289 OA
BRANCH   4   5
HETATM    5  C5  UNL     1      -5.764  13.984 -34.371  1.00  0.00     0.185 C 
BRANCH   5   6
HETATM    6  C4  UNL     1      -6.860  13.141 -34.948  1.00  0.00     0.059 C 
BRANCH   6   7
HETATM    7  C2  UNL     1      -6.670  12.864 -36.378  1.00  0.00    -0.091 C 
HETATM    8  C1  UNL     1      -6.824  11.648 -36.863  1.00  0.00     0.014 C 
HETATM    9  C3  UNL     1      -6.280  14.012 -37.265  1.00  0.00     0.042 C 
ENDBRANCH   6   7
ENDBRANCH   5   6
ENDBRANCH   4   5
ENDBRANCH   1   4
BRANCH   1  10
HETATM   10  O4  UNL     1      -5.282  13.991 -31.701  1.00  0.00    -0.173 OA
BRANCH  10  11
HETATM   11  P2  UNL     1      -4.764  14.104 -30.112  1.00  0.00     0.431 P 
HETATM   12  O5  UNL     1      -5.715  14.996 -29.313  1.00  0.00    -0.616 OA
HETATM   13  O6  UNL     1      -3.235  14.794 -29.999  1.00  0.00    -0.616 OA
HETATM   14  O7  UNL     1      -4.779  12.572 -29.399  1.00  0.00    -0.616 OA
ENDBRANCH  10  11
ENDBRANCH   1  10
TORSDOF 6
ENDMDL
