MODEL 4
REMARK VINA RESULT: -6.152868271      0.942      2.102
REMARK  6 active torsions:
REMARK  status: ('A' for Active; 'I' for Inactive)
REMARK    1  A    between atoms: C2_2  and  C4_4 
REMARK    2  A    between atoms: C4_4  and  C5_5 
REMARK    3  A    between atoms: C5_5  and  O1_6 
REMARK    4  A    between atoms: O1_6  and  P1_7 
REMARK    5  A    between atoms: P1_7  and  O4_10 
REMARK    6  A    between atoms: O4_10  and  P2_11 
ROOT
HETATM    1  P1  UNL     1     -10.427  14.935 -36.925  1.00  0.00     0.418 P 
HETATM    2  O2  UNL     1     -11.611  14.079 -37.340  1.00  0.00    -0.624 OA
HETATM    3  O3  UNL     1      -9.103  13.909 -36.614  1.00  0.00    -0.624 OA
ENDROOT
BRANCH   1   4
HETATM    4  O1  UNL     1     -10.015  15.909 -38.229  1.00  0.00    -0.289 OA
BRANCH   4   5
HETATM    5  C5  UNL     1      -8.645  15.819 -38.423  1.00  0.00     0.185 C 
BRANCH   5   6
HETATM    6  C4  UNL     1      -8.142  17.147 -38.902  1.00  0.00     0.059 C 
BRANCH   6   7
HETATM    7  C2  UNL     1      -7.389  17.874 -37.871  1.00  0.00    -0.091 C 
HETATM    8  C1  UNL     1      -7.555  17.608 -36.591  1.00  0.00     0.014 C 
HETATM    9  C3  UNL     1      -6.432  18.939 -38.327  1.00  0.00     0.042 C 
ENDBRANCH   6   7
ENDBRANCH   5   6
ENDBRANCH   4   5
ENDBRANCH   1   4
BRANCH   1  10
HETATM   10  O4  UNL     1     -10.784  15.916 -35.617  1.00  0.00    -0.173 OA
BRANCH  10  11
HETATM   11  P2  UNL     1     -10.432  15.204 -34.142  1.00  0.00     0.431 P 
HETATM   12  O5  UNL     1     -10.935  13.759 -34.123  1.00  0.00    -0.616 OA
HETATM   13  O6  UNL     1     -11.183  16.001 -32.865  1.00  0.00    -0.616 OA
HETATM   14  O7  UNL     1      -8.757  15.165 -33.915  1.00  0.00    -0.616 OA
ENDBRANCH  10  11
ENDBRANCH   1  10
TORSDOF 6
ENDMDL
