MODEL 4
REMARK VINA RESULT: -9.058461918      3.587      7.397
REMARK  4 active torsions:
REMARK  status: ('A' for Active; 'I' for Inactive)
REMARK    1  A    between atoms: O1_2  and  C2_3 
REMARK    2  A    between atoms: N2_9  and  C6_10 
REMARK    3  A    between atoms: C6_10  and  C7_11 
REMARK    4  A    between atoms: C7_11  and  C8_12 
ROOT
HETATM    1  C7  UNL     1       5.925   9.609  22.650  1.00  0.00     0.161 C 
HETATM    2  N3  UNL     1       5.654  10.852  23.393  1.00  0.00    -0.319 N 
ATOM      3  H3  UNL     1       5.114  10.954  24.252  1.00  0.00     0.166 HD
HETATM    4  C14 UNL     1       6.305  11.879  22.660  1.00  0.00     0.324 C 
HETATM    5  O2  UNL     1       6.039  13.127  22.663  1.00  0.00    -0.247 OA
HETATM    6  N4  UNL     1       7.337  11.262  21.898  1.00  0.00    -0.277 N 
ATOM      7  H4  UNL     1       7.987  11.728  21.265  1.00  0.00     0.173 HD
HETATM    8  C15 UNL     1       7.286   9.847  22.192  1.00  0.00     0.260 C 
HETATM    9  O3  UNL     1       8.309   9.146  22.021  1.00  0.00    -0.270 OA
ENDROOT
BRANCH   1  10
HETATM   10  C6  UNL     1       5.651   8.411  23.465  1.00  0.00     0.199 C 
BRANCH  10  11
HETATM   11  N2  UNL     1       6.243   8.316  24.748  1.00  0.00    -0.253 N 
HETATM   12  N1  UNL     1       7.540   8.161  24.944  1.00  0.00    -0.295 N 
HETATM   13  C5  UNL     1       7.841   8.085  26.236  1.00  0.00     0.064 A 
ATOM     14  H1  UNL     1       8.228   8.106  24.193  1.00  0.00     0.187 HD
HETATM   15  C4  UNL     1       9.047   7.925  26.917  1.00  0.00     0.035 A 
HETATM   16  C17 UNL     1       6.654   8.200  26.917  1.00  0.00     0.064 A 
HETATM   17  C3  UNL     1       8.992   7.888  28.292  1.00  0.00     0.039 A 
HETATM   18  C2  UNL     1       7.799   8.003  28.978  1.00  0.00     0.069 A 
HETATM   19  C18 UNL     1       6.611   8.162  28.314  1.00  0.00     0.056 A 
HETATM   20  C16 UNL     1       5.672   8.345  25.953  1.00  0.00     0.274 A 
HETATM   21  O4  UNL     1       4.463   8.477  26.274  1.00  0.00    -0.266 OA
BRANCH  18  22
HETATM   22  O1  UNL     1       7.834   7.955  30.363  1.00  0.00    -0.356 OA
HETATM   23  C1  UNL     1       7.877   6.782  31.118  1.00  0.00     0.210 C 
ENDBRANCH  18  22
ENDBRANCH  10  11
ENDBRANCH   1  10
BRANCH   1  24
HETATM   24  C8  UNL     1       4.947   9.622  21.502  1.00  0.00    -0.019 A 
HETATM   25  C9  UNL     1       5.250   8.859  20.404  1.00  0.00     0.010 A 
HETATM   26  C10 UNL     1       4.410   8.814  19.307  1.00  0.00     0.001 A 
HETATM   27  C11 UNL     1       3.258   9.567  19.364  1.00  0.00     0.000 A 
HETATM   28  C12 UNL     1       2.949  10.329  20.453  1.00  0.00     0.001 A 
HETATM   29  C13 UNL     1       3.792  10.367  21.540  1.00  0.00     0.010 A 
ENDBRANCH   1  24
TORSDOF 4
ENDMDL
