MODEL 1
REMARK VINA RESULT: -9.315943631      0.000      0.000
REMARK  4 active torsions:
REMARK  status: ('A' for Active; 'I' for Inactive)
REMARK    1  A    between atoms: O1_2  and  C2_3 
REMARK    2  A    between atoms: N2_9  and  C6_10 
REMARK    3  A    between atoms: C6_10  and  C7_11 
REMARK    4  A    between atoms: C7_11  and  C8_12 
ROOT
HETATM    1  C7  UNL     1       6.442   7.564  25.554  1.00  0.00     0.161 C 
HETATM    2  N3  UNL     1       7.416   7.955  24.520  1.00  0.00    -0.319 N 
ATOM      3  H3  UNL     1       7.975   7.336  23.932  1.00  0.00     0.166 HD
HETATM    4  C14 UNL     1       7.412   9.374  24.515  1.00  0.00     0.324 C 
HETATM    5  O2  UNL     1       8.336  10.155  24.108  1.00  0.00    -0.247 OA
HETATM    6  N4  UNL     1       6.164   9.793  25.057  1.00  0.00    -0.277 N 
ATOM      7  H4  UNL     1       5.851  10.754  25.189  1.00  0.00     0.173 HD
HETATM    8  C15 UNL     1       5.426   8.593  25.385  1.00  0.00     0.260 C 
HETATM    9  O3  UNL     1       4.177   8.640  25.460  1.00  0.00    -0.270 OA
ENDROOT
BRANCH   1  10
HETATM   10  C6  UNL     1       6.045   6.149  25.428  1.00  0.00     0.199 C 
BRANCH  10  11
HETATM   11  N2  UNL     1       6.183   5.518  24.167  1.00  0.00    -0.253 N 
HETATM   12  N1  UNL     1       5.482   5.857  23.101  1.00  0.00    -0.295 N 
HETATM   13  C5  UNL     1       5.786   5.105  22.047  1.00  0.00     0.064 A 
ATOM     14  H1  UNL     1       4.789   6.606  23.087  1.00  0.00     0.187 HD
HETATM   15  C4  UNL     1       5.322   5.088  20.734  1.00  0.00     0.035 A 
HETATM   16  C17 UNL     1       6.751   4.223  22.468  1.00  0.00     0.064 A 
HETATM   17  C3  UNL     1       5.870   4.153  19.885  1.00  0.00     0.039 A 
HETATM   18  C2  UNL     1       6.840   3.265  20.307  1.00  0.00     0.069 A 
HETATM   19  C18 UNL     1       7.301   3.278  21.597  1.00  0.00     0.056 A 
HETATM   20  C16 UNL     1       6.977   4.510  23.803  1.00  0.00     0.274 A 
HETATM   21  O4  UNL     1       7.821   3.861  24.472  1.00  0.00    -0.266 OA
BRANCH  18  22
HETATM   22  O1  UNL     1       7.339   2.356  19.387  1.00  0.00    -0.356 OA
HETATM   23  C1  UNL     1       6.713   2.015  18.186  1.00  0.00     0.210 C 
ENDBRANCH  18  22
ENDBRANCH  10  11
ENDBRANCH   1  10
BRANCH   1  24
HETATM   24  C8  UNL     1       7.178   7.724  26.861  1.00  0.00    -0.019 A 
HETATM   25  C9  UNL     1       6.424   7.800  28.005  1.00  0.00     0.010 A 
HETATM   26  C10 UNL     1       7.018   7.948  29.245  1.00  0.00     0.001 A 
HETATM   27  C11 UNL     1       8.393   8.016  29.282  1.00  0.00     0.000 A 
HETATM   28  C12 UNL     1       9.148   7.942  28.149  1.00  0.00     0.001 A 
HETATM   29  C13 UNL     1       8.548   7.794  26.919  1.00  0.00     0.010 A 
ENDBRANCH   1  24
TORSDOF 4
ENDMDL
