MODEL 8
REMARK VINA RESULT: -8.498793553      3.010      5.904
REMARK  4 active torsions:
REMARK  status: ('A' for Active; 'I' for Inactive)
REMARK    1  A    between atoms: O1_2  and  C2_3 
REMARK    2  A    between atoms: N2_9  and  C6_10 
REMARK    3  A    between atoms: C6_10  and  C7_11 
REMARK    4  A    between atoms: C7_11  and  C8_12 
ROOT
HETATM    1  C7  UNL     1       5.924   7.322  24.736  1.00  0.00     0.161 C 
HETATM    2  N3  UNL     1       5.248   6.035  24.976  1.00  0.00    -0.319 N 
ATOM      3  H3  UNL     1       4.266   5.885  25.204  1.00  0.00     0.166 HD
HETATM    4  C14 UNL     1       6.255   5.046  24.822  1.00  0.00     0.324 C 
HETATM    5  O2  UNL     1       6.269   3.866  25.308  1.00  0.00    -0.247 OA
HETATM    6  N4  UNL     1       7.278   5.610  24.009  1.00  0.00    -0.277 N 
ATOM      7  H4  UNL     1       8.141   5.154  23.714  1.00  0.00     0.173 HD
HETATM    8  C15 UNL     1       6.859   6.956  23.683  1.00  0.00     0.260 C 
HETATM    9  O3  UNL     1       7.322   7.514  22.662  1.00  0.00    -0.270 OA
ENDROOT
BRANCH   1  10
HETATM   10  C6  UNL     1       4.960   8.409  24.482  1.00  0.00     0.199 C 
BRANCH  10  11
HETATM   11  N2  UNL     1       5.308   9.418  23.551  1.00  0.00    -0.253 N 
HETATM   12  N1  UNL     1       4.889   9.433  22.299  1.00  0.00    -0.295 N 
HETATM   13  C5  UNL     1       5.367  10.476  21.628  1.00  0.00     0.064 A 
ATOM     14  H1  UNL     1       4.271   8.728  21.895  1.00  0.00     0.187 HD
HETATM   15  C4  UNL     1       5.207  10.905  20.312  1.00  0.00     0.035 A 
HETATM   16  C17 UNL     1       6.147  11.180  22.512  1.00  0.00     0.064 A 
HETATM   17  C3  UNL     1       5.862  12.059  19.943  1.00  0.00     0.039 A 
HETATM   18  C2  UNL     1       6.648  12.767  20.831  1.00  0.00     0.069 A 
HETATM   19  C18 UNL     1       6.807  12.350  22.126  1.00  0.00     0.056 A 
HETATM   20  C16 UNL     1       6.087  10.489  23.710  1.00  0.00     0.274 A 
HETATM   21  O4  UNL     1       6.708  10.897  24.725  1.00  0.00    -0.266 OA
BRANCH  18  22
HETATM   22  O1  UNL     1       7.273  13.919  20.377  1.00  0.00    -0.356 OA
HETATM   23  C1  UNL     1       8.163  14.689  21.127  1.00  0.00     0.210 C 
ENDBRANCH  18  22
ENDBRANCH  10  11
ENDBRANCH   1  10
BRANCH   1  24
HETATM   24  C8  UNL     1       6.640   7.631  26.027  1.00  0.00    -0.019 A 
HETATM   25  C9  UNL     1       5.884   7.690  27.170  1.00  0.00     0.010 A 
HETATM   26  C10 UNL     1       6.460   7.968  28.396  1.00  0.00     0.001 A 
HETATM   27  C11 UNL     1       7.820   8.182  28.421  1.00  0.00     0.000 A 
HETATM   28  C12 UNL     1       8.578   8.125  27.289  1.00  0.00     0.001 A 
HETATM   29  C13 UNL     1       7.996   7.848  26.073  1.00  0.00     0.010 A 
ENDBRANCH   1  24
TORSDOF 4
ENDMDL
