MODEL 16
REMARK VINA RESULT: -7.754464093      3.494      7.294
REMARK  4 active torsions:
REMARK  status: ('A' for Active; 'I' for Inactive)
REMARK    1  A    between atoms: O1_2  and  C2_3 
REMARK    2  A    between atoms: N2_9  and  C6_10 
REMARK    3  A    between atoms: C6_10  and  C7_11 
REMARK    4  A    between atoms: C7_11  and  C8_12 
ROOT
HETATM    1  C7  UNL     1       5.425   9.530  22.593  1.00  0.00     0.161 C 
HETATM    2  N3  UNL     1       5.370  10.917  23.088  1.00  0.00    -0.319 N 
ATOM      3  H3  UNL     1       4.780  11.284  23.835  1.00  0.00     0.166 HD
HETATM    4  C14 UNL     1       6.313  11.635  22.306  1.00  0.00     0.324 C 
HETATM    5  O2  UNL     1       6.341  12.890  22.078  1.00  0.00    -0.247 OA
HETATM    6  N4  UNL     1       7.250  10.689  21.804  1.00  0.00    -0.277 N 
ATOM      7  H4  UNL     1       8.052  10.886  21.206  1.00  0.00     0.173 HD
HETATM    8  C15 UNL     1       6.845   9.393  22.304  1.00  0.00     0.260 C 
HETATM    9  O3  UNL     1       7.692   8.475  22.390  1.00  0.00    -0.270 OA
ENDROOT
BRANCH   1  10
HETATM   10  C6  UNL     1       4.799   8.585  23.537  1.00  0.00     0.199 C 
BRANCH  10  11
HETATM   11  N2  UNL     1       5.360   8.450  24.830  1.00  0.00    -0.253 N 
HETATM   12  N1  UNL     1       5.134   9.299  25.816  1.00  0.00    -0.295 N 
HETATM   13  C5  UNL     1       5.787   8.959  26.923  1.00  0.00     0.064 A 
ATOM     14  H1  UNL     1       4.530  10.118  25.738  1.00  0.00     0.187 HD
HETATM   15  C4  UNL     1       5.858   9.533  28.191  1.00  0.00     0.035 A 
HETATM   16  C17 UNL     1       6.479   7.811  26.626  1.00  0.00     0.064 A 
HETATM   17  C3  UNL     1       6.650   8.901  29.124  1.00  0.00     0.039 A 
HETATM   18  C2  UNL     1       7.347   7.747  28.826  1.00  0.00     0.069 A 
HETATM   19  C18 UNL     1       7.280   7.177  27.582  1.00  0.00     0.056 A 
HETATM   20  C16 UNL     1       6.188   7.519  25.305  1.00  0.00     0.274 A 
HETATM   21  O4  UNL     1       6.681   6.509  24.740  1.00  0.00    -0.266 OA
BRANCH  18  22
HETATM   22  O1  UNL     1       8.121   7.174  29.824  1.00  0.00    -0.356 OA
HETATM   23  C1  UNL     1       7.618   6.430  30.893  1.00  0.00     0.210 C 
ENDBRANCH  18  22
ENDBRANCH  10  11
ENDBRANCH   1  10
BRANCH   1  24
HETATM   24  C8  UNL     1       4.602   9.537  21.330  1.00  0.00    -0.019 A 
HETATM   25  C9  UNL     1       3.549  10.414  21.266  1.00  0.00     0.010 A 
HETATM   26  C10 UNL     1       2.742  10.486  20.146  1.00  0.00     0.001 A 
HETATM   27  C11 UNL     1       3.039   9.642  19.099  1.00  0.00     0.000 A 
HETATM   28  C12 UNL     1       4.084   8.767  19.155  1.00  0.00     0.001 A 
HETATM   29  C13 UNL     1       4.882   8.703  20.275  1.00  0.00     0.010 A 
ENDBRANCH   1  24
TORSDOF 4
ENDMDL
