MODEL 2
REMARK VINA RESULT: -9.302285946      1.070      1.558
REMARK  4 active torsions:
REMARK  status: ('A' for Active; 'I' for Inactive)
REMARK    1  A    between atoms: O1_2  and  C2_3 
REMARK    2  A    between atoms: N2_9  and  C6_10 
REMARK    3  A    between atoms: C6_10  and  C7_11 
REMARK    4  A    between atoms: C7_11  and  C8_12 
ROOT
HETATM    1  C7  UNL     1       6.425   7.483  25.571  1.00  0.00     0.161 C 
HETATM    2  N3  UNL     1       7.419   7.794  24.528  1.00  0.00    -0.319 N 
ATOM      3  H3  UNL     1       7.968   7.132  23.980  1.00  0.00     0.166 HD
HETATM    4  C14 UNL     1       7.452   9.211  24.449  1.00  0.00     0.324 C 
HETATM    5  O2  UNL     1       8.400   9.945  24.012  1.00  0.00    -0.247 OA
HETATM    6  N4  UNL     1       6.211   9.689  24.955  1.00  0.00    -0.277 N 
ATOM      7  H4  UNL     1       5.921  10.664  25.033  1.00  0.00     0.173 HD
HETATM    8  C15 UNL     1       5.438   8.527  25.337  1.00  0.00     0.260 C 
HETATM    9  O3  UNL     1       4.191   8.611  25.396  1.00  0.00    -0.270 OA
ENDROOT
BRANCH   1  10
HETATM   10  C6  UNL     1       5.993   6.074  25.514  1.00  0.00     0.199 C 
BRANCH  10  11
HETATM   11  N2  UNL     1       6.293   5.321  24.353  1.00  0.00    -0.253 N 
HETATM   12  N1  UNL     1       7.097   4.272  24.351  1.00  0.00    -0.295 N 
HETATM   13  C5  UNL     1       7.227   3.749  23.136  1.00  0.00     0.064 A 
ATOM     14  H1  UNL     1       7.562   3.908  25.183  1.00  0.00     0.187 HD
HETATM   15  C4  UNL     1       7.952   2.664  22.648  1.00  0.00     0.035 A 
HETATM   16  C17 UNL     1       6.452   4.515  22.300  1.00  0.00     0.064 A 
HETATM   17  C3  UNL     1       7.855   2.397  21.301  1.00  0.00     0.039 A 
HETATM   18  C2  UNL     1       7.076   3.167  20.460  1.00  0.00     0.069 A 
HETATM   19  C18 UNL     1       6.361   4.235  20.934  1.00  0.00     0.056 A 
HETATM   20  C16 UNL     1       5.880   5.492  23.097  1.00  0.00     0.274 A 
HETATM   21  O4  UNL     1       5.105   6.354  22.609  1.00  0.00    -0.266 OA
BRANCH  18  22
HETATM   22  O1  UNL     1       7.034   2.829  19.115  1.00  0.00    -0.356 OA
HETATM   23  C1  UNL     1       6.712   3.711  18.083  1.00  0.00     0.210 C 
ENDBRANCH  18  22
ENDBRANCH  10  11
ENDBRANCH   1  10
BRANCH   1  24
HETATM   24  C8  UNL     1       7.152   7.693  26.875  1.00  0.00    -0.019 A 
HETATM   25  C9  UNL     1       6.392   7.815  28.010  1.00  0.00     0.010 A 
HETATM   26  C10 UNL     1       6.977   8.010  29.247  1.00  0.00     0.001 A 
HETATM   27  C11 UNL     1       8.352   8.077  29.292  1.00  0.00     0.000 A 
HETATM   28  C12 UNL     1       9.115   7.956  28.167  1.00  0.00     0.001 A 
HETATM   29  C13 UNL     1       8.523   7.762  26.940  1.00  0.00     0.010 A 
ENDBRANCH   1  24
TORSDOF 4
ENDMDL
