MODEL 3
REMARK VINA RESULT: -8.837904796      1.370      1.887
REMARK  5 active torsions:
REMARK  status: ('A' for Active; 'I' for Inactive)
REMARK    1  A    between atoms: O1_2  and  C2_3 
REMARK    2  A    between atoms: N1_11  and  C9_12 
REMARK    3  A    between atoms: C9_12  and  C10_13 
REMARK    4  A    between atoms: C10_13  and  C11_14 
REMARK    5  A    between atoms: C14_17  and  C15_18 
ROOT
HETATM    1  C10 UNL     1      17.711  13.464  -6.890  1.00  0.00     0.159 A 
HETATM    2  N3  UNL     1      18.710  12.446  -6.822  1.00  0.00    -0.319 N 
ATOM      3  H3  UNL     1      19.176  12.011  -7.619  1.00  0.00     0.166 HD
HETATM    4  C22 UNL     1      18.943  12.145  -5.463  1.00  0.00     0.324 A 
HETATM    5  O3  UNL     1      19.781  11.280  -5.030  1.00  0.00    -0.247 OA
HETATM    6  N4  UNL     1      18.114  12.940  -4.635  1.00  0.00    -0.277 N 
ATOM      7  H4  UNL     1      18.077  12.928  -3.616  1.00  0.00     0.173 HD
HETATM    8  C23 UNL     1      17.346  13.755  -5.500  1.00  0.00     0.260 A 
HETATM    9  O4  UNL     1      16.483  14.598  -5.064  1.00  0.00    -0.270 OA
ENDROOT
BRANCH   1  10
HETATM   10  C9  UNL     1      18.205  14.699  -7.626  1.00  0.00     0.173 C 
BRANCH  10  11
HETATM   11  N1  UNL     1      19.630  14.938  -7.418  1.00  0.00    -0.341 N 
HETATM   12  C8  UNL     1      20.211  15.656  -6.344  1.00  0.00     0.254 A 
HETATM   13  C6  UNL     1      21.653  15.601  -6.488  1.00  0.00     0.042 A 
HETATM   14  O2  UNL     1      19.556  16.236  -5.432  1.00  0.00    -0.267 OA
HETATM   15  C5  UNL     1      21.925  14.871  -7.618  1.00  0.00    -0.024 A 
HETATM   16  C7  UNL     1      22.695  16.117  -5.707  1.00  0.00     0.054 A 
HETATM   17  C4  UNL     1      23.269  14.673  -7.944  1.00  0.00     0.012 A 
HETATM   18  C24 UNL     1      20.665  14.453  -8.280  1.00  0.00     0.165 A 
HETATM   19  C3  UNL     1      24.286  15.181  -7.173  1.00  0.00     0.037 A 
HETATM   20  C2  UNL     1      24.003  15.914  -6.040  1.00  0.00     0.069 A 
BRANCH  20  21
HETATM   21  O1  UNL     1      25.036  16.433  -5.255  1.00  0.00    -0.356 OA
HETATM   22  C1  UNL     1      26.297  16.648  -5.858  1.00  0.00     0.210 C 
ENDBRANCH  20  21
ENDBRANCH  10  11
ENDBRANCH   1  10
BRANCH   1  23
HETATM   23  C11 UNL     1      16.520  12.899  -7.630  1.00  0.00    -0.019 A 
HETATM   24  C12 UNL     1      15.546  12.182  -6.996  1.00  0.00     0.011 A 
HETATM   25  C13 UNL     1      14.453  11.656  -7.695  1.00  0.00     0.013 A 
HETATM   26  C14 UNL     1      14.335  11.851  -9.052  1.00  0.00    -0.025 A 
HETATM   27  C20 UNL     1      15.317  12.571  -9.672  1.00  0.00     0.013 A 
HETATM   28  C21 UNL     1      16.418  13.103  -8.980  1.00  0.00     0.011 A 
BRANCH  26  29
HETATM   29  C15 UNL     1      13.209  11.315  -9.802  1.00  0.00    -0.011 A 
HETATM   30  C16 UNL     1      12.284  10.467  -9.217  1.00  0.00     0.015 A 
HETATM   31  C17 UNL     1      11.217   9.960  -9.934  1.00  0.00     0.018 A 
HETATM   32  C18 UNL     1      11.048  10.291 -11.255  1.00  0.00     0.087 A 
HETATM   33  N2  UNL     1      11.947  11.116 -11.820  1.00  0.00    -0.374 N 
HETATM   34  C19 UNL     1      12.991  11.615 -11.135  1.00  0.00     0.099 A 
ATOM     35  H2  UNL     1      11.833  11.370 -12.801  1.00  0.00     0.164 HD
ENDBRANCH  26  29
ENDBRANCH   1  23
TORSDOF 5
ENDMDL
