MODEL 6
REMARK VINA RESULT: -8.568273382      3.347      5.975
REMARK  5 active torsions:
REMARK  status: ('A' for Active; 'I' for Inactive)
REMARK    1  A    between atoms: O1_2  and  C2_3 
REMARK    2  A    between atoms: N1_11  and  C9_12 
REMARK    3  A    between atoms: C9_12  and  C10_13 
REMARK    4  A    between atoms: C10_13  and  C11_14 
REMARK    5  A    between atoms: C14_17  and  C15_18 
ROOT
HETATM    1  C10 UNL     1      17.721  14.782  -7.044  1.00  0.00     0.159 A 
HETATM    2  N3  UNL     1      17.880  13.981  -8.215  1.00  0.00    -0.319 N 
ATOM      3  H3  UNL     1      18.745  13.855  -8.742  1.00  0.00     0.166 HD
HETATM    4  C22 UNL     1      16.633  13.392  -8.519  1.00  0.00     0.324 A 
HETATM    5  O3  UNL     1      16.408  12.606  -9.504  1.00  0.00    -0.247 OA
HETATM    6  N4  UNL     1      15.657  13.793  -7.575  1.00  0.00    -0.277 N 
ATOM      7  H4  UNL     1      14.676  13.516  -7.557  1.00  0.00     0.173 HD
HETATM    8  C23 UNL     1      16.311  14.652  -6.663  1.00  0.00     0.260 A 
HETATM    9  O4  UNL     1      15.701  15.199  -5.674  1.00  0.00    -0.270 OA
ENDROOT
BRANCH   1  10
HETATM   10  C9  UNL     1      18.661  14.353  -5.929  1.00  0.00     0.173 C 
BRANCH  10  11
HETATM   11  N1  UNL     1      20.056  14.667  -6.225  1.00  0.00    -0.341 N 
HETATM   12  C8  UNL     1      20.898  15.527  -5.478  1.00  0.00     0.254 A 
HETATM   13  C6  UNL     1      22.217  15.507  -6.082  1.00  0.00     0.042 A 
HETATM   14  O2  UNL     1      20.532  16.185  -4.464  1.00  0.00    -0.267 OA
HETATM   15  C5  UNL     1      22.163  14.659  -7.160  1.00  0.00    -0.024 A 
HETATM   16  C7  UNL     1      23.415  16.149  -5.742  1.00  0.00     0.054 A 
HETATM   17  C4  UNL     1      23.341  14.473  -7.887  1.00  0.00     0.012 A 
HETATM   18  C24 UNL     1      20.791  14.122  -7.326  1.00  0.00     0.165 A 
HETATM   19  C3  UNL     1      24.512  15.105  -7.548  1.00  0.00     0.037 A 
HETATM   20  C2  UNL     1      24.557  15.955  -6.464  1.00  0.00     0.069 A 
BRANCH  20  21
HETATM   21  O1  UNL     1      25.747  16.600  -6.117  1.00  0.00    -0.356 OA
HETATM   22  C1  UNL     1      25.949  16.959  -4.764  1.00  0.00     0.210 C 
ENDBRANCH  20  21
ENDBRANCH  10  11
ENDBRANCH   1  10
BRANCH   1  23
HETATM   23  C11 UNL     1      18.027  16.215  -7.415  1.00  0.00    -0.019 A 
HETATM   24  C12 UNL     1      17.683  17.262  -6.608  1.00  0.00     0.011 A 
HETATM   25  C13 UNL     1      17.964  18.586  -6.969  1.00  0.00     0.013 A 
HETATM   26  C14 UNL     1      18.600  18.864  -8.157  1.00  0.00    -0.025 A 
HETATM   27  C20 UNL     1      18.938  17.806  -8.953  1.00  0.00     0.013 A 
HETATM   28  C21 UNL     1      18.661  16.475  -8.600  1.00  0.00     0.011 A 
BRANCH  26  29
HETATM   29  C15 UNL     1      18.903  20.230  -8.554  1.00  0.00    -0.011 A 
HETATM   30  C16 UNL     1      18.402  21.318  -7.859  1.00  0.00     0.015 A 
HETATM   31  C17 UNL     1      18.693  22.614  -8.241  1.00  0.00     0.018 A 
HETATM   32  C18 UNL     1      19.495  22.853  -9.329  1.00  0.00     0.087 A 
HETATM   33  N2  UNL     1      19.981  21.796 -10.001  1.00  0.00    -0.374 N 
HETATM   34  C19 UNL     1      19.705  20.530  -9.642  1.00  0.00     0.099 A 
ATOM     35  H2  UNL     1      20.578  21.960 -10.811  1.00  0.00     0.164 HD
ENDBRANCH  26  29
ENDBRANCH   1  23
TORSDOF 5
ENDMDL
