MODEL 1
REMARK VINA RESULT: -9.154241290      0.000      0.000
REMARK  5 active torsions:
REMARK  status: ('A' for Active; 'I' for Inactive)
REMARK    1  A    between atoms: O1_2  and  C2_3 
REMARK    2  A    between atoms: N1_11  and  C9_12 
REMARK    3  A    between atoms: C9_12  and  C10_13 
REMARK    4  A    between atoms: C10_13  and  C11_14 
REMARK    5  A    between atoms: C14_17  and  C15_18 
ROOT
HETATM    1  C10 UNL     1      18.232  14.024  -7.206  1.00  0.00     0.159 A 
HETATM    2  N3  UNL     1      19.086  12.880  -7.253  1.00  0.00    -0.319 N 
ATOM      3  H3  UNL     1      19.509  12.484  -8.093  1.00  0.00     0.166 HD
HETATM    4  C22 UNL     1      19.244  12.392  -5.938  1.00  0.00     0.324 A 
HETATM    5  O3  UNL     1      19.949  11.377  -5.607  1.00  0.00    -0.247 OA
HETATM    6  N4  UNL     1      18.508  13.187  -5.027  1.00  0.00    -0.277 N 
ATOM      7  H4  UNL     1      18.445  13.059  -4.018  1.00  0.00     0.173 HD
HETATM    8  C23 UNL     1      17.877  14.194  -5.793  1.00  0.00     0.260 A 
HETATM    9  O4  UNL     1      17.122  15.089  -5.265  1.00  0.00    -0.270 OA
ENDROOT
BRANCH   1  10
HETATM   10  C9  UNL     1      18.904  15.259  -7.783  1.00  0.00     0.173 C 
BRANCH  10  11
HETATM   11  N1  UNL     1      20.230  15.489  -7.218  1.00  0.00    -0.341 N 
HETATM   12  C8  UNL     1      21.456  15.001  -7.731  1.00  0.00     0.254 A 
HETATM   13  C6  UNL     1      22.531  15.514  -6.903  1.00  0.00     0.042 A 
HETATM   14  O2  UNL     1      21.562  14.249  -8.741  1.00  0.00    -0.267 OA
HETATM   15  C5  UNL     1      21.961  16.285  -5.921  1.00  0.00    -0.024 A 
HETATM   16  C7  UNL     1      23.923  15.363  -6.971  1.00  0.00     0.054 A 
HETATM   17  C4  UNL     1      22.823  16.900  -5.010  1.00  0.00     0.012 A 
HETATM   18  C24 UNL     1      20.484  16.274  -6.047  1.00  0.00     0.165 A 
HETATM   19  C3  UNL     1      24.187  16.748  -5.082  1.00  0.00     0.037 A 
HETATM   20  C2  UNL     1      24.750  15.970  -6.072  1.00  0.00     0.069 A 
BRANCH  20  21
HETATM   21  O1  UNL     1      26.136  15.814  -6.147  1.00  0.00    -0.356 OA
HETATM   22  C1  UNL     1      26.957  16.928  -5.856  1.00  0.00     0.210 C 
ENDBRANCH  20  21
ENDBRANCH  10  11
ENDBRANCH   1  10
BRANCH   1  23
HETATM   23  C11 UNL     1      16.996  13.717  -8.018  1.00  0.00    -0.019 A 
HETATM   24  C12 UNL     1      15.984  14.622  -8.169  1.00  0.00     0.011 A 
HETATM   25  C13 UNL     1      14.839  14.320  -8.917  1.00  0.00     0.013 A 
HETATM   26  C14 UNL     1      14.705  13.092  -9.521  1.00  0.00    -0.025 A 
HETATM   27  C20 UNL     1      15.726  12.197  -9.361  1.00  0.00     0.013 A 
HETATM   28  C21 UNL     1      16.879  12.490  -8.614  1.00  0.00     0.011 A 
BRANCH  26  29
HETATM   29  C15 UNL     1      13.526  12.754 -10.303  1.00  0.00    -0.011 A 
HETATM   30  C16 UNL     1      13.191  11.441 -10.584  1.00  0.00     0.015 A 
HETATM   31  C17 UNL     1      12.070  11.125 -11.328  1.00  0.00     0.018 A 
HETATM   32  C18 UNL     1      11.254  12.119 -11.807  1.00  0.00     0.087 A 
HETATM   33  N2  UNL     1      11.580  13.393 -11.533  1.00  0.00    -0.374 N 
HETATM   34  C19 UNL     1      12.668  13.715 -10.812  1.00  0.00     0.099 A 
ATOM     35  H2  UNL     1      10.981  14.141 -11.883  1.00  0.00     0.164 HD
ENDBRANCH  26  29
ENDBRANCH   1  23
TORSDOF 5
ENDMDL
