MODEL 5
REMARK VINA RESULT: -8.590857801      3.394      9.085
REMARK  5 active torsions:
REMARK  status: ('A' for Active; 'I' for Inactive)
REMARK    1  A    between atoms: O1_2  and  C2_3 
REMARK    2  A    between atoms: N1_11  and  C9_12 
REMARK    3  A    between atoms: C9_12  and  C10_13 
REMARK    4  A    between atoms: C10_13  and  C11_14 
REMARK    5  A    between atoms: C14_17  and  C15_18 
ROOT
HETATM    1  C10 UNL     1      17.464  14.320  -6.665  1.00  0.00     0.159 A 
HETATM    2  N3  UNL     1      17.355  13.091  -7.383  1.00  0.00    -0.319 N 
ATOM      3  H3  UNL     1      17.742  12.192  -7.092  1.00  0.00     0.166 HD
HETATM    4  C22 UNL     1      16.619  13.332  -8.563  1.00  0.00     0.324 A 
HETATM    5  O3  UNL     1      16.326  12.451  -9.444  1.00  0.00    -0.247 OA
HETATM    6  N4  UNL     1      16.246  14.696  -8.639  1.00  0.00    -0.277 N 
ATOM      7  H4  UNL     1      15.712  15.141  -9.384  1.00  0.00     0.173 HD
HETATM    8  C23 UNL     1      16.763  15.318  -7.479  1.00  0.00     0.260 A 
HETATM    9  O4  UNL     1      16.602  16.569  -7.240  1.00  0.00    -0.270 OA
ENDROOT
BRANCH   1  10
HETATM   10  C9  UNL     1      16.887  14.213  -5.262  1.00  0.00     0.173 C 
BRANCH  10  11
HETATM   11  N1  UNL     1      16.581  12.835  -4.890  1.00  0.00    -0.341 N 
HETATM   12  C8  UNL     1      17.425  11.953  -4.173  1.00  0.00     0.254 A 
HETATM   13  C6  UNL     1      16.709  10.709  -3.964  1.00  0.00     0.042 A 
HETATM   14  O2  UNL     1      18.598  12.232  -3.794  1.00  0.00    -0.267 OA
HETATM   15  C5  UNL     1      15.472  10.845  -4.542  1.00  0.00    -0.024 A 
HETATM   16  C7  UNL     1      17.061   9.522  -3.307  1.00  0.00     0.054 A 
HETATM   17  C4  UNL     1      14.598   9.760  -4.445  1.00  0.00     0.012 A 
HETATM   18  C24 UNL     1      15.346  12.174  -5.187  1.00  0.00     0.165 A 
HETATM   19  C3  UNL     1      14.949   8.599  -3.799  1.00  0.00     0.037 A 
HETATM   20  C2  UNL     1      16.194   8.471  -3.222  1.00  0.00     0.069 A 
BRANCH  20  21
HETATM   21  O1  UNL     1      16.554   7.292  -2.566  1.00  0.00    -0.356 OA
HETATM   22  C1  UNL     1      15.724   6.157  -2.716  1.00  0.00     0.210 C 
ENDBRANCH  20  21
ENDBRANCH  10  11
ENDBRANCH   1  10
BRANCH   1  23
HETATM   23  C11 UNL     1      18.930  14.672  -6.563  1.00  0.00    -0.019 A 
HETATM   24  C12 UNL     1      19.853  14.194  -7.449  1.00  0.00     0.011 A 
HETATM   25  C13 UNL     1      21.211  14.521  -7.338  1.00  0.00     0.013 A 
HETATM   26  C14 UNL     1      21.649  15.338  -6.322  1.00  0.00    -0.025 A 
HETATM   27  C20 UNL     1      20.713  15.809  -5.444  1.00  0.00     0.013 A 
HETATM   28  C21 UNL     1      19.350  15.488  -5.547  1.00  0.00     0.011 A 
BRANCH  26  29
HETATM   29  C15 UNL     1      23.054  15.692  -6.185  1.00  0.00    -0.011 A 
HETATM   30  C16 UNL     1      24.017  15.194  -7.045  1.00  0.00     0.015 A 
HETATM   31  C17 UNL     1      25.350  15.533  -6.910  1.00  0.00     0.018 A 
HETATM   32  C18 UNL     1      25.751  16.382  -5.909  1.00  0.00     0.087 A 
HETATM   33  N2  UNL     1      24.815  16.865  -5.075  1.00  0.00    -0.374 N 
HETATM   34  C19 UNL     1      23.515  16.543  -5.194  1.00  0.00     0.099 A 
ATOM     35  H2  UNL     1      25.100  17.497  -4.328  1.00  0.00     0.164 HD
ENDBRANCH  26  29
ENDBRANCH   1  23
TORSDOF 5
ENDMDL
