MODEL 7
REMARK VINA RESULT: -8.268610517      3.446      8.957
REMARK  5 active torsions:
REMARK  status: ('A' for Active; 'I' for Inactive)
REMARK    1  A    between atoms: O1_2  and  C2_3 
REMARK    2  A    between atoms: N1_11  and  C9_12 
REMARK    3  A    between atoms: C9_12  and  C10_13 
REMARK    4  A    between atoms: C10_13  and  C11_14 
REMARK    5  A    between atoms: C14_17  and  C15_18 
ROOT
HETATM    1  C10 UNL     1      17.089  14.203  -6.772  1.00  0.00     0.159 A 
HETATM    2  N3  UNL     1      16.950  12.932  -7.410  1.00  0.00    -0.319 N 
ATOM      3  H3  UNL     1      17.319  12.046  -7.064  1.00  0.00     0.166 HD
HETATM    4  C22 UNL     1      16.213  13.114  -8.600  1.00  0.00     0.324 A 
HETATM    5  O3  UNL     1      15.897  12.186  -9.422  1.00  0.00    -0.247 OA
HETATM    6  N4  UNL     1      15.869  14.478  -8.762  1.00  0.00    -0.277 N 
ATOM      7  H4  UNL     1      15.340  14.887  -9.531  1.00  0.00     0.173 HD
HETATM    8  C23 UNL     1      16.405  15.162  -7.646  1.00  0.00     0.260 A 
HETATM    9  O4  UNL     1      16.272  16.429  -7.486  1.00  0.00    -0.270 OA
ENDROOT
BRANCH   1  10
HETATM   10  C9  UNL     1      16.517  14.198  -5.363  1.00  0.00     0.173 C 
BRANCH  10  11
HETATM   11  N1  UNL     1      16.466  12.857  -4.787  1.00  0.00    -0.341 N 
HETATM   12  C8  UNL     1      15.451  11.892  -4.998  1.00  0.00     0.254 A 
HETATM   13  C6  UNL     1      15.823  10.681  -4.292  1.00  0.00     0.042 A 
HETATM   14  O2  UNL     1      14.411  12.085  -5.688  1.00  0.00    -0.267 OA
HETATM   15  C5  UNL     1      17.027  10.917  -3.676  1.00  0.00    -0.024 A 
HETATM   16  C7  UNL     1      15.200   9.431  -4.180  1.00  0.00     0.054 A 
HETATM   17  C4  UNL     1      17.588   9.868  -2.945  1.00  0.00     0.012 A 
HETATM   18  C24 UNL     1      17.470  12.310  -3.924  1.00  0.00     0.165 A 
HETATM   19  C3  UNL     1      16.972   8.644  -2.840  1.00  0.00     0.037 A 
HETATM   20  C2  UNL     1      15.763   8.416  -3.461  1.00  0.00     0.069 A 
BRANCH  20  21
HETATM   21  O1  UNL     1      15.134   7.174  -3.355  1.00  0.00    -0.356 OA
HETATM   22  C1  UNL     1      15.773   6.157  -2.607  1.00  0.00     0.210 C 
ENDBRANCH  20  21
ENDBRANCH  10  11
ENDBRANCH   1  10
BRANCH   1  23
HETATM   23  C11 UNL     1      18.562  14.528  -6.699  1.00  0.00    -0.019 A 
HETATM   24  C12 UNL     1      19.447  14.103  -7.649  1.00  0.00     0.011 A 
HETATM   25  C13 UNL     1      20.812  14.405  -7.564  1.00  0.00     0.013 A 
HETATM   26  C14 UNL     1      21.298  15.142  -6.509  1.00  0.00    -0.025 A 
HETATM   27  C20 UNL     1      20.401  15.560  -5.567  1.00  0.00     0.013 A 
HETATM   28  C21 UNL     1      19.030  15.264  -5.643  1.00  0.00     0.011 A 
BRANCH  26  29
HETATM   29  C15 UNL     1      22.712  15.468  -6.398  1.00  0.00    -0.011 A 
HETATM   30  C16 UNL     1      23.655  14.912  -7.245  1.00  0.00     0.015 A 
HETATM   31  C17 UNL     1      24.997  15.225  -7.135  1.00  0.00     0.018 A 
HETATM   32  C18 UNL     1      25.427  16.103  -6.173  1.00  0.00     0.087 A 
HETATM   33  N2  UNL     1      24.510  16.643  -5.352  1.00  0.00    -0.374 N 
HETATM   34  C19 UNL     1      23.202  16.347  -5.447  1.00  0.00     0.099 A 
ATOM     35  H2  UNL     1      24.816  17.298  -4.633  1.00  0.00     0.164 HD
ENDBRANCH  26  29
ENDBRANCH   1  23
TORSDOF 5
ENDMDL
