MODEL 7
REMARK VINA RESULT: -8.752527156      4.877      7.171
REMARK  10 active torsions:
REMARK  status: ('A' for Active; 'I' for Inactive)
REMARK    1  A    between atoms: N5_13  and  C6_14 
REMARK    2  A    between atoms: C7_16  and  C8_17 
REMARK    3  A    between atoms: C8_17  and  O2_18 
REMARK    4  A    between atoms: O2_18  and  P1_19 
REMARK    5  A    between atoms: P1_19  and  O5_22 
REMARK    6  A    between atoms: O5_22  and  P2_23 
REMARK    7  A    between atoms: P2_23  and  O8_26 
REMARK    8  A    between atoms: O8_26  and  P3_27 
REMARK    9  A    between atoms: C9_31  and  O12_32 
REMARK   10  A    between atoms: C10_34  and  O13_35 
ROOT
HETATM    1  C6  UNL     1      29.503  -3.397   6.132  1.00  0.00     0.159 C 
HETATM    2  O1  UNL     1      28.406  -3.976   5.471  1.00  0.00    -0.326 OA
HETATM    3  C7  UNL     1      28.968  -4.976   4.793  1.00  0.00     0.186 C 
HETATM    4  C9  UNL     1      30.448  -5.175   5.146  1.00  0.00     0.186 C 
HETATM    5  C10 UNL     1      30.323  -4.558   6.569  1.00  0.00     0.224 C 
ENDROOT
BRANCH   3   6
HETATM    6  C8  UNL     1      28.422  -6.337   4.631  1.00  0.00     0.216 C 
BRANCH   6   7
HETATM    7  O2  UNL     1      27.778  -6.430   3.372  1.00  0.00    -0.287 OA
BRANCH   7   8
HETATM    8  P1  UNL     1      26.140  -6.009   3.804  1.00  0.00     0.417 P 
HETATM    9  O3  UNL     1      25.981  -6.096   5.235  1.00  0.00    -0.624 OA
HETATM   10  O4  UNL     1      26.104  -4.314   3.270  1.00  0.00    -0.624 OA
BRANCH   8  11
HETATM   11  O5  UNL     1      25.015  -6.784   2.841  1.00  0.00    -0.180 OA
BRANCH  11  12
HETATM   12  P2  UNL     1      23.433  -6.386   3.438  1.00  0.00     0.428 P 
HETATM   13  O6  UNL     1      23.334  -7.017   4.795  1.00  0.00    -0.624 OA
HETATM   14  O7  UNL     1      22.215  -6.873   2.416  1.00  0.00    -0.624 OA
BRANCH  12  15
HETATM   15  O8  UNL     1      23.417  -4.685   3.635  1.00  0.00    -0.173 OA
BRANCH  15  16
HETATM   16  P3  UNL     1      21.837  -4.129   3.571  1.00  0.00     0.431 P 
HETATM   17  O9  UNL     1      20.904  -4.918   4.422  1.00  0.00    -0.616 OA
HETATM   18  O10 UNL     1      21.845  -2.517   4.112  1.00  0.00    -0.616 OA
HETATM   19  O11 UNL     1      21.346  -4.200   1.947  1.00  0.00    -0.616 OA
ENDBRANCH  15  16
ENDBRANCH  12  15
ENDBRANCH  11  12
ENDBRANCH   8  11
ENDBRANCH   7   8
ENDBRANCH   6   7
ENDBRANCH   3   6
BRANCH   4  20
HETATM   20  O12 UNL     1      31.196  -4.380   4.338  1.00  0.00    -0.390 OA
ATOM     21  H12 UNL     1      32.112  -4.597   4.464  1.00  0.00     0.210 HD
ENDBRANCH   4  20
BRANCH   1  22
HETATM   22  N5  UNL     1      29.279  -2.319   6.963  1.00  0.00    -0.273 N 
HETATM   23  C3  UNL     1      28.396  -2.255   7.972  1.00  0.00     0.146 A 
HETATM   24  N3  UNL     1      27.426  -3.089   8.311  1.00  0.00    -0.336 N 
HETATM   25  C4  UNL     1      28.589  -1.133   8.709  1.00  0.00     0.120 A 
HETATM   26  C2  UNL     1      26.654  -2.812   9.376  1.00  0.00     0.183 A 
ATOM     27  H3  UNL     1      27.264  -3.936   7.767  1.00  0.00     0.168 HD
HETATM   28  N2  UNL     1      26.837  -1.711  10.127  1.00  0.00    -0.339 N 
HETATM   29  C1  UNL     1      27.807  -0.858   9.801  1.00  0.00     0.148 A 
ATOM     30  H2  UNL     1      26.240  -1.531  10.935  1.00  0.00     0.167 HD
HETATM   31  N1  UNL     1      28.085   0.218  10.674  1.00  0.00    -0.080 NA
HETATM   32  N4  UNL     1      29.611  -0.478   8.125  1.00  0.00    -0.346 N 
HETATM   33  C5  UNL     1      30.022  -1.199   7.065  1.00  0.00     0.192 A 
ATOM     34  H4  UNL     1      30.005   0.411   8.432  1.00  0.00     0.167 HD
ENDBRANCH   1  22
BRANCH   5  35
HETATM   35  O13 UNL     1      31.650  -4.295   6.882  1.00  0.00    -0.385 OA
ATOM     36  H13 UNL     1      32.118  -4.978   7.347  1.00  0.00     0.210 HD
ENDBRANCH   5  35
TORSDOF 10
ENDMDL
