MODEL 9
REMARK VINA RESULT: -8.553416962      5.174      7.413
REMARK  10 active torsions:
REMARK  status: ('A' for Active; 'I' for Inactive)
REMARK    1  A    between atoms: N5_13  and  C6_14 
REMARK    2  A    between atoms: C7_16  and  C8_17 
REMARK    3  A    between atoms: C8_17  and  O2_18 
REMARK    4  A    between atoms: O2_18  and  P1_19 
REMARK    5  A    between atoms: P1_19  and  O5_22 
REMARK    6  A    between atoms: O5_22  and  P2_23 
REMARK    7  A    between atoms: P2_23  and  O8_26 
REMARK    8  A    between atoms: O8_26  and  P3_27 
REMARK    9  A    between atoms: C9_31  and  O12_32 
REMARK   10  A    between atoms: C10_34  and  O13_35 
ROOT
HETATM    1  C6  UNL     1      27.570  -3.667   5.682  1.00  0.00     0.159 C 
HETATM    2  O1  UNL     1      26.340  -3.603   5.006  1.00  0.00    -0.326 OA
HETATM    3  C7  UNL     1      26.308  -4.761   4.346  1.00  0.00     0.186 C 
HETATM    4  C9  UNL     1      27.465  -5.694   4.728  1.00  0.00     0.186 C 
HETATM    5  C10 UNL     1      27.662  -5.077   6.144  1.00  0.00     0.224 C 
ENDROOT
BRANCH   3   6
HETATM    6  C8  UNL     1      25.137  -5.642   4.185  1.00  0.00     0.216 C 
BRANCH   6   7
HETATM    7  O2  UNL     1      24.445  -5.282   3.002  1.00  0.00    -0.287 OA
BRANCH   7   8
HETATM    8  P1  UNL     1      22.792  -5.575   3.479  1.00  0.00     0.417 P 
HETATM    9  O3  UNL     1      22.134  -6.374   2.474  1.00  0.00    -0.624 OA
HETATM   10  O4  UNL     1      23.059  -6.523   4.958  1.00  0.00    -0.624 OA
BRANCH   8  11
HETATM   11  O5  UNL     1      22.029  -4.181   3.997  1.00  0.00    -0.180 OA
BRANCH  11  12
HETATM   12  P2  UNL     1      22.432  -2.905   2.888  1.00  0.00     0.428 P 
HETATM   13  O6  UNL     1      22.332  -3.504   1.517  1.00  0.00    -0.624 OA
HETATM   14  O7  UNL     1      23.926  -2.239   3.186  1.00  0.00    -0.624 OA
BRANCH  12  15
HETATM   15  O8  UNL     1      21.198  -1.730   3.052  1.00  0.00    -0.173 OA
BRANCH  15  16
HETATM   16  P3  UNL     1      21.305  -0.627   1.794  1.00  0.00     0.431 P 
HETATM   17  O9  UNL     1      22.632  -0.638   1.118  1.00  0.00    -0.616 OA
HETATM   18  O10 UNL     1      20.107  -1.035   0.659  1.00  0.00    -0.616 OA
HETATM   19  O11 UNL     1      20.997   0.910   2.446  1.00  0.00    -0.616 OA
ENDBRANCH  15  16
ENDBRANCH  12  15
ENDBRANCH  11  12
ENDBRANCH   8  11
ENDBRANCH   7   8
ENDBRANCH   6   7
ENDBRANCH   3   6
BRANCH   4  20
HETATM   20  O12 UNL     1      28.527  -5.417   3.928  1.00  0.00    -0.390 OA
ATOM     21  H12 UNL     1      28.816  -6.223   3.519  1.00  0.00     0.210 HD
ENDBRANCH   4  20
BRANCH   1  22
HETATM   22  N5  UNL     1      27.929  -2.615   6.499  1.00  0.00    -0.273 N 
HETATM   23  C3  UNL     1      27.555  -2.427   7.775  1.00  0.00     0.146 A 
HETATM   24  N3  UNL     1      26.644  -3.060   8.499  1.00  0.00    -0.336 N 
HETATM   25  C4  UNL     1      28.259  -1.415   8.339  1.00  0.00     0.120 A 
HETATM   26  C2  UNL     1      26.436  -2.691   9.774  1.00  0.00     0.183 A 
ATOM     27  H3  UNL     1      26.103  -3.822   8.091  1.00  0.00     0.168 HD
HETATM   28  N2  UNL     1      27.133  -1.697  10.355  1.00  0.00    -0.339 N 
HETATM   29  C1  UNL     1      28.052  -1.047   9.643  1.00  0.00     0.148 A 
ATOM     30  H2  UNL     1      26.958  -1.444  11.328  1.00  0.00     0.167 HD
HETATM   31  N1  UNL     1      28.876  -0.105  10.299  1.00  0.00    -0.080 NA
HETATM   32  N4  UNL     1      29.079  -0.954   7.375  1.00  0.00    -0.346 N 
HETATM   33  C5  UNL     1      28.872  -1.683   6.262  1.00  0.00     0.192 A 
ATOM     34  H4  UNL     1      29.743  -0.186   7.472  1.00  0.00     0.167 HD
ENDBRANCH   1  22
BRANCH   5  35
HETATM   35  O13 UNL     1      28.928  -5.536   6.479  1.00  0.00    -0.385 OA
ATOM     36  H13 UNL     1      29.000  -6.459   6.695  1.00  0.00     0.210 HD
ENDBRANCH   5  35
TORSDOF 10
ENDMDL
