MODEL 3
REMARK VINA RESULT: -9.169333171      4.914      7.309
REMARK  10 active torsions:
REMARK  status: ('A' for Active; 'I' for Inactive)
REMARK    1  A    between atoms: N5_13  and  C6_14 
REMARK    2  A    between atoms: C7_16  and  C8_17 
REMARK    3  A    between atoms: C8_17  and  O2_18 
REMARK    4  A    between atoms: O2_18  and  P1_19 
REMARK    5  A    between atoms: P1_19  and  O5_22 
REMARK    6  A    between atoms: O5_22  and  P2_23 
REMARK    7  A    between atoms: P2_23  and  O8_26 
REMARK    8  A    between atoms: O8_26  and  P3_27 
REMARK    9  A    between atoms: C9_31  and  O12_32 
REMARK   10  A    between atoms: C10_34  and  O13_35 
ROOT
HETATM    1  C6  UNL     1      28.309  -3.515   6.055  1.00  0.00     0.159 C 
HETATM    2  O1  UNL     1      27.024  -3.760   5.543  1.00  0.00    -0.326 OA
HETATM    3  C7  UNL     1      27.201  -4.873   4.831  1.00  0.00     0.186 C 
HETATM    4  C9  UNL     1      28.599  -5.479   5.013  1.00  0.00     0.186 C 
HETATM    5  C10 UNL     1      28.821  -4.861   6.424  1.00  0.00     0.224 C 
ENDROOT
BRANCH   3   6
HETATM    6  C8  UNL     1      26.284  -6.027   4.770  1.00  0.00     0.216 C 
BRANCH   6   7
HETATM    7  O2  UNL     1      26.102  -6.403   3.416  1.00  0.00    -0.287 OA
BRANCH   7   8
HETATM    8  P1  UNL     1      24.395  -6.101   3.213  1.00  0.00     0.417 P 
HETATM    9  O3  UNL     1      23.881  -6.934   2.153  1.00  0.00    -0.624 OA
HETATM   10  O4  UNL     1      23.792  -6.653   4.791  1.00  0.00    -0.624 OA
BRANCH   8  11
HETATM   11  O5  UNL     1      24.044  -4.468   3.168  1.00  0.00    -0.180 OA
BRANCH  11  12
HETATM   12  P2  UNL     1      22.321  -4.294   3.016  1.00  0.00     0.428 P 
HETATM   13  O6  UNL     1      21.879  -3.514   4.218  1.00  0.00    -0.624 OA
HETATM   14  O7  UNL     1      21.535  -5.752   2.876  1.00  0.00    -0.624 OA
BRANCH  12  15
HETATM   15  O8  UNL     1      22.065  -3.328   1.625  1.00  0.00    -0.173 OA
BRANCH  15  16
HETATM   16  P3  UNL     1      22.280  -1.713   2.019  1.00  0.00     0.431 P 
HETATM   17  O9  UNL     1      22.525  -0.849   0.831  1.00  0.00    -0.616 OA
HETATM   18  O10 UNL     1      20.862  -1.188   2.796  1.00  0.00    -0.616 OA
HETATM   19  O11 UNL     1      23.599  -1.627   3.084  1.00  0.00    -0.616 OA
ENDBRANCH  15  16
ENDBRANCH  12  15
ENDBRANCH  11  12
ENDBRANCH   8  11
ENDBRANCH   7   8
ENDBRANCH   6   7
ENDBRANCH   3   6
BRANCH   4  20
HETATM   20  O12 UNL     1      29.436  -4.918   4.102  1.00  0.00    -0.390 OA
ATOM     21  H12 UNL     1      30.301  -4.848   4.488  1.00  0.00     0.210 HD
ENDBRANCH   4  20
BRANCH   1  22
HETATM   22  N5  UNL     1      28.494  -2.422   6.877  1.00  0.00    -0.273 N 
HETATM   23  C3  UNL     1      27.948  -2.229   8.088  1.00  0.00     0.146 A 
HETATM   24  N3  UNL     1      26.993  -2.902   8.711  1.00  0.00    -0.336 N 
HETATM   25  C4  UNL     1      28.509  -1.159   8.703  1.00  0.00     0.120 A 
HETATM   26  C2  UNL     1      26.601  -2.517   9.937  1.00  0.00     0.183 A 
ATOM     27  H3  UNL     1      26.558  -3.709   8.263  1.00  0.00     0.168 HD
HETATM   28  N2  UNL     1      27.153  -1.465  10.569  1.00  0.00    -0.339 N 
HETATM   29  C1  UNL     1      28.114  -0.774   9.959  1.00  0.00     0.148 A 
ATOM     30  H2  UNL     1      26.840  -1.201  11.503  1.00  0.00     0.167 HD
HETATM   31  N1  UNL     1      28.786   0.237  10.683  1.00  0.00    -0.080 NA
HETATM   32  N4  UNL     1      29.416  -0.668   7.837  1.00  0.00    -0.346 N 
HETATM   33  C5  UNL     1      29.399  -1.435   6.731  1.00  0.00     0.192 A 
ATOM     34  H4  UNL     1      30.013   0.144   7.992  1.00  0.00     0.167 HD
ENDBRANCH   1  22
BRANCH   5  35
HETATM   35  O13 UNL     1      30.197  -4.980   6.572  1.00  0.00    -0.385 OA
ATOM     36  H13 UNL     1      30.555  -4.723   7.414  1.00  0.00     0.210 HD
ENDBRANCH   5  35
TORSDOF 10
ENDMDL
