MODEL 2
REMARK VINA RESULT: -9.316613621      1.668      2.875
REMARK  10 active torsions:
REMARK  status: ('A' for Active; 'I' for Inactive)
REMARK    1  A    between atoms: N5_13  and  C6_14 
REMARK    2  A    between atoms: C7_16  and  C8_17 
REMARK    3  A    between atoms: C8_17  and  O2_18 
REMARK    4  A    between atoms: O2_18  and  P1_19 
REMARK    5  A    between atoms: P1_19  and  O5_22 
REMARK    6  A    between atoms: O5_22  and  P2_23 
REMARK    7  A    between atoms: P2_23  and  O8_26 
REMARK    8  A    between atoms: O8_26  and  P3_27 
REMARK    9  A    between atoms: C9_31  and  O12_32 
REMARK   10  A    between atoms: C10_34  and  O13_35 
ROOT
HETATM    1  C6  UNL     1      26.905  -6.089   5.202  1.00  0.00     0.159 C 
HETATM    2  O1  UNL     1      27.267  -5.703   6.503  1.00  0.00    -0.326 OA
HETATM    3  C7  UNL     1      28.598  -5.781   6.472  1.00  0.00     0.186 C 
HETATM    4  C9  UNL     1      29.143  -6.061   5.065  1.00  0.00     0.186 C 
HETATM    5  C10 UNL     1      27.919  -5.441   4.330  1.00  0.00     0.224 C 
ENDROOT
BRANCH   3   6
HETATM    6  C8  UNL     1      29.544  -4.821   7.070  1.00  0.00     0.216 C 
BRANCH   6   7
HETATM    7  O2  UNL     1      29.809  -3.789   6.135  1.00  0.00    -0.287 OA
BRANCH   7   8
HETATM    8  P1  UNL     1      29.004  -2.438   6.892  1.00  0.00     0.417 P 
HETATM    9  O3  UNL     1      29.670  -1.212   6.525  1.00  0.00    -0.624 OA
HETATM   10  O4  UNL     1      27.413  -2.546   6.107  1.00  0.00    -0.624 OA
BRANCH   8  11
HETATM   11  O5  UNL     1      28.701  -2.712   8.512  1.00  0.00    -0.180 OA
BRANCH  11  12
HETATM   12  P2  UNL     1      27.097  -2.142   8.862  1.00  0.00     0.428 P 
HETATM   13  O6  UNL     1      26.185  -3.310   8.634  1.00  0.00    -0.624 OA
HETATM   14  O7  UNL     1      26.672  -0.815   7.955  1.00  0.00    -0.624 OA
BRANCH  12  15
HETATM   15  O8  UNL     1      27.082  -1.767  10.532  1.00  0.00    -0.173 OA
BRANCH  15  16
HETATM   16  P3  UNL     1      28.085  -0.455  10.821  1.00  0.00     0.431 P 
HETATM   17  O9  UNL     1      29.053  -0.206   9.717  1.00  0.00    -0.616 OA
HETATM   18  O10 UNL     1      27.091   0.912  10.999  1.00  0.00    -0.616 OA
HETATM   19  O11 UNL     1      28.918  -0.769  12.267  1.00  0.00    -0.616 OA
ENDBRANCH  15  16
ENDBRANCH  12  15
ENDBRANCH  11  12
ENDBRANCH   8  11
ENDBRANCH   7   8
ENDBRANCH   6   7
ENDBRANCH   3   6
BRANCH   4  20
HETATM   20  O12 UNL     1      29.189  -7.405   4.878  1.00  0.00    -0.390 OA
ATOM     21  H12 UNL     1      29.524  -7.579   4.007  1.00  0.00     0.210 HD
ENDBRANCH   4  20
BRANCH   1  22
HETATM   22  N5  UNL     1      25.567  -6.103   4.866  1.00  0.00    -0.273 N 
HETATM   23  C3  UNL     1      24.879  -5.112   4.278  1.00  0.00     0.146 A 
HETATM   24  N3  UNL     1      25.225  -3.856   4.041  1.00  0.00    -0.336 N 
HETATM   25  C4  UNL     1      23.649  -5.538   3.900  1.00  0.00     0.120 A 
HETATM   26  C2  UNL     1      24.357  -3.031   3.431  1.00  0.00     0.183 A 
ATOM     27  H3  UNL     1      26.146  -3.516   4.320  1.00  0.00     0.168 HD
HETATM   28  N2  UNL     1      23.136  -3.439   3.038  1.00  0.00    -0.339 N 
HETATM   29  C1  UNL     1      22.768  -4.698   3.269  1.00  0.00     0.148 A 
ATOM     30  H2  UNL     1      22.501  -2.792   2.570  1.00  0.00     0.167 HD
HETATM   31  N1  UNL     1      21.546  -5.156   2.728  1.00  0.00    -0.080 NA
HETATM   32  N4  UNL     1      23.571  -6.827   4.284  1.00  0.00    -0.346 N 
HETATM   33  C5  UNL     1      24.735  -7.162   4.872  1.00  0.00     0.192 A 
ATOM     34  H4  UNL     1      22.769  -7.443   4.152  1.00  0.00     0.167 HD
ENDBRANCH   1  22
BRANCH   5  35
HETATM   35  O13 UNL     1      28.061  -5.964   3.052  1.00  0.00    -0.385 OA
ATOM     36  H13 UNL     1      28.920  -5.883   2.655  1.00  0.00     0.210 HD
ENDBRANCH   5  35
TORSDOF 10
ENDMDL
