MODEL 12
REMARK VINA RESULT: -8.498746958      1.686      2.534
REMARK  10 active torsions:
REMARK  status: ('A' for Active; 'I' for Inactive)
REMARK    1  A    between atoms: N5_13  and  C6_14 
REMARK    2  A    between atoms: C7_16  and  C8_17 
REMARK    3  A    between atoms: C8_17  and  O2_18 
REMARK    4  A    between atoms: O2_18  and  P1_19 
REMARK    5  A    between atoms: P1_19  and  O5_22 
REMARK    6  A    between atoms: O5_22  and  P2_23 
REMARK    7  A    between atoms: P2_23  and  O8_26 
REMARK    8  A    between atoms: O8_26  and  P3_27 
REMARK    9  A    between atoms: C9_31  and  O12_32 
REMARK   10  A    between atoms: C10_34  and  O13_35 
ROOT
HETATM    1  C6  UNL     1      26.671  -5.723   4.567  1.00  0.00     0.159 C 
HETATM    2  O1  UNL     1      26.744  -5.624   5.967  1.00  0.00    -0.326 OA
HETATM    3  C7  UNL     1      27.896  -6.237   6.243  1.00  0.00     0.186 C 
HETATM    4  C9  UNL     1      28.692  -6.600   4.983  1.00  0.00     0.186 C 
HETATM    5  C10 UNL     1      28.063  -5.477   4.108  1.00  0.00     0.224 C 
ENDROOT
BRANCH   3   6
HETATM    6  C8  UNL     1      28.905  -5.798   7.225  1.00  0.00     0.216 C 
BRANCH   6   7
HETATM    7  O2  UNL     1      29.684  -4.760   6.656  1.00  0.00    -0.287 OA
BRANCH   7   8
HETATM    8  P1  UNL     1      28.867  -3.349   7.279  1.00  0.00     0.417 P 
HETATM    9  O3  UNL     1      29.841  -2.393   7.745  1.00  0.00    -0.624 OA
HETATM   10  O4  UNL     1      28.078  -2.768   5.796  1.00  0.00    -0.624 OA
BRANCH   8  11
HETATM   11  O5  UNL     1      27.608  -3.750   8.303  1.00  0.00    -0.180 OA
BRANCH  11  12
HETATM   12  P2  UNL     1      27.067  -2.294   9.082  1.00  0.00     0.428 P 
HETATM   13  O6  UNL     1      25.676  -2.578   9.564  1.00  0.00    -0.624 OA
HETATM   14  O7  UNL     1      27.139  -0.964   8.087  1.00  0.00    -0.624 OA
BRANCH  12  15
HETATM   15  O8  UNL     1      28.076  -2.087  10.449  1.00  0.00    -0.173 OA
BRANCH  15  16
HETATM   16  P3  UNL     1      28.357  -0.452  10.695  1.00  0.00     0.431 P 
HETATM   17  O9  UNL     1      27.124   0.375  10.590  1.00  0.00    -0.616 OA
HETATM   18  O10 UNL     1      29.003  -0.279  12.259  1.00  0.00    -0.616 OA
HETATM   19  O11 UNL     1      29.491   0.042   9.534  1.00  0.00    -0.616 OA
ENDBRANCH  15  16
ENDBRANCH  12  15
ENDBRANCH  11  12
ENDBRANCH   8  11
ENDBRANCH   7   8
ENDBRANCH   6   7
ENDBRANCH   3   6
BRANCH   4  20
HETATM   20  O12 UNL     1      28.293  -7.826   4.557  1.00  0.00    -0.390 OA
ATOM     21  H12 UNL     1      27.369  -7.928   4.751  1.00  0.00     0.210 HD
ENDBRANCH   4  20
BRANCH   1  22
HETATM   22  N5  UNL     1      25.588  -5.162   3.922  1.00  0.00    -0.273 N 
HETATM   23  C3  UNL     1      24.472  -5.798   3.530  1.00  0.00     0.146 A 
HETATM   24  N3  UNL     1      24.198  -7.092   3.488  1.00  0.00    -0.336 N 
HETATM   25  C4  UNL     1      23.531  -4.910   3.125  1.00  0.00     0.120 A 
HETATM   26  C2  UNL     1      22.995  -7.502   3.048  1.00  0.00     0.183 A 
ATOM     27  H3  UNL     1      24.894  -7.775   3.786  1.00  0.00     0.168 HD
HETATM   28  N2  UNL     1      22.044  -6.637   2.653  1.00  0.00    -0.339 N 
HETATM   29  C1  UNL     1      22.301  -5.330   2.686  1.00  0.00     0.148 A 
ATOM     30  H2  UNL     1      21.137  -6.977   2.332  1.00  0.00     0.167 HD
HETATM   31  N1  UNL     1      21.252  -4.426   2.407  1.00  0.00    -0.080 NA
HETATM   32  N4  UNL     1      24.091  -3.692   3.255  1.00  0.00    -0.346 N 
HETATM   33  C5  UNL     1      25.339  -3.852   3.734  1.00  0.00     0.192 A 
ATOM     34  H4  UNL     1      23.646  -2.802   3.029  1.00  0.00     0.167 HD
ENDBRANCH   1  22
BRANCH   5  35
HETATM   35  O13 UNL     1      28.376  -5.908   2.826  1.00  0.00    -0.385 OA
ATOM     36  H13 UNL     1      29.298  -5.916   2.595  1.00  0.00     0.210 HD
ENDBRANCH   5  35
TORSDOF 10
ENDMDL
