MODEL 5
REMARK VINA RESULT: -5.924523338      3.141      5.581
REMARK  3 active torsions:
REMARK  status: ('A' for Active; 'I' for Inactive)
REMARK    1  A    between atoms: N5_13  and  C6_14 
REMARK    2  A    between atoms: C8_17  and  O2_18 
REMARK    3  A    between atoms: C9_20  and  O3_21 
ROOT
HETATM    1  N1  UNL     1      18.723  -8.693   9.446  1.00  0.00    -0.080 NA
HETATM    2  C1  UNL     1      20.025  -8.136   9.249  1.00  0.00     0.148 A 
HETATM    3  N2  UNL     1      20.315  -7.298   8.243  1.00  0.00    -0.339 N 
ATOM      4  H2  UNL     1      19.578  -7.043   7.585  1.00  0.00     0.167 HD
HETATM    5  C2  UNL     1      21.538  -6.789   8.077  1.00  0.00     0.183 A 
HETATM    6  N3  UNL     1      22.529  -7.107   8.927  1.00  0.00    -0.336 N 
ATOM      7  H3  UNL     1      23.462  -6.716   8.796  1.00  0.00     0.168 HD
HETATM    8  C3  UNL     1      22.285  -7.944   9.952  1.00  0.00     0.142 A 
HETATM    9  C4  UNL     1      21.025  -8.482  10.141  1.00  0.00     0.119 A 
HETATM   10  N4  UNL     1      21.040  -9.290  11.238  1.00  0.00    -0.346 N 
ATOM     11  H4  UNL     1      20.257  -9.820  11.621  1.00  0.00     0.167 HD
HETATM   12  C5  UNL     1      22.297  -9.246  11.713  1.00  0.00     0.188 A 
HETATM   13  N5  UNL     1      23.056  -8.441  10.950  1.00  0.00    -0.297 N 
ENDROOT
BRANCH  13  14
HETATM   14  C6  UNL     1      24.455  -8.155  11.161  1.00  0.00     0.261 C 
HETATM   15  O1  UNL     1      25.282  -8.910  10.344  1.00  0.00    -0.361 OA
HETATM   16  C7  UNL     1      26.292  -9.440  11.093  1.00  0.00     0.205 C 
HETATM   17  C8  UNL     1      25.748  -9.568  12.512  1.00  0.00     0.175 C 
HETATM   18  C9  UNL     1      24.888  -8.320  12.576  1.00  0.00     0.198 C 
BRANCH  17  19
HETATM   19  O2  UNL     1      26.776  -9.527  13.449  1.00  0.00    -0.391 OA
ATOM     20  H2  UNL     1      26.709  -8.754  13.996  1.00  0.00     0.210 HD
ENDBRANCH  17  19
BRANCH  18  21
HETATM   21  O3  UNL     1      25.747  -7.277  12.952  1.00  0.00    -0.389 OA
ATOM     22  H3  UNL     1      26.290  -7.540  13.686  1.00  0.00     0.210 HD
ENDBRANCH  18  21
ENDBRANCH  13  14
TORSDOF 3
ENDMDL
