MODEL 7
REMARK VINA RESULT: -5.783347762      3.145      5.799
REMARK  3 active torsions:
REMARK  status: ('A' for Active; 'I' for Inactive)
REMARK    1  A    between atoms: N5_13  and  C6_14 
REMARK    2  A    between atoms: C8_17  and  O2_18 
REMARK    3  A    between atoms: C9_20  and  O3_21 
ROOT
HETATM    1  N1  UNL     1      17.828  -9.958   9.441  1.00  0.00    -0.080 NA
HETATM    2  C1  UNL     1      19.105  -9.461   9.037  1.00  0.00     0.148 A 
HETATM    3  N2  UNL     1      19.413  -9.197   7.759  1.00  0.00    -0.339 N 
ATOM      4  H2  UNL     1      18.709  -9.356   7.038  1.00  0.00     0.167 HD
HETATM    5  C2  UNL     1      20.614  -8.733   7.401  1.00  0.00     0.183 A 
HETATM    6  N3  UNL     1      21.562  -8.515   8.328  1.00  0.00    -0.336 N 
ATOM      7  H3  UNL     1      22.477  -8.160   8.050  1.00  0.00     0.168 HD
HETATM    8  C3  UNL     1      21.299  -8.765   9.623  1.00  0.00     0.142 A 
HETATM    9  C4  UNL     1      20.062  -9.245  10.013  1.00  0.00     0.119 A 
HETATM   10  N4  UNL     1      20.050  -9.414  11.366  1.00  0.00    -0.346 N 
ATOM     11  H4  UNL     1      19.275  -9.754  11.935  1.00  0.00     0.167 HD
HETATM   12  C5  UNL     1      21.268  -9.040  11.796  1.00  0.00     0.188 A 
HETATM   13  N5  UNL     1      22.028  -8.648  10.759  1.00  0.00    -0.297 N 
ENDROOT
BRANCH  13  14
HETATM   14  C6  UNL     1      23.391  -8.181  10.846  1.00  0.00     0.261 C 
HETATM   15  O1  UNL     1      24.157  -8.565   9.756  1.00  0.00    -0.361 OA
HETATM   16  C7  UNL     1      25.345  -9.072  10.197  1.00  0.00     0.205 C 
HETATM   17  C8  UNL     1      25.079  -9.624  11.593  1.00  0.00     0.175 C 
HETATM   18  C9  UNL     1      24.084  -8.595  12.096  1.00  0.00     0.198 C 
BRANCH  17  19
HETATM   19  O2  UNL     1      26.241  -9.626  12.360  1.00  0.00    -0.391 OA
ATOM     20  H2  UNL     1      26.714 -10.444  12.260  1.00  0.00     0.210 HD
ENDBRANCH  17  19
BRANCH  18  21
HETATM   21  O3  UNL     1      24.846  -7.538  12.611  1.00  0.00    -0.389 OA
ATOM     22  H3  UNL     1      25.766  -7.657  12.402  1.00  0.00     0.210 HD
ENDBRANCH  18  21
ENDBRANCH  13  14
TORSDOF 3
ENDMDL
