MODEL 6
REMARK VINA RESULT: -5.852401333      3.115      5.427
REMARK  3 active torsions:
REMARK  status: ('A' for Active; 'I' for Inactive)
REMARK    1  A    between atoms: N5_13  and  C6_14 
REMARK    2  A    between atoms: C8_17  and  O2_18 
REMARK    3  A    between atoms: C9_20  and  O3_21 
ROOT
HETATM    1  N1  UNL     1      20.043  -6.825   8.352  1.00  0.00    -0.080 NA
HETATM    2  C1  UNL     1      20.523  -7.641   9.422  1.00  0.00     0.148 A 
HETATM    3  N2  UNL     1      19.709  -8.252  10.294  1.00  0.00    -0.339 N 
ATOM      4  H2  UNL     1      18.700  -8.134  10.196  1.00  0.00     0.167 HD
HETATM    5  C2  UNL     1      20.178  -9.012  11.288  1.00  0.00     0.183 A 
HETATM    6  N3  UNL     1      21.502  -9.186  11.444  1.00  0.00    -0.336 N 
ATOM      7  H3  UNL     1      21.855  -9.767  12.204  1.00  0.00     0.168 HD
HETATM    8  C3  UNL     1      22.358  -8.593  10.592  1.00  0.00     0.142 A 
HETATM    9  C4  UNL     1      21.890  -7.803   9.558  1.00  0.00     0.119 A 
HETATM   10  N4  UNL     1      22.949  -7.322   8.845  1.00  0.00    -0.346 N 
ATOM     11  H4  UNL     1      22.913  -6.714   8.027  1.00  0.00     0.167 HD
HETATM   12  C5  UNL     1      24.049  -7.814   9.440  1.00  0.00     0.188 A 
HETATM   13  N5  UNL     1      23.709  -8.579  10.491  1.00  0.00    -0.297 N 
ENDROOT
BRANCH  13  14
HETATM   14  C6  UNL     1      24.630  -9.268  11.363  1.00  0.00     0.261 C 
HETATM   15  O1  UNL     1      24.426  -8.965  12.701  1.00  0.00    -0.361 OA
HETATM   16  C7  UNL     1      25.627  -8.683  13.285  1.00  0.00     0.205 C 
HETATM   17  C8  UNL     1      26.529  -8.160  12.173  1.00  0.00     0.175 C 
HETATM   18  C9  UNL     1      26.060  -9.032  11.024  1.00  0.00     0.198 C 
BRANCH  17  19
HETATM   19  O2  UNL     1      27.870  -8.385  12.469  1.00  0.00    -0.391 OA
ATOM     20  H2  UNL     1      28.436  -7.942  11.847  1.00  0.00     0.210 HD
ENDBRANCH  17  19
BRANCH  18  21
HETATM   21  O3  UNL     1      26.791 -10.224  11.118  1.00  0.00    -0.389 OA
ATOM     22  H3  UNL     1      26.560 -10.696  11.910  1.00  0.00     0.210 HD
ENDBRANCH  18  21
ENDBRANCH  13  14
TORSDOF 3
ENDMDL
