MODEL 1
REMARK VINA RESULT: -7.179677688      0.000      0.000
REMARK  3 active torsions:
REMARK  status: ('A' for Active; 'I' for Inactive)
REMARK    1  A    between atoms: N5_13  and  C6_14 
REMARK    2  A    between atoms: C8_17  and  O2_18 
REMARK    3  A    between atoms: C9_20  and  O3_21 
ROOT
HETATM    1  N1  UNL     1      28.013  -9.278  12.014  1.00  0.00    -0.080 NA
HETATM    2  C1  UNL     1      26.649  -8.900  12.204  1.00  0.00     0.148 A 
HETATM    3  N2  UNL     1      26.231  -8.186  13.259  1.00  0.00    -0.339 N 
ATOM      4  H2  UNL     1      26.913  -7.896  13.961  1.00  0.00     0.167 HD
HETATM    5  C2  UNL     1      24.950  -7.842  13.419  1.00  0.00     0.183 A 
HETATM    6  N3  UNL     1      24.029  -8.209  12.512  1.00  0.00    -0.336 N 
ATOM      7  H3  UNL     1      23.052  -7.945  12.638  1.00  0.00     0.168 HD
HETATM    8  C3  UNL     1      24.401  -8.927  11.436  1.00  0.00     0.142 A 
HETATM    9  C4  UNL     1      25.723  -9.292  11.254  1.00  0.00     0.119 A 
HETATM   10  N4  UNL     1      25.837 -10.007  10.099  1.00  0.00    -0.346 N 
ATOM     11  H4  UNL     1      26.689 -10.407   9.706  1.00  0.00     0.167 HD
HETATM   12  C5  UNL     1      24.597 -10.077   9.583  1.00  0.00     0.188 A 
HETATM   13  N5  UNL     1      23.725  -9.433  10.377  1.00  0.00    -0.297 N 
ENDROOT
BRANCH  13  14
HETATM   14  C6  UNL     1      22.308  -9.302  10.137  1.00  0.00     0.261 C 
HETATM   15  O1  UNL     1      22.006  -9.152   8.792  1.00  0.00    -0.361 OA
HETATM   16  C7  UNL     1      21.124  -8.122   8.641  1.00  0.00     0.205 C 
HETATM   17  C8  UNL     1      21.363  -7.182   9.817  1.00  0.00     0.175 C 
HETATM   18  C9  UNL     1      21.674  -8.194  10.903  1.00  0.00     0.198 C 
BRANCH  17  19
HETATM   19  O2  UNL     1      20.217  -6.450  10.115  1.00  0.00    -0.391 OA
ATOM     20  H2  UNL     1      20.423  -5.700  10.660  1.00  0.00     0.210 HD
ENDBRANCH  17  19
BRANCH  18  21
HETATM   21  O3  UNL     1      20.436  -8.599  11.421  1.00  0.00    -0.389 OA
ATOM     22  H3  UNL     1      20.558  -9.148  12.187  1.00  0.00     0.210 HD
ENDBRANCH  18  21
ENDBRANCH  13  14
TORSDOF 3
ENDMDL
