MODEL 3
REMARK VINA RESULT: -6.844989330      1.114      1.704
REMARK  3 active torsions:
REMARK  status: ('A' for Active; 'I' for Inactive)
REMARK    1  A    between atoms: N5_13  and  C6_14 
REMARK    2  A    between atoms: C8_17  and  O2_18 
REMARK    3  A    between atoms: C9_20  and  O3_21 
ROOT
HETATM    1  N1  UNL     1      27.568  -9.975  12.008  1.00  0.00    -0.080 NA
HETATM    2  C1  UNL     1      26.388  -9.216  12.278  1.00  0.00     0.148 A 
HETATM    3  N2  UNL     1      26.224  -8.499  13.399  1.00  0.00    -0.339 N 
ATOM      4  H2  UNL     1      26.971  -8.490  14.094  1.00  0.00     0.167 HD
HETATM    5  C2  UNL     1      25.113  -7.796  13.634  1.00  0.00     0.183 A 
HETATM    6  N3  UNL     1      24.112  -7.788  12.737  1.00  0.00    -0.336 N 
ATOM      7  H3  UNL     1      23.265  -7.249  12.920  1.00  0.00     0.168 HD
HETATM    8  C3  UNL     1      24.231  -8.492  11.597  1.00  0.00     0.142 A 
HETATM    9  C4  UNL     1      25.374  -9.226  11.337  1.00  0.00     0.119 A 
HETATM   10  N4  UNL     1      25.248  -9.843  10.128  1.00  0.00    -0.346 N 
ATOM     11  H4  UNL     1      25.930 -10.450   9.674  1.00  0.00     0.167 HD
HETATM   12  C5  UNL     1      24.040  -9.489   9.656  1.00  0.00     0.188 A 
HETATM   13  N5  UNL     1      23.418  -8.677  10.529  1.00  0.00    -0.297 N 
ENDROOT
BRANCH  13  14
HETATM   14  C6  UNL     1      22.106  -8.101  10.355  1.00  0.00     0.261 C 
HETATM   15  O1  UNL     1      21.201  -8.535  11.312  1.00  0.00    -0.361 OA
HETATM   16  C7  UNL     1      20.039  -8.902  10.699  1.00  0.00     0.205 C 
HETATM   17  C8  UNL     1      20.420  -9.329   9.285  1.00  0.00     0.175 C 
HETATM   18  C9  UNL     1      21.530  -8.334   9.002  1.00  0.00     0.198 C 
BRANCH  17  19
HETATM   19  O2  UNL     1      19.353  -9.166   8.408  1.00  0.00    -0.391 OA
ATOM     20  H2  UNL     1      19.624  -9.314   7.509  1.00  0.00     0.210 HD
ENDBRANCH  17  19
BRANCH  18  21
HETATM   21  O3  UNL     1      20.899  -7.175   8.530  1.00  0.00    -0.389 OA
ATOM     22  H3  UNL     1      20.413  -7.359   7.734  1.00  0.00     0.210 HD
ENDBRANCH  18  21
ENDBRANCH  13  14
TORSDOF 3
ENDMDL
