MODEL 1
REMARK VINA RESULT: -9.852461652      0.000      0.000
REMARK  14 active torsions:
REMARK  status: ('A' for Active; 'I' for Inactive)
REMARK    1  A    between atoms: C1_2  and  C2_4 
REMARK    2  A    between atoms: C2_4  and  C3_5 
REMARK    3  A    between atoms: C2_4  and  N2_10 
REMARK    4  A    between atoms: C3_5  and  C4_6 
REMARK    5  A    between atoms: C4_6  and  C5_7 
REMARK       I    between atoms: N2_10  and  C6_12 
REMARK    6  A    between atoms: C6_12  and  C7_14 
REMARK    7  A    between atoms: C7_14  and  C8_15 
REMARK    8  A    between atoms: C7_14  and  N3_20 
REMARK    9  A    between atoms: C8_15  and  C9_16 
REMARK   10  A    between atoms: C9_16  and  C10_17 
REMARK       I    between atoms: N3_20  and  C11_22 
REMARK   11  A    between atoms: C11_22  and  C12_24 
REMARK   12  A    between atoms: C12_24  and  C13_25 
REMARK   13  A    between atoms: C13_25  and  C14_26 
REMARK   14  A    between atoms: C16_28  and  C17_29 
ROOT
HETATM    1  C7  UNL     1       8.201  25.993   3.222  1.00  0.00     0.177 C 
ENDROOT
BRANCH   1   2
HETATM    2  C6  UNL     1       8.307  26.049   1.752  1.00  0.00     0.241 C 
HETATM    3  N2  UNL     1       9.522  26.173   1.021  1.00  0.00    -0.346 N 
ATOM      4  H2  UNL     1      10.424  26.230   1.494  1.00  0.00     0.163 HD
HETATM    5  O4  UNL     1       7.213  25.988   1.085  1.00  0.00    -0.271 OA
BRANCH   3   6
HETATM    6  C2  UNL     1       9.419  26.215  -0.437  1.00  0.00     0.174 C 
BRANCH   6   7
HETATM    7  C1  UNL     1       9.251  24.838  -0.956  1.00  0.00     0.254 C 
HETATM    8  N1  UNL     1       8.484  24.535  -2.114  1.00  0.00    -0.060 NA
HETATM    9  O1  UNL     1       9.788  23.856  -0.389  1.00  0.00    -0.275 OA
ENDBRANCH   6   7
BRANCH   6  10
HETATM   10  C3  UNL     1      10.674  26.869  -0.979  1.00  0.00     0.045 C 
BRANCH  10  11
HETATM   11  C4  UNL     1      11.835  26.854  -0.058  1.00  0.00     0.116 C 
BRANCH  11  12
HETATM   12  C5  UNL     1      13.054  27.512  -0.537  1.00  0.00     0.172 C 
HETATM   13  O2  UNL     1      13.099  28.692  -0.918  1.00  0.00    -0.648 OA
HETATM   14  O3  UNL     1      14.223  26.773  -0.568  1.00  0.00    -0.648 OA
ENDBRANCH  11  12
ENDBRANCH  10  11
ENDBRANCH   6  10
ENDBRANCH   3   6
ENDBRANCH   1   2
BRANCH   1  15
HETATM   15  C8  UNL     1       9.524  26.306   3.844  1.00  0.00     0.045 C 
BRANCH  15  16
HETATM   16  C9  UNL     1       9.496  27.536   4.661  1.00  0.00     0.116 C 
BRANCH  16  17
HETATM   17  C10 UNL     1       9.578  28.768   3.788  1.00  0.00     0.172 C 
HETATM   18  O5  UNL     1       8.947  29.812   4.056  1.00  0.00    -0.648 OA
HETATM   19  O6  UNL     1      10.383  28.701   2.670  1.00  0.00    -0.648 OA
ENDBRANCH  16  17
ENDBRANCH  15  16
ENDBRANCH   1  15
BRANCH   1  20
HETATM   20  N3  UNL     1       7.860  24.577   3.552  1.00  0.00    -0.348 N 
HETATM   21  C11 UNL     1       7.119  24.243   4.709  1.00  0.00     0.218 C 
HETATM   22  O7  UNL     1       6.750  25.191   5.469  1.00  0.00    -0.274 OA
ATOM     23  H3  UNL     1       8.170  23.833   2.927  1.00  0.00     0.163 HD
BRANCH  21  24
HETATM   24  C12 UNL     1       6.798  22.820   5.003  1.00  0.00     0.109 C 
BRANCH  24  25
HETATM   25  C13 UNL     1       6.187  22.763   6.401  1.00  0.00     0.076 C 
BRANCH  25  26
HETATM   26  C14 UNL     1       4.714  22.768   6.208  1.00  0.00     0.079 A 
HETATM   27  C15 UNL     1       3.786  22.168   7.063  1.00  0.00     0.067 A 
HETATM   28  C16 UNL     1       2.536  22.397   6.538  1.00  0.00     0.067 A 
HETATM   29  N4  UNL     1       2.732  23.105   5.419  1.00  0.00    -0.260 N 
HETATM   30  O8  UNL     1       4.008  23.317   5.234  1.00  0.00    -0.242 OA
ATOM     31  H4  UNL     1       1.991  23.433   4.799  1.00  0.00     0.195 HD
BRANCH  28  32
HETATM   32  C17 UNL     1       1.258  21.969   7.073  1.00  0.00    -0.007 A 
HETATM   33  C18 UNL     1       1.171  20.955   8.007  1.00  0.00     0.014 A 
HETATM   34  C19 UNL     1      -0.068  20.598   8.469  1.00  0.00     0.001 A 
HETATM   35  C20 UNL     1      -1.232  21.199   8.050  1.00  0.00     0.000 A 
HETATM   36  C21 UNL     1      -1.138  22.221   7.108  1.00  0.00     0.001 A 
HETATM   37  C22 UNL     1       0.104  22.580   6.644  1.00  0.00     0.014 A 
ENDBRANCH  28  32
ENDBRANCH  25  26
ENDBRANCH  24  25
ENDBRANCH  21  24
ENDBRANCH   1  20
TORSDOF 14
ENDMDL
