MODEL 6
REMARK VINA RESULT: -9.607093051      2.415      4.658
REMARK  14 active torsions:
REMARK  status: ('A' for Active; 'I' for Inactive)
REMARK    1  A    between atoms: C1_2  and  C2_4 
REMARK    2  A    between atoms: C2_4  and  C3_5 
REMARK    3  A    between atoms: C2_4  and  N2_10 
REMARK    4  A    between atoms: C3_5  and  C4_6 
REMARK    5  A    between atoms: C4_6  and  C5_7 
REMARK       I    between atoms: N2_10  and  C6_12 
REMARK    6  A    between atoms: C6_12  and  C7_14 
REMARK    7  A    between atoms: C7_14  and  C8_15 
REMARK    8  A    between atoms: C7_14  and  N3_20 
REMARK    9  A    between atoms: C8_15  and  C9_16 
REMARK   10  A    between atoms: C9_16  and  C10_17 
REMARK       I    between atoms: N3_20  and  C11_22 
REMARK   11  A    between atoms: C11_22  and  C12_24 
REMARK   12  A    between atoms: C12_24  and  C13_25 
REMARK   13  A    between atoms: C13_25  and  C14_26 
REMARK   14  A    between atoms: C16_28  and  C17_29 
ROOT
HETATM    1  C7  UNL     1       8.720  25.403   2.784  1.00  0.00     0.177 C 
ENDROOT
BRANCH   1   2
HETATM    2  C6  UNL     1       9.071  26.715   3.360  1.00  0.00     0.241 C 
HETATM    3  N2  UNL     1       8.157  27.783   3.586  1.00  0.00    -0.346 N 
ATOM      4  H2  UNL     1       7.168  27.694   3.356  1.00  0.00     0.163 HD
HETATM    5  O4  UNL     1      10.300  26.906   3.671  1.00  0.00    -0.271 OA
BRANCH   3   6
HETATM    6  C2  UNL     1       8.701  29.011   4.165  1.00  0.00     0.174 C 
BRANCH   6   7
HETATM    7  C1  UNL     1       8.015  29.295   5.446  1.00  0.00     0.254 C 
HETATM    8  N1  UNL     1       7.057  28.417   6.023  1.00  0.00    -0.060 NA
HETATM    9  O1  UNL     1       8.251  30.343   6.096  1.00  0.00    -0.275 OA
ENDBRANCH   6   7
BRANCH   6  10
HETATM   10  C3  UNL     1       8.503  30.132   3.163  1.00  0.00     0.045 C 
BRANCH  10  11
HETATM   11  C4  UNL     1       7.098  30.360   2.751  1.00  0.00     0.116 C 
BRANCH  11  12
HETATM   12  C5  UNL     1       6.768  30.041   1.359  1.00  0.00     0.172 C 
HETATM   13  O2  UNL     1       7.065  28.970   0.807  1.00  0.00    -0.648 OA
HETATM   14  O3  UNL     1       6.089  30.990   0.616  1.00  0.00    -0.648 OA
ENDBRANCH  11  12
ENDBRANCH  10  11
ENDBRANCH   6  10
ENDBRANCH   3   6
ENDBRANCH   1   2
BRANCH   1  15
HETATM   15  C8  UNL     1       8.016  25.589   1.478  1.00  0.00     0.045 C 
BRANCH  15  16
HETATM   16  C9  UNL     1       8.942  25.880   0.365  1.00  0.00     0.116 C 
BRANCH  16  17
HETATM   17  C10 UNL     1       9.011  24.716  -0.599  1.00  0.00     0.172 C 
HETATM   18  O5  UNL     1       9.681  23.691  -0.353  1.00  0.00    -0.648 OA
HETATM   19  O6  UNL     1       8.301  24.825  -1.777  1.00  0.00    -0.648 OA
ENDBRANCH  16  17
ENDBRANCH  15  16
ENDBRANCH   1  15
BRANCH   1  20
HETATM   20  N3  UNL     1       7.757  24.784   3.742  1.00  0.00    -0.348 N 
HETATM   21  C11 UNL     1       8.194  23.944   4.793  1.00  0.00     0.218 C 
HETATM   22  O7  UNL     1       9.441  23.727   4.897  1.00  0.00    -0.274 OA
ATOM     23  H3  UNL     1       6.760  24.971   3.636  1.00  0.00     0.163 HD
BRANCH  21  24
HETATM   24  C12 UNL     1       7.205  23.346   5.729  1.00  0.00     0.109 C 
BRANCH  24  25
HETATM   25  C13 UNL     1       5.812  23.750   5.251  1.00  0.00     0.076 C 
BRANCH  25  26
HETATM   26  C14 UNL     1       4.853  22.926   6.030  1.00  0.00     0.079 A 
HETATM   27  C15 UNL     1       3.465  23.085   6.028  1.00  0.00     0.067 A 
HETATM   28  C16 UNL     1       2.940  22.133   6.870  1.00  0.00     0.067 A 
HETATM   29  N4  UNL     1       3.988  21.446   7.344  1.00  0.00    -0.260 N 
HETATM   30  O8  UNL     1       5.101  21.916   6.847  1.00  0.00    -0.242 OA
ATOM     31  H4  UNL     1       3.926  20.666   7.998  1.00  0.00     0.195 HD
BRANCH  28  32
HETATM   32  C17 UNL     1       1.545  21.905   7.191  1.00  0.00    -0.007 A 
HETATM   33  C18 UNL     1       1.158  20.887   8.040  1.00  0.00     0.014 A 
HETATM   34  C19 UNL     1      -0.177  20.725   8.298  1.00  0.00     0.001 A 
HETATM   35  C20 UNL     1      -1.154  21.525   7.754  1.00  0.00     0.000 A 
HETATM   36  C21 UNL     1      -0.758  22.551   6.897  1.00  0.00     0.001 A 
HETATM   37  C22 UNL     1       0.581  22.714   6.638  1.00  0.00     0.014 A 
ENDBRANCH  28  32
ENDBRANCH  25  26
ENDBRANCH  24  25
ENDBRANCH  21  24
ENDBRANCH   1  20
TORSDOF 14
ENDMDL
