MODEL 4
REMARK VINA RESULT: -9.718201195      2.272      4.841
REMARK  14 active torsions:
REMARK  status: ('A' for Active; 'I' for Inactive)
REMARK    1  A    between atoms: C1_2  and  C2_4 
REMARK    2  A    between atoms: C2_4  and  C3_5 
REMARK    3  A    between atoms: C2_4  and  N2_10 
REMARK    4  A    between atoms: C3_5  and  C4_6 
REMARK    5  A    between atoms: C4_6  and  C5_7 
REMARK       I    between atoms: N2_10  and  C6_12 
REMARK    6  A    between atoms: C6_12  and  C7_14 
REMARK    7  A    between atoms: C7_14  and  C8_15 
REMARK    8  A    between atoms: C7_14  and  N3_20 
REMARK    9  A    between atoms: C8_15  and  C9_16 
REMARK   10  A    between atoms: C9_16  and  C10_17 
REMARK       I    between atoms: N3_20  and  C11_22 
REMARK   11  A    between atoms: C11_22  and  C12_24 
REMARK   12  A    between atoms: C12_24  and  C13_25 
REMARK   13  A    between atoms: C13_25  and  C14_26 
REMARK   14  A    between atoms: C16_28  and  C17_29 
ROOT
HETATM    1  C7  UNL     1       8.797  25.826   2.387  1.00  0.00     0.177 C 
ENDROOT
BRANCH   1   2
HETATM    2  C6  UNL     1       8.694  27.294   2.488  1.00  0.00     0.241 C 
HETATM    3  N2  UNL     1       9.330  28.095   3.478  1.00  0.00    -0.346 N 
ATOM      4  H2  UNL     1       9.918  27.681   4.200  1.00  0.00     0.163 HD
HETATM    5  O4  UNL     1       7.966  27.890   1.616  1.00  0.00    -0.271 OA
BRANCH   3   6
HETATM    6  C2  UNL     1       9.102  29.538   3.412  1.00  0.00     0.174 C 
BRANCH   6   7
HETATM    7  C1  UNL     1      10.307  30.201   2.863  1.00  0.00     0.254 C 
HETATM    8  N1  UNL     1      10.711  30.074   1.505  1.00  0.00    -0.060 NA
HETATM    9  O1  UNL     1      11.044  30.918   3.582  1.00  0.00    -0.275 OA
ENDBRANCH   6   7
BRANCH   6  10
HETATM   10  C3  UNL     1       8.781  30.029   4.810  1.00  0.00     0.045 C 
BRANCH  10  11
HETATM   11  C4  UNL     1       7.377  29.822   5.238  1.00  0.00     0.116 C 
BRANCH  11  12
HETATM   12  C5  UNL     1       7.139  28.718   6.172  1.00  0.00     0.172 C 
HETATM   13  O2  UNL     1       7.008  28.866   7.397  1.00  0.00    -0.648 OA
HETATM   14  O3  UNL     1       7.055  27.437   5.658  1.00  0.00    -0.648 OA
ENDBRANCH  11  12
ENDBRANCH  10  11
ENDBRANCH   6  10
ENDBRANCH   3   6
ENDBRANCH   1   2
BRANCH   1  15
HETATM   15  C8  UNL     1       8.315  25.370   1.048  1.00  0.00     0.045 C 
BRANCH  15  16
HETATM   16  C9  UNL     1       9.258  24.449   0.382  1.00  0.00     0.116 C 
BRANCH  16  17
HETATM   17  C10 UNL     1       9.418  24.803  -1.080  1.00  0.00     0.172 C 
HETATM   18  O5  UNL     1      10.526  25.107  -1.571  1.00  0.00    -0.648 OA
HETATM   19  O6  UNL     1       8.285  24.779  -1.866  1.00  0.00    -0.648 OA
ENDBRANCH  16  17
ENDBRANCH  15  16
ENDBRANCH   1  15
BRANCH   1  20
HETATM   20  N3  UNL     1       7.869  25.282   3.421  1.00  0.00    -0.348 N 
HETATM   21  C11 UNL     1       8.332  24.451   4.468  1.00  0.00     0.218 C 
HETATM   22  O7  UNL     1       9.572  24.178   4.503  1.00  0.00    -0.274 OA
ATOM     23  H3  UNL     1       6.877  25.514   3.371  1.00  0.00     0.163 HD
BRANCH  21  24
HETATM   24  C12 UNL     1       7.376  23.928   5.482  1.00  0.00     0.109 C 
BRANCH  24  25
HETATM   25  C13 UNL     1       5.965  24.135   4.937  1.00  0.00     0.076 C 
BRANCH  25  26
HETATM   26  C14 UNL     1       5.083  23.234   5.724  1.00  0.00     0.079 A 
HETATM   27  C15 UNL     1       3.694  23.345   5.817  1.00  0.00     0.067 A 
HETATM   28  C16 UNL     1       3.254  22.329   6.633  1.00  0.00     0.067 A 
HETATM   29  N4  UNL     1       4.351  21.653   7.000  1.00  0.00    -0.260 N 
HETATM   30  O8  UNL     1       5.415  22.189   6.464  1.00  0.00    -0.242 OA
ATOM     31  H4  UNL     1       4.355  20.836   7.610  1.00  0.00     0.195 HD
BRANCH  28  32
HETATM   32  C17 UNL     1       1.890  22.035   7.026  1.00  0.00    -0.007 A 
HETATM   33  C18 UNL     1       1.601  21.034   7.931  1.00  0.00     0.014 A 
HETATM   34  C19 UNL     1       0.290  20.806   8.256  1.00  0.00     0.001 A 
HETATM   35  C20 UNL     1      -0.755  21.524   7.725  1.00  0.00     0.000 A 
HETATM   36  C21 UNL     1      -0.458  22.534   6.811  1.00  0.00     0.001 A 
HETATM   37  C22 UNL     1       0.857  22.763   6.485  1.00  0.00     0.014 A 
ENDBRANCH  28  32
ENDBRANCH  25  26
ENDBRANCH  24  25
ENDBRANCH  21  24
ENDBRANCH   1  20
TORSDOF 14
ENDMDL
