MODEL 1
REMARK VINA RESULT: -10.976009719      0.000      0.000
REMARK  9 active torsions:
REMARK  status: ('A' for Active; 'I' for Inactive)
REMARK    1  A    between atoms: C1_2  and  C2_6 
REMARK    2  A    between atoms: C6_10  and  C7_11 
REMARK    3  A    between atoms: C7_11  and  C8_12 
REMARK    4  A    between atoms: C8_12  and  N3_13 
REMARK    5  A    between atoms: C8_12  and  C20_29 
REMARK       I    between atoms: N3_13  and  C9_15 
REMARK       I    between atoms: C9_15  and  N4_17 
REMARK    6  A    between atoms: N4_17  and  C10_19 
REMARK       I    between atoms: C20_29  and  N5_31 
REMARK    7  A    between atoms: N5_31  and  C21_33 
REMARK    8  A    between atoms: C21_33  and  C22_34 
REMARK    9  A    between atoms: C22_34  and  C23_35 
ROOT
HETATM    1  C8  UNL     1      20.312  27.703  23.473  1.00  0.00     0.182 C 
ENDROOT
BRANCH   1   2
HETATM    2  C7  UNL     1      19.107  26.939  23.968  1.00  0.00     0.073 C 
BRANCH   2   3
HETATM    3  C6  UNL     1      18.484  27.742  25.093  1.00  0.00    -0.055 A 
HETATM    4  C5  UNL     1      19.261  28.461  25.948  1.00  0.00     0.007 A 
HETATM    5  C4  UNL     1      18.656  29.169  26.950  1.00  0.00     0.002 A 
HETATM    6  C3  UNL     1      17.293  29.175  27.118  1.00  0.00     0.015 A 
HETATM    7  C2  UNL     1      16.474  28.459  26.270  1.00  0.00     0.005 A 
HETATM    8  C29 UNL     1      17.097  27.738  25.248  1.00  0.00     0.022 A 
BRANCH   7   9
HETATM    9  C1  UNL     1      15.046  28.472  26.485  1.00  0.00     0.120 C 
HETATM   10  N1  UNL     1      14.536  28.430  27.807  1.00  0.00    -0.082 NA
HETATM   11  N2  UNL     1      14.219  28.508  25.511  1.00  0.00    -0.387 N 
ATOM     12  H22 UNL     1      13.211  28.517  25.663  1.00  0.00     0.157 HD
ATOM     13  H21 UNL     1      14.586  28.538  24.560  1.00  0.00     0.157 HD
ENDBRANCH   7   9
ENDBRANCH   2   3
ENDBRANCH   1   2
BRANCH   1  14
HETATM   14  N3  UNL     1      21.555  27.014  23.589  1.00  0.00    -0.330 N 
HETATM   15  C9  UNL     1      22.747  27.636  24.098  1.00  0.00     0.317 C 
HETATM   16  O1  UNL     1      22.741  28.808  24.502  1.00  0.00    -0.247 OA
HETATM   17  N4  UNL     1      23.976  26.901  24.149  1.00  0.00    -0.338 N 
ATOM     18  H4  UNL     1      24.007  25.945  23.793  1.00  0.00     0.164 HD
ATOM     19  H3  UNL     1      21.601  26.038  23.297  1.00  0.00     0.165 HD
BRANCH  17  20
HETATM   20  C10 UNL     1      25.159  27.492  24.694  1.00  0.00     0.094 C 
HETATM   21  C11 UNL     1      26.324  26.579  24.830  1.00  0.00     0.009 C 
HETATM   22  C12 UNL     1      27.349  27.221  25.739  1.00  0.00     0.011 C 
HETATM   23  C16 UNL     1      27.026  26.324  23.511  1.00  0.00     0.011 C 
HETATM   24  C13 UNL     1      27.740  28.571  25.185  1.00  0.00    -0.013 C 
HETATM   25  C14 UNL     1      28.461  28.365  23.886  1.00  0.00     0.009 C 
HETATM   26  C19 UNL     1      26.538  29.462  24.920  1.00  0.00     0.011 C 
HETATM   27  C15 UNL     1      27.525  27.636  22.937  1.00  0.00    -0.013 C 
HETATM   28  C17 UNL     1      26.307  28.492  22.671  1.00  0.00     0.011 C 
HETATM   29  C18 UNL     1      25.603  28.758  23.953  1.00  0.00     0.009 C 
ENDBRANCH  17  20
ENDBRANCH   1  14
BRANCH   1  30
HETATM   30  C20 UNL     1      20.207  28.249  22.125  1.00  0.00     0.240 C 
HETATM   31  O2  UNL     1      19.515  27.576  21.293  1.00  0.00    -0.271 OA
HETATM   32  N5  UNL     1      20.827  29.475  21.716  1.00  0.00    -0.359 N 
ATOM     33  H5  UNL     1      21.384  30.015  22.378  1.00  0.00     0.162 HD
BRANCH  32  34
HETATM   34  C21 UNL     1      20.659  29.937  20.368  1.00  0.00     0.127 C 
BRANCH  34  35
HETATM   35  C22 UNL     1      21.533  31.162  20.079  1.00  0.00     0.058 C 
BRANCH  35  36
HETATM   36  C23 UNL     1      20.690  32.226  19.484  1.00  0.00    -0.057 A 
HETATM   37  C24 UNL     1      19.677  31.905  18.586  1.00  0.00     0.007 A 
HETATM   38  C25 UNL     1      18.899  32.908  18.037  1.00  0.00     0.001 A 
HETATM   39  C26 UNL     1      19.101  34.231  18.357  1.00  0.00     0.000 A 
HETATM   40  C27 UNL     1      20.101  34.567  19.246  1.00  0.00     0.001 A 
HETATM   41  C28 UNL     1      20.878  33.550  19.792  1.00  0.00     0.007 A 
ENDBRANCH  35  36
ENDBRANCH  34  35
ENDBRANCH  32  34
ENDBRANCH   1  30
TORSDOF 9
ENDMDL
