MODEL 10
REMARK VINA RESULT: -10.134266178      1.696      8.163
REMARK  9 active torsions:
REMARK  status: ('A' for Active; 'I' for Inactive)
REMARK    1  A    between atoms: C1_2  and  C2_6 
REMARK    2  A    between atoms: C6_10  and  C7_11 
REMARK    3  A    between atoms: C7_11  and  C8_12 
REMARK    4  A    between atoms: C8_12  and  N3_13 
REMARK    5  A    between atoms: C8_12  and  C20_29 
REMARK       I    between atoms: N3_13  and  C9_15 
REMARK       I    between atoms: C9_15  and  N4_17 
REMARK    6  A    between atoms: N4_17  and  C10_19 
REMARK       I    between atoms: C20_29  and  N5_31 
REMARK    7  A    between atoms: N5_31  and  C21_33 
REMARK    8  A    between atoms: C21_33  and  C22_34 
REMARK    9  A    between atoms: C22_34  and  C23_35 
ROOT
HETATM    1  C8  UNL     1      22.328  28.383  23.024  1.00  0.00     0.182 C 
ENDROOT
BRANCH   1   2
HETATM    2  C7  UNL     1      21.850  28.392  24.456  1.00  0.00     0.073 C 
BRANCH   2   3
HETATM    3  C6  UNL     1      20.423  27.880  24.467  1.00  0.00    -0.055 A 
HETATM    4  C5  UNL     1      20.008  26.958  23.556  1.00  0.00     0.007 A 
HETATM    5  C4  UNL     1      18.710  26.527  23.601  1.00  0.00     0.002 A 
HETATM    6  C3  UNL     1      17.819  26.993  24.535  1.00  0.00     0.015 A 
HETATM    7  C2  UNL     1      18.204  27.927  25.475  1.00  0.00     0.005 A 
HETATM    8  C29 UNL     1      19.530  28.364  25.424  1.00  0.00     0.022 A 
BRANCH   7   9
HETATM    9  C1  UNL     1      17.237  28.411  26.432  1.00  0.00     0.120 C 
HETATM   10  N1  UNL     1      15.855  28.194  26.202  1.00  0.00    -0.082 NA
HETATM   11  N2  UNL     1      17.591  29.046  27.483  1.00  0.00    -0.387 N 
ATOM     12  H22 UNL     1      16.907  29.388  28.159  1.00  0.00     0.157 HD
ATOM     13  H21 UNL     1      18.585  29.203  27.648  1.00  0.00     0.157 HD
ENDBRANCH   7   9
ENDBRANCH   2   3
ENDBRANCH   1   2
BRANCH   1  14
HETATM   14  N3  UNL     1      22.353  29.658  22.386  1.00  0.00    -0.330 N 
HETATM   15  C9  UNL     1      21.656  29.931  21.159  1.00  0.00     0.317 C 
HETATM   16  O1  UNL     1      20.958  29.067  20.608  1.00  0.00    -0.247 OA
HETATM   17  N4  UNL     1      21.756  31.223  20.547  1.00  0.00    -0.338 N 
ATOM     18  H4  UNL     1      22.349  31.936  20.970  1.00  0.00     0.164 HD
ATOM     19  H3  UNL     1      22.890  30.409  22.820  1.00  0.00     0.165 HD
BRANCH  17  20
HETATM   20  C10 UNL     1      21.032  31.522  19.349  1.00  0.00     0.094 C 
HETATM   21  C11 UNL     1      20.041  32.624  19.461  1.00  0.00     0.009 C 
HETATM   22  C12 UNL     1      19.116  32.578  18.265  1.00  0.00     0.011 C 
HETATM   23  C16 UNL     1      20.687  33.996  19.446  1.00  0.00     0.011 C 
HETATM   24  C13 UNL     1      19.929  32.664  16.995  1.00  0.00    -0.013 C 
HETATM   25  C14 UNL     1      20.569  34.019  16.927  1.00  0.00     0.009 C 
HETATM   26  C19 UNL     1      21.031  31.619  16.937  1.00  0.00     0.011 C 
HETATM   27  C15 UNL     1      21.452  34.185  18.152  1.00  0.00    -0.013 C 
HETATM   28  C17 UNL     1      22.549  33.143  18.131  1.00  0.00     0.011 C 
HETATM   29  C18 UNL     1      21.939  31.787  18.142  1.00  0.00     0.009 C 
ENDBRANCH  17  20
ENDBRANCH   1  14
BRANCH   1  30
HETATM   30  C20 UNL     1      23.605  27.719  22.784  1.00  0.00     0.240 C 
HETATM   31  O2  UNL     1      24.055  27.769  21.594  1.00  0.00    -0.271 OA
HETATM   32  N5  UNL     1      24.348  27.039  23.804  1.00  0.00    -0.359 N 
ATOM     33  H5  UNL     1      23.989  26.995  24.758  1.00  0.00     0.162 HD
BRANCH  32  34
HETATM   34  C21 UNL     1      25.600  26.422  23.474  1.00  0.00     0.127 C 
BRANCH  34  35
HETATM   35  C22 UNL     1      26.753  27.430  23.512  1.00  0.00     0.058 C 
BRANCH  35  36
HETATM   36  C23 UNL     1      27.806  26.922  24.423  1.00  0.00    -0.057 A 
HETATM   37  C24 UNL     1      27.867  27.353  25.745  1.00  0.00     0.007 A 
HETATM   38  C25 UNL     1      28.856  26.872  26.582  1.00  0.00     0.001 A 
HETATM   39  C26 UNL     1      29.795  25.968  26.141  1.00  0.00     0.000 A 
HETATM   40  C27 UNL     1      29.750  25.529  24.833  1.00  0.00     0.001 A 
HETATM   41  C28 UNL     1      28.750  26.020  23.998  1.00  0.00     0.007 A 
ENDBRANCH  35  36
ENDBRANCH  34  35
ENDBRANCH  32  34
ENDBRANCH   1  30
TORSDOF 9
ENDMDL
