MODEL 5
REMARK VINA RESULT: -10.260349063      1.658      7.633
REMARK  9 active torsions:
REMARK  status: ('A' for Active; 'I' for Inactive)
REMARK    1  A    between atoms: C1_2  and  C2_6 
REMARK    2  A    between atoms: C6_10  and  C7_11 
REMARK    3  A    between atoms: C7_11  and  C8_12 
REMARK    4  A    between atoms: C8_12  and  N3_13 
REMARK    5  A    between atoms: C8_12  and  C20_29 
REMARK       I    between atoms: N3_13  and  C9_15 
REMARK       I    between atoms: C9_15  and  N4_17 
REMARK    6  A    between atoms: N4_17  and  C10_19 
REMARK       I    between atoms: C20_29  and  N5_31 
REMARK    7  A    between atoms: N5_31  and  C21_33 
REMARK    8  A    between atoms: C21_33  and  C22_34 
REMARK    9  A    between atoms: C22_34  and  C23_35 
ROOT
HETATM    1  C8  UNL     1      21.708  28.457  22.629  1.00  0.00     0.182 C 
ENDROOT
BRANCH   1   2
HETATM    2  C7  UNL     1      21.483  28.143  24.089  1.00  0.00     0.073 C 
BRANCH   2   3
HETATM    3  C6  UNL     1      20.029  27.746  24.255  1.00  0.00    -0.055 A 
HETATM    4  C5  UNL     1      19.449  26.861  23.399  1.00  0.00     0.007 A 
HETATM    5  C4  UNL     1      18.132  26.533  23.585  1.00  0.00     0.002 A 
HETATM    6  C3  UNL     1      17.385  27.069  24.604  1.00  0.00     0.015 A 
HETATM    7  C2  UNL     1      17.941  27.968  25.491  1.00  0.00     0.005 A 
HETATM    8  C29 UNL     1      19.284  28.299  25.297  1.00  0.00     0.022 A 
BRANCH   7   9
HETATM    9  C1  UNL     1      17.121  28.526  26.541  1.00  0.00     0.120 C 
HETATM   10  N1  UNL     1      15.711  28.409  26.466  1.00  0.00    -0.082 NA
HETATM   11  N2  UNL     1      17.633  29.141  27.538  1.00  0.00    -0.387 N 
ATOM     12  H22 UNL     1      17.054  29.535  28.280  1.00  0.00     0.157 HD
ATOM     13  H21 UNL     1      18.648  29.226  27.592  1.00  0.00     0.157 HD
ENDBRANCH   7   9
ENDBRANCH   2   3
ENDBRANCH   1   2
BRANCH   1  14
HETATM   14  N3  UNL     1      21.173  29.702  22.188  1.00  0.00    -0.330 N 
HETATM   15  C9  UNL     1      21.429  30.243  20.880  1.00  0.00     0.317 C 
HETATM   16  O1  UNL     1      22.108  29.623  20.048  1.00  0.00    -0.247 OA
HETATM   17  N4  UNL     1      20.896  31.521  20.514  1.00  0.00    -0.338 N 
ATOM     18  H4  UNL     1      20.361  32.058  21.196  1.00  0.00     0.164 HD
ATOM     19  H3  UNL     1      20.583  30.234  22.828  1.00  0.00     0.165 HD
BRANCH  17  20
HETATM   20  C10 UNL     1      21.106  32.052  19.201  1.00  0.00     0.094 C 
HETATM   21  C11 UNL     1      20.017  31.789  18.225  1.00  0.00     0.009 C 
HETATM   22  C12 UNL     1      20.528  32.069  16.829  1.00  0.00     0.011 C 
HETATM   23  C16 UNL     1      18.817  32.692  18.428  1.00  0.00     0.011 C 
HETATM   24  C13 UNL     1      21.035  33.490  16.754  1.00  0.00    -0.013 C 
HETATM   25  C14 UNL     1      19.873  34.423  16.927  1.00  0.00     0.009 C 
HETATM   26  C19 UNL     1      22.055  33.803  17.836  1.00  0.00     0.011 C 
HETATM   27  C15 UNL     1      19.239  34.141  18.278  1.00  0.00    -0.013 C 
HETATM   28  C17 UNL     1      20.240  34.425  19.377  1.00  0.00     0.011 C 
HETATM   29  C18 UNL     1      21.429  33.550  19.196  1.00  0.00     0.009 C 
ENDBRANCH  17  20
ENDBRANCH   1  14
BRANCH   1  30
HETATM   30  C20 UNL     1      23.086  28.351  22.162  1.00  0.00     0.240 C 
HETATM   31  O2  UNL     1      23.917  29.180  22.657  1.00  0.00    -0.271 OA
HETATM   32  N5  UNL     1      23.526  27.380  21.204  1.00  0.00    -0.359 N 
ATOM     33  H5  UNL     1      22.863  26.717  20.803  1.00  0.00     0.162 HD
BRANCH  32  34
HETATM   34  C21 UNL     1      24.906  27.349  20.812  1.00  0.00     0.127 C 
BRANCH  34  35
HETATM   35  C22 UNL     1      25.648  26.174  21.459  1.00  0.00     0.058 C 
BRANCH  35  36
HETATM   36  C23 UNL     1      26.066  26.564  22.827  1.00  0.00    -0.057 A 
HETATM   37  C24 UNL     1      25.340  26.142  23.935  1.00  0.00     0.007 A 
HETATM   38  C25 UNL     1      25.740  26.515  25.205  1.00  0.00     0.001 A 
HETATM   39  C26 UNL     1      26.850  27.303  25.406  1.00  0.00     0.000 A 
HETATM   40  C27 UNL     1      27.582  27.731  24.318  1.00  0.00     0.001 A 
HETATM   41  C28 UNL     1      27.170  27.350  23.044  1.00  0.00     0.007 A 
ENDBRANCH  35  36
ENDBRANCH  34  35
ENDBRANCH  32  34
ENDBRANCH   1  30
TORSDOF 9
ENDMDL
