MODEL 8
REMARK VINA RESULT: -10.163730587      1.693      7.723
REMARK  9 active torsions:
REMARK  status: ('A' for Active; 'I' for Inactive)
REMARK    1  A    between atoms: C1_2  and  C2_6 
REMARK    2  A    between atoms: C6_10  and  C7_11 
REMARK    3  A    between atoms: C7_11  and  C8_12 
REMARK    4  A    between atoms: C8_12  and  N3_13 
REMARK    5  A    between atoms: C8_12  and  C20_29 
REMARK       I    between atoms: N3_13  and  C9_15 
REMARK       I    between atoms: C9_15  and  N4_17 
REMARK    6  A    between atoms: N4_17  and  C10_19 
REMARK       I    between atoms: C20_29  and  N5_31 
REMARK    7  A    between atoms: N5_31  and  C21_33 
REMARK    8  A    between atoms: C21_33  and  C22_34 
REMARK    9  A    between atoms: C22_34  and  C23_35 
ROOT
HETATM    1  C8  UNL     1      22.101  28.546  22.617  1.00  0.00     0.182 C 
ENDROOT
BRANCH   1   2
HETATM    2  C7  UNL     1      21.887  28.194  24.070  1.00  0.00     0.073 C 
BRANCH   2   3
HETATM    3  C6  UNL     1      20.449  27.739  24.225  1.00  0.00    -0.055 A 
HETATM    4  C5  UNL     1      19.922  26.802  23.391  1.00  0.00     0.007 A 
HETATM    5  C4  UNL     1      18.618  26.423  23.566  1.00  0.00     0.002 A 
HETATM    6  C3  UNL     1      17.831  26.959  24.554  1.00  0.00     0.015 A 
HETATM    7  C2  UNL     1      18.331  27.910  25.420  1.00  0.00     0.005 A 
HETATM    8  C29 UNL     1      19.662  28.293  25.237  1.00  0.00     0.022 A 
BRANCH   7   9
HETATM    9  C1  UNL     1      17.470  28.466  26.437  1.00  0.00     0.120 C 
HETATM   10  N1  UNL     1      16.070  28.256  26.361  1.00  0.00    -0.082 NA
HETATM   11  N2  UNL     1      17.934  29.160  27.404  1.00  0.00    -0.387 N 
ATOM     12  H22 UNL     1      17.326  29.553  28.123  1.00  0.00     0.157 HD
ATOM     13  H21 UNL     1      18.941  29.312  27.458  1.00  0.00     0.157 HD
ENDBRANCH   7   9
ENDBRANCH   2   3
ENDBRANCH   1   2
BRANCH   1  14
HETATM   14  N3  UNL     1      21.700  29.863  22.248  1.00  0.00    -0.330 N 
HETATM   15  C9  UNL     1      21.239  30.198  20.928  1.00  0.00     0.317 C 
HETATM   16  O1  UNL     1      21.132  29.334  20.044  1.00  0.00    -0.247 OA
HETATM   17  N4  UNL     1      20.891  31.550  20.610  1.00  0.00    -0.338 N 
ATOM     18  H4  UNL     1      21.001  32.279  21.315  1.00  0.00     0.164 HD
ATOM     19  H3  UNL     1      21.742  30.600  22.951  1.00  0.00     0.165 HD
BRANCH  17  20
HETATM   20  C10 UNL     1      20.389  31.890  19.313  1.00  0.00     0.094 C 
HETATM   21  C11 UNL     1      19.582  33.135  19.248  1.00  0.00     0.009 C 
HETATM   22  C12 UNL     1      18.828  33.165  17.936  1.00  0.00     0.011 C 
HETATM   23  C16 UNL     1      20.434  34.389  19.276  1.00  0.00     0.011 C 
HETATM   24  C13 UNL     1      19.805  33.054  16.790  1.00  0.00    -0.013 C 
HETATM   25  C14 UNL     1      20.657  34.289  16.765  1.00  0.00     0.009 C 
HETATM   26  C19 UNL     1      20.723  31.851  16.922  1.00  0.00     0.011 C 
HETATM   27  C15 UNL     1      21.385  34.386  18.095  1.00  0.00    -0.013 C 
HETATM   28  C17 UNL     1      22.294  33.188  18.264  1.00  0.00     0.011 C 
HETATM   29  C18 UNL     1      21.478  31.945  18.236  1.00  0.00     0.009 C 
ENDBRANCH  17  20
ENDBRANCH   1  14
BRANCH   1  30
HETATM   30  C20 UNL     1      23.443  28.306  22.097  1.00  0.00     0.240 C 
HETATM   31  O2  UNL     1      24.334  29.160  22.412  1.00  0.00    -0.271 OA
HETATM   32  N5  UNL     1      23.785  27.181  21.277  1.00  0.00    -0.359 N 
ATOM     33  H5  UNL     1      23.073  26.497  21.021  1.00  0.00     0.162 HD
BRANCH  32  34
HETATM   34  C21 UNL     1      25.135  27.024  20.819  1.00  0.00     0.127 C 
BRANCH  34  35
HETATM   35  C22 UNL     1      25.858  25.899  21.568  1.00  0.00     0.058 C 
BRANCH  35  36
HETATM   36  C23 UNL     1      26.156  26.353  22.947  1.00  0.00    -0.057 A 
HETATM   37  C24 UNL     1      27.267  27.150  23.205  1.00  0.00     0.007 A 
HETATM   38  C25 UNL     1      27.534  27.564  24.496  1.00  0.00     0.001 A 
HETATM   39  C26 UNL     1      26.723  27.205  25.548  1.00  0.00     0.000 A 
HETATM   40  C27 UNL     1      25.616  26.415  25.311  1.00  0.00     0.001 A 
HETATM   41  C28 UNL     1      25.357  26.004  24.007  1.00  0.00     0.007 A 
ENDBRANCH  35  36
ENDBRANCH  34  35
ENDBRANCH  32  34
ENDBRANCH   1  30
TORSDOF 9
ENDMDL
