MODEL 3
REMARK VINA RESULT: -10.271569182      1.499      2.512
REMARK  9 active torsions:
REMARK  status: ('A' for Active; 'I' for Inactive)
REMARK    1  A    between atoms: C1_2  and  C2_6 
REMARK    2  A    between atoms: C6_10  and  C7_11 
REMARK    3  A    between atoms: C7_11  and  C8_12 
REMARK    4  A    between atoms: C8_12  and  N3_13 
REMARK    5  A    between atoms: C8_12  and  C20_29 
REMARK       I    between atoms: N3_13  and  C9_15 
REMARK       I    between atoms: C9_15  and  N4_17 
REMARK    6  A    between atoms: N4_17  and  C10_19 
REMARK       I    between atoms: C20_29  and  N5_31 
REMARK    7  A    between atoms: N5_31  and  C21_33 
REMARK    8  A    between atoms: C21_33  and  C22_34 
REMARK    9  A    between atoms: C22_34  and  C23_35 
ROOT
HETATM    1  C8  UNL     1      21.811  28.693  23.475  1.00  0.00     0.182 C 
ENDROOT
BRANCH   1   2
HETATM    2  C7  UNL     1      21.445  27.270  23.822  1.00  0.00     0.073 C 
BRANCH   2   3
HETATM    3  C6  UNL     1      19.991  27.261  24.253  1.00  0.00    -0.055 A 
HETATM    4  C5  UNL     1      19.074  26.505  23.590  1.00  0.00     0.007 A 
HETATM    5  C4  UNL     1      17.772  26.530  24.012  1.00  0.00     0.002 A 
HETATM    6  C3  UNL     1      17.366  27.292  25.079  1.00  0.00     0.015 A 
HETATM    7  C2  UNL     1      18.269  28.070  25.776  1.00  0.00     0.005 A 
HETATM    8  C29 UNL     1      19.595  28.041  25.341  1.00  0.00     0.022 A 
BRANCH   7   9
HETATM    9  C1  UNL     1      17.805  28.874  26.882  1.00  0.00     0.120 C 
HETATM   10  N1  UNL     1      16.427  28.878  27.217  1.00  0.00    -0.082 NA
HETATM   11  N2  UNL     1      18.603  29.600  27.567  1.00  0.00    -0.387 N 
ATOM     12  H22 UNL     1      18.276  30.168  28.349  1.00  0.00     0.157 HD
ATOM     13  H21 UNL     1      19.595  29.597  27.326  1.00  0.00     0.157 HD
ENDBRANCH   7   9
ENDBRANCH   2   3
ENDBRANCH   1   2
BRANCH   1  14
HETATM   14  N3  UNL     1      23.077  29.128  23.962  1.00  0.00    -0.330 N 
HETATM   15  C9  UNL     1      24.314  28.487  23.606  1.00  0.00     0.317 C 
HETATM   16  O1  UNL     1      24.340  27.532  22.815  1.00  0.00    -0.247 OA
HETATM   17  N4  UNL     1      25.550  28.947  24.164  1.00  0.00    -0.338 N 
ATOM     18  H4  UNL     1      25.545  29.711  24.839  1.00  0.00     0.164 HD
ATOM     19  H3  UNL     1      23.108  29.930  24.592  1.00  0.00     0.165 HD
BRANCH  17  20
HETATM   20  C10 UNL     1      26.792  28.346  23.784  1.00  0.00     0.094 C 
HETATM   21  C11 UNL     1      27.969  29.253  23.796  1.00  0.00     0.009 C 
HETATM   22  C12 UNL     1      29.102  28.600  23.035  1.00  0.00     0.011 C 
HETATM   23  C16 UNL     1      28.493  29.517  25.194  1.00  0.00     0.011 C 
HETATM   24  C13 UNL     1      29.410  27.253  23.646  1.00  0.00    -0.013 C 
HETATM   25  C14 UNL     1      29.955  27.468  25.027  1.00  0.00     0.009 C 
HETATM   26  C19 UNL     1      28.178  26.370  23.757  1.00  0.00     0.011 C 
HETATM   27  C15 UNL     1      28.905  28.208  25.839  1.00  0.00    -0.013 C 
HETATM   28  C17 UNL     1      27.658  27.359  25.949  1.00  0.00     0.011 C 
HETATM   29  C18 UNL     1      27.128  27.085  24.588  1.00  0.00     0.009 C 
ENDBRANCH  17  20
ENDBRANCH   1  14
BRANCH   1  30
HETATM   30  C20 UNL     1      21.708  29.049  22.064  1.00  0.00     0.240 C 
HETATM   31  O2  UNL     1      21.526  28.087  21.249  1.00  0.00    -0.271 OA
HETATM   32  N5  UNL     1      21.797  30.394  21.578  1.00  0.00    -0.359 N 
ATOM     33  H5  UNL     1      21.946  31.166  22.227  1.00  0.00     0.162 HD
BRANCH  32  34
HETATM   34  C21 UNL     1      21.676  30.646  20.170  1.00  0.00     0.127 C 
BRANCH  34  35
HETATM   35  C22 UNL     1      22.074  32.084  19.819  1.00  0.00     0.058 C 
BRANCH  35  36
HETATM   36  C23 UNL     1      20.894  32.786  19.259  1.00  0.00    -0.057 A 
HETATM   37  C24 UNL     1      19.931  32.088  18.539  1.00  0.00     0.007 A 
HETATM   38  C25 UNL     1      18.837  32.757  18.021  1.00  0.00     0.001 A 
HETATM   39  C26 UNL     1      18.672  34.111  18.200  1.00  0.00     0.000 A 
HETATM   40  C27 UNL     1      19.618  34.820  18.912  1.00  0.00     0.001 A 
HETATM   41  C28 UNL     1      20.715  34.137  19.429  1.00  0.00     0.007 A 
ENDBRANCH  35  36
ENDBRANCH  34  35
ENDBRANCH  32  34
ENDBRANCH   1  30
TORSDOF 9
ENDMDL
