MODEL 7
REMARK VINA RESULT: -10.215401572      4.431      8.445
REMARK  9 active torsions:
REMARK  status: ('A' for Active; 'I' for Inactive)
REMARK    1  A    between atoms: C1_2  and  C2_6 
REMARK    2  A    between atoms: C6_10  and  C7_11 
REMARK    3  A    between atoms: C7_11  and  C8_12 
REMARK    4  A    between atoms: C8_12  and  N3_13 
REMARK    5  A    between atoms: C8_12  and  C20_29 
REMARK       I    between atoms: N3_13  and  C9_15 
REMARK       I    between atoms: C9_15  and  N4_17 
REMARK    6  A    between atoms: N4_17  and  C10_19 
REMARK       I    between atoms: C20_29  and  N5_31 
REMARK    7  A    between atoms: N5_31  and  C21_33 
REMARK    8  A    between atoms: C21_33  and  C22_34 
REMARK    9  A    between atoms: C22_34  and  C23_35 
ROOT
HETATM    1  C8  UNL     1      22.430  27.904  18.485  1.00  0.00     0.182 C 
ENDROOT
BRANCH   1   2
HETATM    2  C7  UNL     1      22.865  27.400  19.841  1.00  0.00     0.073 C 
BRANCH   2   3
HETATM    3  C6  UNL     1      21.632  27.322  20.719  1.00  0.00    -0.055 A 
HETATM    4  C5  UNL     1      20.489  26.740  20.263  1.00  0.00     0.007 A 
HETATM    5  C4  UNL     1      19.399  26.694  21.090  1.00  0.00     0.002 A 
HETATM    6  C3  UNL     1      19.425  27.216  22.360  1.00  0.00     0.015 A 
HETATM    7  C2  UNL     1      20.566  27.812  22.856  1.00  0.00     0.005 A 
HETATM    8  C29 UNL     1      21.675  27.856  22.008  1.00  0.00     0.022 A 
BRANCH   7   9
HETATM    9  C1  UNL     1      20.554  28.367  24.189  1.00  0.00     0.120 C 
HETATM   10  N1  UNL     1      19.345  28.384  24.929  1.00  0.00    -0.082 NA
HETATM   11  N2  UNL     1      21.605  28.861  24.721  1.00  0.00    -0.387 N 
ATOM     12  H22 UNL     1      21.597  29.253  25.663  1.00  0.00     0.157 HD
ATOM     13  H21 UNL     1      22.475  28.849  24.188  1.00  0.00     0.157 HD
ENDBRANCH   7   9
ENDBRANCH   2   3
ENDBRANCH   1   2
BRANCH   1  14
HETATM   14  N3  UNL     1      22.588  29.306  18.282  1.00  0.00    -0.330 N 
HETATM   15  C9  UNL     1      21.532  30.253  18.518  1.00  0.00     0.317 C 
HETATM   16  O1  UNL     1      20.428  29.892  18.952  1.00  0.00    -0.247 OA
HETATM   17  N4  UNL     1      21.742  31.645  18.253  1.00  0.00    -0.338 N 
ATOM     18  H4  UNL     1      22.634  31.956  17.867  1.00  0.00     0.164 HD
ATOM     19  H3  UNL     1      23.489  29.653  17.955  1.00  0.00     0.165 HD
BRANCH  17  20
HETATM   20  C10 UNL     1      20.715  32.604  18.525  1.00  0.00     0.094 C 
HETATM   21  C11 UNL     1      21.188  33.985  18.802  1.00  0.00     0.009 C 
HETATM   22  C12 UNL     1      20.059  34.777  19.423  1.00  0.00     0.011 C 
HETATM   23  C16 UNL     1      21.590  34.730  17.545  1.00  0.00     0.011 C 
HETATM   24  C13 UNL     1      18.862  34.756  18.502  1.00  0.00    -0.013 C 
HETATM   25  C14 UNL     1      19.208  35.505  17.249  1.00  0.00     0.009 C 
HETATM   26  C19 UNL     1      18.455  33.345  18.109  1.00  0.00     0.011 C 
HETATM   27  C15 UNL     1      20.403  34.823  16.606  1.00  0.00    -0.013 C 
HETATM   28  C17 UNL     1      20.033  33.407  16.222  1.00  0.00     0.011 C 
HETATM   29  C18 UNL     1      19.632  32.657  17.441  1.00  0.00     0.009 C 
ENDBRANCH  17  20
ENDBRANCH   1  14
BRANCH   1  30
HETATM   30  C20 UNL     1      22.991  27.202  17.336  1.00  0.00     0.240 C 
HETATM   31  O2  UNL     1      23.556  26.086  17.576  1.00  0.00    -0.271 OA
HETATM   32  N5  UNL     1      22.928  27.700  15.994  1.00  0.00    -0.359 N 
ATOM     33  H5  UNL     1      22.478  28.595  15.799  1.00  0.00     0.162 HD
BRANCH  32  34
HETATM   34  C21 UNL     1      23.501  26.932  14.927  1.00  0.00     0.127 C 
BRANCH  34  35
HETATM   35  C22 UNL     1      23.142  27.516  13.556  1.00  0.00     0.058 C 
BRANCH  35  36
HETATM   36  C23 UNL     1      21.789  27.046  13.173  1.00  0.00    -0.057 A 
HETATM   37  C24 UNL     1      21.360  25.768  13.517  1.00  0.00     0.007 A 
HETATM   38  C25 UNL     1      20.097  25.343  13.151  1.00  0.00     0.001 A 
HETATM   39  C26 UNL     1      19.240  26.158  12.447  1.00  0.00     0.000 A 
HETATM   40  C27 UNL     1      19.648  27.428  12.098  1.00  0.00     0.001 A 
HETATM   41  C28 UNL     1      20.922  27.846  12.471  1.00  0.00     0.007 A 
ENDBRANCH  35  36
ENDBRANCH  34  35
ENDBRANCH  32  34
ENDBRANCH   1  30
TORSDOF 9
ENDMDL
