MODEL 7
REMARK VINA RESULT: -9.644143288      6.291     10.384
REMARK  14 active torsions:
REMARK  status: ('A' for Active; 'I' for Inactive)
REMARK    1  A    between atoms: C1_2  and  C2_4 
REMARK    2  A    between atoms: C2_4  and  C3_5 
REMARK    3  A    between atoms: C2_4  and  N2_10 
REMARK    4  A    between atoms: C3_5  and  C4_6 
REMARK    5  A    between atoms: C4_6  and  C5_7 
REMARK       I    between atoms: N2_10  and  C6_12 
REMARK    6  A    between atoms: C6_12  and  C7_14 
REMARK    7  A    between atoms: C7_14  and  C8_15 
REMARK    8  A    between atoms: C7_14  and  N3_20 
REMARK    9  A    between atoms: C8_15  and  C9_16 
REMARK   10  A    between atoms: C9_16  and  C10_17 
REMARK       I    between atoms: N3_20  and  C11_22 
REMARK   11  A    between atoms: C11_22  and  C12_24 
REMARK   12  A    between atoms: C12_24  and  C13_25 
REMARK   13  A    between atoms: C13_25  and  C14_26 
REMARK   14  A    between atoms: C17_29  and  C18_30 
ROOT
HETATM    1  C7  UNL     1      -1.294  23.871   7.928  1.00  0.00     0.177 C 
ENDROOT
BRANCH   1   2
HETATM    2  C6  UNL     1      -1.437  25.326   8.178  1.00  0.00     0.241 C 
HETATM    3  N2  UNL     1      -2.594  26.077   8.050  1.00  0.00    -0.346 N 
ATOM      4  H2  UNL     1      -3.458  25.613   7.768  1.00  0.00     0.163 HD
HETATM    5  O4  UNL     1      -0.362  25.918   8.550  1.00  0.00    -0.271 OA
BRANCH   3   6
HETATM    6  C2  UNL     1      -2.610  27.500   8.308  1.00  0.00     0.174 C 
BRANCH   6   7
HETATM    7  C1  UNL     1      -3.875  27.961   8.871  1.00  0.00     0.254 C 
HETATM    8  N1  UNL     1      -4.118  28.065  10.260  1.00  0.00    -0.060 NA
HETATM    9  O1  UNL     1      -4.819  28.291   8.116  1.00  0.00    -0.275 OA
ENDBRANCH   6   7
BRANCH   6  10
HETATM   10  C3  UNL     1      -2.117  28.265   7.126  1.00  0.00     0.045 C 
BRANCH  10  11
HETATM   11  C4  UNL     1      -1.505  29.591   7.399  1.00  0.00     0.116 C 
BRANCH  11  12
HETATM   12  C5  UNL     1      -0.432  29.679   8.365  1.00  0.00     0.172 C 
HETATM   13  O2  UNL     1      -0.511  30.362   9.412  1.00  0.00    -0.648 OA
HETATM   14  O3  UNL     1       0.770  29.007   8.198  1.00  0.00    -0.648 OA
ENDBRANCH  11  12
ENDBRANCH  10  11
ENDBRANCH   6  10
ENDBRANCH   3   6
ENDBRANCH   1   2
BRANCH   1  15
HETATM   15  C8  UNL     1      -2.578  23.203   8.354  1.00  0.00     0.045 C 
BRANCH  15  16
HETATM   16  C9  UNL     1      -2.643  21.746   7.923  1.00  0.00     0.116 C 
BRANCH  16  17
HETATM   17  C10 UNL     1      -3.809  21.036   8.495  1.00  0.00     0.172 C 
HETATM   18  O5  UNL     1      -3.995  19.817   8.220  1.00  0.00    -0.648 OA
HETATM   19  O6  UNL     1      -4.735  21.644   9.341  1.00  0.00    -0.648 OA
ENDBRANCH  16  17
ENDBRANCH  15  16
ENDBRANCH   1  15
BRANCH   1  20
HETATM   20  N3  UNL     1      -0.105  23.272   8.402  1.00  0.00    -0.348 N 
HETATM   21  C11 UNL     1       0.812  22.668   7.488  1.00  0.00     0.218 C 
HETATM   22  O7  UNL     1       0.554  22.687   6.292  1.00  0.00    -0.274 OA
ATOM     23  H3  UNL     1       0.098  23.271   9.402  1.00  0.00     0.163 HD
BRANCH  21  24
HETATM   24  C12 UNL     1       2.070  22.019   7.986  1.00  0.00     0.107 C 
BRANCH  24  25
HETATM   25  C13 UNL     1       2.786  21.406   6.805  1.00  0.00     0.047 C 
BRANCH  25  26
HETATM   26  C14 UNL     1       3.963  22.189   6.374  1.00  0.00    -0.058 A 
HETATM   27  C15 UNL     1       5.254  21.832   6.714  1.00  0.00     0.008 A 
HETATM   28  C16 UNL     1       6.355  22.558   6.310  1.00  0.00     0.013 A 
HETATM   29  C17 UNL     1       6.215  23.677   5.546  1.00  0.00    -0.026 A 
HETATM   30  C24 UNL     1       4.923  24.052   5.195  1.00  0.00     0.013 A 
HETATM   31  C25 UNL     1       3.807  23.319   5.602  1.00  0.00     0.008 A 
BRANCH  29  32
HETATM   32  C18 UNL     1       7.328  24.481   5.074  1.00  0.00    -0.026 A 
HETATM   33  C19 UNL     1       8.447  23.907   4.466  1.00  0.00     0.012 A 
HETATM   34  C20 UNL     1       9.502  24.669   4.030  1.00  0.00     0.001 A 
HETATM   35  C21 UNL     1       9.471  26.031   4.191  1.00  0.00     0.000 A 
HETATM   36  C22 UNL     1       8.385  26.625   4.785  1.00  0.00     0.001 A 
HETATM   37  C23 UNL     1       7.322  25.831   5.221  1.00  0.00     0.012 A 
ENDBRANCH  29  32
ENDBRANCH  25  26
ENDBRANCH  24  25
ENDBRANCH  21  24
ENDBRANCH   1  20
TORSDOF 14
ENDMDL
