MODEL 3
REMARK VINA RESULT: -9.812772009      3.218      4.591
REMARK  14 active torsions:
REMARK  status: ('A' for Active; 'I' for Inactive)
REMARK    1  A    between atoms: C1_2  and  C2_4 
REMARK    2  A    between atoms: C2_4  and  C3_5 
REMARK    3  A    between atoms: C2_4  and  N2_10 
REMARK    4  A    between atoms: C3_5  and  C4_6 
REMARK    5  A    between atoms: C4_6  and  C5_7 
REMARK       I    between atoms: N2_10  and  C6_12 
REMARK    6  A    between atoms: C6_12  and  C7_14 
REMARK    7  A    between atoms: C7_14  and  C8_15 
REMARK    8  A    between atoms: C7_14  and  N3_20 
REMARK    9  A    between atoms: C8_15  and  C9_16 
REMARK   10  A    between atoms: C9_16  and  C10_17 
REMARK       I    between atoms: N3_20  and  C11_22 
REMARK   11  A    between atoms: C11_22  and  C12_24 
REMARK   12  A    between atoms: C12_24  and  C13_25 
REMARK   13  A    between atoms: C13_25  and  C14_26 
REMARK   14  A    between atoms: C17_29  and  C18_30 
ROOT
HETATM    1  C7  UNL     1       9.652  26.895   1.778  1.00  0.00     0.177 C 
ENDROOT
BRANCH   1   2
HETATM    2  C6  UNL     1       9.310  28.282   2.183  1.00  0.00     0.241 C 
HETATM    3  N2  UNL     1       9.862  28.994   3.235  1.00  0.00    -0.346 N 
ATOM      4  H2  UNL     1      10.587  28.558   3.804  1.00  0.00     0.163 HD
HETATM    5  O4  UNL     1       8.412  28.848   1.465  1.00  0.00    -0.271 OA
BRANCH   3   6
HETATM    6  C2  UNL     1       9.437  30.342   3.546  1.00  0.00     0.174 C 
BRANCH   6   7
HETATM    7  C1  UNL     1      10.434  31.347   3.192  1.00  0.00     0.254 C 
HETATM    8  N1  UNL     1      10.111  32.593   2.606  1.00  0.00    -0.060 NA
HETATM    9  O1  UNL     1      11.650  31.132   3.403  1.00  0.00    -0.275 OA
ENDBRANCH   6   7
BRANCH   6  10
HETATM   10  C3  UNL     1       8.904  30.428   4.936  1.00  0.00     0.045 C 
BRANCH  10  11
HETATM   11  C4  UNL     1       7.670  29.652   5.225  1.00  0.00     0.116 C 
BRANCH  11  12
HETATM   12  C5  UNL     1       7.774  28.439   6.006  1.00  0.00     0.172 C 
HETATM   13  O2  UNL     1       7.068  28.213   7.015  1.00  0.00    -0.648 OA
HETATM   14  O3  UNL     1       8.674  27.431   5.687  1.00  0.00    -0.648 OA
ENDBRANCH  11  12
ENDBRANCH  10  11
ENDBRANCH   6  10
ENDBRANCH   3   6
ENDBRANCH   1   2
BRANCH   1  15
HETATM   15  C8  UNL     1       9.957  26.910   0.302  1.00  0.00     0.045 C 
BRANCH  15  16
HETATM   16  C9  UNL     1      10.694  25.658  -0.149  1.00  0.00     0.116 C 
BRANCH  16  17
HETATM   17  C10 UNL     1       9.775  24.602  -0.633  1.00  0.00     0.172 C 
HETATM   18  O5  UNL     1       9.570  23.578   0.078  1.00  0.00    -0.648 OA
HETATM   19  O6  UNL     1       9.106  24.671  -1.854  1.00  0.00    -0.648 OA
ENDBRANCH  16  17
ENDBRANCH  15  16
ENDBRANCH   1  15
BRANCH   1  20
HETATM   20  N3  UNL     1       8.764  25.885   2.210  1.00  0.00    -0.348 N 
HETATM   21  C11 UNL     1       9.137  25.002   3.271  1.00  0.00     0.218 C 
HETATM   22  O7  UNL     1      10.232  25.143   3.800  1.00  0.00    -0.274 OA
ATOM     23  H3  UNL     1       7.852  25.785   1.763  1.00  0.00     0.163 HD
BRANCH  21  24
HETATM   24  C12 UNL     1       8.205  23.919   3.726  1.00  0.00     0.107 C 
BRANCH  24  25
HETATM   25  C13 UNL     1       7.906  24.136   5.191  1.00  0.00     0.047 C 
BRANCH  25  26
HETATM   26  C14 UNL     1       6.576  23.629   5.590  1.00  0.00    -0.058 A 
HETATM   27  C15 UNL     1       6.419  22.550   6.438  1.00  0.00     0.008 A 
HETATM   28  C16 UNL     1       5.179  22.077   6.815  1.00  0.00     0.013 A 
HETATM   29  C17 UNL     1       4.037  22.663   6.360  1.00  0.00    -0.026 A 
HETATM   30  C24 UNL     1       4.175  23.750   5.504  1.00  0.00     0.013 A 
HETATM   31  C25 UNL     1       5.429  24.231   5.122  1.00  0.00     0.008 A 
BRANCH  29  32
HETATM   32  C18 UNL     1       2.701  22.228   6.726  1.00  0.00    -0.026 A 
HETATM   33  C19 UNL     1       1.559  22.890   6.271  1.00  0.00     0.012 A 
HETATM   34  C20 UNL     1       0.298  22.482   6.628  1.00  0.00     0.001 A 
HETATM   35  C21 UNL     1       0.141  21.398   7.455  1.00  0.00     0.000 A 
HETATM   36  C22 UNL     1       1.244  20.727   7.919  1.00  0.00     0.001 A 
HETATM   37  C23 UNL     1       2.518  21.158   7.543  1.00  0.00     0.012 A 
ENDBRANCH  29  32
ENDBRANCH  25  26
ENDBRANCH  24  25
ENDBRANCH  21  24
ENDBRANCH   1  20
TORSDOF 14
ENDMDL
