MODEL 1
REMARK VINA RESULT: -10.042486215      0.000      0.000
REMARK  14 active torsions:
REMARK  status: ('A' for Active; 'I' for Inactive)
REMARK    1  A    between atoms: C1_2  and  C2_4 
REMARK    2  A    between atoms: C2_4  and  C3_5 
REMARK    3  A    between atoms: C2_4  and  N2_10 
REMARK    4  A    between atoms: C3_5  and  C4_6 
REMARK    5  A    between atoms: C4_6  and  C5_7 
REMARK       I    between atoms: N2_10  and  C6_12 
REMARK    6  A    between atoms: C6_12  and  C7_14 
REMARK    7  A    between atoms: C7_14  and  C8_15 
REMARK    8  A    between atoms: C7_14  and  N3_20 
REMARK    9  A    between atoms: C8_15  and  C9_16 
REMARK   10  A    between atoms: C9_16  and  C10_17 
REMARK       I    between atoms: N3_20  and  C11_22 
REMARK   11  A    between atoms: C11_22  and  C12_24 
REMARK   12  A    between atoms: C12_24  and  C13_25 
REMARK   13  A    between atoms: C13_25  and  C14_26 
REMARK   14  A    between atoms: C17_29  and  C18_30 
ROOT
HETATM    1  C7  UNL     1       8.256  28.180   5.713  1.00  0.00     0.177 C 
ENDROOT
BRANCH   1   2
HETATM    2  C6  UNL     1       7.854  28.639   7.066  1.00  0.00     0.241 C 
HETATM    3  N2  UNL     1       8.689  28.839   8.152  1.00  0.00    -0.346 N 
ATOM      4  H2  UNL     1       9.690  28.674   8.046  1.00  0.00     0.163 HD
HETATM    5  O4  UNL     1       6.600  28.866   7.208  1.00  0.00    -0.271 OA
BRANCH   3   6
HETATM    6  C2  UNL     1       8.178  29.275   9.434  1.00  0.00     0.174 C 
BRANCH   6   7
HETATM    7  C1  UNL     1       8.992  30.324  10.040  1.00  0.00     0.254 C 
HETATM    8  N1  UNL     1       8.502  31.227  11.012  1.00  0.00    -0.060 NA
HETATM    9  O1  UNL     1      10.193  30.463   9.710  1.00  0.00    -0.275 OA
ENDBRANCH   6   7
BRANCH   6  10
HETATM   10  C3  UNL     1       7.872  28.111  10.314  1.00  0.00     0.045 C 
BRANCH  10  11
HETATM   11  C4  UNL     1       8.936  27.698  11.265  1.00  0.00     0.116 C 
BRANCH  11  12
HETATM   12  C5  UNL     1       8.562  27.322  12.611  1.00  0.00     0.172 C 
HETATM   13  O2  UNL     1       8.881  26.227  13.128  1.00  0.00    -0.648 OA
HETATM   14  O3  UNL     1       7.816  28.158  13.431  1.00  0.00    -0.648 OA
ENDBRANCH  11  12
ENDBRANCH  10  11
ENDBRANCH   6  10
ENDBRANCH   3   6
ENDBRANCH   1   2
BRANCH   1  15
HETATM   15  C8  UNL     1       8.329  29.393   4.819  1.00  0.00     0.045 C 
BRANCH  15  16
HETATM   16  C9  UNL     1       9.616  29.439   4.010  1.00  0.00     0.116 C 
BRANCH  16  17
HETATM   17  C10 UNL     1       9.500  28.729   2.716  1.00  0.00     0.172 C 
HETATM   18  O5  UNL     1       8.453  28.862   2.023  1.00  0.00    -0.648 OA
HETATM   19  O6  UNL     1      10.501  27.906   2.203  1.00  0.00    -0.648 OA
ENDBRANCH  16  17
ENDBRANCH  15  16
ENDBRANCH   1  15
BRANCH   1  20
HETATM   20  N3  UNL     1       7.542  27.078   5.193  1.00  0.00    -0.348 N 
HETATM   21  C11 UNL     1       8.242  25.928   4.712  1.00  0.00     0.218 C 
HETATM   22  O7  UNL     1       9.465  25.914   4.767  1.00  0.00    -0.274 OA
ATOM     23  H3  UNL     1       6.523  27.103   5.160  1.00  0.00     0.163 HD
BRANCH  21  24
HETATM   24  C12 UNL     1       7.491  24.759   4.146  1.00  0.00     0.107 C 
BRANCH  24  25
HETATM   25  C13 UNL     1       7.475  23.659   5.183  1.00  0.00     0.047 C 
BRANCH  25  26
HETATM   26  C14 UNL     1       6.109  23.285   5.604  1.00  0.00    -0.058 A 
HETATM   27  C15 UNL     1       4.989  23.972   5.178  1.00  0.00     0.008 A 
HETATM   28  C16 UNL     1       3.712  23.622   5.567  1.00  0.00     0.013 A 
HETATM   29  C17 UNL     1       3.497  22.567   6.401  1.00  0.00    -0.026 A 
HETATM   30  C24 UNL     1       4.613  21.864   6.840  1.00  0.00     0.013 A 
HETATM   31  C25 UNL     1       5.906  22.215   6.449  1.00  0.00     0.008 A 
BRANCH  29  32
HETATM   32  C18 UNL     1       2.182  22.134   6.839  1.00  0.00    -0.026 A 
HETATM   33  C19 UNL     1       1.014  22.751   6.385  1.00  0.00     0.012 A 
HETATM   34  C20 UNL     1      -0.227  22.346   6.809  1.00  0.00     0.001 A 
HETATM   35  C21 UNL     1      -0.338  21.311   7.704  1.00  0.00     0.000 A 
HETATM   36  C22 UNL     1       0.792  20.685   8.168  1.00  0.00     0.001 A 
HETATM   37  C23 UNL     1       2.045  21.112   7.723  1.00  0.00     0.012 A 
ENDBRANCH  29  32
ENDBRANCH  25  26
ENDBRANCH  24  25
ENDBRANCH  21  24
ENDBRANCH   1  20
TORSDOF 14
ENDMDL
