MODEL 6
REMARK VINA RESULT: -9.675924321      3.943      7.114
REMARK  14 active torsions:
REMARK  status: ('A' for Active; 'I' for Inactive)
REMARK    1  A    between atoms: C1_2  and  C2_4 
REMARK    2  A    between atoms: C2_4  and  C3_5 
REMARK    3  A    between atoms: C2_4  and  N2_10 
REMARK    4  A    between atoms: C3_5  and  C4_6 
REMARK    5  A    between atoms: C4_6  and  C5_7 
REMARK       I    between atoms: N2_10  and  C6_12 
REMARK    6  A    between atoms: C6_12  and  C7_14 
REMARK    7  A    between atoms: C7_14  and  C8_15 
REMARK    8  A    between atoms: C7_14  and  N3_20 
REMARK    9  A    between atoms: C8_15  and  C9_16 
REMARK   10  A    between atoms: C9_16  and  C10_17 
REMARK       I    between atoms: N3_20  and  C11_22 
REMARK   11  A    between atoms: C11_22  and  C12_24 
REMARK   12  A    between atoms: C12_24  and  C13_25 
REMARK   13  A    between atoms: C13_25  and  C14_26 
REMARK   14  A    between atoms: C17_29  and  C18_30 
ROOT
HETATM    1  C7  UNL     1       8.641  26.217   3.368  1.00  0.00     0.177 C 
ENDROOT
BRANCH   1   2
HETATM    2  C6  UNL     1       8.635  25.986   1.902  1.00  0.00     0.241 C 
HETATM    3  N2  UNL     1       9.697  26.173   1.032  1.00  0.00    -0.346 N 
ATOM      4  H2  UNL     1      10.592  26.490   1.403  1.00  0.00     0.163 HD
HETATM    5  O4  UNL     1       7.520  25.571   1.426  1.00  0.00    -0.271 OA
BRANCH   3   6
HETATM    6  C2  UNL     1       9.568  25.928  -0.388  1.00  0.00     0.174 C 
BRANCH   6   7
HETATM    7  C1  UNL     1       9.999  24.589  -0.774  1.00  0.00     0.254 C 
HETATM    8  N1  UNL     1      10.821  24.327  -1.894  1.00  0.00    -0.060 NA
HETATM    9  O1  UNL     1       9.643  23.593  -0.102  1.00  0.00    -0.275 OA
ENDBRANCH   6   7
BRANCH   6  10
HETATM   10  C3  UNL     1      10.159  27.045  -1.180  1.00  0.00     0.045 C 
BRANCH  10  11
HETATM   11  C4  UNL     1      11.227  27.839  -0.517  1.00  0.00     0.116 C 
BRANCH  11  12
HETATM   12  C5  UNL     1      12.602  27.415  -0.660  1.00  0.00     0.172 C 
HETATM   13  O2  UNL     1      13.448  28.055  -1.324  1.00  0.00    -0.648 OA
HETATM   14  O3  UNL     1      13.084  26.258  -0.063  1.00  0.00    -0.648 OA
ENDBRANCH  11  12
ENDBRANCH  10  11
ENDBRANCH   6  10
ENDBRANCH   3   6
ENDBRANCH   1   2
BRANCH   1  15
HETATM   15  C8  UNL     1       9.860  27.042   3.698  1.00  0.00     0.045 C 
BRANCH  15  16
HETATM   16  C9  UNL     1       9.505  28.464   4.102  1.00  0.00     0.116 C 
BRANCH  16  17
HETATM   17  C10 UNL     1       9.941  29.465   3.101  1.00  0.00     0.172 C 
HETATM   18  O5  UNL     1       9.508  29.394   1.917  1.00  0.00    -0.648 OA
HETATM   19  O6  UNL     1      10.821  30.506   3.394  1.00  0.00    -0.648 OA
ENDBRANCH  16  17
ENDBRANCH  15  16
ENDBRANCH   1  15
BRANCH   1  20
HETATM   20  N3  UNL     1       8.435  25.078   4.177  1.00  0.00    -0.348 N 
HETATM   21  C11 UNL     1       7.548  25.140   5.296  1.00  0.00     0.218 C 
HETATM   22  O7  UNL     1       6.967  26.191   5.533  1.00  0.00    -0.274 OA
ATOM     23  H3  UNL     1       8.921  24.207   3.962  1.00  0.00     0.163 HD
BRANCH  21  24
HETATM   24  C12 UNL     1       7.333  23.938   6.168  1.00  0.00     0.107 C 
BRANCH  24  25
HETATM   25  C13 UNL     1       6.573  22.904   5.370  1.00  0.00     0.047 C 
BRANCH  25  26
HETATM   26  C14 UNL     1       5.173  22.748   5.815  1.00  0.00    -0.058 A 
HETATM   27  C15 UNL     1       4.165  23.599   5.402  1.00  0.00     0.008 A 
HETATM   28  C16 UNL     1       2.856  23.453   5.812  1.00  0.00     0.013 A 
HETATM   29  C17 UNL     1       2.494  22.449   6.657  1.00  0.00    -0.026 A 
HETATM   30  C24 UNL     1       3.494  21.583   7.084  1.00  0.00     0.013 A 
HETATM   31  C25 UNL     1       4.819  21.727   6.670  1.00  0.00     0.008 A 
BRANCH  29  32
HETATM   32  C18 UNL     1       1.135  22.227   7.118  1.00  0.00    -0.026 A 
HETATM   33  C19 UNL     1       0.827  21.245   8.061  1.00  0.00     0.012 A 
HETATM   34  C20 UNL     1      -0.461  21.032   8.487  1.00  0.00     0.001 A 
HETATM   35  C21 UNL     1      -1.482  21.794   7.979  1.00  0.00     0.000 A 
HETATM   36  C22 UNL     1      -1.211  22.767   7.049  1.00  0.00     0.001 A 
HETATM   37  C23 UNL     1       0.106  22.969   6.630  1.00  0.00     0.012 A 
ENDBRANCH  29  32
ENDBRANCH  25  26
ENDBRANCH  24  25
ENDBRANCH  21  24
ENDBRANCH   1  20
TORSDOF 14
ENDMDL
