MODEL 2
REMARK VINA RESULT: -10.031573915      0.563      1.036
REMARK  14 active torsions:
REMARK  status: ('A' for Active; 'I' for Inactive)
REMARK    1  A    between atoms: C1_2  and  C2_4 
REMARK    2  A    between atoms: C2_4  and  C3_5 
REMARK    3  A    between atoms: C2_4  and  N2_10 
REMARK    4  A    between atoms: C3_5  and  C4_6 
REMARK    5  A    between atoms: C4_6  and  C5_7 
REMARK       I    between atoms: N2_10  and  C6_12 
REMARK    6  A    between atoms: C6_12  and  C7_14 
REMARK    7  A    between atoms: C7_14  and  C8_15 
REMARK    8  A    between atoms: C7_14  and  N3_20 
REMARK    9  A    between atoms: C8_15  and  C9_16 
REMARK   10  A    between atoms: C9_16  and  C10_17 
REMARK       I    between atoms: N3_20  and  C11_22 
REMARK   11  A    between atoms: C11_22  and  C12_24 
REMARK   12  A    between atoms: C12_24  and  C13_25 
REMARK   13  A    between atoms: C13_25  and  C14_26 
REMARK   14  A    between atoms: C17_29  and  C18_30 
ROOT
HETATM    1  C7  UNL     1       8.216  28.336   5.785  1.00  0.00     0.177 C 
ENDROOT
BRANCH   1   2
HETATM    2  C6  UNL     1       7.834  28.732   7.163  1.00  0.00     0.241 C 
HETATM    3  N2  UNL     1       8.688  28.904   8.240  1.00  0.00    -0.346 N 
ATOM      4  H2  UNL     1       9.689  28.762   8.107  1.00  0.00     0.163 HD
HETATM    5  O4  UNL     1       6.579  28.929   7.340  1.00  0.00    -0.271 OA
BRANCH   3   6
HETATM    6  C2  UNL     1       8.196  29.279   9.548  1.00  0.00     0.174 C 
BRANCH   6   7
HETATM    7  C1  UNL     1       8.977  30.349  10.161  1.00  0.00     0.254 C 
HETATM    8  N1  UNL     1       8.492  31.164  11.210  1.00  0.00    -0.060 NA
HETATM    9  O1  UNL     1      10.142  30.587   9.766  1.00  0.00    -0.275 OA
ENDBRANCH   6   7
BRANCH   6  10
HETATM   10  C3  UNL     1       7.973  28.077  10.402  1.00  0.00     0.045 C 
BRANCH  10  11
HETATM   11  C4  UNL     1       9.068  27.714  11.340  1.00  0.00     0.116 C 
BRANCH  11  12
HETATM   12  C5  UNL     1       8.732  27.366  12.703  1.00  0.00     0.172 C 
HETATM   13  O2  UNL     1       8.770  26.192  13.137  1.00  0.00    -0.648 OA
HETATM   14  O3  UNL     1       8.342  28.319  13.634  1.00  0.00    -0.648 OA
ENDBRANCH  11  12
ENDBRANCH  10  11
ENDBRANCH   6  10
ENDBRANCH   3   6
ENDBRANCH   1   2
BRANCH   1  15
HETATM   15  C8  UNL     1       8.271  29.588   4.945  1.00  0.00     0.045 C 
BRANCH  15  16
HETATM   16  C9  UNL     1       8.523  29.288   3.476  1.00  0.00     0.116 C 
BRANCH  16  17
HETATM   17  C10 UNL     1       9.963  29.290   3.134  1.00  0.00     0.172 C 
HETATM   18  O5  UNL     1      10.461  28.307   2.517  1.00  0.00    -0.648 OA
HETATM   19  O6  UNL     1      10.824  30.338   3.458  1.00  0.00    -0.648 OA
ENDBRANCH  16  17
ENDBRANCH  15  16
ENDBRANCH   1  15
BRANCH   1  20
HETATM   20  N3  UNL     1       7.497  27.255   5.227  1.00  0.00    -0.348 N 
HETATM   21  C11 UNL     1       8.192  26.116   4.715  1.00  0.00     0.218 C 
HETATM   22  O7  UNL     1       9.413  26.090   4.777  1.00  0.00    -0.274 OA
ATOM     23  H3  UNL     1       6.478  27.289   5.189  1.00  0.00     0.163 HD
BRANCH  21  24
HETATM   24  C12 UNL     1       7.435  24.970   4.109  1.00  0.00     0.107 C 
BRANCH  24  25
HETATM   25  C13 UNL     1       7.495  23.803   5.067  1.00  0.00     0.047 C 
BRANCH  25  26
HETATM   26  C14 UNL     1       6.161  23.359   5.520  1.00  0.00    -0.058 A 
HETATM   27  C15 UNL     1       5.985  22.257   6.335  1.00  0.00     0.008 A 
HETATM   28  C16 UNL     1       4.740  21.843   6.763  1.00  0.00     0.013 A 
HETATM   29  C17 UNL     1       3.613  22.511   6.393  1.00  0.00    -0.026 A 
HETATM   30  C24 UNL     1       3.771  23.622   5.572  1.00  0.00     0.013 A 
HETATM   31  C25 UNL     1       5.029  24.045   5.139  1.00  0.00     0.008 A 
BRANCH  29  32
HETATM   32  C18 UNL     1       2.274  22.140   6.817  1.00  0.00    -0.026 A 
HETATM   33  C19 UNL     1       1.140  22.801   6.340  1.00  0.00     0.012 A 
HETATM   34  C20 UNL     1      -0.122  22.455   6.751  1.00  0.00     0.001 A 
HETATM   35  C21 UNL     1      -0.290  21.435   7.654  1.00  0.00     0.000 A 
HETATM   36  C22 UNL     1       0.806  20.767   8.141  1.00  0.00     0.001 A 
HETATM   37  C23 UNL     1       2.082  21.135   7.710  1.00  0.00     0.012 A 
ENDBRANCH  29  32
ENDBRANCH  25  26
ENDBRANCH  24  25
ENDBRANCH  21  24
ENDBRANCH   1  20
TORSDOF 14
ENDMDL
