MODEL 7
REMARK VINA RESULT: -8.051330594      2.771      4.658
REMARK  7 active torsions:
REMARK  status: ('A' for Active; 'I' for Inactive)
REMARK    1  A    between atoms: C1_2  and  C2_6 
REMARK    2  A    between atoms: C5_9  and  C6_10 
REMARK    3  A    between atoms: C6_10  and  N3_11 
REMARK       I    between atoms: N3_11  and  C7_13 
REMARK    4  A    between atoms: C7_13  and  C8_15 
REMARK       I    between atoms: N4_19  and  C12_20 
REMARK    5  A    between atoms: C12_20  and  C13_22 
REMARK    6  A    between atoms: C13_22  and  N5_23 
REMARK    7  A    between atoms: N5_23  and  C14_26 
ROOT
HETATM    1  C8  UNL     1      17.590  -7.717  14.047  1.00  0.00     0.179 C 
HETATM    2  C9  UNL     1      19.072  -7.418  14.171  1.00  0.00     0.037 C 
HETATM    3  C10 UNL     1      19.563  -7.681  12.764  1.00  0.00     0.022 C 
HETATM    4  C11 UNL     1      18.503  -8.582  12.124  1.00  0.00     0.127 C 
HETATM    5  N4  UNL     1      17.609  -8.873  13.200  1.00  0.00    -0.337 N 
HETATM    6  C12 UNL     1      16.884 -10.059  13.398  1.00  0.00     0.246 C 
HETATM    7  O2  UNL     1      16.997 -11.006  12.565  1.00  0.00    -0.272 OA
ENDROOT
BRANCH   1   8
HETATM    8  C7  UNL     1      16.899  -6.559  13.376  1.00  0.00     0.240 C 
HETATM    9  N3  UNL     1      17.516  -5.295  13.252  1.00  0.00    -0.355 N 
ATOM     10  H3  UNL     1      18.456  -5.174  13.630  1.00  0.00     0.162 HD
HETATM   11  O1  UNL     1      15.732  -6.671  12.894  1.00  0.00    -0.271 OA
BRANCH   9  12
HETATM   12  C6  UNL     1      16.877  -4.162  12.614  1.00  0.00     0.161 C 
BRANCH  12  13
HETATM   13  C5  UNL     1      17.364  -4.015  11.222  1.00  0.00    -0.040 A 
HETATM   14  C4  UNL     1      16.510  -3.742  10.177  1.00  0.00     0.010 A 
HETATM   15  C3  UNL     1      16.958  -3.603   8.885  1.00  0.00     0.015 A 
HETATM   16  C2  UNL     1      18.319  -3.730   8.554  1.00  0.00     0.004 A 
HETATM   17  C21 UNL     1      19.168  -4.003   9.598  1.00  0.00     0.015 A 
HETATM   18  C20 UNL     1      18.698  -4.143  10.913  1.00  0.00     0.010 A 
BRANCH  16  19
HETATM   19  C1  UNL     1      18.731  -3.573   7.170  1.00  0.00     0.120 C 
HETATM   20  N1  UNL     1      17.753  -3.398   6.134  1.00  0.00    -0.082 NA
HETATM   21  N2  UNL     1      19.968  -3.587   6.853  1.00  0.00    -0.387 N 
ATOM     22  H22 UNL     1      20.257  -3.476   5.882  1.00  0.00     0.157 HD
ATOM     23  H21 UNL     1      20.662  -3.711   7.589  1.00  0.00     0.157 HD
ENDBRANCH  16  19
ENDBRANCH  12  13
ENDBRANCH   9  12
ENDBRANCH   1   8
BRANCH   6  24
HETATM   24  C13 UNL     1      15.973 -10.276  14.550  1.00  0.00     0.335 C 
BRANCH  24  25
HETATM   25  N5  UNL     1      14.759  -9.514  14.353  1.00  0.00    -0.063 N 
ATOM     26  H52 UNL     1      14.939  -8.528  14.165  1.00  0.00     0.278 HD
ATOM     27  H51 UNL     1      14.291  -9.738  13.475  1.00  0.00     0.278 HD
BRANCH  25  28
HETATM   28  C14 UNL     1      13.919  -9.715  15.492  1.00  0.00     0.186 C 
HETATM   29  C15 UNL     1      13.978 -11.150  16.025  1.00  0.00     0.033 C 
HETATM   30  C16 UNL     1      12.765 -11.286  16.937  1.00  0.00     0.002 C 
HETATM   31  C17 UNL     1      12.789 -10.275  18.041  1.00  0.00     0.000 C 
HETATM   32  C18 UNL     1      13.030  -8.867  17.589  1.00  0.00     0.002 C 
HETATM   33  C19 UNL     1      14.237  -8.821  16.662  1.00  0.00     0.033 C 
ENDBRANCH  25  28
ENDBRANCH  24  25
ENDBRANCH   6  24
TORSDOF 7
ENDMDL
