MODEL 10
REMARK VINA RESULT: -7.752109604      2.637      5.015
REMARK  7 active torsions:
REMARK  status: ('A' for Active; 'I' for Inactive)
REMARK    1  A    between atoms: C1_2  and  C2_6 
REMARK    2  A    between atoms: C5_9  and  C6_10 
REMARK    3  A    between atoms: C6_10  and  N3_11 
REMARK       I    between atoms: N3_11  and  C7_13 
REMARK    4  A    between atoms: C7_13  and  C8_15 
REMARK       I    between atoms: N4_19  and  C12_20 
REMARK    5  A    between atoms: C12_20  and  C13_22 
REMARK    6  A    between atoms: C13_22  and  N5_23 
REMARK    7  A    between atoms: N5_23  and  C14_26 
ROOT
HETATM    1  C8  UNL     1      17.634  -8.187  14.012  1.00  0.00     0.179 C 
HETATM    2  C9  UNL     1      19.023  -8.238  13.403  1.00  0.00     0.037 C 
HETATM    3  C10 UNL     1      18.741  -8.801  12.027  1.00  0.00     0.022 C 
HETATM    4  C11 UNL     1      17.384  -9.501  12.143  1.00  0.00     0.127 C 
HETATM    5  N4  UNL     1      17.077  -9.419  13.537  1.00  0.00    -0.337 N 
HETATM    6  C12 UNL     1      16.367 -10.358  14.301  1.00  0.00     0.246 C 
HETATM    7  O2  UNL     1      15.928 -11.410  13.749  1.00  0.00    -0.272 OA
ENDROOT
BRANCH   1   8
HETATM    8  C7  UNL     1      16.888  -7.001  13.460  1.00  0.00     0.240 C 
HETATM    9  N3  UNL     1      17.554  -5.818  13.071  1.00  0.00    -0.355 N 
ATOM     10  H3  UNL     1      18.568  -5.777  13.169  1.00  0.00     0.162 HD
HETATM   11  O1  UNL     1      15.628  -7.014  13.323  1.00  0.00    -0.271 OA
BRANCH   9  12
HETATM   12  C6  UNL     1      16.864  -4.660  12.539  1.00  0.00     0.161 C 
BRANCH  12  13
HETATM   13  C5  UNL     1      17.328  -4.375  11.161  1.00  0.00    -0.040 A 
HETATM   14  C4  UNL     1      18.636  -4.568  10.777  1.00  0.00     0.010 A 
HETATM   15  C3  UNL     1      19.069  -4.307   9.500  1.00  0.00     0.015 A 
HETATM   16  C2  UNL     1      18.199  -3.826   8.505  1.00  0.00     0.004 A 
HETATM   17  C21 UNL     1      16.895  -3.633   8.890  1.00  0.00     0.015 A 
HETATM   18  C20 UNL     1      16.465  -3.903  10.199  1.00  0.00     0.010 A 
BRANCH  16  19
HETATM   19  C1  UNL     1      18.716  -3.568   7.173  1.00  0.00     0.120 C 
HETATM   20  N1  UNL     1      17.821  -3.378   6.068  1.00  0.00    -0.082 NA
HETATM   21  N2  UNL     1      19.975  -3.508   6.963  1.00  0.00    -0.387 N 
ATOM     22  H22 UNL     1      20.338  -3.327   6.028  1.00  0.00     0.157 HD
ATOM     23  H21 UNL     1      20.611  -3.643   7.748  1.00  0.00     0.157 HD
ENDBRANCH  16  19
ENDBRANCH  12  13
ENDBRANCH   9  12
ENDBRANCH   1   8
BRANCH   6  24
HETATM   24  C13 UNL     1      16.092 -10.190  15.750  1.00  0.00     0.335 C 
BRANCH  24  25
HETATM   25  N5  UNL     1      15.107  -9.147  15.935  1.00  0.00    -0.063 N 
ATOM     26  H52 UNL     1      15.517  -8.271  16.259  1.00  0.00     0.278 HD
ATOM     27  H51 UNL     1      14.727  -8.803  15.053  1.00  0.00     0.278 HD
BRANCH  25  28
HETATM   28  C14 UNL     1      14.095  -9.642  16.816  1.00  0.00     0.186 C 
HETATM   29  C15 UNL     1      13.226  -8.527  17.406  1.00  0.00     0.033 C 
HETATM   30  C16 UNL     1      12.506  -9.166  18.585  1.00  0.00     0.002 C 
HETATM   31  C17 UNL     1      11.690 -10.348  18.159  1.00  0.00     0.000 C 
HETATM   32  C18 UNL     1      12.428 -11.339  17.313  1.00  0.00     0.002 C 
HETATM   33  C19 UNL     1      13.144 -10.621  16.177  1.00  0.00     0.033 C 
ENDBRANCH  25  28
ENDBRANCH  24  25
ENDBRANCH   6  24
TORSDOF 7
ENDMDL
