MODEL 12
REMARK VINA RESULT: -7.721143370      3.823      7.527
REMARK  7 active torsions:
REMARK  status: ('A' for Active; 'I' for Inactive)
REMARK    1  A    between atoms: C1_2  and  C2_6 
REMARK    2  A    between atoms: C5_9  and  C6_10 
REMARK    3  A    between atoms: C6_10  and  N3_11 
REMARK       I    between atoms: N3_11  and  C7_13 
REMARK    4  A    between atoms: C7_13  and  C8_15 
REMARK       I    between atoms: N4_19  and  C12_20 
REMARK    5  A    between atoms: C12_20  and  C13_22 
REMARK    6  A    between atoms: C13_22  and  N5_23 
REMARK    7  A    between atoms: N5_23  and  C14_26 
ROOT
HETATM    1  C8  UNL     1      17.629  -6.537  12.822  1.00  0.00     0.179 C 
HETATM    2  C9  UNL     1      16.580  -7.513  12.325  1.00  0.00     0.037 C 
HETATM    3  C10 UNL     1      17.109  -8.833  12.844  1.00  0.00     0.022 C 
HETATM    4  C11 UNL     1      18.600  -8.601  13.102  1.00  0.00     0.127 C 
HETATM    5  N4  UNL     1      18.832  -7.284  12.599  1.00  0.00    -0.337 N 
HETATM    6  C12 UNL     1      20.008  -6.804  12.001  1.00  0.00     0.246 C 
HETATM    7  O2  UNL     1      21.001  -7.578  11.866  1.00  0.00    -0.272 OA
ENDROOT
BRANCH   1   8
HETATM    8  C7  UNL     1      17.413  -6.274  14.290  1.00  0.00     0.240 C 
HETATM    9  N3  UNL     1      16.119  -6.140  14.839  1.00  0.00    -0.355 N 
ATOM     10  H3  UNL     1      15.316  -6.226  14.216  1.00  0.00     0.162 HD
HETATM   11  O1  UNL     1      18.386  -6.162  15.094  1.00  0.00    -0.271 OA
BRANCH   9  12
HETATM   12  C6  UNL     1      15.879  -5.885  16.245  1.00  0.00     0.161 C 
BRANCH  12  13
HETATM   13  C5  UNL     1      15.977  -4.434  16.528  1.00  0.00    -0.040 A 
HETATM   14  C4  UNL     1      16.922  -3.921  17.387  1.00  0.00     0.010 A 
HETATM   15  C3  UNL     1      17.018  -2.575  17.649  1.00  0.00     0.015 A 
HETATM   16  C2  UNL     1      16.154  -1.639  17.053  1.00  0.00     0.004 A 
HETATM   17  C21 UNL     1      15.212  -2.153  16.197  1.00  0.00     0.015 A 
HETATM   18  C20 UNL     1      15.124  -3.530  15.937  1.00  0.00     0.010 A 
BRANCH  16  19
HETATM   19  C1  UNL     1      16.304  -0.231  17.370  1.00  0.00     0.120 C 
HETATM   20  N1  UNL     1      17.551   0.440  17.136  1.00  0.00    -0.082 NA
HETATM   21  N2  UNL     1      15.332   0.434  17.863  1.00  0.00    -0.387 N 
ATOM     22  H22 UNL     1      15.437   1.423  18.085  1.00  0.00     0.157 HD
ATOM     23  H21 UNL     1      14.445  -0.042  18.030  1.00  0.00     0.157 HD
ENDBRANCH  16  19
ENDBRANCH  12  13
ENDBRANCH   9  12
ENDBRANCH   1   8
BRANCH   6  24
HETATM   24  C13 UNL     1      20.162  -5.413  11.505  1.00  0.00     0.335 C 
BRANCH  24  25
HETATM   25  N5  UNL     1      20.219  -5.422  10.060  1.00  0.00    -0.063 N 
ATOM     26  H52 UNL     1      21.073  -4.998   9.697  1.00  0.00     0.278 HD
ATOM     27  H51 UNL     1      20.357  -6.357   9.676  1.00  0.00     0.278 HD
BRANCH  25  28
HETATM   28  C14 UNL     1      19.036  -4.791   9.565  1.00  0.00     0.186 C 
HETATM   29  C15 UNL     1      18.357  -3.901  10.611  1.00  0.00     0.033 C 
HETATM   30  C16 UNL     1      16.954  -3.652  10.072  1.00  0.00     0.002 C 
HETATM   31  C17 UNL     1      16.990  -3.004   8.722  1.00  0.00     0.000 C 
HETATM   32  C18 UNL     1      17.889  -3.679   7.733  1.00  0.00     0.002 C 
HETATM   33  C19 UNL     1      19.258  -3.919   8.356  1.00  0.00     0.033 C 
ENDBRANCH  25  28
ENDBRANCH  24  25
ENDBRANCH   6  24
TORSDOF 7
ENDMDL
