MODEL 15
REMARK VINA RESULT: -11.040829067      2.502      5.119
REMARK  9 active torsions:
REMARK  status: ('A' for Active; 'I' for Inactive)
REMARK    1  A    between atoms: C1_2  and  C2_3 
REMARK       I    between atoms: C1_2  and  N2_36 
REMARK    2  A    between atoms: C2_3  and  C3_4 
REMARK    3  A    between atoms: C3_4  and  C4_5 
REMARK    4  A    between atoms: C3_4  and  C18_21 
REMARK    5  A    between atoms: C4_5  and  C5_6 
REMARK    6  A    between atoms: C8_9  and  C9_10 
REMARK       I    between atoms: C18_21  and  N1_23 
REMARK    7  A    between atoms: N1_23  and  C19_25 
REMARK    8  A    between atoms: C27_33  and  O5_34 
REMARK    9  A    between atoms: N2_36  and  O6_38 
ROOT
HETATM    1  C3  UNL     1      73.524  87.326  49.696  1.00  0.00     0.001 C 
ENDROOT
BRANCH   1   2
HETATM    2  C2  UNL     1      74.778  87.992  49.260  1.00  0.00     0.145 C 
BRANCH   2   3
HETATM    3  C1  UNL     1      76.023  87.644  49.933  1.00  0.00     0.245 C 
HETATM    4  O1  UNL     1      77.114  87.622  49.345  1.00  0.00    -0.271 OA
HETATM    5  N2  UNL     1      76.018  87.303  51.351  1.00  0.00    -0.237 N 
ATOM      6  H2  UNL     1      75.148  87.305  51.884  1.00  0.00     0.197 HD
BRANCH   5   7
HETATM    7  O6  UNL     1      77.182  86.988  51.939  1.00  0.00    -0.287 OA
ATOM      8  H6  UNL     1      77.976  87.016  51.419  1.00  0.00     0.244 HD
ENDBRANCH   5   7
ENDBRANCH   2   3
ENDBRANCH   1   2
BRANCH   1   9
HETATM    9  C4  UNL     1      72.315  87.881  49.044  1.00  0.00     0.078 C 
BRANCH   9  10
HETATM   10  C5  UNL     1      72.762  88.838  47.968  1.00  0.00    -0.054 A 
HETATM   11  C6  UNL     1      72.310  90.140  48.077  1.00  0.00     0.008 A 
HETATM   12  C7  UNL     1      72.662  91.078  47.133  1.00  0.00     0.013 A 
HETATM   13  C8  UNL     1      73.465  90.769  46.051  1.00  0.00    -0.026 A 
HETATM   14  C16 UNL     1      73.896  89.461  45.975  1.00  0.00     0.013 A 
HETATM   15  C17 UNL     1      73.553  88.495  46.920  1.00  0.00     0.008 A 
BRANCH  13  16
HETATM   16  C9  UNL     1      73.835  91.763  45.052  1.00  0.00    -0.023 A 
HETATM   17  C10 UNL     1      73.193  92.990  45.115  1.00  0.00     0.015 A 
HETATM   18  C11 UNL     1      73.474  94.001  44.213  1.00  0.00     0.040 A 
HETATM   19  C12 UNL     1      74.405  93.787  43.237  1.00  0.00     0.105 A 
HETATM   20  C13 UNL     1      75.040  92.557  43.184  1.00  0.00     0.105 A 
HETATM   21  O3  UNL     1      74.863  94.614  42.231  1.00  0.00    -0.323 OA
HETATM   22  C14 UNL     1      74.764  91.547  44.080  1.00  0.00     0.052 A 
HETATM   23  O2  UNL     1      75.915  92.625  42.115  1.00  0.00    -0.323 OA
HETATM   24  C15 UNL     1      75.749  93.834  41.429  1.00  0.00     0.352 C 
ENDBRANCH  13  16
ENDBRANCH   9  10
ENDBRANCH   1   9
BRANCH   1  25
HETATM   25  C18 UNL     1      73.638  85.884  49.819  1.00  0.00     0.245 C 
HETATM   26  O4  UNL     1      73.520  85.393  51.013  1.00  0.00    -0.268 OA
HETATM   27  N1  UNL     1      73.857  84.913  48.840  1.00  0.00    -0.346 N 
ATOM     28  H1  UNL     1      73.964  85.217  47.872  1.00  0.00     0.163 HD
BRANCH  27  29
HETATM   29  C19 UNL     1      73.941  83.497  49.125  1.00  0.00     0.147 C 
HETATM   30  C20 UNL     1      72.830  82.734  48.516  1.00  0.00    -0.027 A 
HETATM   31  C21 UNL     1      71.535  83.093  48.235  1.00  0.00     0.010 A 
HETATM   32  C25 UNL     1      73.308  81.474  48.231  1.00  0.00    -0.047 A 
HETATM   33  C22 UNL     1      70.674  82.185  47.654  1.00  0.00     0.001 A 
HETATM   34  C23 UNL     1      71.142  80.920  47.365  1.00  0.00     0.001 A 
HETATM   35  C24 UNL     1      72.451  80.566  47.652  1.00  0.00     0.008 A 
HETATM   36  C26 UNL     1      74.730  81.361  48.635  1.00  0.00     0.073 C 
HETATM   37  C27 UNL     1      75.141  82.840  48.532  1.00  0.00     0.149 C 
BRANCH  37  38
HETATM   38  O5  UNL     1      75.289  83.094  47.172  1.00  0.00    -0.393 OA
ATOM     39  H5  UNL     1      74.976  82.384  46.624  1.00  0.00     0.210 HD
ENDBRANCH  37  38
ENDBRANCH  27  29
ENDBRANCH   1  25
TORSDOF 9
ENDMDL
