MODEL 10
REMARK VINA RESULT: -11.510631129      2.392      6.098
REMARK  9 active torsions:
REMARK  status: ('A' for Active; 'I' for Inactive)
REMARK    1  A    between atoms: C1_2  and  C2_3 
REMARK       I    between atoms: C1_2  and  N2_36 
REMARK    2  A    between atoms: C2_3  and  C3_4 
REMARK    3  A    between atoms: C3_4  and  C4_5 
REMARK    4  A    between atoms: C3_4  and  C18_21 
REMARK    5  A    between atoms: C4_5  and  C5_6 
REMARK    6  A    between atoms: C8_9  and  C9_10 
REMARK       I    between atoms: C18_21  and  N1_23 
REMARK    7  A    between atoms: N1_23  and  C19_25 
REMARK    8  A    between atoms: C27_33  and  O5_34 
REMARK    9  A    between atoms: N2_36  and  O6_38 
ROOT
HETATM    1  C3  UNL     1      73.429  86.020  49.877  1.00  0.00     0.001 C 
ENDROOT
BRANCH   1   2
HETATM    2  C2  UNL     1      74.777  86.600  49.646  1.00  0.00     0.145 C 
BRANCH   2   3
HETATM    3  C1  UNL     1      75.729  86.611  50.750  1.00  0.00     0.245 C 
HETATM    4  O1  UNL     1      75.988  85.599  51.417  1.00  0.00    -0.271 OA
HETATM    5  N2  UNL     1      76.420  87.846  51.108  1.00  0.00    -0.237 N 
ATOM      6  H2  UNL     1      76.245  88.708  50.593  1.00  0.00     0.197 HD
BRANCH   5   7
HETATM    7  O6  UNL     1      77.290  87.821  52.129  1.00  0.00    -0.287 OA
ATOM      8  H6  UNL     1      77.101  88.343  52.899  1.00  0.00     0.244 HD
ENDBRANCH   5   7
ENDBRANCH   2   3
ENDBRANCH   1   2
BRANCH   1   9
HETATM    9  C4  UNL     1      72.344  87.025  49.796  1.00  0.00     0.078 C 
BRANCH   9  10
HETATM   10  C5  UNL     1      72.694  88.005  48.704  1.00  0.00    -0.054 A 
HETATM   11  C6  UNL     1      72.262  89.305  48.883  1.00  0.00     0.008 A 
HETATM   12  C7  UNL     1      72.529  90.263  47.931  1.00  0.00     0.013 A 
HETATM   13  C8  UNL     1      73.227  89.976  46.773  1.00  0.00    -0.026 A 
HETATM   14  C16 UNL     1      73.642  88.669  46.628  1.00  0.00     0.013 A 
HETATM   15  C17 UNL     1      73.383  87.682  47.580  1.00  0.00     0.008 A 
BRANCH  13  16
HETATM   16  C9  UNL     1      73.508  90.990  45.766  1.00  0.00    -0.023 A 
HETATM   17  C10 UNL     1      72.839  92.199  45.883  1.00  0.00     0.015 A 
HETATM   18  C11 UNL     1      73.036  93.227  44.978  1.00  0.00     0.040 A 
HETATM   19  C12 UNL     1      73.910  93.049  43.944  1.00  0.00     0.105 A 
HETATM   20  C13 UNL     1      74.574  91.838  43.837  1.00  0.00     0.105 A 
HETATM   21  O3  UNL     1      74.283  93.899  42.923  1.00  0.00    -0.323 OA
HETATM   22  C14 UNL     1      74.380  90.811  44.736  1.00  0.00     0.052 A 
HETATM   23  O2  UNL     1      75.379  91.941  42.717  1.00  0.00    -0.323 OA
HETATM   24  C15 UNL     1      75.138  93.153  42.058  1.00  0.00     0.352 C 
ENDBRANCH  13  16
ENDBRANCH   9  10
ENDBRANCH   1   9
BRANCH   1  25
HETATM   25  C18 UNL     1      73.226  84.736  49.232  1.00  0.00     0.245 C 
HETATM   26  O4  UNL     1      74.274  84.174  48.715  1.00  0.00    -0.268 OA
HETATM   27  N1  UNL     1      72.060  83.984  49.073  1.00  0.00    -0.346 N 
ATOM     28  H1  UNL     1      71.189  84.357  49.450  1.00  0.00     0.163 HD
BRANCH  27  29
HETATM   29  C19 UNL     1      72.022  82.703  48.402  1.00  0.00     0.147 C 
HETATM   30  C20 UNL     1      71.613  81.607  49.307  1.00  0.00    -0.027 A 
HETATM   31  C21 UNL     1      71.788  81.437  50.658  1.00  0.00     0.010 A 
HETATM   32  C25 UNL     1      70.959  80.667  48.540  1.00  0.00    -0.047 A 
HETATM   33  C22 UNL     1      71.305  80.307  51.284  1.00  0.00     0.001 A 
HETATM   34  C23 UNL     1      70.650  79.359  50.526  1.00  0.00     0.001 A 
HETATM   35  C24 UNL     1      70.478  79.538  49.162  1.00  0.00     0.008 A 
HETATM   36  C26 UNL     1      70.914  81.102  47.124  1.00  0.00     0.073 C 
HETATM   37  C27 UNL     1      70.995  82.626  47.324  1.00  0.00     0.149 C 
BRANCH  37  38
HETATM   38  O5  UNL     1      69.728  83.016  47.745  1.00  0.00    -0.393 OA
ATOM     39  H5  UNL     1      69.273  82.342  48.235  1.00  0.00     0.210 HD
ENDBRANCH  37  38
ENDBRANCH  27  29
ENDBRANCH   1  25
TORSDOF 9
ENDMDL
