MODEL 3
REMARK VINA RESULT: -12.387060231      1.122      1.527
REMARK  9 active torsions:
REMARK  status: ('A' for Active; 'I' for Inactive)
REMARK    1  A    between atoms: C1_2  and  C2_3 
REMARK       I    between atoms: C1_2  and  N2_36 
REMARK    2  A    between atoms: C2_3  and  C3_4 
REMARK    3  A    between atoms: C3_4  and  C4_5 
REMARK    4  A    between atoms: C3_4  and  C18_21 
REMARK    5  A    between atoms: C4_5  and  C5_6 
REMARK    6  A    between atoms: C8_9  and  C9_10 
REMARK       I    between atoms: C18_21  and  N1_23 
REMARK    7  A    between atoms: N1_23  and  C19_25 
REMARK    8  A    between atoms: C27_33  and  O5_34 
REMARK    9  A    between atoms: N2_36  and  O6_38 
ROOT
HETATM    1  C3  UNL     1      73.793  86.572  49.207  1.00  0.00     0.001 C 
ENDROOT
BRANCH   1   2
HETATM    2  C2  UNL     1      73.390  85.147  49.099  1.00  0.00     0.145 C 
BRANCH   2   3
HETATM    3  C1  UNL     1      72.539  84.746  47.985  1.00  0.00     0.245 C 
HETATM    4  O1  UNL     1      72.936  84.743  46.811  1.00  0.00    -0.271 OA
HETATM    5  N2  UNL     1      71.163  84.326  48.229  1.00  0.00    -0.237 N 
ATOM      6  H2  UNL     1      70.784  84.310  49.176  1.00  0.00     0.197 HD
BRANCH   5   7
HETATM    7  O6  UNL     1      70.408  83.963  47.181  1.00  0.00    -0.287 OA
ATOM      8  H6  UNL     1      69.717  84.549  46.896  1.00  0.00     0.244 HD
ENDBRANCH   5   7
ENDBRANCH   2   3
ENDBRANCH   1   2
BRANCH   1   9
HETATM    9  C4  UNL     1      72.650  87.508  49.092  1.00  0.00     0.078 C 
BRANCH   9  10
HETATM   10  C5  UNL     1      72.982  88.522  48.026  1.00  0.00    -0.054 A 
HETATM   11  C6  UNL     1      72.421  89.776  48.174  1.00  0.00     0.008 A 
HETATM   12  C7  UNL     1      72.663  90.760  47.242  1.00  0.00     0.013 A 
HETATM   13  C8  UNL     1      73.462  90.545  46.135  1.00  0.00    -0.026 A 
HETATM   14  C16 UNL     1      74.004  89.282  46.020  1.00  0.00     0.013 A 
HETATM   15  C17 UNL     1      73.772  88.271  46.952  1.00  0.00     0.008 A 
BRANCH  13  16
HETATM   16  C9  UNL     1      73.716  91.587  45.149  1.00  0.00    -0.023 A 
HETATM   17  C10 UNL     1      74.539  91.260  44.082  1.00  0.00     0.015 A 
HETATM   18  C11 UNL     1      74.841  92.179  43.092  1.00  0.00     0.040 A 
HETATM   19  C12 UNL     1      74.317  93.438  43.166  1.00  0.00     0.105 A 
HETATM   20  C13 UNL     1      73.496  93.753  44.237  1.00  0.00     0.105 A 
HETATM   21  O3  UNL     1      74.458  94.523  42.325  1.00  0.00    -0.323 OA
HETATM   22  C14 UNL     1      73.192  92.841  45.225  1.00  0.00     0.052 A 
HETATM   23  O2  UNL     1      73.119  95.071  44.053  1.00  0.00    -0.323 OA
HETATM   24  C15 UNL     1      73.787  95.617  42.950  1.00  0.00     0.352 C 
ENDBRANCH  13  16
ENDBRANCH   9  10
ENDBRANCH   1   9
BRANCH   1  25
HETATM   25  C18 UNL     1      74.785  86.823  50.235  1.00  0.00     0.245 C 
HETATM   26  O4  UNL     1      74.524  86.360  51.419  1.00  0.00    -0.268 OA
HETATM   27  N1  UNL     1      76.007  87.496  50.162  1.00  0.00    -0.346 N 
ATOM     28  H1  UNL     1      76.286  87.893  49.265  1.00  0.00     0.163 HD
BRANCH  27  29
HETATM   29  C19 UNL     1      76.897  87.659  51.290  1.00  0.00     0.147 C 
HETATM   30  C20 UNL     1      77.923  86.593  51.355  1.00  0.00    -0.027 A 
HETATM   31  C21 UNL     1      77.889  85.281  50.954  1.00  0.00     0.010 A 
HETATM   32  C25 UNL     1      79.046  87.143  51.934  1.00  0.00    -0.047 A 
HETATM   33  C22 UNL     1      78.994  84.474  51.125  1.00  0.00     0.001 A 
HETATM   34  C23 UNL     1      80.124  85.014  51.704  1.00  0.00     0.001 A 
HETATM   35  C24 UNL     1      80.150  86.340  52.107  1.00  0.00     0.008 A 
HETATM   36  C26 UNL     1      78.807  88.568  52.266  1.00  0.00     0.073 C 
HETATM   37  C27 UNL     1      77.728  88.896  51.219  1.00  0.00     0.149 C 
BRANCH  37  38
HETATM   38  O5  UNL     1      78.406  89.032  50.013  1.00  0.00    -0.393 OA
ATOM     39  H5  UNL     1      78.917  88.265  49.783  1.00  0.00     0.210 HD
ENDBRANCH  37  38
ENDBRANCH  27  29
ENDBRANCH   1  25
TORSDOF 9
ENDMDL
