MODEL 16
REMARK VINA RESULT: -11.022669214      2.495      5.082
REMARK  9 active torsions:
REMARK  status: ('A' for Active; 'I' for Inactive)
REMARK    1  A    between atoms: C1_2  and  C2_3 
REMARK       I    between atoms: C1_2  and  N2_36 
REMARK    2  A    between atoms: C2_3  and  C3_4 
REMARK    3  A    between atoms: C3_4  and  C4_5 
REMARK    4  A    between atoms: C3_4  and  C18_21 
REMARK    5  A    between atoms: C4_5  and  C5_6 
REMARK    6  A    between atoms: C8_9  and  C9_10 
REMARK       I    between atoms: C18_21  and  N1_23 
REMARK    7  A    between atoms: N1_23  and  C19_25 
REMARK    8  A    between atoms: C27_33  and  O5_34 
REMARK    9  A    between atoms: N2_36  and  O6_38 
ROOT
HETATM    1  C3  UNL     1      73.662  87.105  49.884  1.00  0.00     0.001 C 
ENDROOT
BRANCH   1   2
HETATM    2  C2  UNL     1      74.840  87.932  49.519  1.00  0.00     0.145 C 
BRANCH   2   3
HETATM    3  C1  UNL     1      76.139  87.582  50.080  1.00  0.00     0.245 C 
HETATM    4  O1  UNL     1      77.155  87.456  49.381  1.00  0.00    -0.271 OA
HETATM    5  N2  UNL     1      76.281  87.363  51.515  1.00  0.00    -0.237 N 
ATOM      6  H2  UNL     1      75.479  87.453  52.138  1.00  0.00     0.197 HD
BRANCH   5   7
HETATM    7  O6  UNL     1      77.491  87.042  51.998  1.00  0.00    -0.287 OA
ATOM      8  H6  UNL     1      77.729  86.124  52.054  1.00  0.00     0.244 HD
ENDBRANCH   5   7
ENDBRANCH   2   3
ENDBRANCH   1   2
BRANCH   1   9
HETATM    9  C4  UNL     1      72.427  87.510  49.173  1.00  0.00     0.078 C 
BRANCH   9  10
HETATM   10  C5  UNL     1      72.805  88.508  48.108  1.00  0.00    -0.054 A 
HETATM   11  C6  UNL     1      72.286  89.781  48.246  1.00  0.00     0.008 A 
HETATM   12  C7  UNL     1      72.573  90.753  47.314  1.00  0.00     0.013 A 
HETATM   13  C8  UNL     1      73.376  90.505  46.216  1.00  0.00    -0.026 A 
HETATM   14  C16 UNL     1      73.875  89.224  46.111  1.00  0.00     0.013 A 
HETATM   15  C17 UNL     1      73.598  88.225  47.043  1.00  0.00     0.008 A 
BRANCH  13  16
HETATM   16  C9  UNL     1      73.677  91.534  45.230  1.00  0.00    -0.023 A 
HETATM   17  C10 UNL     1      74.531  91.187  44.194  1.00  0.00     0.015 A 
HETATM   18  C11 UNL     1      74.879  92.092  43.207  1.00  0.00     0.040 A 
HETATM   19  C12 UNL     1      74.369  93.358  43.251  1.00  0.00     0.105 A 
HETATM   20  C13 UNL     1      73.516  93.694  44.290  1.00  0.00     0.105 A 
HETATM   21  O3  UNL     1      74.553  94.433  42.406  1.00  0.00    -0.323 OA
HETATM   22  C14 UNL     1      73.167  92.796  45.275  1.00  0.00     0.052 A 
HETATM   23  O2  UNL     1      73.163  95.015  44.081  1.00  0.00    -0.323 OA
HETATM   24  C15 UNL     1      73.875  95.542  42.997  1.00  0.00     0.352 C 
ENDBRANCH  13  16
ENDBRANCH   9  10
ENDBRANCH   1   9
BRANCH   1  25
HETATM   25  C18 UNL     1      73.954  85.688  50.000  1.00  0.00     0.245 C 
HETATM   26  O4  UNL     1      73.915  85.184  51.195  1.00  0.00    -0.268 OA
HETATM   27  N1  UNL     1      74.278  84.752  49.016  1.00  0.00    -0.346 N 
ATOM     28  H1  UNL     1      74.332  85.068  48.047  1.00  0.00     0.163 HD
BRANCH  27  29
HETATM   29  C19 UNL     1      74.539  83.357  49.295  1.00  0.00     0.147 C 
HETATM   30  C20 UNL     1      73.407  82.485  48.911  1.00  0.00    -0.027 A 
HETATM   31  C21 UNL     1      72.056  82.723  48.873  1.00  0.00     0.010 A 
HETATM   32  C25 UNL     1      73.936  81.263  48.556  1.00  0.00    -0.047 A 
HETATM   33  C22 UNL     1      71.187  81.730  48.472  1.00  0.00     0.001 A 
HETATM   34  C23 UNL     1      71.706  80.502  48.114  1.00  0.00     0.001 A 
HETATM   35  C24 UNL     1      73.072  80.270  48.156  1.00  0.00     0.008 A 
HETATM   36  C26 UNL     1      75.412  81.285  48.690  1.00  0.00     0.073 C 
HETATM   37  C27 UNL     1      75.663  82.790  48.497  1.00  0.00     0.149 C 
BRANCH  37  38
HETATM   38  O5  UNL     1      75.534  83.018  47.130  1.00  0.00    -0.393 OA
ATOM     39  H5  UNL     1      75.605  83.936  46.897  1.00  0.00     0.210 HD
ENDBRANCH  37  38
ENDBRANCH  27  29
ENDBRANCH   1  25
TORSDOF 9
ENDMDL
