MODEL 5
REMARK VINA RESULT: -12.134009903      1.431      1.908
REMARK  9 active torsions:
REMARK  status: ('A' for Active; 'I' for Inactive)
REMARK    1  A    between atoms: C1_2  and  C2_3 
REMARK       I    between atoms: C1_2  and  N2_36 
REMARK    2  A    between atoms: C2_3  and  C3_4 
REMARK    3  A    between atoms: C3_4  and  C4_5 
REMARK    4  A    between atoms: C3_4  and  C18_21 
REMARK    5  A    between atoms: C4_5  and  C5_6 
REMARK    6  A    between atoms: C8_9  and  C9_10 
REMARK       I    between atoms: C18_21  and  N1_23 
REMARK    7  A    between atoms: N1_23  and  C19_25 
REMARK    8  A    between atoms: C27_33  and  O5_34 
REMARK    9  A    between atoms: N2_36  and  O6_38 
ROOT
HETATM    1  C3  UNL     1      73.710  86.332  49.143  1.00  0.00     0.001 C 
ENDROOT
BRANCH   1   2
HETATM    2  C2  UNL     1      73.178  84.946  49.128  1.00  0.00     0.145 C 
BRANCH   2   3
HETATM    3  C1  UNL     1      72.321  84.540  48.021  1.00  0.00     0.245 C 
HETATM    4  O1  UNL     1      72.727  84.478  46.852  1.00  0.00    -0.271 OA
HETATM    5  N2  UNL     1      70.926  84.187  48.267  1.00  0.00    -0.237 N 
ATOM      6  H2  UNL     1      70.539  84.221  49.209  1.00  0.00     0.197 HD
BRANCH   5   7
HETATM    7  O6  UNL     1      70.165  83.818  47.225  1.00  0.00    -0.287 OA
ATOM      8  H6  UNL     1      69.663  84.483  46.771  1.00  0.00     0.244 HD
ENDBRANCH   5   7
ENDBRANCH   2   3
ENDBRANCH   1   2
BRANCH   1   9
HETATM    9  C4  UNL     1      72.645  87.362  49.156  1.00  0.00     0.078 C 
BRANCH   9  10
HETATM   10  C5  UNL     1      72.971  88.387  48.100  1.00  0.00    -0.054 A 
HETATM   11  C6  UNL     1      72.397  89.634  48.255  1.00  0.00     0.008 A 
HETATM   12  C7  UNL     1      72.633  90.628  47.332  1.00  0.00     0.013 A 
HETATM   13  C8  UNL     1      73.439  90.429  46.226  1.00  0.00    -0.026 A 
HETATM   14  C16 UNL     1      73.994  89.173  46.104  1.00  0.00     0.013 A 
HETATM   15  C17 UNL     1      73.769  88.152  47.027  1.00  0.00     0.008 A 
BRANCH  13  16
HETATM   16  C9  UNL     1      73.687  91.481  45.250  1.00  0.00    -0.023 A 
HETATM   17  C10 UNL     1      74.518  91.171  44.184  1.00  0.00     0.015 A 
HETATM   18  C11 UNL     1      74.816  92.100  43.203  1.00  0.00     0.040 A 
HETATM   19  C12 UNL     1      74.279  93.353  43.284  1.00  0.00     0.105 A 
HETATM   20  C13 UNL     1      73.450  93.652  44.353  1.00  0.00     0.105 A 
HETATM   21  O3  UNL     1      74.413  94.447  42.452  1.00  0.00    -0.323 OA
HETATM   22  C14 UNL     1      73.151  92.730  45.333  1.00  0.00     0.052 A 
HETATM   23  O2  UNL     1      73.061  94.968  44.178  1.00  0.00    -0.323 OA
HETATM   24  C15 UNL     1      73.729  95.529  43.083  1.00  0.00     0.352 C 
ENDBRANCH  13  16
ENDBRANCH   9  10
ENDBRANCH   1   9
BRANCH   1  25
HETATM   25  C18 UNL     1      74.851  86.513  50.021  1.00  0.00     0.245 C 
HETATM   26  O4  UNL     1      74.590  86.808  51.256  1.00  0.00    -0.268 OA
HETATM   27  N1  UNL     1      76.218  86.417  49.752  1.00  0.00    -0.346 N 
ATOM     28  H1  UNL     1      76.508  86.189  48.800  1.00  0.00     0.163 HD
BRANCH  27  29
HETATM   29  C19 UNL     1      77.244  86.622  50.749  1.00  0.00     0.147 C 
HETATM   30  C20 UNL     1      77.651  85.359  51.405  1.00  0.00    -0.027 A 
HETATM   31  C21 UNL     1      76.949  84.209  51.667  1.00  0.00     0.010 A 
HETATM   32  C25 UNL     1      78.975  85.494  51.762  1.00  0.00    -0.047 A 
HETATM   33  C22 UNL     1      77.563  83.150  52.301  1.00  0.00     0.001 A 
HETATM   34  C23 UNL     1      78.888  83.274  52.663  1.00  0.00     0.001 A 
HETATM   35  C24 UNL     1      79.590  84.438  52.396  1.00  0.00     0.008 A 
HETATM   36  C26 UNL     1      79.482  86.828  51.361  1.00  0.00     0.073 C 
HETATM   37  C27 UNL     1      78.532  87.118  50.186  1.00  0.00     0.149 C 
BRANCH  37  38
HETATM   38  O5  UNL     1      79.001  86.346  49.128  1.00  0.00    -0.393 OA
ATOM     39  H5  UNL     1      78.723  85.439  49.175  1.00  0.00     0.210 HD
ENDBRANCH  37  38
ENDBRANCH  27  29
ENDBRANCH   1  25
TORSDOF 9
ENDMDL
