MODEL 1
REMARK VINA RESULT: -12.611670322      0.000      0.000
REMARK  9 active torsions:
REMARK  status: ('A' for Active; 'I' for Inactive)
REMARK    1  A    between atoms: C1_2  and  C2_3 
REMARK       I    between atoms: C1_2  and  N2_36 
REMARK    2  A    between atoms: C2_3  and  C3_4 
REMARK    3  A    between atoms: C3_4  and  C4_5 
REMARK    4  A    between atoms: C3_4  and  C18_21 
REMARK    5  A    between atoms: C4_5  and  C5_6 
REMARK    6  A    between atoms: C8_9  and  C9_10 
REMARK       I    between atoms: C18_21  and  N1_23 
REMARK    7  A    between atoms: N1_23  and  C19_25 
REMARK    8  A    between atoms: C27_33  and  O5_34 
REMARK    9  A    between atoms: N2_36  and  O6_38 
ROOT
HETATM    1  C3  UNL     1      73.848  86.294  49.183  1.00  0.00     0.001 C 
ENDROOT
BRANCH   1   2
HETATM    2  C2  UNL     1      73.256  84.933  49.134  1.00  0.00     0.145 C 
BRANCH   2   3
HETATM    3  C1  UNL     1      72.390  84.590  48.014  1.00  0.00     0.245 C 
HETATM    4  O1  UNL     1      72.776  84.628  46.836  1.00  0.00    -0.271 OA
HETATM    5  N2  UNL     1      71.010  84.182  48.254  1.00  0.00    -0.237 N 
ATOM      6  H2  UNL     1      70.639  84.134  49.202  1.00  0.00     0.197 HD
BRANCH   5   7
HETATM    7  O6  UNL     1      70.239  83.873  47.199  1.00  0.00    -0.287 OA
ATOM      8  H6  UNL     1      69.330  84.147  47.206  1.00  0.00     0.244 HD
ENDBRANCH   5   7
ENDBRANCH   2   3
ENDBRANCH   1   2
BRANCH   1   9
HETATM    9  C4  UNL     1      72.834  87.363  49.338  1.00  0.00     0.078 C 
BRANCH   9  10
HETATM   10  C5  UNL     1      73.077  88.398  48.269  1.00  0.00    -0.054 A 
HETATM   11  C6  UNL     1      72.541  89.651  48.493  1.00  0.00     0.008 A 
HETATM   12  C7  UNL     1      72.707  90.654  47.565  1.00  0.00     0.013 A 
HETATM   13  C8  UNL     1      73.403  90.459  46.386  1.00  0.00    -0.026 A 
HETATM   14  C16 UNL     1      73.923  89.197  46.197  1.00  0.00     0.013 A 
HETATM   15  C17 UNL     1      73.768  88.166  47.124  1.00  0.00     0.008 A 
BRANCH  13  16
HETATM   16  C9  UNL     1      73.576  91.521  45.404  1.00  0.00    -0.023 A 
HETATM   17  C10 UNL     1      72.932  92.724  45.654  1.00  0.00     0.015 A 
HETATM   18  C11 UNL     1      73.034  93.795  44.784  1.00  0.00     0.040 A 
HETATM   19  C12 UNL     1      73.786  93.666  43.651  1.00  0.00     0.105 A 
HETATM   20  C13 UNL     1      74.425  92.460  43.412  1.00  0.00     0.105 A 
HETATM   21  O3  UNL     1      74.048  94.564  42.637  1.00  0.00    -0.323 OA
HETATM   22  C14 UNL     1      74.326  91.391  44.276  1.00  0.00     0.052 A 
HETATM   23  O2  UNL     1      75.101  92.617  42.215  1.00  0.00    -0.323 OA
HETATM   24  C15 UNL     1      74.796  93.859  41.646  1.00  0.00     0.352 C 
ENDBRANCH  13  16
ENDBRANCH   9  10
ENDBRANCH   1   9
BRANCH   1  25
HETATM   25  C18 UNL     1      75.060  86.377  49.976  1.00  0.00     0.245 C 
HETATM   26  O4  UNL     1      74.922  86.254  51.260  1.00  0.00    -0.268 OA
HETATM   27  N1  UNL     1      76.385  86.571  49.578  1.00  0.00    -0.346 N 
ATOM     28  H1  UNL     1      76.579  86.679  48.583  1.00  0.00     0.163 HD
BRANCH  27  29
HETATM   29  C19 UNL     1      77.496  86.625  50.502  1.00  0.00     0.147 C 
HETATM   30  C20 UNL     1      78.727  86.028  49.937  1.00  0.00    -0.027 A 
HETATM   31  C21 UNL     1      78.905  85.013  49.030  1.00  0.00     0.010 A 
HETATM   32  C25 UNL     1      79.796  86.692  50.498  1.00  0.00    -0.047 A 
HETATM   33  C22 UNL     1      80.176  84.632  48.656  1.00  0.00     0.001 A 
HETATM   34  C23 UNL     1      81.254  85.289  49.211  1.00  0.00     0.001 A 
HETATM   35  C24 UNL     1      81.066  86.312  50.127  1.00  0.00     0.008 A 
HETATM   36  C26 UNL     1      79.319  87.734  51.437  1.00  0.00     0.073 C 
HETATM   37  C27 UNL     1      77.935  88.013  50.825  1.00  0.00     0.149 C 
BRANCH  37  38
HETATM   38  O5  UNL     1      78.176  88.788  49.695  1.00  0.00    -0.393 OA
ATOM     39  H5  UNL     1      77.780  89.650  49.742  1.00  0.00     0.210 HD
ENDBRANCH  37  38
ENDBRANCH  27  29
ENDBRANCH   1  25
TORSDOF 9
ENDMDL
