MODEL 2
REMARK VINA RESULT: -12.523181018      0.512      1.360
REMARK  9 active torsions:
REMARK  status: ('A' for Active; 'I' for Inactive)
REMARK    1  A    between atoms: C1_2  and  C2_3 
REMARK       I    between atoms: C1_2  and  N2_36 
REMARK    2  A    between atoms: C2_3  and  C3_4 
REMARK    3  A    between atoms: C3_4  and  C4_5 
REMARK    4  A    between atoms: C3_4  and  C18_21 
REMARK    5  A    between atoms: C4_5  and  C5_6 
REMARK    6  A    between atoms: C8_9  and  C9_10 
REMARK       I    between atoms: C18_21  and  N1_23 
REMARK    7  A    between atoms: N1_23  and  C19_25 
REMARK    8  A    between atoms: C27_33  and  O5_34 
REMARK    9  A    between atoms: N2_36  and  O6_38 
ROOT
HETATM    1  C3  UNL     1      73.841  86.305  49.229  1.00  0.00     0.001 C 
ENDROOT
BRANCH   1   2
HETATM    2  C2  UNL     1      73.316  84.922  49.093  1.00  0.00     0.145 C 
BRANCH   2   3
HETATM    3  C1  UNL     1      72.444  84.614  47.967  1.00  0.00     0.245 C 
HETATM    4  O1  UNL     1      72.834  84.658  46.791  1.00  0.00    -0.271 OA
HETATM    5  N2  UNL     1      71.054  84.236  48.198  1.00  0.00    -0.237 N 
ATOM      6  H2  UNL     1      70.680  84.184  49.145  1.00  0.00     0.197 HD
BRANCH   5   7
HETATM    7  O6  UNL     1      70.280  83.959  47.138  1.00  0.00    -0.287 OA
ATOM      8  H6  UNL     1      70.249  84.583  46.423  1.00  0.00     0.244 HD
ENDBRANCH   5   7
ENDBRANCH   2   3
ENDBRANCH   1   2
BRANCH   1   9
HETATM    9  C4  UNL     1      72.776  87.309  49.455  1.00  0.00     0.078 C 
BRANCH   9  10
HETATM   10  C5  UNL     1      72.948  88.411  48.440  1.00  0.00    -0.054 A 
HETATM   11  C6  UNL     1      73.666  88.092  47.303  1.00  0.00     0.008 A 
HETATM   12  C7  UNL     1      73.880  89.040  46.327  1.00  0.00     0.013 A 
HETATM   13  C8  UNL     1      73.397  90.331  46.438  1.00  0.00    -0.026 A 
HETATM   14  C16 UNL     1      72.687  90.613  47.585  1.00  0.00     0.013 A 
HETATM   15  C17 UNL     1      72.458  89.668  48.585  1.00  0.00     0.008 A 
BRANCH  13  16
HETATM   16  C9  UNL     1      73.626  91.334  45.406  1.00  0.00    -0.023 A 
HETATM   17  C10 UNL     1      74.437  90.971  44.341  1.00  0.00     0.015 A 
HETATM   18  C11 UNL     1      74.714  91.851  43.309  1.00  0.00     0.040 A 
HETATM   19  C12 UNL     1      74.178  93.106  43.338  1.00  0.00     0.105 A 
HETATM   20  C13 UNL     1      73.368  93.457  44.407  1.00  0.00     0.105 A 
HETATM   21  O3  UNL     1      74.294  94.156  42.451  1.00  0.00    -0.323 OA
HETATM   22  C14 UNL     1      73.089  92.585  45.436  1.00  0.00     0.052 A 
HETATM   23  O2  UNL     1      72.973  94.762  44.173  1.00  0.00    -0.323 OA
HETATM   24  C15 UNL     1      73.620  95.269  43.039  1.00  0.00     0.352 C 
ENDBRANCH  13  16
ENDBRANCH   9  10
ENDBRANCH   1   9
BRANCH   1  25
HETATM   25  C18 UNL     1      75.052  86.396  50.022  1.00  0.00     0.245 C 
HETATM   26  O4  UNL     1      74.904  86.377  51.311  1.00  0.00    -0.268 OA
HETATM   27  N1  UNL     1      76.385  86.502  49.621  1.00  0.00    -0.346 N 
ATOM     28  H1  UNL     1      76.588  86.526  48.621  1.00  0.00     0.163 HD
BRANCH  27  29
HETATM   29  C19 UNL     1      77.494  86.580  50.546  1.00  0.00     0.147 C 
HETATM   30  C20 UNL     1      78.738  86.013  49.981  1.00  0.00    -0.027 A 
HETATM   31  C21 UNL     1      78.941  85.005  49.071  1.00  0.00     0.010 A 
HETATM   32  C25 UNL     1      79.792  86.699  50.544  1.00  0.00    -0.047 A 
HETATM   33  C22 UNL     1      80.221  84.654  48.697  1.00  0.00     0.001 A 
HETATM   34  C23 UNL     1      81.283  85.334  49.255  1.00  0.00     0.001 A 
HETATM   35  C24 UNL     1      81.071  86.350  50.173  1.00  0.00     0.008 A 
HETATM   36  C26 UNL     1      79.289  87.727  51.486  1.00  0.00     0.073 C 
HETATM   37  C27 UNL     1      77.900  87.976  50.873  1.00  0.00     0.149 C 
BRANCH  37  38
HETATM   38  O5  UNL     1      78.125  88.760  49.746  1.00  0.00    -0.393 OA
ATOM     39  H5  UNL     1      78.904  89.299  49.815  1.00  0.00     0.210 HD
ENDBRANCH  37  38
ENDBRANCH  27  29
ENDBRANCH   1  25
TORSDOF 9
ENDMDL
