MODEL 4
REMARK VINA RESULT: -12.225564743      1.334      1.556
REMARK  9 active torsions:
REMARK  status: ('A' for Active; 'I' for Inactive)
REMARK    1  A    between atoms: C1_2  and  C2_3 
REMARK       I    between atoms: C1_2  and  N2_36 
REMARK    2  A    between atoms: C2_3  and  C3_4 
REMARK    3  A    between atoms: C3_4  and  C4_5 
REMARK    4  A    between atoms: C3_4  and  C18_21 
REMARK    5  A    between atoms: C4_5  and  C5_6 
REMARK    6  A    between atoms: C8_9  and  C9_10 
REMARK       I    between atoms: C18_21  and  N1_23 
REMARK    7  A    between atoms: N1_23  and  C19_25 
REMARK    8  A    between atoms: C27_33  and  O5_34 
REMARK    9  A    between atoms: N2_36  and  O6_38 
ROOT
HETATM    1  C3  UNL     1      73.834  86.384  49.084  1.00  0.00     0.001 C 
ENDROOT
BRANCH   1   2
HETATM    2  C2  UNL     1      73.354  84.979  49.025  1.00  0.00     0.145 C 
BRANCH   2   3
HETATM    3  C1  UNL     1      72.449  84.596  47.950  1.00  0.00     0.245 C 
HETATM    4  O1  UNL     1      72.794  84.588  46.759  1.00  0.00    -0.271 OA
HETATM    5  N2  UNL     1      71.077  84.204  48.253  1.00  0.00    -0.237 N 
ATOM      6  H2  UNL     1      70.738  84.194  49.215  1.00  0.00     0.197 HD
BRANCH   5   7
HETATM    7  O6  UNL     1      70.269  83.858  47.239  1.00  0.00    -0.287 OA
ATOM      8  H6  UNL     1      69.564  83.245  47.409  1.00  0.00     0.244 HD
ENDBRANCH   5   7
ENDBRANCH   2   3
ENDBRANCH   1   2
BRANCH   1   9
HETATM    9  C4  UNL     1      72.731  87.372  49.129  1.00  0.00     0.078 C 
BRANCH   9  10
HETATM   10  C5  UNL     1      73.006  88.427  48.086  1.00  0.00    -0.054 A 
HETATM   11  C6  UNL     1      72.387  89.648  48.271  1.00  0.00     0.008 A 
HETATM   12  C7  UNL     1      72.574  90.666  47.362  1.00  0.00     0.013 A 
HETATM   13  C8  UNL     1      73.374  90.517  46.244  1.00  0.00    -0.026 A 
HETATM   14  C16 UNL     1      73.974  89.285  46.094  1.00  0.00     0.013 A 
HETATM   15  C17 UNL     1      73.799  88.241  47.001  1.00  0.00     0.008 A 
BRANCH  13  16
HETATM   16  C9  UNL     1      73.570  91.594  45.284  1.00  0.00    -0.023 A 
HETATM   17  C10 UNL     1      72.939  92.800  45.549  1.00  0.00     0.015 A 
HETATM   18  C11 UNL     1      73.063  93.885  44.699  1.00  0.00     0.040 A 
HETATM   19  C12 UNL     1      73.824  93.767  43.572  1.00  0.00     0.105 A 
HETATM   20  C13 UNL     1      74.451  92.558  43.317  1.00  0.00     0.105 A 
HETATM   21  O3  UNL     1      74.108  94.681  42.576  1.00  0.00    -0.323 OA
HETATM   22  C14 UNL     1      74.330  91.475  44.160  1.00  0.00     0.052 A 
HETATM   23  O2  UNL     1      75.140  92.728  42.129  1.00  0.00    -0.323 OA
HETATM   24  C15 UNL     1      74.857  93.984  41.580  1.00  0.00     0.352 C 
ENDBRANCH  13  16
ENDBRANCH   9  10
ENDBRANCH   1   9
BRANCH   1  25
HETATM   25  C18 UNL     1      74.967  86.579  49.969  1.00  0.00     0.245 C 
HETATM   26  O4  UNL     1      74.696  86.920  51.191  1.00  0.00    -0.268 OA
HETATM   27  N1  UNL     1      76.336  86.456  49.720  1.00  0.00    -0.346 N 
ATOM     28  H1  UNL     1      76.634  86.193  48.781  1.00  0.00     0.163 HD
BRANCH  27  29
HETATM   29  C19 UNL     1      77.353  86.682  50.723  1.00  0.00     0.147 C 
HETATM   30  C20 UNL     1      77.730  85.438  51.430  1.00  0.00    -0.027 A 
HETATM   31  C21 UNL     1      77.005  84.311  51.726  1.00  0.00     0.010 A 
HETATM   32  C25 UNL     1      79.052  85.564  51.799  1.00  0.00    -0.047 A 
HETATM   33  C22 UNL     1      77.593  83.267  52.409  1.00  0.00     0.001 A 
HETATM   34  C23 UNL     1      78.916  83.382  52.783  1.00  0.00     0.001 A 
HETATM   35  C24 UNL     1      79.641  84.523  52.481  1.00  0.00     0.008 A 
HETATM   36  C26 UNL     1      79.586  86.873  51.355  1.00  0.00     0.073 C 
HETATM   37  C27 UNL     1      78.657  87.135  50.157  1.00  0.00     0.149 C 
BRANCH  37  38
HETATM   38  O5  UNL     1      79.124  86.315  49.135  1.00  0.00    -0.393 OA
ATOM     39  H5  UNL     1      80.021  86.031  49.265  1.00  0.00     0.210 HD
ENDBRANCH  37  38
ENDBRANCH  27  29
ENDBRANCH   1  25
TORSDOF 9
ENDMDL
