MODEL 7
REMARK VINA RESULT: -7.811891381      3.133      7.031
REMARK  6 active torsions:
REMARK  status: ('A' for Active; 'I' for Inactive)
REMARK    1  A    between atoms: O1_2  and  C2_3 
REMARK    2  A    between atoms: C5_6  and  S1_7 
REMARK    3  A    between atoms: S1_7  and  N1_10 
REMARK    4  A    between atoms: N1_10  and  C6_12 
REMARK    5  A    between atoms: C6_12  and  C7_13 
REMARK       I    between atoms: C7_13  and  N2_15 
REMARK    6  A    between atoms: N2_15  and  O5_17 
ROOT
HETATM    1  S1  UNL     1       7.498  -7.792   8.921  1.00  0.00     0.259 S 
HETATM    2  O2  UNL     1       7.189  -9.224   9.246  1.00  0.00    -0.201 OA
HETATM    3  O3  UNL     1       7.918  -7.126  10.191  1.00  0.00    -0.201 OA
ENDROOT
BRANCH   1   4
HETATM    4  C5  UNL     1       6.015  -7.052   8.374  1.00  0.00     0.079 A 
HETATM    5  C4  UNL     1       5.760  -6.843   7.034  1.00  0.00     0.028 A 
HETATM    6  C3  UNL     1       4.590  -6.258   6.593  1.00  0.00     0.038 A 
HETATM    7  C2  UNL     1       3.615  -5.853   7.478  1.00  0.00     0.068 A 
HETATM    8  C9  UNL     1       3.860  -6.056   8.820  1.00  0.00     0.038 A 
HETATM    9  C8  UNL     1       5.030  -6.641   9.263  1.00  0.00     0.028 A 
BRANCH   7  10
HETATM   10  O1  UNL     1       2.424  -5.259   7.036  1.00  0.00    -0.356 OA
HETATM   11  C1  UNL     1       2.465  -4.510   5.837  1.00  0.00     0.210 C 
ENDBRANCH   7  10
ENDBRANCH   1   4
BRANCH   1  12
HETATM   12  N1  UNL     1       8.702  -7.747   7.714  1.00  0.00    -0.307 N 
ATOM     13  H1  UNL     1       8.534  -7.443   6.755  1.00  0.00     0.172 HD
BRANCH  12  14
HETATM   14  C6  UNL     1       9.993  -8.189   8.206  1.00  0.00     0.237 C 
BRANCH  14  15
HETATM   15  C7  UNL     1      10.388  -9.475   7.568  1.00  0.00     0.259 C 
HETATM   16  O4  UNL     1      10.519 -10.529   8.237  1.00  0.00    -0.270 OA
HETATM   17  N2  UNL     1      10.623  -9.510   6.167  1.00  0.00    -0.236 N 
ATOM     18  H2  UNL     1      10.520  -8.660   5.613  1.00  0.00     0.197 HD
BRANCH  17  19
HETATM   19  O5  UNL     1      10.987 -10.685   5.558  1.00  0.00    -0.287 OA
ATOM     20  H5  UNL     1      10.789 -10.827   4.639  1.00  0.00     0.244 HD
ENDBRANCH  17  19
ENDBRANCH  14  15
ENDBRANCH  12  14
ENDBRANCH   1  12
TORSDOF 6
ENDMDL
