MODEL 5
REMARK VINA RESULT: -7.846531298      2.250      3.120
REMARK  6 active torsions:
REMARK  status: ('A' for Active; 'I' for Inactive)
REMARK    1  A    between atoms: O1_2  and  C2_3 
REMARK    2  A    between atoms: C5_6  and  S1_7 
REMARK    3  A    between atoms: S1_7  and  N1_10 
REMARK    4  A    between atoms: N1_10  and  C6_12 
REMARK    5  A    between atoms: C6_12  and  C7_13 
REMARK       I    between atoms: C7_13  and  N2_15 
REMARK    6  A    between atoms: N2_15  and  O5_17 
ROOT
HETATM    1  S1  UNL     1       1.602  -6.665   5.319  1.00  0.00     0.259 S 
HETATM    2  O2  UNL     1       0.425  -5.932   5.893  1.00  0.00    -0.201 OA
HETATM    3  O3  UNL     1       1.170  -8.073   5.064  1.00  0.00    -0.201 OA
ENDROOT
BRANCH   1   4
HETATM    4  C5  UNL     1       2.849  -6.684   6.541  1.00  0.00     0.079 A 
HETATM    5  C4  UNL     1       4.189  -6.688   6.209  1.00  0.00     0.028 A 
HETATM    6  C3  UNL     1       5.181  -6.703   7.168  1.00  0.00     0.038 A 
HETATM    7  C2  UNL     1       4.877  -6.713   8.512  1.00  0.00     0.068 A 
HETATM    8  C9  UNL     1       3.540  -6.710   8.854  1.00  0.00     0.038 A 
HETATM    9  C8  UNL     1       2.546  -6.695   7.896  1.00  0.00     0.028 A 
BRANCH   7  10
HETATM   10  O1  UNL     1       5.881  -6.728   9.491  1.00  0.00    -0.356 OA
HETATM   11  C1  UNL     1       7.162  -7.193   9.116  1.00  0.00     0.210 C 
ENDBRANCH   7  10
ENDBRANCH   1   4
BRANCH   1  12
HETATM   12  N1  UNL     1       2.120  -5.860   3.908  1.00  0.00    -0.307 N 
ATOM     13  H1  UNL     1       2.785  -6.253   3.242  1.00  0.00     0.172 HD
BRANCH  12  14
HETATM   14  C6  UNL     1       1.507  -4.554   3.761  1.00  0.00     0.237 C 
BRANCH  14  15
HETATM   15  C7  UNL     1       2.286  -3.520   4.497  1.00  0.00     0.259 C 
HETATM   16  O4  UNL     1       3.540  -3.540   4.530  1.00  0.00    -0.270 OA
HETATM   17  N2  UNL     1       1.590  -2.484   5.177  1.00  0.00    -0.236 N 
ATOM     18  H2  UNL     1       0.571  -2.458   5.157  1.00  0.00     0.197 HD
BRANCH  17  19
HETATM   19  O5  UNL     1       2.287  -1.520   5.862  1.00  0.00    -0.287 OA
ATOM     20  H5  UNL     1       2.701  -1.728   6.691  1.00  0.00     0.244 HD
ENDBRANCH  17  19
ENDBRANCH  14  15
ENDBRANCH  12  14
ENDBRANCH   1  12
TORSDOF 6
ENDMDL
