MODEL 6
REMARK VINA RESULT: -7.836719252      2.246      3.302
REMARK  6 active torsions:
REMARK  status: ('A' for Active; 'I' for Inactive)
REMARK    1  A    between atoms: O1_2  and  C2_3 
REMARK    2  A    between atoms: C5_6  and  S1_7 
REMARK    3  A    between atoms: S1_7  and  N1_10 
REMARK    4  A    between atoms: N1_10  and  C6_12 
REMARK    5  A    between atoms: C6_12  and  C7_13 
REMARK       I    between atoms: C7_13  and  N2_15 
REMARK    6  A    between atoms: N2_15  and  O5_17 
ROOT
HETATM    1  S1  UNL     1       1.619  -6.680   5.313  1.00  0.00     0.259 S 
HETATM    2  O2  UNL     1       0.439  -5.960   5.897  1.00  0.00    -0.201 OA
HETATM    3  O3  UNL     1       1.197  -8.090   5.052  1.00  0.00    -0.201 OA
ENDROOT
BRANCH   1   4
HETATM    4  C5  UNL     1       2.872  -6.694   6.527  1.00  0.00     0.079 A 
HETATM    5  C4  UNL     1       2.575  -6.726   7.875  1.00  0.00     0.028 A 
HETATM    6  C3  UNL     1       3.560  -6.738   8.842  1.00  0.00     0.038 A 
HETATM    7  C2  UNL     1       4.895  -6.718   8.504  1.00  0.00     0.068 A 
HETATM    8  C9  UNL     1       5.202  -6.685   7.159  1.00  0.00     0.038 A 
HETATM    9  C8  UNL     1       4.219  -6.674   6.190  1.00  0.00     0.028 A 
BRANCH   7  10
HETATM   10  O1  UNL     1       5.900  -6.730   9.482  1.00  0.00    -0.356 OA
HETATM   11  C1  UNL     1       7.128  -7.353   9.159  1.00  0.00     0.210 C 
ENDBRANCH   7  10
ENDBRANCH   1   4
BRANCH   1  12
HETATM   12  N1  UNL     1       2.122  -5.863   3.903  1.00  0.00    -0.307 N 
ATOM     13  H1  UNL     1       2.787  -6.246   3.232  1.00  0.00     0.172 HD
BRANCH  12  14
HETATM   14  C6  UNL     1       1.496  -4.562   3.766  1.00  0.00     0.237 C 
BRANCH  14  15
HETATM   15  C7  UNL     1       2.279  -3.522   4.488  1.00  0.00     0.259 C 
HETATM   16  O4  UNL     1       3.533  -3.526   4.492  1.00  0.00    -0.270 OA
HETATM   17  N2  UNL     1       1.586  -2.498   5.190  1.00  0.00    -0.236 N 
ATOM     18  H2  UNL     1       0.566  -2.485   5.194  1.00  0.00     0.197 HD
BRANCH  17  19
HETATM   19  O5  UNL     1       2.287  -1.528   5.863  1.00  0.00    -0.287 OA
ATOM     20  H5  UNL     1       2.601  -1.691   6.745  1.00  0.00     0.244 HD
ENDBRANCH  17  19
ENDBRANCH  14  15
ENDBRANCH  12  14
ENDBRANCH   1  12
TORSDOF 6
ENDMDL
