MODEL 14
REMARK VINA RESULT: -7.553540741      3.319      7.262
REMARK  6 active torsions:
REMARK  status: ('A' for Active; 'I' for Inactive)
REMARK    1  A    between atoms: O1_2  and  C2_3 
REMARK    2  A    between atoms: C5_6  and  S1_7 
REMARK    3  A    between atoms: S1_7  and  N1_10 
REMARK    4  A    between atoms: N1_10  and  C6_12 
REMARK    5  A    between atoms: C6_12  and  C7_13 
REMARK       I    between atoms: C7_13  and  N2_15 
REMARK    6  A    between atoms: N2_15  and  O5_17 
ROOT
HETATM    1  S1  UNL     1       7.710  -8.003   9.348  1.00  0.00     0.259 S 
HETATM    2  O2  UNL     1       7.425  -9.475   9.424  1.00  0.00    -0.201 OA
HETATM    3  O3  UNL     1       7.921  -7.517  10.745  1.00  0.00    -0.201 OA
ENDROOT
BRANCH   1   4
HETATM    4  C5  UNL     1       6.284  -7.230   8.704  1.00  0.00     0.079 A 
HETATM    5  C4  UNL     1       6.119  -7.028   7.348  1.00  0.00     0.028 A 
HETATM    6  C3  UNL     1       4.995  -6.417   6.830  1.00  0.00     0.038 A 
HETATM    7  C2  UNL     1       3.978  -5.977   7.649  1.00  0.00     0.068 A 
HETATM    8  C9  UNL     1       4.134  -6.174   9.006  1.00  0.00     0.038 A 
HETATM    9  C8  UNL     1       5.258  -6.785   9.526  1.00  0.00     0.028 A 
BRANCH   7  10
HETATM   10  O1  UNL     1       2.833  -5.357   7.129  1.00  0.00    -0.356 OA
HETATM   11  C1  UNL     1       1.619  -5.512   7.837  1.00  0.00     0.210 C 
ENDBRANCH   7  10
ENDBRANCH   1   4
BRANCH   1  12
HETATM   12  N1  UNL     1       9.066  -7.755   8.343  1.00  0.00    -0.307 N 
ATOM     13  H1  UNL     1       9.312  -6.853   7.935  1.00  0.00     0.172 HD
BRANCH  12  14
HETATM   14  C6  UNL     1       9.828  -8.971   8.134  1.00  0.00     0.237 C 
BRANCH  14  15
HETATM   15  C7  UNL     1      11.089  -8.945   8.924  1.00  0.00     0.259 C 
HETATM   16  O4  UNL     1      12.184  -9.309   8.430  1.00  0.00    -0.270 OA
HETATM   17  N2  UNL     1      11.052  -8.498  10.273  1.00  0.00    -0.236 N 
ATOM     18  H2  UNL     1      10.167  -8.201  10.686  1.00  0.00     0.197 HD
BRANCH  17  19
HETATM   19  O5  UNL     1      12.202  -8.466  11.021  1.00  0.00    -0.287 OA
ATOM     20  H5  UNL     1      12.497  -7.649  11.407  1.00  0.00     0.244 HD
ENDBRANCH  17  19
ENDBRANCH  14  15
ENDBRANCH  12  14
ENDBRANCH   1  12
TORSDOF 6
ENDMDL
