MODEL 8
REMARK VINA RESULT: -7.805768607      3.134      7.123
REMARK  6 active torsions:
REMARK  status: ('A' for Active; 'I' for Inactive)
REMARK    1  A    between atoms: O1_2  and  C2_3 
REMARK    2  A    between atoms: C5_6  and  S1_7 
REMARK    3  A    between atoms: S1_7  and  N1_10 
REMARK    4  A    between atoms: N1_10  and  C6_12 
REMARK    5  A    between atoms: C6_12  and  C7_13 
REMARK       I    between atoms: C7_13  and  N2_15 
REMARK    6  A    between atoms: N2_15  and  O5_17 
ROOT
HETATM    1  S1  UNL     1       7.494  -7.786   8.917  1.00  0.00     0.259 S 
HETATM    2  O2  UNL     1       7.184  -9.218   9.245  1.00  0.00    -0.201 OA
HETATM    3  O3  UNL     1       7.908  -7.116  10.186  1.00  0.00    -0.201 OA
ENDROOT
BRANCH   1   4
HETATM    4  C5  UNL     1       6.013  -7.048   8.361  1.00  0.00     0.079 A 
HETATM    5  C4  UNL     1       5.033  -6.637   9.242  1.00  0.00     0.028 A 
HETATM    6  C3  UNL     1       3.859  -6.053   8.811  1.00  0.00     0.038 A 
HETATM    7  C2  UNL     1       3.610  -5.851   7.471  1.00  0.00     0.068 A 
HETATM    8  C9  UNL     1       4.583  -6.260   6.582  1.00  0.00     0.038 A 
HETATM    9  C8  UNL     1       5.758  -6.844   7.011  1.00  0.00     0.028 A 
BRANCH   7  10
HETATM   10  O1  UNL     1       2.419  -5.258   7.027  1.00  0.00    -0.356 OA
HETATM   11  C1  UNL     1       2.463  -4.507   5.829  1.00  0.00     0.210 C 
ENDBRANCH   7  10
ENDBRANCH   1   4
BRANCH   1  12
HETATM   12  N1  UNL     1       8.704  -7.745   7.715  1.00  0.00    -0.307 N 
ATOM     13  H1  UNL     1       8.541  -7.439   6.756  1.00  0.00     0.172 HD
BRANCH  12  14
HETATM   14  C6  UNL     1       9.990  -8.195   8.212  1.00  0.00     0.237 C 
BRANCH  14  15
HETATM   15  C7  UNL     1      10.384  -9.479   7.570  1.00  0.00     0.259 C 
HETATM   16  O4  UNL     1      10.507 -10.536   8.234  1.00  0.00    -0.270 OA
HETATM   17  N2  UNL     1      10.626  -9.507   6.170  1.00  0.00    -0.236 N 
ATOM     18  H2  UNL     1      10.529  -8.654   5.620  1.00  0.00     0.197 HD
BRANCH  17  19
HETATM   19  O5  UNL     1      10.989 -10.680   5.557  1.00  0.00    -0.287 OA
ATOM     20  H5  UNL     1      11.789 -11.125   5.813  1.00  0.00     0.244 HD
ENDBRANCH  17  19
ENDBRANCH  14  15
ENDBRANCH  12  14
ENDBRANCH   1  12
TORSDOF 6
ENDMDL
