MODEL 12
REMARK VINA RESULT: -6.402753952      3.598      5.624
REMARK  3 active torsions:
REMARK  status: ('A' for Active; 'I' for Inactive)
REMARK    1  A    between atoms: O1_2  and  C2_3 
REMARK    2  A    between atoms: C5_6  and  S1_7 
REMARK    3  A    between atoms: S1_7  and  N1_8 
ROOT
HETATM    1  C2  UNL     1       5.246  -6.992   8.764  1.00  0.00     0.068 A 
HETATM    2  C3  UNL     1       5.626  -6.720   7.472  1.00  0.00     0.038 A 
HETATM    3  C4  UNL     1       4.714  -6.163   6.593  1.00  0.00     0.028 A 
HETATM    4  C5  UNL     1       3.432  -5.882   7.015  1.00  0.00     0.079 A 
HETATM    5  C6  UNL     1       3.055  -6.157   8.313  1.00  0.00     0.028 A 
HETATM    6  C7  UNL     1       3.971  -6.713   9.184  1.00  0.00     0.038 A 
ENDROOT
BRANCH   4   7
HETATM    7  S1  UNL     1       2.237  -5.169   5.922  1.00  0.00     0.256 S 
HETATM    8  O2  UNL     1       0.895  -5.169   6.570  1.00  0.00    -0.201 OA
HETATM    9  O3  UNL     1       2.618  -3.739   5.629  1.00  0.00    -0.201 OA
BRANCH   7  10
HETATM   10  N1  UNL     1       2.238  -6.010   4.417  1.00  0.00    -0.324 N 
ATOM     11  H12 UNL     1       2.896  -6.751   4.176  1.00  0.00     0.169 HD
ATOM     12  H11 UNL     1       1.491  -5.656   3.819  1.00  0.00     0.169 HD
ENDBRANCH   7  10
ENDBRANCH   4   7
BRANCH   1  13
HETATM   13  O1  UNL     1       6.148  -7.545   9.639  1.00  0.00    -0.356 OA
HETATM   14  C1  UNL     1       7.496  -7.136   9.559  1.00  0.00     0.210 C 
ENDBRANCH   1  13
TORSDOF 3
ENDMDL
