MODEL 2
REMARK VINA RESULT: -6.850720469      0.930      1.695
REMARK  3 active torsions:
REMARK  status: ('A' for Active; 'I' for Inactive)
REMARK    1  A    between atoms: O1_2  and  C2_3 
REMARK    2  A    between atoms: C5_6  and  S1_7 
REMARK    3  A    between atoms: S1_7  and  N1_8 
ROOT
HETATM    1  C2  UNL     1       3.526  -6.221   7.979  1.00  0.00     0.068 A 
HETATM    2  C3  UNL     1       4.402  -6.297   6.923  1.00  0.00     0.038 A 
HETATM    3  C4  UNL     1       5.692  -6.750   7.134  1.00  0.00     0.028 A 
HETATM    4  C5  UNL     1       6.094  -7.123   8.400  1.00  0.00     0.079 A 
HETATM    5  C6  UNL     1       5.211  -7.045   9.457  1.00  0.00     0.028 A 
HETATM    6  C7  UNL     1       3.925  -6.591   9.237  1.00  0.00     0.038 A 
ENDROOT
BRANCH   4   7
HETATM    7  S1  UNL     1       7.734  -7.708   8.711  1.00  0.00     0.256 S 
HETATM    8  O2  UNL     1       8.270  -7.076   9.949  1.00  0.00    -0.201 OA
HETATM    9  O3  UNL     1       7.701  -9.201   8.922  1.00  0.00    -0.201 OA
BRANCH   7  10
HETATM   10  N1  UNL     1       8.735  -7.414   7.339  1.00  0.00    -0.324 N 
ATOM     11  H12 UNL     1       8.393  -7.365   6.380  1.00  0.00     0.169 HD
ATOM     12  H11 UNL     1       9.705  -7.299   7.633  1.00  0.00     0.169 HD
ENDBRANCH   7  10
ENDBRANCH   4   7
BRANCH   1  13
HETATM   13  O1  UNL     1       2.245  -5.772   7.773  1.00  0.00    -0.356 OA
HETATM   14  C1  UNL     1       1.729  -5.799   6.460  1.00  0.00     0.210 C 
ENDBRANCH   1  13
TORSDOF 3
ENDMDL
