MODEL 20
REMARK VINA RESULT: -6.084842964      3.945      5.887
REMARK  3 active torsions:
REMARK  status: ('A' for Active; 'I' for Inactive)
REMARK    1  A    between atoms: O1_2  and  C2_3 
REMARK    2  A    between atoms: C5_6  and  S1_7 
REMARK    3  A    between atoms: S1_7  and  N1_8 
ROOT
HETATM    1  C2  UNL     1       4.977  -6.941   8.332  1.00  0.00     0.068 A 
HETATM    2  C3  UNL     1       5.273  -6.630   7.027  1.00  0.00     0.038 A 
HETATM    3  C4  UNL     1       4.312  -6.037   6.229  1.00  0.00     0.028 A 
HETATM    4  C5  UNL     1       3.062  -5.761   6.744  1.00  0.00     0.079 A 
HETATM    5  C6  UNL     1       2.769  -6.076   8.055  1.00  0.00     0.028 A 
HETATM    6  C7  UNL     1       3.735  -6.668   8.844  1.00  0.00     0.038 A 
ENDROOT
BRANCH   4   7
HETATM    7  S1  UNL     1       1.805  -5.003   5.756  1.00  0.00     0.256 S 
HETATM    8  O2  UNL     1       1.934  -5.452   4.341  1.00  0.00    -0.201 OA
HETATM    9  O3  UNL     1       0.449  -5.426   6.262  1.00  0.00    -0.201 OA
BRANCH   7  10
HETATM   10  N1  UNL     1       1.888  -3.288   5.910  1.00  0.00    -0.324 N 
ATOM     11  H12 UNL     1       2.368  -2.676   5.250  1.00  0.00     0.169 HD
ATOM     12  H11 UNL     1       1.390  -2.989   6.749  1.00  0.00     0.169 HD
ENDBRANCH   7  10
ENDBRANCH   4   7
BRANCH   1  13
HETATM   13  O1  UNL     1       5.929  -7.531   9.127  1.00  0.00    -0.356 OA
HETATM   14  C1  UNL     1       6.630  -6.720  10.044  1.00  0.00     0.210 C 
ENDBRANCH   1  13
TORSDOF 3
ENDMDL
