MODEL 1
REMARK VINA RESULT: -6.998605703      0.000      0.000
REMARK  3 active torsions:
REMARK  status: ('A' for Active; 'I' for Inactive)
REMARK    1  A    between atoms: O1_2  and  C2_3 
REMARK    2  A    between atoms: C5_6  and  S1_7 
REMARK    3  A    between atoms: S1_7  and  N1_8 
ROOT
HETATM    1  C2  UNL     1       4.375  -6.355   8.568  1.00  0.00     0.068 A 
HETATM    2  C3  UNL     1       4.950  -6.740   9.755  1.00  0.00     0.038 A 
HETATM    3  C4  UNL     1       6.236  -7.252   9.760  1.00  0.00     0.028 A 
HETATM    4  C5  UNL     1       6.934  -7.374   8.576  1.00  0.00     0.079 A 
HETATM    5  C6  UNL     1       6.352  -6.986   7.387  1.00  0.00     0.028 A 
HETATM    6  C7  UNL     1       5.068  -6.477   7.392  1.00  0.00     0.038 A 
ENDROOT
BRANCH   4   7
HETATM    7  S1  UNL     1       8.579  -8.022   8.539  1.00  0.00     0.256 S 
HETATM    8  O2  UNL     1       9.310  -7.619   9.773  1.00  0.00    -0.201 OA
HETATM    9  O3  UNL     1       8.522  -9.529   8.498  1.00  0.00    -0.201 OA
BRANCH   7  10
HETATM   10  N1  UNL     1       9.383  -7.509   7.103  1.00  0.00    -0.324 N 
ATOM     11  H12 UNL     1       9.953  -6.665   7.036  1.00  0.00     0.169 HD
ATOM     12  H11 UNL     1       9.203  -8.169   6.347  1.00  0.00     0.169 HD
ENDBRANCH   7  10
ENDBRANCH   4   7
BRANCH   1  13
HETATM   13  O1  UNL     1       3.099  -5.848   8.561  1.00  0.00    -0.356 OA
HETATM   14  C1  UNL     1       2.436  -5.722   7.322  1.00  0.00     0.210 C 
ENDBRANCH   1  13
TORSDOF 3
ENDMDL
