MODEL 11
REMARK VINA RESULT: -6.477240860      3.016      5.156
REMARK  3 active torsions:
REMARK  status: ('A' for Active; 'I' for Inactive)
REMARK    1  A    between atoms: O1_2  and  C2_3 
REMARK    2  A    between atoms: C5_6  and  S1_7 
REMARK    3  A    between atoms: S1_7  and  N1_8 
ROOT
HETATM    1  C2  UNL     1       6.409  -7.022   9.274  1.00  0.00     0.068 A 
HETATM    2  C3  UNL     1       6.637  -6.967   7.919  1.00  0.00     0.038 A 
HETATM    3  C4  UNL     1       5.583  -6.720   7.057  1.00  0.00     0.028 A 
HETATM    4  C5  UNL     1       4.312  -6.531   7.558  1.00  0.00     0.079 A 
HETATM    5  C6  UNL     1       4.088  -6.588   8.918  1.00  0.00     0.028 A 
HETATM    6  C7  UNL     1       5.146  -6.835   9.771  1.00  0.00     0.038 A 
ENDROOT
BRANCH   4   7
HETATM    7  S1  UNL     1       2.938  -6.213   6.489  1.00  0.00     0.256 S 
HETATM    8  O2  UNL     1       2.520  -7.473   5.814  1.00  0.00    -0.201 OA
HETATM    9  O3  UNL     1       1.775  -5.708   7.306  1.00  0.00    -0.201 OA
BRANCH   7  10
HETATM   10  N1  UNL     1       3.342  -4.970   5.364  1.00  0.00    -0.324 N 
ATOM     11  H12 UNL     1       4.262  -4.536   5.296  1.00  0.00     0.169 HD
ATOM     12  H11 UNL     1       2.530  -4.743   4.789  1.00  0.00     0.169 HD
ENDBRANCH   7  10
ENDBRANCH   4   7
BRANCH   1  13
HETATM   13  O1  UNL     1       7.453  -7.267  10.132  1.00  0.00    -0.356 OA
HETATM   14  C1  UNL     1       7.519  -8.527  10.762  1.00  0.00     0.210 C 
ENDBRANCH   1  13
TORSDOF 3
ENDMDL
