MODEL 13
REMARK VINA RESULT: -6.402633145      3.099      5.075
REMARK  3 active torsions:
REMARK  status: ('A' for Active; 'I' for Inactive)
REMARK    1  A    between atoms: O1_2  and  C2_3 
REMARK    2  A    between atoms: C5_6  and  S1_7 
REMARK    3  A    between atoms: S1_7  and  N1_8 
ROOT
HETATM    1  C2  UNL     1       6.119  -7.055   9.241  1.00  0.00     0.068 A 
HETATM    2  C3  UNL     1       4.844  -6.850   9.712  1.00  0.00     0.038 A 
HETATM    3  C4  UNL     1       3.826  -6.549   8.826  1.00  0.00     0.028 A 
HETATM    4  C5  UNL     1       4.092  -6.456   7.475  1.00  0.00     0.079 A 
HETATM    5  C6  UNL     1       5.373  -6.662   7.007  1.00  0.00     0.028 A 
HETATM    6  C7  UNL     1       6.384  -6.962   7.899  1.00  0.00     0.038 A 
ENDROOT
BRANCH   4   7
HETATM    7  S1  UNL     1       2.818  -6.074   6.309  1.00  0.00     0.256 S 
HETATM    8  O2  UNL     1       2.332  -7.325   5.662  1.00  0.00    -0.201 OA
HETATM    9  O3  UNL     1       1.657  -5.434   7.028  1.00  0.00    -0.201 OA
BRANCH   7  10
HETATM   10  N1  UNL     1       3.395  -4.925   5.161  1.00  0.00    -0.324 N 
ATOM     11  H12 UNL     1       3.477  -3.924   5.343  1.00  0.00     0.169 HD
ATOM     12  H11 UNL     1       3.636  -5.394   4.288  1.00  0.00     0.169 HD
ENDBRANCH   7  10
ENDBRANCH   4   7
BRANCH   1  13
HETATM   13  O1  UNL     1       7.132  -7.353  10.118  1.00  0.00    -0.356 OA
HETATM   14  C1  UNL     1       7.531  -8.700  10.247  1.00  0.00     0.210 C 
ENDBRANCH   1  13
TORSDOF 3
ENDMDL
