MODEL 2
REMARK VINA RESULT: -8.449917305      3.426      5.102
REMARK  2 active torsions:
REMARK  status: ('A' for Active; 'I' for Inactive)
REMARK    1  A    between atoms: C1_2  and  C2_4 
REMARK    2  A    between atoms: C10_15  and  C11_16 
ROOT
HETATM    1  C2  UNL     1      26.512  22.118  16.758  1.00  0.00     0.057 C 
HETATM    2  C3  UNL     1      27.273  23.129  16.403  1.00  0.00     0.031 C 
HETATM    3  C4  UNL     1      26.954  23.969  15.280  1.00  0.00     0.001 A 
HETATM    4  C5  UNL     1      27.744  25.047  14.923  1.00  0.00     0.038 A 
HETATM    5  C6  UNL     1      27.372  25.817  13.837  1.00  0.00     0.036 A 
HETATM    6 CL1  UNL     1      28.400  27.168  13.426  1.00  0.00    -0.084 Cl
HETATM    7  C7  UNL     1      26.236  25.519  13.118  1.00  0.00     0.050 A 
HETATM    8  C8  UNL     1      25.438  24.450  13.457  1.00  0.00     0.070 A 
HETATM    9 CL2  UNL     1      23.992  24.050  12.563  1.00  0.00    -0.081 Cl
HETATM   10  C9  UNL     1      25.824  23.685  14.552  1.00  0.00     0.102 A 
HETATM   11  O3  UNL     1      25.052  22.612  14.915  1.00  0.00    -0.329 OA
HETATM   12  C10 UNL     1      25.214  21.893  16.100  1.00  0.00     0.276 C 
ENDROOT
BRANCH  12  13
HETATM   13  C11 UNL     1      24.133  22.384  17.108  1.00  0.00     0.418 C 
HETATM   14  F1  UNL     1      23.805  21.336  17.957  1.00  0.00    -0.168 F 
HETATM   15  F2  UNL     1      23.005  22.765  16.430  1.00  0.00    -0.168 F 
HETATM   16  F3  UNL     1      24.589  23.439  17.839  1.00  0.00    -0.168 F 
ENDBRANCH  12  13
BRANCH   1  17
HETATM   17  C1  UNL     1      26.915  21.278  17.920  1.00  0.00     0.208 C 
HETATM   18  O1  UNL     1      27.168  21.853  18.984  1.00  0.00    -0.644 OA
HETATM   19  O2  UNL     1      27.005  19.912  17.820  1.00  0.00    -0.644 OA
ENDBRANCH   1  17
TORSDOF 2
ENDMDL
