MODEL 4
REMARK VINA RESULT: -8.092157708      1.074      1.570
REMARK  2 active torsions:
REMARK  status: ('A' for Active; 'I' for Inactive)
REMARK    1  A    between atoms: C1_2  and  C2_4 
REMARK    2  A    between atoms: C10_15  and  C11_16 
ROOT
HETATM    1  C2  UNL     1      26.637  25.132  14.901  1.00  0.00     0.057 C 
HETATM    2  C3  UNL     1      27.595  24.492  15.533  1.00  0.00     0.031 C 
HETATM    3  C4  UNL     1      27.324  23.407  16.437  1.00  0.00     0.001 A 
HETATM    4  C5  UNL     1      28.336  22.719  17.082  1.00  0.00     0.038 A 
HETATM    5  C6  UNL     1      28.001  21.680  17.931  1.00  0.00     0.036 A 
HETATM    6 CL1  UNL     1      29.313  20.842  18.721  1.00  0.00    -0.084 Cl
HETATM    7  C7  UNL     1      26.684  21.333  18.134  1.00  0.00     0.050 A 
HETATM    8  C8  UNL     1      25.663  22.006  17.503  1.00  0.00     0.070 A 
HETATM    9 CL2  UNL     1      23.985  21.586  17.743  1.00  0.00    -0.081 Cl
HETATM   10  C9  UNL     1      26.014  23.048  16.651  1.00  0.00     0.102 A 
HETATM   11  O3  UNL     1      25.022  23.740  16.007  1.00  0.00    -0.329 OA
HETATM   12  C10 UNL     1      25.244  24.662  14.984  1.00  0.00     0.276 C 
ENDROOT
BRANCH  12  13
HETATM   13  C11 UNL     1      24.950  23.954  13.629  1.00  0.00     0.418 C 
HETATM   14  F1  UNL     1      26.154  23.668  13.004  1.00  0.00    -0.168 F 
HETATM   15  F2  UNL     1      24.223  24.786  12.818  1.00  0.00    -0.168 F 
HETATM   16  F3  UNL     1      24.249  22.801  13.823  1.00  0.00    -0.168 F 
ENDBRANCH  12  13
BRANCH   1  17
HETATM   17  C1  UNL     1      26.991  26.260  13.995  1.00  0.00     0.208 C 
HETATM   18  O1  UNL     1      28.188  26.444  13.748  1.00  0.00    -0.644 OA
HETATM   19  O2  UNL     1      26.027  27.072  13.452  1.00  0.00    -0.644 OA
ENDBRANCH   1  17
TORSDOF 2
ENDMDL
