MODEL 8
REMARK VINA RESULT: -7.447815805      3.412      5.705
REMARK  2 active torsions:
REMARK  status: ('A' for Active; 'I' for Inactive)
REMARK    1  A    between atoms: C1_2  and  C2_4 
REMARK    2  A    between atoms: C10_15  and  C11_16 
ROOT
HETATM    1  C2  UNL     1      24.142  22.812  16.524  1.00  0.00     0.057 C 
HETATM    2  C3  UNL     1      23.881  22.832  15.237  1.00  0.00     0.031 C 
HETATM    3  C4  UNL     1      24.632  23.641  14.315  1.00  0.00     0.001 A 
HETATM    4  C5  UNL     1      24.370  23.640  12.957  1.00  0.00     0.038 A 
HETATM    5  C6  UNL     1      25.139  24.437  12.129  1.00  0.00     0.036 A 
HETATM    6 CL1  UNL     1      24.772  24.403  10.422  1.00  0.00    -0.084 Cl
HETATM    7  C7  UNL     1      26.150  25.219  12.643  1.00  0.00     0.050 A 
HETATM    8  C8  UNL     1      26.425  25.233  13.991  1.00  0.00     0.070 A 
HETATM    9 CL2  UNL     1      27.701  26.214  14.669  1.00  0.00    -0.081 Cl
HETATM   10  C9  UNL     1      25.644  24.427  14.813  1.00  0.00     0.102 A 
HETATM   11  O3  UNL     1      25.891  24.418  16.160  1.00  0.00    -0.329 OA
HETATM   12  C10 UNL     1      25.321  23.514  17.058  1.00  0.00     0.276 C 
ENDROOT
BRANCH  12  13
HETATM   13  C11 UNL     1      26.377  22.409  17.358  1.00  0.00     0.418 C 
HETATM   14  F1  UNL     1      26.343  22.115  18.713  1.00  0.00    -0.168 F 
HETATM   15  F2  UNL     1      27.630  22.867  17.042  1.00  0.00    -0.168 F 
HETATM   16  F3  UNL     1      26.123  21.281  16.638  1.00  0.00    -0.168 F 
ENDBRANCH  12  13
BRANCH   1  17
HETATM   17  C1  UNL     1      23.308  21.965  17.423  1.00  0.00     0.208 C 
HETATM   18  O1  UNL     1      22.087  22.156  17.421  1.00  0.00    -0.644 OA
HETATM   19  O2  UNL     1      23.870  21.008  18.230  1.00  0.00    -0.644 OA
ENDBRANCH   1  17
TORSDOF 2
ENDMDL
