MODEL 5
REMARK VINA RESULT: -7.926900537      0.672      1.156
REMARK  2 active torsions:
REMARK  status: ('A' for Active; 'I' for Inactive)
REMARK    1  A    between atoms: C1_2  and  C2_4 
REMARK    2  A    between atoms: C10_15  and  C11_16 
ROOT
HETATM    1  C2  UNL     1      26.283  24.602  13.693  1.00  0.00     0.057 C 
HETATM    2  C3  UNL     1      27.014  23.957  14.573  1.00  0.00     0.031 C 
HETATM    3  C4  UNL     1      26.432  23.258  15.687  1.00  0.00     0.001 A 
HETATM    4  C5  UNL     1      27.203  22.559  16.598  1.00  0.00     0.038 A 
HETATM    5  C6  UNL     1      26.574  21.902  17.640  1.00  0.00     0.036 A 
HETATM    6 CL1  UNL     1      27.589  21.033  18.764  1.00  0.00    -0.084 Cl
HETATM    7  C7  UNL     1      25.204  21.942  17.772  1.00  0.00     0.050 A 
HETATM    8  C8  UNL     1      24.420  22.632  16.877  1.00  0.00     0.070 A 
HETATM    9 CL2  UNL     1      22.681  22.698  17.021  1.00  0.00    -0.081 Cl
HETATM   10  C9  UNL     1      25.066  23.288  15.833  1.00  0.00     0.102 A 
HETATM   11  O3  UNL     1      24.315  23.986  14.925  1.00  0.00    -0.329 OA
HETATM   12  C10 UNL     1      24.814  24.512  13.733  1.00  0.00     0.276 C 
ENDROOT
BRANCH  12  13
HETATM   13  C11 UNL     1      24.413  23.546  12.579  1.00  0.00     0.418 C 
HETATM   14  F1  UNL     1      25.468  22.680  12.335  1.00  0.00    -0.168 F 
HETATM   15  F2  UNL     1      24.165  24.264  11.437  1.00  0.00    -0.168 F 
HETATM   16  F3  UNL     1      23.300  22.831  12.904  1.00  0.00    -0.168 F 
ENDBRANCH  12  13
BRANCH   1  17
HETATM   17  C1  UNL     1      26.956  25.322  12.575  1.00  0.00     0.208 C 
HETATM   18  O1  UNL     1      28.032  25.880  12.818  1.00  0.00    -0.644 OA
HETATM   19  O2  UNL     1      26.406  25.370  11.319  1.00  0.00    -0.644 OA
ENDBRANCH   1  17
TORSDOF 2
ENDMDL
