MODEL 3
REMARK VINA RESULT: -8.301638490      0.982      1.304
REMARK  2 active torsions:
REMARK  status: ('A' for Active; 'I' for Inactive)
REMARK    1  A    between atoms: C1_2  and  C2_4 
REMARK    2  A    between atoms: C10_15  and  C11_16 
ROOT
HETATM    1  C2  UNL     1      26.817  24.818  14.831  1.00  0.00     0.057 C 
HETATM    2  C3  UNL     1      27.758  24.135  15.441  1.00  0.00     0.031 C 
HETATM    3  C4  UNL     1      27.458  23.114  16.408  1.00  0.00     0.001 A 
HETATM    4  C5  UNL     1      28.450  22.378  17.030  1.00  0.00     0.038 A 
HETATM    5  C6  UNL     1      28.087  21.405  17.944  1.00  0.00     0.036 A 
HETATM    6 CL1  UNL     1      29.375  20.503  18.703  1.00  0.00    -0.084 Cl
HETATM    7  C7  UNL     1      26.761  21.170  18.232  1.00  0.00     0.050 A 
HETATM    8  C8  UNL     1      25.760  21.891  17.623  1.00  0.00     0.070 A 
HETATM    9 CL2  UNL     1      24.071  21.612  17.970  1.00  0.00    -0.081 Cl
HETATM   10  C9  UNL     1      26.139  22.866  16.707  1.00  0.00     0.102 A 
HETATM   11  O3  UNL     1      25.167  23.603  16.084  1.00  0.00    -0.329 OA
HETATM   12  C10 UNL     1      25.400  24.462  15.008  1.00  0.00     0.276 C 
ENDROOT
BRANCH  12  13
HETATM   13  C11 UNL     1      24.978  23.720  13.705  1.00  0.00     0.418 C 
HETATM   14  F1  UNL     1      23.840  22.972  13.965  1.00  0.00    -0.168 F 
HETATM   15  F2  UNL     1      25.979  22.870  13.311  1.00  0.00    -0.168 F 
HETATM   16  F3  UNL     1      24.726  24.604  12.700  1.00  0.00    -0.168 F 
ENDBRANCH  12  13
BRANCH   1  17
HETATM   17  C1  UNL     1      27.203  25.876  13.855  1.00  0.00     0.208 C 
HETATM   18  O1  UNL     1      27.445  25.526  12.695  1.00  0.00    -0.644 OA
HETATM   19  O2  UNL     1      27.291  27.195  14.225  1.00  0.00    -0.644 OA
ENDBRANCH   1  17
TORSDOF 2
ENDMDL
