MODEL 1
REMARK VINA RESULT: -9.089731391      0.000      0.000
REMARK  2 active torsions:
REMARK  status: ('A' for Active; 'I' for Inactive)
REMARK    1  A    between atoms: C1_2  and  C2_4 
REMARK    2  A    between atoms: C10_15  and  C11_16 
ROOT
HETATM    1  C2  UNL     1      26.231  24.807  14.256  1.00  0.00     0.057 C 
HETATM    2  C3  UNL     1      27.021  24.147  15.071  1.00  0.00     0.031 C 
HETATM    3  C4  UNL     1      26.510  23.266  16.086  1.00  0.00     0.001 A 
HETATM    4  C5  UNL     1      27.345  22.553  16.926  1.00  0.00     0.038 A 
HETATM    5  C6  UNL     1      26.784  21.716  17.874  1.00  0.00     0.036 A 
HETATM    6 CL1  UNL     1      27.879  20.837  18.912  1.00  0.00    -0.084 Cl
HETATM    7  C7  UNL     1      25.416  21.594  17.983  1.00  0.00     0.050 A 
HETATM    8  C8  UNL     1      24.569  22.295  17.156  1.00  0.00     0.070 A 
HETATM    9 CL2  UNL     1      22.832  22.156  17.273  1.00  0.00    -0.081 Cl
HETATM   10  C9  UNL     1      25.148  23.131  16.207  1.00  0.00     0.102 A 
HETATM   11  O3  UNL     1      24.332  23.845  15.369  1.00  0.00    -0.329 OA
HETATM   12  C10 UNL     1      24.780  24.556  14.255  1.00  0.00     0.276 C 
ENDROOT
BRANCH  12  13
HETATM   13  C11 UNL     1      24.496  23.692  12.991  1.00  0.00     0.418 C 
HETATM   14  F1  UNL     1      23.280  23.044  13.157  1.00  0.00    -0.168 F 
HETATM   15  F2  UNL     1      25.478  22.747  12.844  1.00  0.00    -0.168 F 
HETATM   16  F3  UNL     1      24.453  24.466  11.870  1.00  0.00    -0.168 F 
ENDBRANCH  12  13
BRANCH   1  17
HETATM   17  C1  UNL     1      26.830  25.719  13.241  1.00  0.00     0.208 C 
HETATM   18  O1  UNL     1      26.690  26.935  13.409  1.00  0.00    -0.644 OA
HETATM   19  O2  UNL     1      27.513  25.233  12.154  1.00  0.00    -0.644 OA
ENDBRANCH   1  17
TORSDOF 2
ENDMDL
