MODEL 7
REMARK VINA RESULT: -7.888955380      3.872      5.403
REMARK  2 active torsions:
REMARK  status: ('A' for Active; 'I' for Inactive)
REMARK    1  A    between atoms: C1_2  and  C2_4 
REMARK    2  A    between atoms: C10_15  and  C11_16 
ROOT
HETATM    1  C2  UNL     1      27.786  21.941  17.216  1.00  0.00     0.057 C 
HETATM    2  C3  UNL     1      28.281  23.007  16.629  1.00  0.00     0.031 C 
HETATM    3  C4  UNL     1      27.553  23.735  15.625  1.00  0.00     0.001 A 
HETATM    4  C5  UNL     1      28.066  24.871  15.027  1.00  0.00     0.038 A 
HETATM    5  C6  UNL     1      27.306  25.526  14.074  1.00  0.00     0.036 A 
HETATM    6 CL1  UNL     1      27.996  26.956  13.347  1.00  0.00    -0.084 Cl
HETATM    7  C7  UNL     1      26.060  25.057  13.724  1.00  0.00     0.050 A 
HETATM    8  C8  UNL     1      25.532  23.928  14.308  1.00  0.00     0.070 A 
HETATM    9 CL2  UNL     1      23.954  23.313  13.883  1.00  0.00    -0.081 Cl
HETATM   10  C9  UNL     1      26.307  23.280  15.264  1.00  0.00     0.102 A 
HETATM   11  O3  UNL     1      25.812  22.152  15.864  1.00  0.00    -0.329 OA
HETATM   12  C10 UNL     1      26.394  21.530  16.969  1.00  0.00     0.276 C 
ENDROOT
BRANCH  12  13
HETATM   13  C11 UNL     1      25.592  21.957  18.234  1.00  0.00     0.418 C 
HETATM   14  F1  UNL     1      24.440  21.188  18.313  1.00  0.00    -0.168 F 
HETATM   15  F2  UNL     1      25.231  23.275  18.132  1.00  0.00    -0.168 F 
HETATM   16  F3  UNL     1      26.334  21.786  19.364  1.00  0.00    -0.168 F 
ENDBRANCH  12  13
BRANCH   1  17
HETATM   17  C1  UNL     1      28.606  21.225  18.233  1.00  0.00     0.208 C 
HETATM   18  O1  UNL     1      29.358  21.901  18.944  1.00  0.00    -0.644 OA
HETATM   19  O2  UNL     1      28.535  19.862  18.381  1.00  0.00    -0.644 OA
ENDBRANCH   1  17
TORSDOF 2
ENDMDL
