MODEL 12
REMARK VINA RESULT: -5.606471678      2.119      2.546
REMARK  7 active torsions:
REMARK  status: ('A' for Active; 'I' for Inactive)
REMARK       I    between atoms: C1_2  and  N2_3 
REMARK    1  A    between atoms: N2_3  and  O1_5 
REMARK    2  A    between atoms: N3_7  and  C2_9 
REMARK    3  A    between atoms: C2_9  and  C3_10 
REMARK    4  A    between atoms: C3_10  and  C4_11 
REMARK    5  A    between atoms: C4_11  and  C5_12 
REMARK    6  A    between atoms: C5_12  and  N4_13 
REMARK    7  A    between atoms: C5_12  and  C6_17 
ROOT
HETATM    1  C3  UNL     1      23.222 -14.995   7.343  1.00  0.00     0.022 C 
ENDROOT
BRANCH   1   2
HETATM    2  C2  UNL     1      24.732 -14.715   7.427  1.00  0.00     0.122 C 
BRANCH   2   3
HETATM    3  N3  UNL     1      24.928 -13.365   6.961  1.00  0.00    -0.363 N 
HETATM    4  C1  UNL     1      26.071 -12.794   7.147  1.00  0.00     0.208 C 
HETATM    5  N1  UNL     1      26.266 -11.454   6.686  1.00  0.00    -0.062 NA
HETATM    6  N2  UNL     1      27.124 -13.492   7.798  1.00  0.00    -0.241 N 
ATOM      7  H2  UNL     1      27.797 -12.973   8.362  1.00  0.00     0.197 HD
ATOM      8  H3  UNL     1      24.173 -12.867   6.491  1.00  0.00     0.162 HD
BRANCH   6   9
HETATM    9  O1  UNL     1      27.247 -14.825   7.682  1.00  0.00    -0.287 OA
ATOM     10  H1  UNL     1      27.760 -15.325   8.306  1.00  0.00     0.244 HD
ENDBRANCH   6   9
ENDBRANCH   2   3
ENDBRANCH   1   2
BRANCH   1  11
HETATM   11  C4  UNL     1      22.978 -15.675   6.043  1.00  0.00     0.045 C 
BRANCH  11  12
HETATM   12  C5  UNL     1      21.929 -16.739   6.179  1.00  0.00     0.283 C 
BRANCH  12  13
HETATM   13  N4  UNL     1      21.732 -17.281   4.818  1.00  0.00    -0.065 N 
ATOM     14  H43 UNL     1      21.648 -16.562   4.098  1.00  0.00     0.275 HD
ATOM     15  H42 UNL     1      22.560 -17.738   4.436  1.00  0.00     0.275 HD
ATOM     16  H41 UNL     1      20.919 -17.893   4.881  1.00  0.00     0.275 HD
ENDBRANCH  12  13
BRANCH  12  17
HETATM   17  C6  UNL     1      20.649 -16.232   6.686  1.00  0.00     0.204 C 
HETATM   18  O2  UNL     1      19.941 -15.503   5.951  1.00  0.00    -0.646 OA
HETATM   19  O3  UNL     1      20.175 -16.520   7.947  1.00  0.00    -0.646 OA
ENDBRANCH  12  17
ENDBRANCH  11  12
ENDBRANCH   1  11
TORSDOF 7
ENDMDL
