MODEL 3
REMARK VINA RESULT: -5.844765545      2.641      5.294
REMARK  7 active torsions:
REMARK  status: ('A' for Active; 'I' for Inactive)
REMARK       I    between atoms: C1_2  and  N2_3 
REMARK    1  A    between atoms: N2_3  and  O1_5 
REMARK    2  A    between atoms: N3_7  and  C2_9 
REMARK    3  A    between atoms: C2_9  and  C3_10 
REMARK    4  A    between atoms: C3_10  and  C4_11 
REMARK    5  A    between atoms: C4_11  and  C5_12 
REMARK    6  A    between atoms: C5_12  and  N4_13 
REMARK    7  A    between atoms: C5_12  and  C6_17 
ROOT
HETATM    1  C3  UNL     1      23.537 -16.191   8.383  1.00  0.00     0.022 C 
ENDROOT
BRANCH   1   2
HETATM    2  C2  UNL     1      22.699 -17.090   7.457  1.00  0.00     0.122 C 
BRANCH   2   3
HETATM    3  N3  UNL     1      22.031 -16.215   6.526  1.00  0.00    -0.363 N 
HETATM    4  C1  UNL     1      21.710 -16.665   5.359  1.00  0.00     0.208 C 
HETATM    5  N1  UNL     1      21.048 -15.797   4.434  1.00  0.00    -0.062 NA
HETATM    6  N2  UNL     1      22.008 -18.008   5.001  1.00  0.00    -0.241 N 
ATOM      7  H2  UNL     1      22.214 -18.234   4.028  1.00  0.00     0.197 HD
ATOM      8  H3  UNL     1      21.816 -15.253   6.786  1.00  0.00     0.162 HD
BRANCH   6   9
HETATM    9  O1  UNL     1      22.020 -18.984   5.923  1.00  0.00    -0.287 OA
ATOM     10  H1  UNL     1      21.740 -19.866   5.707  1.00  0.00     0.244 HD
ENDBRANCH   6   9
ENDBRANCH   2   3
ENDBRANCH   1   2
BRANCH   1  11
HETATM   11  C4  UNL     1      24.729 -15.759   7.604  1.00  0.00     0.045 C 
BRANCH  11  12
HETATM   12  C5  UNL     1      24.963 -14.284   7.752  1.00  0.00     0.283 C 
BRANCH  12  13
HETATM   13  N4  UNL     1      24.009 -13.635   6.827  1.00  0.00    -0.065 N 
ATOM     14  H43 UNL     1      24.458 -13.079   6.099  1.00  0.00     0.275 HD
ATOM     15  H42 UNL     1      23.534 -14.288   6.204  1.00  0.00     0.275 HD
ATOM     16  H41 UNL     1      23.375 -13.098   7.418  1.00  0.00     0.275 HD
ENDBRANCH  12  13
BRANCH  12  17
HETATM   17  C6  UNL     1      26.328 -13.873   7.404  1.00  0.00     0.204 C 
HETATM   18  O2  UNL     1      26.691 -13.897   6.204  1.00  0.00    -0.646 OA
HETATM   19  O3  UNL     1      27.246 -13.455   8.342  1.00  0.00    -0.646 OA
ENDBRANCH  12  17
ENDBRANCH  11  12
ENDBRANCH   1  11
TORSDOF 7
ENDMDL
