MODEL 2
REMARK VINA RESULT: -5.930569420      2.404      5.348
REMARK  7 active torsions:
REMARK  status: ('A' for Active; 'I' for Inactive)
REMARK       I    between atoms: C1_2  and  N2_3 
REMARK    1  A    between atoms: N2_3  and  O1_5 
REMARK    2  A    between atoms: N3_7  and  C2_9 
REMARK    3  A    between atoms: C2_9  and  C3_10 
REMARK    4  A    between atoms: C3_10  and  C4_11 
REMARK    5  A    between atoms: C4_11  and  C5_12 
REMARK    6  A    between atoms: C5_12  and  N4_13 
REMARK    7  A    between atoms: C5_12  and  C6_17 
ROOT
HETATM    1  C3  UNL     1      23.494 -16.147   8.561  1.00  0.00     0.022 C 
ENDROOT
BRANCH   1   2
HETATM    2  C2  UNL     1      22.594 -16.934   7.592  1.00  0.00     0.122 C 
BRANCH   2   3
HETATM    3  N3  UNL     1      21.316 -16.267   7.581  1.00  0.00    -0.363 N 
HETATM    4  C1  UNL     1      20.594 -16.308   6.512  1.00  0.00     0.208 C 
HETATM    5  N1  UNL     1      19.326 -15.646   6.500  1.00  0.00    -0.062 NA
HETATM    6  N2  UNL     1      21.052 -17.007   5.362  1.00  0.00    -0.241 N 
ATOM      7  H2  UNL     1      20.786 -16.676   4.434  1.00  0.00     0.197 HD
ATOM      8  H3  UNL     1      20.988 -15.769   8.408  1.00  0.00     0.162 HD
BRANCH   6   9
HETATM    9  O1  UNL     1      21.830 -18.096   5.478  1.00  0.00    -0.287 OA
ATOM     10  H1  UNL     1      22.078 -18.604   4.715  1.00  0.00     0.244 HD
ENDBRANCH   6   9
ENDBRANCH   2   3
ENDBRANCH   1   2
BRANCH   1  11
HETATM   11  C4  UNL     1      24.713 -15.759   7.803  1.00  0.00     0.045 C 
BRANCH  11  12
HETATM   12  C5  UNL     1      24.892 -14.269   7.795  1.00  0.00     0.283 C 
BRANCH  12  13
HETATM   13  N4  UNL     1      23.928 -13.758   6.797  1.00  0.00    -0.065 N 
ATOM     14  H43 UNL     1      22.984 -13.635   7.164  1.00  0.00     0.275 HD
ATOM     15  H42 UNL     1      24.085 -12.785   6.538  1.00  0.00     0.275 HD
ATOM     16  H41 UNL     1      23.979 -14.405   6.010  1.00  0.00     0.275 HD
ENDBRANCH  12  13
BRANCH  12  17
HETATM   17  C6  UNL     1      26.245 -13.847   7.419  1.00  0.00     0.204 C 
HETATM   18  O2  UNL     1      27.020 -13.405   8.301  1.00  0.00    -0.646 OA
HETATM   19  O3  UNL     1      26.720 -13.914   6.128  1.00  0.00    -0.646 OA
ENDBRANCH  12  17
ENDBRANCH  11  12
ENDBRANCH   1  11
TORSDOF 7
ENDMDL
