MODEL 5
REMARK VINA RESULT: -5.808390135      2.449      5.110
REMARK  7 active torsions:
REMARK  status: ('A' for Active; 'I' for Inactive)
REMARK       I    between atoms: C1_2  and  N2_3 
REMARK    1  A    between atoms: N2_3  and  O1_5 
REMARK    2  A    between atoms: N3_7  and  C2_9 
REMARK    3  A    between atoms: C2_9  and  C3_10 
REMARK    4  A    between atoms: C3_10  and  C4_11 
REMARK    5  A    between atoms: C4_11  and  C5_12 
REMARK    6  A    between atoms: C5_12  and  N4_13 
REMARK    7  A    between atoms: C5_12  and  C6_17 
ROOT
HETATM    1  C3  UNL     1      22.521 -15.149   7.631  1.00  0.00     0.022 C 
ENDROOT
BRANCH   1   2
HETATM    2  C2  UNL     1      21.762 -15.739   6.429  1.00  0.00     0.122 C 
BRANCH   2   3
HETATM    3  N3  UNL     1      22.052 -17.150   6.410  1.00  0.00    -0.363 N 
HETATM    4  C1  UNL     1      22.284 -17.730   5.281  1.00  0.00     0.208 C 
HETATM    5  N1  UNL     1      22.572 -19.132   5.260  1.00  0.00    -0.062 NA
HETATM    6  N2  UNL     1      22.259 -16.982   4.071  1.00  0.00    -0.241 N 
ATOM      7  H2  UNL     1      21.962 -17.436   3.207  1.00  0.00     0.197 HD
ATOM      8  H3  UNL     1      22.073 -17.684   7.279  1.00  0.00     0.162 HD
BRANCH   6   9
HETATM    9  O1  UNL     1      22.620 -15.689   4.050  1.00  0.00    -0.287 OA
ATOM     10  H1  UNL     1      22.642 -15.173   4.847  1.00  0.00     0.244 HD
ENDBRANCH   6   9
ENDBRANCH   2   3
ENDBRANCH   1   2
BRANCH   1  11
HETATM   11  C4  UNL     1      23.519 -14.191   7.086  1.00  0.00     0.045 C 
BRANCH  11  12
HETATM   12  C5  UNL     1      24.891 -14.799   7.058  1.00  0.00     0.283 C 
BRANCH  12  13
HETATM   13  N4  UNL     1      24.911 -15.785   8.161  1.00  0.00    -0.065 N 
ATOM     14  H43 UNL     1      25.789 -15.800   8.681  1.00  0.00     0.275 HD
ATOM     15  H42 UNL     1      24.310 -15.533   8.945  1.00  0.00     0.275 HD
ATOM     16  H41 UNL     1      24.674 -16.679   7.733  1.00  0.00     0.275 HD
ENDBRANCH  12  13
BRANCH  12  17
HETATM   17  C6  UNL     1      25.965 -13.822   7.265  1.00  0.00     0.204 C 
HETATM   18  O2  UNL     1      27.128 -14.226   7.503  1.00  0.00    -0.646 OA
HETATM   19  O3  UNL     1      25.761 -12.460   7.209  1.00  0.00    -0.646 OA
ENDBRANCH  12  17
ENDBRANCH  11  12
ENDBRANCH   1  11
TORSDOF 7
ENDMDL
