MODEL 3
REMARK VINA RESULT: -8.969036278      2.151      4.827
REMARK  9 active torsions:
REMARK  status: ('A' for Active; 'I' for Inactive)
REMARK    1  A    between atoms: O1_2  and  C2_3 
REMARK    2  A    between atoms: C6_7  and  N1_8 
REMARK    3  A    between atoms: N1_8  and  C7_10 
REMARK    4  A    between atoms: C7_10  and  N2_12 
REMARK    5  A    between atoms: N2_12  and  C8_13 
REMARK    6  A    between atoms: N2_12  and  C10_17 
REMARK    7  A    between atoms: C8_13  and  C9_14 
REMARK    8  A    between atoms: C9_14  and  O2_15 
REMARK    9  A    between atoms: C10_17  and  C11_18 
ROOT
HETATM    1  N2  UNL     1     -24.911   4.775  -3.065  1.00  0.00    -0.331 N 
ENDROOT
BRANCH   1   2
HETATM    2  C7  UNL     1     -25.665   5.126  -1.878  1.00  0.00     0.178 C 
HETATM    3  S1  UNL     1     -26.512   3.816  -1.224  1.00  0.00    -0.040 SA
BRANCH   2   4
HETATM    4  N1  UNL     1     -25.793   6.310  -1.221  1.00  0.00    -0.333 N 
ATOM      5  H1  UNL     1     -26.607   6.829  -1.547  1.00  0.00     0.168 HD
BRANCH   4   6
HETATM    6  C6  UNL     1     -25.109   7.009  -0.220  1.00  0.00     0.036 A 
HETATM    7  C5  UNL     1     -25.515   6.940   1.120  1.00  0.00     0.029 A 
HETATM    8  C4  UNL     1     -24.849   7.600   2.116  1.00  0.00     0.005 A 
HETATM    9  C3  UNL     1     -23.747   8.358   1.796  1.00  0.00     0.037 A 
HETATM   10  C2  UNL     1     -23.299   8.468   0.506  1.00  0.00     0.070 A 
HETATM   11  C22 UNL     1     -23.984   7.794  -0.479  1.00  0.00     0.066 A 
BRANCH  10  12
HETATM   12  O1  UNL     1     -22.179   9.245   0.225  1.00  0.00    -0.356 OA
HETATM   13  C1  UNL     1     -21.426   9.109  -0.959  1.00  0.00     0.210 C 
ENDBRANCH  10  12
ENDBRANCH   4   6
ENDBRANCH   2   4
ENDBRANCH   1   2
BRANCH   1  14
HETATM   14  C8  UNL     1     -25.015   3.437  -3.537  1.00  0.00     0.156 C 
BRANCH  14  15
HETATM   15  C9  UNL     1     -23.729   2.672  -3.622  1.00  0.00     0.184 C 
BRANCH  15  16
HETATM   16  O2  UNL     1     -23.164   2.592  -2.334  1.00  0.00    -0.399 OA
ATOM     17  H2  UNL     1     -22.929   1.688  -2.160  1.00  0.00     0.209 HD
ENDBRANCH  15  16
ENDBRANCH  14  15
ENDBRANCH   1  14
BRANCH   1  18
HETATM   18  C10 UNL     1     -24.106   5.826  -3.560  1.00  0.00     0.110 C 
BRANCH  18  19
HETATM   19  C11 UNL     1     -24.525   6.908  -4.391  1.00  0.00     0.048 A 
HETATM   20  C12 UNL     1     -24.962   8.151  -4.096  1.00  0.00     0.032 A 
HETATM   21  C13 UNL     1     -25.329   9.106  -5.063  1.00  0.00    -0.008 A 
HETATM   22  C14 UNL     1     -25.767  10.363  -4.712  1.00  0.00     0.021 A 
HETATM   23  C20 UNL     1     -25.240   8.763  -6.377  1.00  0.00     0.045 A 
HETATM   24  C15 UNL     1     -26.117  11.282  -5.676  1.00  0.00    -0.055 A 
HETATM   25  C16 UNL     1     -26.597  12.652  -5.326  1.00  0.00     0.049 C 
HETATM   26  C17 UNL     1     -26.032  10.948  -7.004  1.00  0.00    -0.054 A 
HETATM   27  C18 UNL     1     -26.392  11.899  -8.080  1.00  0.00     0.049 C 
HETATM   28  C19 UNL     1     -25.595   9.692  -7.360  1.00  0.00     0.037 A 
HETATM   29  N3  UNL     1     -24.812   7.539  -6.701  1.00  0.00    -0.322 N 
HETATM   30  C21 UNL     1     -24.465   6.636  -5.793  1.00  0.00     0.257 A 
ATOM     31  H3  UNL     1     -24.748   7.289  -7.688  1.00  0.00     0.169 HD
HETATM   32  O3  UNL     1     -24.069   5.501  -6.157  1.00  0.00    -0.267 OA
ENDBRANCH  18  19
ENDBRANCH   1  18
TORSDOF 9
ENDMDL
