MODEL 1
REMARK VINA RESULT: -9.339902427      0.000      0.000
REMARK  9 active torsions:
REMARK  status: ('A' for Active; 'I' for Inactive)
REMARK    1  A    between atoms: O1_2  and  C2_3 
REMARK    2  A    between atoms: C6_7  and  N1_8 
REMARK    3  A    between atoms: N1_8  and  C7_10 
REMARK    4  A    between atoms: C7_10  and  N2_12 
REMARK    5  A    between atoms: N2_12  and  C8_13 
REMARK    6  A    between atoms: N2_12  and  C10_17 
REMARK    7  A    between atoms: C8_13  and  C9_14 
REMARK    8  A    between atoms: C9_14  and  O2_15 
REMARK    9  A    between atoms: C10_17  and  C11_18 
ROOT
HETATM    1  N2  UNL     1     -24.050   8.726  -0.561  1.00  0.00    -0.331 N 
ENDROOT
BRANCH   1   2
HETATM    2  C7  UNL     1     -24.771   7.696   0.160  1.00  0.00     0.178 C 
HETATM    3  S1  UNL     1     -24.404   7.668   1.811  1.00  0.00    -0.040 SA
BRANCH   2   4
HETATM    4  N1  UNL     1     -25.675   6.776  -0.268  1.00  0.00    -0.333 N 
ATOM      5  H1  UNL     1     -26.630   7.067  -0.060  1.00  0.00     0.168 HD
BRANCH   4   6
HETATM    6  C6  UNL     1     -25.652   5.536  -0.918  1.00  0.00     0.036 A 
HETATM    7  C5  UNL     1     -26.771   4.691  -0.911  1.00  0.00     0.029 A 
HETATM    8  C4  UNL     1     -26.774   3.485  -1.555  1.00  0.00     0.005 A 
HETATM    9  C3  UNL     1     -25.645   3.083  -2.231  1.00  0.00     0.037 A 
HETATM   10  C2  UNL     1     -24.519   3.862  -2.275  1.00  0.00     0.070 A 
HETATM   11  C22 UNL     1     -24.539   5.072  -1.621  1.00  0.00     0.066 A 
BRANCH  10  12
HETATM   12  O1  UNL     1     -23.398   3.418  -2.972  1.00  0.00    -0.356 OA
HETATM   13  C1  UNL     1     -23.088   2.053  -3.139  1.00  0.00     0.210 C 
ENDBRANCH  10  12
ENDBRANCH   4   6
ENDBRANCH   2   4
ENDBRANCH   1   2
BRANCH   1  14
HETATM   14  C8  UNL     1     -22.718   9.006  -0.149  1.00  0.00     0.156 C 
BRANCH  14  15
HETATM   15  C9  UNL     1     -21.667   8.892  -1.211  1.00  0.00     0.184 C 
BRANCH  15  16
HETATM   16  O2  UNL     1     -21.142   7.585  -1.189  1.00  0.00    -0.399 OA
ATOM     17  H2  UNL     1     -20.270   7.600  -1.567  1.00  0.00     0.209 HD
ENDBRANCH  15  16
ENDBRANCH  14  15
ENDBRANCH   1  14
BRANCH   1  18
HETATM   18  C10 UNL     1     -24.820   9.370  -1.556  1.00  0.00     0.110 C 
BRANCH  18  19
HETATM   19  C11 UNL     1     -24.897   9.022  -2.938  1.00  0.00     0.048 A 
HETATM   20  C12 UNL     1     -24.540   7.903  -3.605  1.00  0.00     0.032 A 
HETATM   21  C13 UNL     1     -24.702   7.729  -4.992  1.00  0.00    -0.008 A 
HETATM   22  C14 UNL     1     -24.324   6.566  -5.627  1.00  0.00     0.021 A 
HETATM   23  C20 UNL     1     -25.252   8.744  -5.712  1.00  0.00     0.045 A 
HETATM   24  C15 UNL     1     -24.495   6.418  -6.985  1.00  0.00    -0.055 A 
HETATM   25  C16 UNL     1     -24.094   5.171  -7.702  1.00  0.00     0.049 C 
HETATM   26  C17 UNL     1     -25.048   7.435  -7.721  1.00  0.00    -0.054 A 
HETATM   27  C18 UNL     1     -25.258   7.325  -9.183  1.00  0.00     0.049 C 
HETATM   28  C19 UNL     1     -25.427   8.599  -7.092  1.00  0.00     0.037 A 
HETATM   29  N3  UNL     1     -25.615   9.865  -5.081  1.00  0.00    -0.322 N 
HETATM   30  C21 UNL     1     -25.464  10.034  -3.774  1.00  0.00     0.257 A 
ATOM     31  H3  UNL     1     -26.025  10.623  -5.627  1.00  0.00     0.169 HD
HETATM   32  O3  UNL     1     -25.824  11.110  -3.234  1.00  0.00    -0.267 OA
ENDBRANCH  18  19
ENDBRANCH   1  18
TORSDOF 9
ENDMDL
