MODEL 8
REMARK VINA RESULT: -8.855179694      2.631      6.748
REMARK  9 active torsions:
REMARK  status: ('A' for Active; 'I' for Inactive)
REMARK    1  A    between atoms: O1_2  and  C2_3 
REMARK    2  A    between atoms: C6_7  and  N1_8 
REMARK    3  A    between atoms: N1_8  and  C7_10 
REMARK    4  A    between atoms: C7_10  and  N2_12 
REMARK    5  A    between atoms: N2_12  and  C8_13 
REMARK    6  A    between atoms: N2_12  and  C10_17 
REMARK    7  A    between atoms: C8_13  and  C9_14 
REMARK    8  A    between atoms: C9_14  and  O2_15 
REMARK    9  A    between atoms: C10_17  and  C11_18 
ROOT
HETATM    1  N2  UNL     1     -25.079   7.850  -0.654  1.00  0.00    -0.331 N 
ENDROOT
BRANCH   1   2
HETATM    2  C7  UNL     1     -24.561   8.992  -1.381  1.00  0.00     0.178 C 
HETATM    3  S1  UNL     1     -22.874   9.102  -1.317  1.00  0.00    -0.040 SA
BRANCH   2   4
HETATM    4  N1  UNL     1     -25.199   9.961  -2.091  1.00  0.00    -0.333 N 
ATOM      5  H1  UNL     1     -25.549  10.699  -1.480  1.00  0.00     0.168 HD
BRANCH   4   6
HETATM    6  C6  UNL     1     -25.505  10.220  -3.431  1.00  0.00     0.036 A 
HETATM    7  C5  UNL     1     -25.302   9.249  -4.423  1.00  0.00     0.029 A 
HETATM    8  C4  UNL     1     -25.613   9.475  -5.735  1.00  0.00     0.005 A 
HETATM    9  C3  UNL     1     -26.141  10.693  -6.099  1.00  0.00     0.037 A 
HETATM   10  C2  UNL     1     -26.362  11.684  -5.178  1.00  0.00     0.070 A 
HETATM   11  C22 UNL     1     -26.043  11.432  -3.863  1.00  0.00     0.066 A 
BRANCH  10  12
HETATM   12  O1  UNL     1     -26.899  12.901  -5.588  1.00  0.00    -0.356 OA
HETATM   13  C1  UNL     1     -26.175  13.843  -6.348  1.00  0.00     0.210 C 
ENDBRANCH  10  12
ENDBRANCH   4   6
ENDBRANCH   2   4
ENDBRANCH   1   2
BRANCH   1  14
HETATM   14  C8  UNL     1     -24.737   7.738   0.723  1.00  0.00     0.156 C 
BRANCH  14  15
HETATM   15  C9  UNL     1     -25.797   8.154   1.696  1.00  0.00     0.184 C 
BRANCH  15  16
HETATM   16  O2  UNL     1     -25.855   9.562   1.727  1.00  0.00    -0.399 OA
ATOM     17  H2  UNL     1     -24.972   9.905   1.657  1.00  0.00     0.209 HD
ENDBRANCH  15  16
ENDBRANCH  14  15
ENDBRANCH   1  14
BRANCH   1  18
HETATM   18  C10 UNL     1     -25.817   6.952  -1.456  1.00  0.00     0.110 C 
BRANCH  18  19
HETATM   19  C11 UNL     1     -25.617   5.544  -1.572  1.00  0.00     0.048 A 
HETATM   20  C12 UNL     1     -24.691   4.819  -2.237  1.00  0.00     0.032 A 
HETATM   21  C13 UNL     1     -24.640   3.413  -2.231  1.00  0.00    -0.008 A 
HETATM   22  C14 UNL     1     -23.673   2.718  -2.923  1.00  0.00     0.021 A 
HETATM   23  C20 UNL     1     -25.577   2.734  -1.514  1.00  0.00     0.045 A 
HETATM   24  C15 UNL     1     -23.641   1.342  -2.900  1.00  0.00    -0.055 A 
HETATM   25  C16 UNL     1     -22.606   0.561  -3.642  1.00  0.00     0.049 C 
HETATM   26  C17 UNL     1     -24.581   0.647  -2.181  1.00  0.00    -0.054 A 
HETATM   27  C18 UNL     1     -24.589  -0.832  -2.120  1.00  0.00     0.049 C 
HETATM   28  C19 UNL     1     -25.550   1.336  -1.488  1.00  0.00     0.037 A 
HETATM   29  N3  UNL     1     -26.508   3.422  -0.847  1.00  0.00    -0.322 N 
HETATM   30  C21 UNL     1     -26.559   4.748  -0.850  1.00  0.00     0.257 A 
ATOM     31  H3  UNL     1     -27.207   2.907  -0.312  1.00  0.00     0.169 HD
HETATM   32  O3  UNL     1     -27.458   5.342  -0.203  1.00  0.00    -0.267 OA
ENDBRANCH  18  19
ENDBRANCH   1  18
TORSDOF 9
ENDMDL
