MODEL 3
REMARK VINA RESULT: -10.775919525      0.526      1.314
REMARK  16 active torsions:
REMARK  status: ('A' for Active; 'I' for Inactive)
REMARK    1  A    between atoms: C2_2  and  C3_3 
REMARK    2  A    between atoms: C3_3  and  N1_4 
REMARK    3  A    between atoms: N1_4  and  C4_5 
REMARK    4  A    between atoms: N1_4  and  C7_8 
REMARK    5  A    between atoms: C4_5  and  C5_6 
REMARK    6  A    between atoms: C7_8  and  O1_9 
REMARK    7  A    between atoms: C7_8  and  C8_11 
REMARK    8  A    between atoms: C13_16  and  C14_17 
REMARK       I    between atoms: C14_17  and  N2_19 
REMARK    9  A    between atoms: N2_19  and  C15_21 
REMARK   10  A    between atoms: C15_21  and  C16_22 
REMARK   11  A    between atoms: C15_21  and  C23_31 
REMARK   12  A    between atoms: C16_22  and  C17_23 
REMARK   13  A    between atoms: C23_31  and  O3_32 
REMARK   14  A    between atoms: C23_31  and  C24_34 
REMARK   15  A    between atoms: N3_36  and  S1_37 
REMARK   16  A    between atoms: S1_37  and  C26_40 
ROOT
HETATM    1  C15 UNL     1      22.676  11.261  23.516  1.00  0.00     0.119 C 
ENDROOT
BRANCH   1   2
HETATM    2  N2  UNL     1      23.864  12.012  23.835  1.00  0.00    -0.349 N 
HETATM    3  C14 UNL     1      24.031  13.409  23.766  1.00  0.00     0.252 C 
HETATM    4  O2  UNL     1      23.041  14.117  23.400  1.00  0.00    -0.268 OA
ATOM      5  H2  UNL     1      24.673  11.473  24.145  1.00  0.00     0.163 HD
BRANCH   3   6
HETATM    6  C13 UNL     1      25.284  14.092  24.090  1.00  0.00     0.033 A 
HETATM    7  C12 UNL     1      25.354  15.128  24.983  1.00  0.00     0.024 A 
HETATM    8  C10 UNL     1      26.545  15.754  25.276  1.00  0.00    -0.060 A 
HETATM    9  C9  UNL     1      27.731  15.338  24.658  1.00  0.00     0.022 A 
HETATM   10  C11 UNL     1      26.609  16.872  26.252  1.00  0.00     0.048 C 
HETATM   11  C8  UNL     1      27.717  14.310  23.758  1.00  0.00     0.016 A 
HETATM   12  C34 UNL     1      26.456  13.707  23.501  1.00  0.00     0.032 A 
BRANCH  11  13
HETATM   13  C7  UNL     1      28.869  13.812  23.063  1.00  0.00     0.148 C 
BRANCH  13  14
HETATM   14  N1  UNL     1      29.007  12.790  22.161  1.00  0.00    -0.361 N 
BRANCH  14  15
HETATM   15  C3  UNL     1      28.803  11.391  22.331  1.00  0.00     0.124 C 
BRANCH  15  16
HETATM   16  C2  UNL     1      28.706  10.550  21.110  1.00  0.00     0.015 C 
HETATM   17  C1  UNL     1      28.275   9.143  21.255  1.00  0.00     0.006 C 
ENDBRANCH  15  16
ENDBRANCH  14  15
BRANCH  14  18
HETATM   18  C4  UNL     1      29.442  13.182  20.793  1.00  0.00     0.124 C 
BRANCH  18  19
HETATM   19  C5  UNL     1      28.599  14.183  20.125  1.00  0.00     0.015 C 
HETATM   20  C6  UNL     1      27.286  13.628  19.649  1.00  0.00     0.006 C 
ENDBRANCH  18  19
ENDBRANCH  14  18
ENDBRANCH  13  14
BRANCH  13  21
HETATM   21  O1  UNL     1      29.990  14.449  23.341  1.00  0.00    -0.346 OA
ATOM     22  H1  UNL     1      30.399  14.870  22.595  1.00  0.00     0.219 HD
ENDBRANCH  13  21
ENDBRANCH  11  13
ENDBRANCH   3   6
ENDBRANCH   1   2
BRANCH   1  23
HETATM   23  C16 UNL     1      22.996  10.275  22.448  1.00  0.00     0.066 C 
BRANCH  23  24
HETATM   24  C17 UNL     1      23.455  10.782  21.175  1.00  0.00    -0.050 A 
HETATM   25  C18 UNL     1      24.592  10.291  20.584  1.00  0.00     0.049 A 
HETATM   26  C19 UNL     1      25.049  10.750  19.379  1.00  0.00     0.119 A 
HETATM   27  F1  UNL     1      26.182  10.195  18.887  1.00  0.00    -0.206 F 
HETATM   28  C20 UNL     1      24.362  11.734  18.724  1.00  0.00     0.084 A 
HETATM   29  C21 UNL     1      23.219  12.254  19.282  1.00  0.00     0.119 A 
HETATM   30  F2  UNL     1      22.586  13.228  18.599  1.00  0.00    -0.206 F 
HETATM   31  C22 UNL     1      22.765  11.771  20.517  1.00  0.00     0.049 A 
ENDBRANCH  23  24
ENDBRANCH   1  23
BRANCH   1  32
HETATM   32  C23 UNL     1      21.918  10.731  24.694  1.00  0.00     0.173 C 
BRANCH  32  33
HETATM   33  O3  UNL     1      20.921   9.822  24.312  1.00  0.00    -0.391 OA
ATOM     34  H3  UNL     1      21.031   8.977  24.732  1.00  0.00     0.210 HD
ENDBRANCH  32  33
BRANCH  32  35
HETATM   35  C24 UNL     1      21.306  11.767  25.579  1.00  0.00     0.230 C 
HETATM   36  C25 UNL     1      19.910  12.107  25.246  1.00  0.00     0.143 C 
HETATM   37  N3  UNL     1      18.886  11.279  25.824  1.00  0.00    -0.203 NA
HETATM   38  C32 UNL     1      19.021  11.021  27.226  1.00  0.00     0.135 C 
HETATM   39  C33 UNL     1      20.236  11.778  27.733  1.00  0.00     0.248 C 
HETATM   40  N4  UNL     1      21.412  11.347  26.963  1.00  0.00    -0.066 N 
ATOM     41  H42 UNL     1      21.566  10.341  27.042  1.00  0.00     0.277 HD
ATOM     42  H41 UNL     1      22.281  11.669  27.389  1.00  0.00     0.277 HD
BRANCH  37  43
HETATM   43  S1  UNL     1      17.312  11.921  25.442  1.00  0.00     0.243 S 
HETATM   44  O4  UNL     1      17.482  13.209  24.708  1.00  0.00    -0.206 OA
HETATM   45  O5  UNL     1      16.550  12.180  26.708  1.00  0.00    -0.206 OA
BRANCH  43  46
HETATM   46  C26 UNL     1      16.422  10.805  24.433  1.00  0.00     0.074 A 
HETATM   47  C27 UNL     1      16.111   9.571  24.935  1.00  0.00     0.025 A 
HETATM   48  C28 UNL     1      15.416   8.661  24.190  1.00  0.00     0.002 A 
HETATM   49  C29 UNL     1      15.013   8.961  22.913  1.00  0.00     0.000 A 
HETATM   50  C30 UNL     1      15.338  10.214  22.428  1.00  0.00     0.002 A 
HETATM   51  C31 UNL     1      16.033  11.134  23.164  1.00  0.00     0.025 A 
ENDBRANCH  43  46
ENDBRANCH  37  43
ENDBRANCH  32  35
ENDBRANCH   1  32
TORSDOF 16
ENDMDL
