MODEL 2
REMARK VINA RESULT: -10.783226277      0.139      1.303
REMARK  16 active torsions:
REMARK  status: ('A' for Active; 'I' for Inactive)
REMARK    1  A    between atoms: C2_2  and  C3_3 
REMARK    2  A    between atoms: C3_3  and  N1_4 
REMARK    3  A    between atoms: N1_4  and  C4_5 
REMARK    4  A    between atoms: N1_4  and  C7_8 
REMARK    5  A    between atoms: C4_5  and  C5_6 
REMARK    6  A    between atoms: C7_8  and  O1_9 
REMARK    7  A    between atoms: C7_8  and  C8_11 
REMARK    8  A    between atoms: C13_16  and  C14_17 
REMARK       I    between atoms: C14_17  and  N2_19 
REMARK    9  A    between atoms: N2_19  and  C15_21 
REMARK   10  A    between atoms: C15_21  and  C16_22 
REMARK   11  A    between atoms: C15_21  and  C23_31 
REMARK   12  A    between atoms: C16_22  and  C17_23 
REMARK   13  A    between atoms: C23_31  and  O3_32 
REMARK   14  A    between atoms: C23_31  and  C24_34 
REMARK   15  A    between atoms: N3_36  and  S1_37 
REMARK   16  A    between atoms: S1_37  and  C26_40 
ROOT
HETATM    1  C15 UNL     1      22.491  11.260  23.430  1.00  0.00     0.119 C 
ENDROOT
BRANCH   1   2
HETATM    2  N2  UNL     1      23.614  12.150  23.586  1.00  0.00    -0.349 N 
HETATM    3  C14 UNL     1      23.608  13.555  23.476  1.00  0.00     0.252 C 
HETATM    4  O2  UNL     1      22.505  14.135  23.228  1.00  0.00    -0.268 OA
ATOM      5  H2  UNL     1      24.512  11.715  23.799  1.00  0.00     0.163 HD
BRANCH   3   6
HETATM    6  C13 UNL     1      24.804  14.384  23.629  1.00  0.00     0.033 A 
HETATM    7  C12 UNL     1      24.746  15.714  23.951  1.00  0.00     0.024 A 
HETATM    8  C10 UNL     1      25.885  16.475  24.095  1.00  0.00    -0.060 A 
HETATM    9  C9  UNL     1      27.148  15.897  23.912  1.00  0.00     0.022 A 
HETATM   10  C11 UNL     1      25.810  17.915  24.451  1.00  0.00     0.048 C 
HETATM   11  C8  UNL     1      27.261  14.575  23.588  1.00  0.00     0.016 A 
HETATM   12  C34 UNL     1      26.048  13.846  23.456  1.00  0.00     0.032 A 
BRANCH  11  13
HETATM   13  C7  UNL     1      28.501  13.886  23.370  1.00  0.00     0.148 C 
BRANCH  13  14
HETATM   14  N1  UNL     1      28.942  13.134  22.314  1.00  0.00    -0.361 N 
BRANCH  14  15
HETATM   15  C3  UNL     1      29.460  13.547  21.053  1.00  0.00     0.124 C 
BRANCH  15  16
HETATM   16  C2  UNL     1      28.546  14.267  20.129  1.00  0.00     0.015 C 
HETATM   17  C1  UNL     1      27.337  13.566  19.646  1.00  0.00     0.006 C 
ENDBRANCH  15  16
ENDBRANCH  14  15
BRANCH  14  18
HETATM   18  C4  UNL     1      28.869  11.657  22.489  1.00  0.00     0.124 C 
BRANCH  18  19
HETATM   19  C5  UNL     1      29.509  10.865  21.430  1.00  0.00     0.015 C 
HETATM   20  C6  UNL     1      28.629   9.769  20.897  1.00  0.00     0.006 C 
ENDBRANCH  18  19
ENDBRANCH  14  18
ENDBRANCH  13  14
BRANCH  13  21
HETATM   21  O1  UNL     1      29.366  13.998  24.359  1.00  0.00    -0.346 OA
ATOM     22  H1  UNL     1      29.160  14.680  24.987  1.00  0.00     0.219 HD
ENDBRANCH  13  21
ENDBRANCH  11  13
ENDBRANCH   3   6
ENDBRANCH   1   2
BRANCH   1  23
HETATM   23  C16 UNL     1      22.810  10.254  22.381  1.00  0.00     0.066 C 
BRANCH  23  24
HETATM   24  C17 UNL     1      23.346  10.731  21.126  1.00  0.00    -0.050 A 
HETATM   25  C18 UNL     1      22.716  11.722  20.416  1.00  0.00     0.049 A 
HETATM   26  C19 UNL     1      23.202  12.194  19.228  1.00  0.00     0.119 A 
HETATM   27  F1  UNL     1      22.501  13.174  18.610  1.00  0.00    -0.206 F 
HETATM   28  C20 UNL     1      24.355  11.672  18.712  1.00  0.00     0.084 A 
HETATM   29  C21 UNL     1      25.016  10.677  19.391  1.00  0.00     0.119 A 
HETATM   30  F2  UNL     1      26.143  10.191  18.834  1.00  0.00    -0.206 F 
HETATM   31  C22 UNL     1      24.505  10.206  20.608  1.00  0.00     0.049 A 
ENDBRANCH  23  24
ENDBRANCH   1  23
BRANCH   1  32
HETATM   32  C23 UNL     1      21.919  10.722  24.705  1.00  0.00     0.173 C 
BRANCH  32  33
HETATM   33  O3  UNL     1      20.987   9.700  24.473  1.00  0.00    -0.391 OA
ATOM     34  H3  UNL     1      21.027   9.026  25.140  1.00  0.00     0.210 HD
ENDBRANCH  32  33
BRANCH  32  35
HETATM   35  C24 UNL     1      21.299  11.739  25.607  1.00  0.00     0.230 C 
HETATM   36  C25 UNL     1      19.911  12.098  25.259  1.00  0.00     0.143 C 
HETATM   37  N3  UNL     1      18.872  11.263  25.798  1.00  0.00    -0.203 NA
HETATM   38  C32 UNL     1      18.982  10.967  27.195  1.00  0.00     0.135 C 
HETATM   39  C33 UNL     1      20.193  11.701  27.742  1.00  0.00     0.248 C 
HETATM   40  N4  UNL     1      21.379  11.282  26.981  1.00  0.00    -0.066 N 
ATOM     41  H42 UNL     1      21.525  10.274  27.035  1.00  0.00     0.277 HD
ATOM     42  H41 UNL     1      22.243  11.586  27.429  1.00  0.00     0.277 HD
BRANCH  37  43
HETATM   43  S1  UNL     1      17.310  11.926  25.406  1.00  0.00     0.243 S 
HETATM   44  O4  UNL     1      17.501  13.202  24.660  1.00  0.00    -0.206 OA
HETATM   45  O5  UNL     1      16.550  12.210  26.669  1.00  0.00    -0.206 OA
BRANCH  43  46
HETATM   46  C26 UNL     1      16.403  10.813  24.409  1.00  0.00     0.074 A 
HETATM   47  C27 UNL     1      16.093   9.580  24.915  1.00  0.00     0.025 A 
HETATM   48  C28 UNL     1      15.386   8.673  24.177  1.00  0.00     0.002 A 
HETATM   49  C29 UNL     1      14.968   8.975  22.906  1.00  0.00     0.000 A 
HETATM   50  C30 UNL     1      15.292  10.226  22.417  1.00  0.00     0.002 A 
HETATM   51  C31 UNL     1      15.999  11.144  23.145  1.00  0.00     0.025 A 
ENDBRANCH  43  46
ENDBRANCH  37  43
ENDBRANCH  32  35
ENDBRANCH   1  32
TORSDOF 16
ENDMDL
