MODEL 1
REMARK VINA RESULT: -10.803641115      0.000      0.000
REMARK  16 active torsions:
REMARK  status: ('A' for Active; 'I' for Inactive)
REMARK    1  A    between atoms: C2_2  and  C3_3 
REMARK    2  A    between atoms: C3_3  and  N1_4 
REMARK    3  A    between atoms: N1_4  and  C4_5 
REMARK    4  A    between atoms: N1_4  and  C7_8 
REMARK    5  A    between atoms: C4_5  and  C5_6 
REMARK    6  A    between atoms: C7_8  and  O1_9 
REMARK    7  A    between atoms: C7_8  and  C8_11 
REMARK    8  A    between atoms: C13_16  and  C14_17 
REMARK       I    between atoms: C14_17  and  N2_19 
REMARK    9  A    between atoms: N2_19  and  C15_21 
REMARK   10  A    between atoms: C15_21  and  C16_22 
REMARK   11  A    between atoms: C15_21  and  C23_31 
REMARK   12  A    between atoms: C16_22  and  C17_23 
REMARK   13  A    between atoms: C23_31  and  O3_32 
REMARK   14  A    between atoms: C23_31  and  C24_34 
REMARK   15  A    between atoms: N3_36  and  S1_37 
REMARK   16  A    between atoms: S1_37  and  C26_40 
ROOT
HETATM    1  C15 UNL     1      22.507  11.260  23.427  1.00  0.00     0.119 C 
ENDROOT
BRANCH   1   2
HETATM    2  N2  UNL     1      23.640  12.137  23.590  1.00  0.00    -0.349 N 
HETATM    3  C14 UNL     1      23.651  13.541  23.482  1.00  0.00     0.252 C 
HETATM    4  O2  UNL     1      22.556  14.135  23.230  1.00  0.00    -0.268 OA
ATOM      5  H2  UNL     1      24.532  11.691  23.806  1.00  0.00     0.163 HD
BRANCH   3   6
HETATM    6  C13 UNL     1      24.856  14.356  23.642  1.00  0.00     0.033 A 
HETATM    7  C12 UNL     1      24.813  15.680  23.990  1.00  0.00     0.024 A 
HETATM    8  C10 UNL     1      25.960  16.428  24.139  1.00  0.00    -0.060 A 
HETATM    9  C9  UNL     1      27.216  15.841  23.936  1.00  0.00     0.022 A 
HETATM   10  C11 UNL     1      25.902  17.862  24.523  1.00  0.00     0.048 C 
HETATM   11  C8  UNL     1      27.314  14.524  23.586  1.00  0.00     0.016 A 
HETATM   12  C34 UNL     1      26.093  13.810  23.449  1.00  0.00     0.032 A 
BRANCH  11  13
HETATM   13  C7  UNL     1      28.546  13.828  23.346  1.00  0.00     0.148 C 
BRANCH  13  14
HETATM   14  N1  UNL     1      28.871  12.857  22.437  1.00  0.00    -0.361 N 
BRANCH  14  15
HETATM   15  C3  UNL     1      28.747  11.442  22.531  1.00  0.00     0.124 C 
BRANCH  15  16
HETATM   16  C2  UNL     1      29.156  10.629  21.356  1.00  0.00     0.015 C 
HETATM   17  C1  UNL     1      28.399   9.395  21.055  1.00  0.00     0.006 C 
ENDBRANCH  15  16
ENDBRANCH  14  15
BRANCH  14  18
HETATM   18  C4  UNL     1      29.451  13.334  21.152  1.00  0.00     0.124 C 
BRANCH  18  19
HETATM   19  C5  UNL     1      28.589  14.225  20.363  1.00  0.00     0.015 C 
HETATM   20  C6  UNL     1      27.391  13.527  19.782  1.00  0.00     0.006 C 
ENDBRANCH  18  19
ENDBRANCH  14  18
ENDBRANCH  13  14
BRANCH  13  21
HETATM   21  O1  UNL     1      29.537  14.186  24.140  1.00  0.00    -0.346 OA
ATOM     22  H1  UNL     1      29.877  15.057  23.975  1.00  0.00     0.219 HD
ENDBRANCH  13  21
ENDBRANCH  11  13
ENDBRANCH   3   6
ENDBRANCH   1   2
BRANCH   1  23
HETATM   23  C16 UNL     1      22.816  10.256  22.374  1.00  0.00     0.066 C 
BRANCH  23  24
HETATM   24  C17 UNL     1      23.361  10.733  21.123  1.00  0.00    -0.050 A 
HETATM   25  C18 UNL     1      22.735  11.721  20.407  1.00  0.00     0.049 A 
HETATM   26  C19 UNL     1      23.229  12.193  19.222  1.00  0.00     0.119 A 
HETATM   27  F1  UNL     1      22.530  13.170  18.597  1.00  0.00    -0.206 F 
HETATM   28  C20 UNL     1      24.389  11.674  18.717  1.00  0.00     0.084 A 
HETATM   29  C21 UNL     1      25.047  10.682  19.403  1.00  0.00     0.119 A 
HETATM   30  F2  UNL     1      26.180  10.199  18.855  1.00  0.00    -0.206 F 
HETATM   31  C22 UNL     1      24.527  10.211  20.615  1.00  0.00     0.049 A 
ENDBRANCH  23  24
ENDBRANCH   1  23
BRANCH   1  32
HETATM   32  C23 UNL     1      21.926  10.723  24.698  1.00  0.00     0.173 C 
BRANCH  32  33
HETATM   33  O3  UNL     1      20.990   9.706  24.460  1.00  0.00    -0.391 OA
ATOM     34  H3  UNL     1      20.403   9.924  23.746  1.00  0.00     0.210 HD
ENDBRANCH  32  33
BRANCH  32  35
HETATM   35  C24 UNL     1      21.308  11.740  25.600  1.00  0.00     0.230 C 
HETATM   36  C25 UNL     1      19.919  12.098  25.254  1.00  0.00     0.143 C 
HETATM   37  N3  UNL     1      18.881  11.264  25.796  1.00  0.00    -0.203 NA
HETATM   38  C32 UNL     1      18.993  10.970  27.193  1.00  0.00     0.135 C 
HETATM   39  C33 UNL     1      20.205  11.706  27.737  1.00  0.00     0.248 C 
HETATM   40  N4  UNL     1      21.390  11.286  26.974  1.00  0.00    -0.066 N 
ATOM     41  H42 UNL     1      21.536  10.277  27.030  1.00  0.00     0.277 HD
ATOM     42  H41 UNL     1      22.254  11.591  27.421  1.00  0.00     0.277 HD
BRANCH  37  43
HETATM   43  S1  UNL     1      17.318  11.925  25.406  1.00  0.00     0.243 S 
HETATM   44  O4  UNL     1      17.507  13.203  24.660  1.00  0.00    -0.206 OA
HETATM   45  O5  UNL     1      16.558  12.208  26.669  1.00  0.00    -0.206 OA
BRANCH  43  46
HETATM   46  C26 UNL     1      16.411  10.813  24.408  1.00  0.00     0.074 A 
HETATM   47  C27 UNL     1      16.101   9.580  24.914  1.00  0.00     0.025 A 
HETATM   48  C28 UNL     1      15.394   8.673  24.176  1.00  0.00     0.002 A 
HETATM   49  C29 UNL     1      14.977   8.975  22.905  1.00  0.00     0.000 A 
HETATM   50  C30 UNL     1      15.302  10.226  22.415  1.00  0.00     0.002 A 
HETATM   51  C31 UNL     1      16.008  11.143  23.144  1.00  0.00     0.025 A 
ENDBRANCH  43  46
ENDBRANCH  37  43
ENDBRANCH  32  35
ENDBRANCH   1  32
TORSDOF 16
ENDMDL
