MODEL 5
REMARK VINA RESULT: -10.461453539      0.820      1.739
REMARK  16 active torsions:
REMARK  status: ('A' for Active; 'I' for Inactive)
REMARK    1  A    between atoms: C2_2  and  C3_3 
REMARK    2  A    between atoms: C3_3  and  N1_4 
REMARK    3  A    between atoms: N1_4  and  C4_5 
REMARK    4  A    between atoms: N1_4  and  C7_8 
REMARK    5  A    between atoms: C4_5  and  C5_6 
REMARK    6  A    between atoms: C7_8  and  O1_9 
REMARK    7  A    between atoms: C7_8  and  C8_11 
REMARK    8  A    between atoms: C13_16  and  C14_17 
REMARK       I    between atoms: C14_17  and  N2_19 
REMARK    9  A    between atoms: N2_19  and  C15_21 
REMARK   10  A    between atoms: C15_21  and  C16_22 
REMARK   11  A    between atoms: C15_21  and  C23_31 
REMARK   12  A    between atoms: C16_22  and  C17_23 
REMARK   13  A    between atoms: C23_31  and  O3_32 
REMARK   14  A    between atoms: C23_31  and  C24_34 
REMARK   15  A    between atoms: N3_36  and  S1_37 
REMARK   16  A    between atoms: S1_37  and  C26_40 
ROOT
HETATM    1  C15 UNL     1      22.538  11.308  23.446  1.00  0.00     0.119 C 
ENDROOT
BRANCH   1   2
HETATM    2  N2  UNL     1      23.666  12.198  23.566  1.00  0.00    -0.349 N 
HETATM    3  C14 UNL     1      23.656  13.603  23.465  1.00  0.00     0.252 C 
HETATM    4  O2  UNL     1      22.544  14.184  23.260  1.00  0.00    -0.268 OA
ATOM      5  H2  UNL     1      24.571  11.762  23.744  1.00  0.00     0.163 HD
BRANCH   3   6
HETATM    6  C13 UNL     1      24.856  14.432  23.580  1.00  0.00     0.033 A 
HETATM    7  C12 UNL     1      24.818  15.735  23.999  1.00  0.00     0.024 A 
HETATM    8  C10 UNL     1      25.961  16.497  24.104  1.00  0.00    -0.060 A 
HETATM    9  C9  UNL     1      27.207  15.946  23.779  1.00  0.00     0.022 A 
HETATM   10  C11 UNL     1      25.908  17.908  24.566  1.00  0.00     0.048 C 
HETATM   11  C8  UNL     1      27.300  14.651  23.355  1.00  0.00     0.016 A 
HETATM   12  C34 UNL     1      26.084  13.921  23.270  1.00  0.00     0.032 A 
BRANCH  11  13
HETATM   13  C7  UNL     1      28.522  13.993  22.990  1.00  0.00     0.148 C 
BRANCH  13  14
HETATM   14  N1  UNL     1      29.404  14.228  21.968  1.00  0.00    -0.361 N 
BRANCH  14  15
HETATM   15  C3  UNL     1      30.293  15.322  21.765  1.00  0.00     0.124 C 
BRANCH  15  16
HETATM   16  C2  UNL     1      30.061  16.196  20.586  1.00  0.00     0.015 C 
HETATM   17  C1  UNL     1      28.849  17.044  20.564  1.00  0.00     0.006 C 
ENDBRANCH  15  16
ENDBRANCH  14  15
BRANCH  14  18
HETATM   18  C4  UNL     1      29.447  13.199  20.894  1.00  0.00     0.124 C 
BRANCH  18  19
HETATM   19  C5  UNL     1      28.140  12.699  20.447  1.00  0.00     0.015 C 
HETATM   20  C6  UNL     1      27.412  13.663  19.553  1.00  0.00     0.006 C 
ENDBRANCH  18  19
ENDBRANCH  14  18
ENDBRANCH  13  14
BRANCH  13  21
HETATM   21  O1  UNL     1      28.853  12.986  23.775  1.00  0.00    -0.346 OA
ATOM     22  H1  UNL     1      28.140  12.647  24.302  1.00  0.00     0.219 HD
ENDBRANCH  13  21
ENDBRANCH  11  13
ENDBRANCH   3   6
ENDBRANCH   1   2
BRANCH   1  23
HETATM   23  C16 UNL     1      22.827  10.296  22.393  1.00  0.00     0.066 C 
BRANCH  23  24
HETATM   24  C17 UNL     1      23.384  10.761  21.143  1.00  0.00    -0.050 A 
HETATM   25  C18 UNL     1      22.756  11.732  20.404  1.00  0.00     0.049 A 
HETATM   26  C19 UNL     1      23.261  12.192  19.219  1.00  0.00     0.119 A 
HETATM   27  F1  UNL     1      22.560  13.153  18.571  1.00  0.00    -0.206 F 
HETATM   28  C20 UNL     1      24.432  11.677  18.736  1.00  0.00     0.084 A 
HETATM   29  C21 UNL     1      25.091  10.702  19.445  1.00  0.00     0.119 A 
HETATM   30  F2  UNL     1      26.236  10.223  18.919  1.00  0.00    -0.206 F 
HETATM   31  C22 UNL     1      24.560  10.243  20.657  1.00  0.00     0.049 A 
ENDBRANCH  23  24
ENDBRANCH   1  23
BRANCH   1  32
HETATM   32  C23 UNL     1      22.001  10.777  24.739  1.00  0.00     0.173 C 
BRANCH  32  33
HETATM   33  O3  UNL     1      21.102   9.720  24.539  1.00  0.00    -0.391 OA
ATOM     34  H3  UNL     1      21.330   8.957  25.057  1.00  0.00     0.210 HD
ENDBRANCH  32  33
BRANCH  32  35
HETATM   35  C24 UNL     1      21.359  11.790  25.629  1.00  0.00     0.230 C 
HETATM   36  C25 UNL     1      19.969  12.126  25.267  1.00  0.00     0.143 C 
HETATM   37  N3  UNL     1      18.937  11.279  25.802  1.00  0.00    -0.203 NA
HETATM   38  C32 UNL     1      19.039  10.994  27.202  1.00  0.00     0.135 C 
HETATM   39  C33 UNL     1      20.235  11.750  27.754  1.00  0.00     0.248 C 
HETATM   40  N4  UNL     1      21.433  11.343  27.006  1.00  0.00    -0.066 N 
ATOM     41  H42 UNL     1      21.593  10.337  27.069  1.00  0.00     0.277 HD
ATOM     42  H41 UNL     1      22.288  11.663  27.460  1.00  0.00     0.277 HD
BRANCH  37  43
HETATM   43  S1  UNL     1      17.369  11.917  25.393  1.00  0.00     0.243 S 
HETATM   44  O4  UNL     1      17.548  13.151  24.576  1.00  0.00    -0.206 OA
HETATM   45  O5  UNL     1      16.622  12.267  26.647  1.00  0.00    -0.206 OA
BRANCH  43  46
HETATM   46  C26 UNL     1      16.454  10.750  24.468  1.00  0.00     0.074 A 
HETATM   47  C27 UNL     1      16.090  11.066  23.187  1.00  0.00     0.025 A 
HETATM   48  C28 UNL     1      15.375  10.190  22.420  1.00  0.00     0.002 A 
HETATM   49  C29 UNL     1      15.001   8.968  22.916  1.00  0.00     0.000 A 
HETATM   50  C30 UNL     1      15.380   8.670  24.211  1.00  0.00     0.002 A 
HETATM   51  C31 UNL     1      16.096   9.537  24.989  1.00  0.00     0.025 A 
ENDBRANCH  43  46
ENDBRANCH  37  43
ENDBRANCH  32  35
ENDBRANCH   1  32
TORSDOF 16
ENDMDL
