MODEL 4
REMARK VINA RESULT: -10.472173334      0.861      2.251
REMARK  16 active torsions:
REMARK  status: ('A' for Active; 'I' for Inactive)
REMARK    1  A    between atoms: C2_2  and  C3_3 
REMARK    2  A    between atoms: C3_3  and  N1_4 
REMARK    3  A    between atoms: N1_4  and  C4_5 
REMARK    4  A    between atoms: N1_4  and  C7_8 
REMARK    5  A    between atoms: C4_5  and  C5_6 
REMARK    6  A    between atoms: C7_8  and  O1_9 
REMARK    7  A    between atoms: C7_8  and  C8_11 
REMARK    8  A    between atoms: C13_16  and  C14_17 
REMARK       I    between atoms: C14_17  and  N2_19 
REMARK    9  A    between atoms: N2_19  and  C15_21 
REMARK   10  A    between atoms: C15_21  and  C16_22 
REMARK   11  A    between atoms: C15_21  and  C23_31 
REMARK   12  A    between atoms: C16_22  and  C17_23 
REMARK   13  A    between atoms: C23_31  and  O3_32 
REMARK   14  A    between atoms: C23_31  and  C24_34 
REMARK   15  A    between atoms: N3_36  and  S1_37 
REMARK   16  A    between atoms: S1_37  and  C26_40 
ROOT
HETATM    1  C15 UNL     1      22.739  11.406  23.413  1.00  0.00     0.119 C 
ENDROOT
BRANCH   1   2
HETATM    2  N2  UNL     1      24.017  12.018  23.678  1.00  0.00    -0.349 N 
HETATM    3  C14 UNL     1      24.315  13.395  23.690  1.00  0.00     0.252 C 
HETATM    4  O2  UNL     1      23.374  14.217  23.461  1.00  0.00    -0.268 OA
ATOM      5  H2  UNL     1      24.791  11.384  23.879  1.00  0.00     0.163 HD
BRANCH   3   6
HETATM    6  C13 UNL     1      25.651  13.932  23.950  1.00  0.00     0.033 A 
HETATM    7  C12 UNL     1      25.916  14.788  24.985  1.00  0.00     0.024 A 
HETATM    8  C10 UNL     1      27.183  15.278  25.214  1.00  0.00    -0.060 A 
HETATM    9  C9  UNL     1      28.245  14.908  24.379  1.00  0.00     0.022 A 
HETATM   10  C11 UNL     1      27.460  16.201  26.345  1.00  0.00     0.048 C 
HETATM   11  C8  UNL     1      28.033  14.058  23.330  1.00  0.00     0.016 A 
HETATM   12  C34 UNL     1      26.704  13.588  23.151  1.00  0.00     0.032 A 
BRANCH  11  13
HETATM   13  C7  UNL     1      29.045  13.622  22.411  1.00  0.00     0.148 C 
BRANCH  13  14
HETATM   14  N1  UNL     1      28.979  12.789  21.326  1.00  0.00    -0.361 N 
BRANCH  14  15
HETATM   15  C3  UNL     1      28.298  12.958  20.087  1.00  0.00     0.124 C 
BRANCH  15  16
HETATM   16  C2  UNL     1      27.930  14.339  19.680  1.00  0.00     0.015 C 
HETATM   17  C1  UNL     1      28.993  15.232  19.172  1.00  0.00     0.006 C 
ENDBRANCH  15  16
ENDBRANCH  14  15
BRANCH  14  18
HETATM   18  C4  UNL     1      29.720  11.503  21.444  1.00  0.00     0.124 C 
BRANCH  18  19
HETATM   19  C5  UNL     1      28.915  10.349  21.867  1.00  0.00     0.015 C 
HETATM   20  C6  UNL     1      29.591   9.508  22.913  1.00  0.00     0.006 C 
ENDBRANCH  18  19
ENDBRANCH  14  18
ENDBRANCH  13  14
BRANCH  13  21
HETATM   21  O1  UNL     1      30.247  14.107  22.655  1.00  0.00    -0.346 OA
ATOM     22  H1  UNL     1      30.769  14.271  21.878  1.00  0.00     0.219 HD
ENDBRANCH  13  21
ENDBRANCH  11  13
ENDBRANCH   3   6
ENDBRANCH   1   2
BRANCH   1  23
HETATM   23  C16 UNL     1      22.881  10.455  22.278  1.00  0.00     0.066 C 
BRANCH  23  24
HETATM   24  C17 UNL     1      23.478  10.945  21.055  1.00  0.00    -0.050 A 
HETATM   25  C18 UNL     1      24.663  10.434  20.590  1.00  0.00     0.049 A 
HETATM   26  C19 UNL     1      25.249  10.876  19.436  1.00  0.00     0.119 A 
HETATM   27  F1  UNL     1      26.420  10.302  19.069  1.00  0.00    -0.206 F 
HETATM   28  C20 UNL     1      24.648  11.862  18.705  1.00  0.00     0.084 A 
HETATM   29  C21 UNL     1      23.460  12.402  19.137  1.00  0.00     0.119 A 
HETATM   30  F2  UNL     1      22.915  13.378  18.384  1.00  0.00    -0.206 F 
HETATM   31  C22 UNL     1      22.873  11.937  20.321  1.00  0.00     0.049 A 
ENDBRANCH  23  24
ENDBRANCH   1  23
BRANCH   1  32
HETATM   32  C23 UNL     1      22.015  10.889  24.617  1.00  0.00     0.173 C 
BRANCH  32  33
HETATM   33  O3  UNL     1      21.029   9.952  24.275  1.00  0.00    -0.391 OA
ATOM     34  H3  UNL     1      20.737  10.056  23.378  1.00  0.00     0.210 HD
ENDBRANCH  32  33
BRANCH  32  35
HETATM   35  C24 UNL     1      21.400  11.933  25.492  1.00  0.00     0.230 C 
HETATM   36  C25 UNL     1      19.985  12.222  25.193  1.00  0.00     0.143 C 
HETATM   37  N3  UNL     1      19.004  11.383  25.827  1.00  0.00    -0.203 NA
HETATM   38  C32 UNL     1      19.190  11.171  27.231  1.00  0.00     0.135 C 
HETATM   39  C33 UNL     1      20.397  11.977  27.677  1.00  0.00     0.248 C 
HETATM   40  N4  UNL     1      21.561  11.557  26.883  1.00  0.00    -0.066 N 
ATOM     41  H42 UNL     1      21.747  10.559  26.985  1.00  0.00     0.277 HD
ATOM     42  H41 UNL     1      22.433  11.917  27.271  1.00  0.00     0.277 HD
BRANCH  37  43
HETATM   43  S1  UNL     1      17.401  11.968  25.476  1.00  0.00     0.243 S 
HETATM   44  O4  UNL     1      17.509  13.211  24.660  1.00  0.00    -0.206 OA
HETATM   45  O5  UNL     1      16.688  12.288  26.757  1.00  0.00    -0.206 OA
BRANCH  43  46
HETATM   46  C26 UNL     1      16.495  10.774  24.578  1.00  0.00     0.074 A 
HETATM   47  C27 UNL     1      16.137  11.055  23.287  1.00  0.00     0.025 A 
HETATM   48  C28 UNL     1      15.429  10.156  22.540  1.00  0.00     0.002 A 
HETATM   49  C29 UNL     1      15.055   8.946  23.067  1.00  0.00     0.000 A 
HETATM   50  C30 UNL     1      15.428   8.684  24.372  1.00  0.00     0.002 A 
HETATM   51  C31 UNL     1      16.137   9.575  25.130  1.00  0.00     0.025 A 
ENDBRANCH  43  46
ENDBRANCH  37  43
ENDBRANCH  32  35
ENDBRANCH   1  32
TORSDOF 16
ENDMDL
