MODEL 4
REMARK VINA RESULT: -11.155775714      1.293      2.013
REMARK  14 active torsions:
REMARK  status: ('A' for Active; 'I' for Inactive)
REMARK    1  A    between atoms: O1_2  and  C2_3 
REMARK    2  A    between atoms: C2_3  and  C3_4 
REMARK    3  A    between atoms: N1_8  and  C7_9 
REMARK    4  A    between atoms: C7_9  and  O2_10 
REMARK    5  A    between atoms: C7_9  and  C8_12 
REMARK    6  A    between atoms: C13_17  and  C14_18 
REMARK       I    between atoms: C14_18  and  N2_20 
REMARK    7  A    between atoms: N2_20  and  C15_22 
REMARK    8  A    between atoms: C15_22  and  C16_23 
REMARK    9  A    between atoms: C15_22  and  C23_32 
REMARK   10  A    between atoms: C16_23  and  C17_24 
REMARK   11  A    between atoms: C23_32  and  O4_33 
REMARK   12  A    between atoms: C23_32  and  C24_35 
REMARK   13  A    between atoms: N3_37  and  S1_38 
REMARK   14  A    between atoms: S1_38  and  C26_41 
ROOT
HETATM    1  C15 UNL     1      22.427  11.644  22.911  1.00  0.00     0.120 C 
ENDROOT
BRANCH   1   2
HETATM    2  N2  UNL     1      23.639  12.331  23.366  1.00  0.00    -0.349 N 
HETATM    3  C14 UNL     1      23.676  13.720  23.654  1.00  0.00     0.252 C 
HETATM    4  O3  UNL     1      22.613  14.378  23.506  1.00  0.00    -0.268 OA
ATOM      5  H2  UNL     1      24.494  11.786  23.479  1.00  0.00     0.163 HD
BRANCH   3   6
HETATM    6  C13 UNL     1      24.866  14.423  24.109  1.00  0.00     0.033 A 
HETATM    7  C12 UNL     1      24.836  15.505  24.961  1.00  0.00     0.024 A 
HETATM    8  C10 UNL     1      25.995  16.136  25.351  1.00  0.00    -0.060 A 
HETATM    9  C9  UNL     1      27.247  15.701  24.894  1.00  0.00     0.022 A 
HETATM   10  C11 UNL     1      25.964  17.318  26.283  1.00  0.00     0.048 C 
HETATM   11  C8  UNL     1      27.321  14.627  24.044  1.00  0.00     0.016 A 
HETATM   12  C35 UNL     1      26.096  14.016  23.677  1.00  0.00     0.032 A 
BRANCH  11  13
HETATM   13  C7  UNL     1      28.522  14.061  23.497  1.00  0.00     0.148 C 
BRANCH  13  14
HETATM   14  N1  UNL     1      28.729  13.515  22.224  1.00  0.00    -0.355 N 
HETATM   15  C3  UNL     1      29.567  12.458  21.747  1.00  0.00     0.110 C 
HETATM   16  C4  UNL     1      29.577  12.618  20.196  1.00  0.00     0.029 C 
HETATM   17  C5  UNL     1      28.177  13.104  19.962  1.00  0.00     0.022 C 
HETATM   18  C6  UNL     1      27.969  14.072  21.058  1.00  0.00     0.125 C 
BRANCH  15  19
HETATM   19  C2  UNL     1      29.038  11.078  21.977  1.00  0.00     0.192 C 
BRANCH  19  20
HETATM   20  O1  UNL     1      29.474  10.460  23.116  1.00  0.00    -0.394 OA
HETATM   21  C1  UNL     1      29.840   9.159  22.958  1.00  0.00     0.201 C 
ENDBRANCH  19  20
ENDBRANCH  15  19
ENDBRANCH  13  14
BRANCH  13  22
HETATM   22  O2  UNL     1      29.569  14.044  24.279  1.00  0.00    -0.346 OA
ATOM     23  H2  UNL     1      29.399  13.750  25.167  1.00  0.00     0.219 HD
ENDBRANCH  13  22
ENDBRANCH  11  13
ENDBRANCH   3   6
ENDBRANCH   1   2
BRANCH   1  24
HETATM   24  C16 UNL     1      22.827  10.559  22.006  1.00  0.00     0.066 C 
BRANCH  24  25
HETATM   25  C17 UNL     1      23.474  10.971  20.739  1.00  0.00    -0.050 A 
HETATM   26  C18 UNL     1      24.666  10.376  20.412  1.00  0.00     0.049 A 
HETATM   27  C19 UNL     1      25.277  10.753  19.229  1.00  0.00     0.119 A 
HETATM   28  F1  UNL     1      26.457  10.176  18.891  1.00  0.00    -0.206 F 
HETATM   29  C20 UNL     1      24.722  11.691  18.395  1.00  0.00     0.084 A 
HETATM   30  C21 UNL     1      23.524  12.296  18.713  1.00  0.00     0.119 A 
HETATM   31  F2  UNL     1      23.007  13.217  17.864  1.00  0.00    -0.206 F 
HETATM   32  C22 UNL     1      22.935  11.909  19.888  1.00  0.00     0.049 A 
ENDBRANCH  24  25
ENDBRANCH   1  24
BRANCH   1  33
HETATM   33  C23 UNL     1      21.530  11.394  24.041  1.00  0.00     0.168 C 
BRANCH  33  34
HETATM   34  O4  UNL     1      21.024  10.096  23.975  1.00  0.00    -0.391 OA
ATOM     35  H4  UNL     1      20.533   9.896  24.764  1.00  0.00     0.210 HD
ENDBRANCH  33  34
BRANCH  33  36
HETATM   36  C24 UNL     1      20.420  12.329  24.304  1.00  0.00     0.147 C 
HETATM   37  C25 UNL     1      19.109  11.546  24.153  1.00  0.00     0.108 C 
HETATM   38  N3  UNL     1      18.668  10.883  25.302  1.00  0.00    -0.262 N 
HETATM   39  C33 UNL     1      19.409  10.919  26.481  1.00  0.00     0.100 C 
HETATM   40  C34 UNL     1      20.313  12.071  26.717  1.00  0.00     0.160 C 
HETATM   41  N4  UNL     1      20.377  12.936  25.591  1.00  0.00    -0.406 N 
ATOM     42  H4  UNL     1      20.393  13.950  25.701  1.00  0.00     0.154 HD
BRANCH  38  43
HETATM   43  S1  UNL     1      17.007  10.606  25.432  1.00  0.00     0.267 S 
HETATM   44  O5  UNL     1      16.748   9.382  26.303  1.00  0.00    -0.200 OA
HETATM   45  O6  UNL     1      16.399  11.767  26.208  1.00  0.00    -0.200 OA
BRANCH  43  46
HETATM   46  C26 UNL     1      16.177  10.501  23.919  1.00  0.00     0.080 A 
HETATM   47  C27 UNL     1      15.435  11.547  23.471  1.00  0.00     0.025 A 
HETATM   48  C28 UNL     1      14.773  11.460  22.260  1.00  0.00     0.002 A 
HETATM   49  C29 UNL     1      14.859  10.319  21.501  1.00  0.00     0.007 A 
HETATM   50  C30 UNL     1      15.605   9.264  21.949  1.00  0.00    -0.060 A 
HETATM   51  C31 UNL     1      15.691   8.041  21.126  1.00  0.00     0.048 C 
HETATM   52  C32 UNL     1      16.254   9.370  23.152  1.00  0.00     0.032 A 
ENDBRANCH  43  46
ENDBRANCH  38  43
ENDBRANCH  33  36
ENDBRANCH   1  33
TORSDOF 14
ENDMDL
