MODEL 20
REMARK VINA RESULT: -10.711990843      3.661     10.748
REMARK  14 active torsions:
REMARK  status: ('A' for Active; 'I' for Inactive)
REMARK    1  A    between atoms: O1_2  and  C2_3 
REMARK    2  A    between atoms: C2_3  and  C3_4 
REMARK    3  A    between atoms: N1_8  and  C7_9 
REMARK    4  A    between atoms: C7_9  and  O2_10 
REMARK    5  A    between atoms: C7_9  and  C8_12 
REMARK    6  A    between atoms: C13_17  and  C14_18 
REMARK       I    between atoms: C14_18  and  N2_20 
REMARK    7  A    between atoms: N2_20  and  C15_22 
REMARK    8  A    between atoms: C15_22  and  C16_23 
REMARK    9  A    between atoms: C15_22  and  C23_32 
REMARK   10  A    between atoms: C16_23  and  C17_24 
REMARK   11  A    between atoms: C23_32  and  O4_33 
REMARK   12  A    between atoms: C23_32  and  C24_35 
REMARK   13  A    between atoms: N3_37  and  S1_38 
REMARK   14  A    between atoms: S1_38  and  C26_41 
ROOT
HETATM    1  C15 UNL     1      28.535  12.174  20.798  1.00  0.00     0.120 C 
ENDROOT
BRANCH   1   2
HETATM    2  N2  UNL     1      27.402  12.787  21.496  1.00  0.00    -0.349 N 
HETATM    3  C14 UNL     1      27.448  13.153  22.867  1.00  0.00     0.252 C 
HETATM    4  O3  UNL     1      28.516  12.934  23.496  1.00  0.00    -0.268 OA
ATOM      5  H2  UNL     1      26.542  12.957  20.975  1.00  0.00     0.163 HD
BRANCH   3   6
HETATM    6  C13 UNL     1      26.338  13.765  23.581  1.00  0.00     0.033 A 
HETATM    7  C12 UNL     1      26.485  14.793  24.486  1.00  0.00     0.024 A 
HETATM    8  C10 UNL     1      25.398  15.327  25.139  1.00  0.00    -0.060 A 
HETATM    9  C9  UNL     1      24.102  14.843  24.907  1.00  0.00     0.022 A 
HETATM   10  C11 UNL     1      25.557  16.452  26.127  1.00  0.00     0.048 C 
HETATM   11  C8  UNL     1      23.912  13.820  24.013  1.00  0.00     0.016 A 
HETATM   12  C35 UNL     1      25.068  13.310  23.370  1.00  0.00     0.032 A 
BRANCH  11  13
HETATM   13  C7  UNL     1      22.654  13.223  23.664  1.00  0.00     0.148 C 
BRANCH  13  14
HETATM   14  N1  UNL     1      22.019  12.120  24.248  1.00  0.00    -0.355 N 
HETATM   15  C3  UNL     1      20.924  12.004  25.163  1.00  0.00     0.110 C 
HETATM   16  C4  UNL     1      20.975  10.531  25.670  1.00  0.00     0.029 C 
HETATM   17  C5  UNL     1      21.456   9.832  24.433  1.00  0.00     0.022 C 
HETATM   18  C6  UNL     1      22.500  10.740  23.917  1.00  0.00     0.125 C 
BRANCH  15  19
HETATM   19  C2  UNL     1      19.568  12.140  24.546  1.00  0.00     0.192 C 
BRANCH  19  20
HETATM   20  O1  UNL     1      18.992  13.376  24.651  1.00  0.00    -0.394 OA
HETATM   21  C1  UNL     1      17.632  13.370  24.713  1.00  0.00     0.201 C 
ENDBRANCH  19  20
ENDBRANCH  15  19
ENDBRANCH  13  14
BRANCH  13  22
HETATM   22  O2  UNL     1      22.005  13.768  22.670  1.00  0.00    -0.346 OA
ATOM     23  H2  UNL     1      21.434  14.488  22.912  1.00  0.00     0.219 HD
ENDBRANCH  13  22
ENDBRANCH  11  13
ENDBRANCH   3   6
ENDBRANCH   1   2
BRANCH   1  24
HETATM   24  C16 UNL     1      28.005  11.238  19.798  1.00  0.00     0.066 C 
BRANCH  24  25
HETATM   25  C17 UNL     1      26.539  11.269  19.587  1.00  0.00    -0.050 A 
HETATM   26  C18 UNL     1      26.055  12.097  18.606  1.00  0.00     0.049 A 
HETATM   27  C19 UNL     1      24.688  12.131  18.400  1.00  0.00     0.119 A 
HETATM   28  F1  UNL     1      24.193  12.944  17.435  1.00  0.00    -0.206 F 
HETATM   29  C20 UNL     1      23.825  11.367  19.145  1.00  0.00     0.084 A 
HETATM   30  C21 UNL     1      24.299  10.531  20.135  1.00  0.00     0.119 A 
HETATM   31  F2  UNL     1      23.415   9.792  20.850  1.00  0.00    -0.206 F 
HETATM   32  C22 UNL     1      25.656  10.512  20.323  1.00  0.00     0.049 A 
ENDBRANCH  24  25
ENDBRANCH   1  24
BRANCH   1  33
HETATM   33  C23 UNL     1      29.519  13.194  20.431  1.00  0.00     0.168 C 
BRANCH  33  34
HETATM   34  O4  UNL     1      30.592  13.170  21.321  1.00  0.00    -0.391 OA
ATOM     35  H4  UNL     1      31.391  13.430  20.878  1.00  0.00     0.210 HD
ENDBRANCH  33  34
BRANCH  33  36
HETATM   36  C24 UNL     1      29.079  14.590  20.249  1.00  0.00     0.147 C 
HETATM   37  C25 UNL     1      29.993  15.479  21.102  1.00  0.00     0.108 C 
HETATM   38  N3  UNL     1      31.176  15.895  20.483  1.00  0.00    -0.262 N 
HETATM   39  C33 UNL     1      31.493  15.484  19.190  1.00  0.00     0.100 C 
HETATM   40  C34 UNL     1      30.389  15.113  18.272  1.00  0.00     0.160 C 
HETATM   41  N4  UNL     1      29.128  15.116  18.927  1.00  0.00    -0.406 N 
ATOM     42  H4  UNL     1      28.293  15.480  18.469  1.00  0.00     0.154 HD
BRANCH  38  43
HETATM   43  S1  UNL     1      31.856  17.340  21.031  1.00  0.00     0.267 S 
HETATM   44  O5  UNL     1      33.009  17.753  20.124  1.00  0.00    -0.200 OA
HETATM   45  O6  UNL     1      30.816  18.441  20.859  1.00  0.00    -0.200 OA
BRANCH  43  46
HETATM   46  C26 UNL     1      32.324  17.327  22.695  1.00  0.00     0.080 A 
HETATM   47  C27 UNL     1      32.827  16.197  23.256  1.00  0.00     0.025 A 
HETATM   48  C28 UNL     1      33.202  16.190  24.588  1.00  0.00     0.002 A 
HETATM   49  C29 UNL     1      33.067  17.322  25.353  1.00  0.00     0.007 A 
HETATM   50  C30 UNL     1      32.561  18.461  24.792  1.00  0.00    -0.060 A 
HETATM   51  C31 UNL     1      32.421  19.673  25.623  1.00  0.00     0.048 C 
HETATM   52  C32 UNL     1      32.197  18.448  23.470  1.00  0.00     0.032 A 
ENDBRANCH  43  46
ENDBRANCH  38  43
ENDBRANCH  33  36
ENDBRANCH   1  33
TORSDOF 14
ENDMDL
