MODEL 1
REMARK VINA RESULT: -11.496381974      0.000      0.000
REMARK  14 active torsions:
REMARK  status: ('A' for Active; 'I' for Inactive)
REMARK    1  A    between atoms: O1_2  and  C2_3 
REMARK    2  A    between atoms: C2_3  and  C3_4 
REMARK    3  A    between atoms: N1_8  and  C7_9 
REMARK    4  A    between atoms: C7_9  and  O2_10 
REMARK    5  A    between atoms: C7_9  and  C8_12 
REMARK    6  A    between atoms: C13_17  and  C14_18 
REMARK       I    between atoms: C14_18  and  N2_20 
REMARK    7  A    between atoms: N2_20  and  C15_22 
REMARK    8  A    between atoms: C15_22  and  C16_23 
REMARK    9  A    between atoms: C15_22  and  C23_32 
REMARK   10  A    between atoms: C16_23  and  C17_24 
REMARK   11  A    between atoms: C23_32  and  O4_33 
REMARK   12  A    between atoms: C23_32  and  C24_35 
REMARK   13  A    between atoms: N3_37  and  S1_38 
REMARK   14  A    between atoms: S1_38  and  C26_41 
ROOT
HETATM    1  C15 UNL     1      22.832  11.785  23.625  1.00  0.00     0.120 C 
ENDROOT
BRANCH   1   2
HETATM    2  N2  UNL     1      24.227  12.194  23.817  1.00  0.00    -0.349 N 
HETATM    3  C14 UNL     1      24.644  13.551  23.787  1.00  0.00     0.252 C 
HETATM    4  O3  UNL     1      23.765  14.429  23.584  1.00  0.00    -0.268 OA
ATOM      5  H2  UNL     1      24.928  11.472  23.978  1.00  0.00     0.163 HD
BRANCH   3   6
HETATM    6  C13 UNL     1      26.021  13.980  23.977  1.00  0.00     0.033 A 
HETATM    7  C12 UNL     1      26.425  14.825  24.988  1.00  0.00     0.024 A 
HETATM    8  C10 UNL     1      27.741  15.205  25.114  1.00  0.00    -0.060 A 
HETATM    9  C9  UNL     1      28.718  14.747  24.218  1.00  0.00     0.022 A 
HETATM   10  C11 UNL     1      28.185  16.127  26.218  1.00  0.00     0.048 C 
HETATM   11  C8  UNL     1      28.357  13.904  23.197  1.00  0.00     0.016 A 
HETATM   12  C35 UNL     1      26.988  13.546  23.117  1.00  0.00     0.032 A 
BRANCH  11  13
HETATM   13  C7  UNL     1      29.236  13.346  22.208  1.00  0.00     0.148 C 
BRANCH  13  14
HETATM   14  N1  UNL     1      28.999  12.283  21.330  1.00  0.00    -0.355 N 
HETATM   15  C3  UNL     1      29.629  11.009  21.156  1.00  0.00     0.110 C 
HETATM   16  C4  UNL     1      29.108  10.484  19.784  1.00  0.00     0.029 C 
HETATM   17  C5  UNL     1      27.711  11.029  19.794  1.00  0.00     0.022 C 
HETATM   18  C6  UNL     1      27.886  12.393  20.333  1.00  0.00     0.125 C 
BRANCH  15  19
HETATM   19  C2  UNL     1      29.215   9.960  22.139  1.00  0.00     0.192 C 
BRANCH  19  20
HETATM   20  O1  UNL     1      29.948   9.908  23.293  1.00  0.00    -0.394 OA
HETATM   21  C1  UNL     1      30.348   8.661  23.662  1.00  0.00     0.201 C 
ENDBRANCH  19  20
ENDBRANCH  15  19
ENDBRANCH  13  14
BRANCH  13  22
HETATM   22  O2  UNL     1      30.419  13.892  22.104  1.00  0.00    -0.346 OA
ATOM     23  H2  UNL     1      30.438  14.833  22.237  1.00  0.00     0.219 HD
ENDBRANCH  13  22
ENDBRANCH  11  13
ENDBRANCH   3   6
ENDBRANCH   1   2
BRANCH   1  24
HETATM   24  C16 UNL     1      22.814  10.632  22.715  1.00  0.00     0.066 C 
BRANCH  24  25
HETATM   25  C17 UNL     1      23.133  10.915  21.296  1.00  0.00    -0.050 A 
HETATM   26  C18 UNL     1      22.575  12.034  20.730  1.00  0.00     0.049 A 
HETATM   27  C19 UNL     1      22.869  12.308  19.407  1.00  0.00     0.119 A 
HETATM   28  F1  UNL     1      22.325  13.409  18.831  1.00  0.00    -0.206 F 
HETATM   29  C20 UNL     1      23.692  11.498  18.666  1.00  0.00     0.084 A 
HETATM   30  C21 UNL     1      24.259  10.370  19.223  1.00  0.00     0.119 A 
HETATM   31  F2  UNL     1      25.068   9.595  18.460  1.00  0.00    -0.206 F 
HETATM   32  C22 UNL     1      23.956  10.117  20.535  1.00  0.00     0.049 A 
ENDBRANCH  24  25
ENDBRANCH   1  24
BRANCH   1  33
HETATM   33  C23 UNL     1      22.133  11.745  24.910  1.00  0.00     0.168 C 
BRANCH  33  34
HETATM   34  O4  UNL     1      21.375  10.579  25.009  1.00  0.00    -0.391 OA
ATOM     35  H4  UNL     1      20.457  10.794  25.129  1.00  0.00     0.210 HD
ENDBRANCH  33  34
BRANCH  33  36
HETATM   36  C24 UNL     1      21.300  12.893  25.316  1.00  0.00     0.147 C 
HETATM   37  C25 UNL     1      19.864  12.609  24.858  1.00  0.00     0.108 C 
HETATM   38  N3  UNL     1      19.081  11.874  25.754  1.00  0.00    -0.262 N 
HETATM   39  C33 UNL     1      19.608  11.413  26.958  1.00  0.00     0.100 C 
HETATM   40  C34 UNL     1      20.748  12.145  27.560  1.00  0.00     0.160 C 
HETATM   41  N4  UNL     1      21.228  13.177  26.709  1.00  0.00    -0.406 N 
ATOM     42  H4  UNL     1      21.508  14.085  27.081  1.00  0.00     0.154 HD
BRANCH  38  43
HETATM   43  S1  UNL     1      17.410  12.103  25.669  1.00  0.00     0.267 S 
HETATM   44  O5  UNL     1      16.845  12.349  27.063  1.00  0.00    -0.200 OA
HETATM   45  O6  UNL     1      17.153  13.400  24.913  1.00  0.00    -0.200 OA
BRANCH  43  46
HETATM   46  C26 UNL     1      16.555  10.846  24.846  1.00  0.00     0.080 A 
HETATM   47  C27 UNL     1      16.230   9.699  25.497  1.00  0.00     0.025 A 
HETATM   48  C28 UNL     1      15.545   8.695  24.834  1.00  0.00     0.002 A 
HETATM   49  C29 UNL     1      15.189   8.849  23.517  1.00  0.00     0.007 A 
HETATM   50  C30 UNL     1      15.515  10.002  22.859  1.00  0.00    -0.060 A 
HETATM   51  C31 UNL     1      15.128  10.158  21.443  1.00  0.00     0.048 C 
HETATM   52  C32 UNL     1      16.194  10.986  23.533  1.00  0.00     0.032 A 
ENDBRANCH  43  46
ENDBRANCH  38  43
ENDBRANCH  33  36
ENDBRANCH   1  33
TORSDOF 14
ENDMDL
