MODEL 11
REMARK VINA RESULT: -10.960422955      3.869     10.669
REMARK  14 active torsions:
REMARK  status: ('A' for Active; 'I' for Inactive)
REMARK    1  A    between atoms: O1_2  and  C2_3 
REMARK    2  A    between atoms: C2_3  and  C3_4 
REMARK    3  A    between atoms: N1_8  and  C7_9 
REMARK    4  A    between atoms: C7_9  and  O2_10 
REMARK    5  A    between atoms: C7_9  and  C8_12 
REMARK    6  A    between atoms: C13_17  and  C14_18 
REMARK       I    between atoms: C14_18  and  N2_20 
REMARK    7  A    between atoms: N2_20  and  C15_22 
REMARK    8  A    between atoms: C15_22  and  C16_23 
REMARK    9  A    between atoms: C15_22  and  C23_32 
REMARK   10  A    between atoms: C16_23  and  C17_24 
REMARK   11  A    between atoms: C23_32  and  O4_33 
REMARK   12  A    between atoms: C23_32  and  C24_35 
REMARK   13  A    between atoms: N3_37  and  S1_38 
REMARK   14  A    between atoms: S1_38  and  C26_41 
ROOT
HETATM    1  C15 UNL     1      27.844  12.541  20.380  1.00  0.00     0.120 C 
ENDROOT
BRANCH   1   2
HETATM    2  N2  UNL     1      26.937  13.264  21.276  1.00  0.00    -0.349 N 
HETATM    3  C14 UNL     1      27.075  13.250  22.689  1.00  0.00     0.252 C 
HETATM    4  O3  UNL     1      28.022  12.580  23.178  1.00  0.00    -0.268 OA
ATOM      5  H2  UNL     1      26.173  13.800  20.866  1.00  0.00     0.163 HD
BRANCH   3   6
HETATM    6  C13 UNL     1      26.189  13.961  23.597  1.00  0.00     0.033 A 
HETATM    7  C12 UNL     1      26.585  15.032  24.368  1.00  0.00     0.024 A 
HETATM    8  C10 UNL     1      25.704  15.662  25.217  1.00  0.00    -0.060 A 
HETATM    9  C9  UNL     1      24.373  15.235  25.329  1.00  0.00     0.022 A 
HETATM   10  C11 UNL     1      26.134  16.834  26.059  1.00  0.00     0.048 C 
HETATM   11  C8  UNL     1      23.938  14.172  24.580  1.00  0.00     0.016 A 
HETATM   12  C35 UNL     1      24.889  13.563  23.722  1.00  0.00     0.032 A 
BRANCH  11  13
HETATM   13  C7  UNL     1      22.612  13.622  24.577  1.00  0.00     0.148 C 
BRANCH  13  14
HETATM   14  N1  UNL     1      21.886  13.087  25.649  1.00  0.00    -0.355 N 
HETATM   15  C3  UNL     1      20.710  12.275  25.714  1.00  0.00     0.110 C 
HETATM   16  C4  UNL     1      20.248  12.349  27.201  1.00  0.00     0.029 C 
HETATM   17  C5  UNL     1      21.575  12.423  27.896  1.00  0.00     0.022 C 
HETATM   18  C6  UNL     1      22.348  13.354  27.049  1.00  0.00     0.125 C 
BRANCH  15  19
HETATM   19  C2  UNL     1      20.933  10.817  25.465  1.00  0.00     0.192 C 
BRANCH  19  20
HETATM   20  O1  UNL     1      21.328  10.487  24.197  1.00  0.00    -0.394 OA
HETATM   21  C1  UNL     1      22.532   9.857  24.118  1.00  0.00     0.201 C 
ENDBRANCH  19  20
ENDBRANCH  15  19
ENDBRANCH  13  14
BRANCH  13  22
HETATM   22  O2  UNL     1      21.986  13.611  23.430  1.00  0.00    -0.346 OA
ATOM     23  H2  UNL     1      21.955  12.764  23.000  1.00  0.00     0.219 HD
ENDBRANCH  13  22
ENDBRANCH  11  13
ENDBRANCH   3   6
ENDBRANCH   1   2
BRANCH   1  24
HETATM   24  C16 UNL     1      27.067  12.061  19.231  1.00  0.00     0.066 C 
BRANCH  24  25
HETATM   25  C17 UNL     1      25.727  11.507  19.535  1.00  0.00    -0.050 A 
HETATM   26  C18 UNL     1      24.637  12.159  19.016  1.00  0.00     0.049 A 
HETATM   27  C19 UNL     1      23.382  11.647  19.292  1.00  0.00     0.119 A 
HETATM   28  F1  UNL     1      22.293  12.280  18.788  1.00  0.00    -0.206 F 
HETATM   29  C20 UNL     1      23.212  10.522  20.059  1.00  0.00     0.084 A 
HETATM   30  C21 UNL     1      24.300   9.857  20.587  1.00  0.00     0.119 A 
HETATM   31  F2  UNL     1      24.092   8.749  21.339  1.00  0.00    -0.206 F 
HETATM   32  C22 UNL     1      25.534  10.380  20.301  1.00  0.00     0.049 A 
ENDBRANCH  24  25
ENDBRANCH   1  24
BRANCH   1  33
HETATM   33  C23 UNL     1      29.083  13.298  20.192  1.00  0.00     0.168 C 
BRANCH  33  34
HETATM   34  O4  UNL     1      30.117  12.721  20.929  1.00  0.00    -0.391 OA
ATOM     35  H4  UNL     1      30.639  13.397  21.345  1.00  0.00     0.210 HD
ENDBRANCH  33  34
BRANCH  33  36
HETATM   36  C24 UNL     1      29.083  14.755  20.426  1.00  0.00     0.147 C 
HETATM   37  C25 UNL     1      30.433  15.123  21.053  1.00  0.00     0.108 C 
HETATM   38  N3  UNL     1      31.466  15.387  20.147  1.00  0.00    -0.262 N 
HETATM   39  C33 UNL     1      31.261  15.279  18.774  1.00  0.00     0.100 C 
HETATM   40  C34 UNL     1      29.887  15.457  18.244  1.00  0.00     0.160 C 
HETATM   41  N4  UNL     1      28.929  15.592  19.285  1.00  0.00    -0.406 N 
ATOM     42  H4  UNL     1      28.162  16.262  19.217  1.00  0.00     0.154 HD
BRANCH  38  43
HETATM   43  S1  UNL     1      32.698  16.414  20.675  1.00  0.00     0.267 S 
HETATM   44  O5  UNL     1      34.052  15.886  20.214  1.00  0.00    -0.200 OA
HETATM   45  O6  UNL     1      32.537  17.746  19.953  1.00  0.00    -0.200 OA
BRANCH  43  46
HETATM   46  C26 UNL     1      32.683  16.740  22.372  1.00  0.00     0.080 A 
HETATM   47  C27 UNL     1      33.026  15.770  23.259  1.00  0.00     0.025 A 
HETATM   48  C28 UNL     1      33.013  16.035  24.617  1.00  0.00     0.002 A 
HETATM   49  C29 UNL     1      32.654  17.276  25.079  1.00  0.00     0.007 A 
HETATM   50  C30 UNL     1      32.308  18.255  24.190  1.00  0.00    -0.060 A 
HETATM   51  C31 UNL     1      31.923  19.587  24.697  1.00  0.00     0.048 C 
HETATM   52  C32 UNL     1      32.327  17.973  22.848  1.00  0.00     0.032 A 
ENDBRANCH  43  46
ENDBRANCH  38  43
ENDBRANCH  33  36
ENDBRANCH   1  33
TORSDOF 14
ENDMDL
