MODEL 15
REMARK VINA RESULT: -10.861256891      1.119      1.956
REMARK  14 active torsions:
REMARK  status: ('A' for Active; 'I' for Inactive)
REMARK    1  A    between atoms: O1_2  and  C2_3 
REMARK    2  A    between atoms: C2_3  and  C3_4 
REMARK    3  A    between atoms: N1_8  and  C7_9 
REMARK    4  A    between atoms: C7_9  and  O2_10 
REMARK    5  A    between atoms: C7_9  and  C8_12 
REMARK    6  A    between atoms: C13_17  and  C14_18 
REMARK       I    between atoms: C14_18  and  N2_20 
REMARK    7  A    between atoms: N2_20  and  C15_22 
REMARK    8  A    between atoms: C15_22  and  C16_23 
REMARK    9  A    between atoms: C15_22  and  C23_32 
REMARK   10  A    between atoms: C16_23  and  C17_24 
REMARK   11  A    between atoms: C23_32  and  O4_33 
REMARK   12  A    between atoms: C23_32  and  C24_35 
REMARK   13  A    between atoms: N3_37  and  S1_38 
REMARK   14  A    between atoms: S1_38  and  C26_41 
ROOT
HETATM    1  C15 UNL     1      22.884  11.729  23.488  1.00  0.00     0.120 C 
ENDROOT
BRANCH   1   2
HETATM    2  N2  UNL     1      24.161  12.364  23.827  1.00  0.00    -0.349 N 
HETATM    3  C14 UNL     1      24.345  13.772  23.830  1.00  0.00     0.252 C 
HETATM    4  O3  UNL     1      23.359  14.492  23.524  1.00  0.00    -0.268 OA
ATOM      5  H2  UNL     1      24.952  11.768  24.070  1.00  0.00     0.163 HD
BRANCH   3   6
HETATM    6  C13 UNL     1      25.602  14.424  24.164  1.00  0.00     0.033 A 
HETATM    7  C12 UNL     1      25.721  15.406  25.124  1.00  0.00     0.024 A 
HETATM    8  C10 UNL     1      26.935  15.994  25.392  1.00  0.00    -0.060 A 
HETATM    9  C9  UNL     1      28.094  15.617  24.698  1.00  0.00     0.022 A 
HETATM   10  C11 UNL     1      27.068  17.066  26.441  1.00  0.00     0.048 C 
HETATM   11  C8  UNL     1      28.019  14.644  23.735  1.00  0.00     0.016 A 
HETATM   12  C35 UNL     1      26.742  14.072  23.502  1.00  0.00     0.032 A 
BRANCH  11  13
HETATM   13  C7  UNL     1      29.110  14.145  22.946  1.00  0.00     0.148 C 
BRANCH  13  14
HETATM   14  N1  UNL     1      29.071  13.261  21.862  1.00  0.00    -0.355 N 
HETATM   15  C3  UNL     1      28.727  13.432  20.483  1.00  0.00     0.110 C 
HETATM   16  C4  UNL     1      28.551  11.986  19.927  1.00  0.00     0.029 C 
HETATM   17  C5  UNL     1      29.598  11.259  20.719  1.00  0.00     0.022 C 
HETATM   18  C6  UNL     1      29.449  11.827  22.075  1.00  0.00     0.125 C 
BRANCH  15  19
HETATM   19  C2  UNL     1      29.802  14.031  19.632  1.00  0.00     0.192 C 
BRANCH  19  20
HETATM   20  O1  UNL     1      29.473  15.198  18.999  1.00  0.00    -0.394 OA
HETATM   21  C1  UNL     1      29.784  16.330  19.688  1.00  0.00     0.201 C 
ENDBRANCH  19  20
ENDBRANCH  15  19
ENDBRANCH  13  14
BRANCH  13  22
HETATM   22  O2  UNL     1      30.305  14.562  23.273  1.00  0.00    -0.346 OA
ATOM     23  H2  UNL     1      30.345  15.074  24.073  1.00  0.00     0.219 HD
ENDBRANCH  13  22
ENDBRANCH  11  13
ENDBRANCH   3   6
ENDBRANCH   1   2
BRANCH   1  24
HETATM   24  C16 UNL     1      23.156  10.611  22.576  1.00  0.00     0.066 C 
BRANCH  24  25
HETATM   25  C17 UNL     1      23.541  10.975  21.193  1.00  0.00    -0.050 A 
HETATM   26  C18 UNL     1      22.742  11.869  20.526  1.00  0.00     0.049 A 
HETATM   27  C19 UNL     1      23.095  12.218  19.235  1.00  0.00     0.119 A 
HETATM   28  F1  UNL     1      22.317  13.100  18.560  1.00  0.00    -0.206 F 
HETATM   29  C20 UNL     1      24.208  11.697  18.623  1.00  0.00     0.084 A 
HETATM   30  C21 UNL     1      25.019  10.797  19.283  1.00  0.00     0.119 A 
HETATM   31  F2  UNL     1      26.110  10.305  18.646  1.00  0.00    -0.206 F 
HETATM   32  C22 UNL     1      24.652  10.465  20.561  1.00  0.00     0.049 A 
ENDBRANCH  24  25
ENDBRANCH   1  24
BRANCH   1  33
HETATM   33  C23 UNL     1      22.074  11.542  24.693  1.00  0.00     0.168 C 
BRANCH  33  34
HETATM   34  O4  UNL     1      21.183  10.484  24.514  1.00  0.00    -0.391 OA
ATOM     35  H4  UNL     1      20.508  10.508  25.183  1.00  0.00     0.210 HD
ENDBRANCH  33  34
BRANCH  33  36
HETATM   36  C24 UNL     1      21.345  12.692  25.261  1.00  0.00     0.147 C 
HETATM   37  C25 UNL     1      19.872  12.553  24.854  1.00  0.00     0.108 C 
HETATM   38  N3  UNL     1      19.082  11.779  25.710  1.00  0.00    -0.262 N 
HETATM   39  C33 UNL     1      19.631  11.159  26.830  1.00  0.00     0.100 C 
HETATM   40  C34 UNL     1      20.848  11.747  27.442  1.00  0.00     0.160 C 
HETATM   41  N4  UNL     1      21.358  12.830  26.677  1.00  0.00    -0.406 N 
ATOM     42  H4  UNL     1      21.719  13.673  27.125  1.00  0.00     0.154 HD
BRANCH  38  43
HETATM   43  S1  UNL     1      17.429  12.124  25.741  1.00  0.00     0.267 S 
HETATM   44  O5  UNL     1      16.973  12.372  27.174  1.00  0.00    -0.200 OA
HETATM   45  O6  UNL     1      17.216  13.456  25.032  1.00  0.00    -0.200 OA
BRANCH  43  46
HETATM   46  C26 UNL     1      16.437  10.952  24.948  1.00  0.00     0.080 A 
HETATM   47  C27 UNL     1      15.686  10.085  25.676  1.00  0.00     0.025 A 
HETATM   48  C28 UNL     1      14.893   9.148  25.038  1.00  0.00     0.002 A 
HETATM   49  C29 UNL     1      14.858   9.085  23.667  1.00  0.00     0.007 A 
HETATM   50  C30 UNL     1      15.613   9.956  22.931  1.00  0.00    -0.060 A 
HETATM   51  C31 UNL     1      15.569   9.880  21.457  1.00  0.00     0.048 C 
HETATM   52  C32 UNL     1      16.392  10.878  23.582  1.00  0.00     0.032 A 
ENDBRANCH  43  46
ENDBRANCH  38  43
ENDBRANCH  33  36
ENDBRANCH   1  33
TORSDOF 14
ENDMDL
