MODEL 3
REMARK VINA RESULT: -5.682510064      1.351      2.426
REMARK  4 active torsions:
REMARK  status: ('A' for Active; 'I' for Inactive)
REMARK    1  A    between atoms: C2_2  and  O1_3 
REMARK    2  A    between atoms: O1_3  and  P1_4 
REMARK    3  A    between atoms: P1_4  and  O4_7 
REMARK    4  A    between atoms: O4_7  and  P2_8 
ROOT
HETATM    1  P1  UNL     1      15.999 -64.850   1.992  1.00  0.00     0.418 P 
HETATM    2  O2  UNL     1      17.104 -65.716   1.384  1.00  0.00    -0.624 OA
HETATM    3  O3  UNL     1      14.836 -64.168   2.725  1.00  0.00    -0.624 OA
ENDROOT
BRANCH   1   4
HETATM    4  O1  UNL     1      16.288 -63.566   1.038  1.00  0.00    -0.290 OA
BRANCH   4   5
HETATM    5  C2  UNL     1      17.556 -63.470   0.508  1.00  0.00     0.177 C 
HETATM    6  C1  UNL     1      17.456 -63.011  -0.928  1.00  0.00     0.034 C 
ENDBRANCH   4   5
ENDBRANCH   1   4
BRANCH   1   7
HETATM    7  O4  UNL     1      14.875 -65.976   1.485  1.00  0.00    -0.173 OA
BRANCH   7   8
HETATM    8  P2  UNL     1      14.248 -65.542   0.026  1.00  0.00     0.431 P 
HETATM    9  O5  UNL     1      12.706 -64.966  -0.138  1.00  0.00    -0.616 OA
HETATM   10  O6  UNL     1      13.819 -66.973  -0.284  1.00  0.00    -0.616 OA
HETATM   11  O7  UNL     1      15.242 -65.470  -1.288  1.00  0.00    -0.616 OA
ENDBRANCH   7   8
ENDBRANCH   1   7
TORSDOF 4
ENDMDL
