MODEL 1
REMARK VINA RESULT: -5.795242668      0.000      0.000
REMARK  4 active torsions:
REMARK  status: ('A' for Active; 'I' for Inactive)
REMARK    1  A    between atoms: C2_2  and  O1_3 
REMARK    2  A    between atoms: O1_3  and  P1_4 
REMARK    3  A    between atoms: P1_4  and  O4_7 
REMARK    4  A    between atoms: O4_7  and  P2_8 
ROOT
HETATM    1  P1  UNL     1      15.761 -63.848   1.535  1.00  0.00     0.418 P 
HETATM    2  O2  UNL     1      15.015 -64.129   2.840  1.00  0.00    -0.624 OA
HETATM    3  O3  UNL     1      16.322 -63.449   0.162  1.00  0.00    -0.624 OA
ENDROOT
BRANCH   1   4
HETATM    4  O1  UNL     1      17.048 -64.767   1.909  1.00  0.00    -0.290 OA
BRANCH   4   5
HETATM    5  C2  UNL     1      18.194 -64.545   1.178  1.00  0.00     0.177 C 
HETATM    6  C1  UNL     1      18.804 -65.875   0.802  1.00  0.00     0.034 C 
ENDBRANCH   4   5
ENDBRANCH   1   4
BRANCH   1   7
HETATM    7  O4  UNL     1      14.503 -64.552   0.694  1.00  0.00    -0.173 OA
BRANCH   7   8
HETATM    8  P2  UNL     1      14.891 -66.095   0.269  1.00  0.00     0.431 P 
HETATM    9  O5  UNL     1      15.782 -66.442  -1.081  1.00  0.00    -0.616 OA
HETATM   10  O6  UNL     1      13.571 -66.288  -0.471  1.00  0.00    -0.616 OA
HETATM   11  O7  UNL     1      14.575 -67.324   1.321  1.00  0.00    -0.616 OA
ENDBRANCH   7   8
ENDBRANCH   1   7
TORSDOF 4
ENDMDL
