MODEL 4
REMARK VINA RESULT: -5.616712378      1.226      1.550
REMARK  4 active torsions:
REMARK  status: ('A' for Active; 'I' for Inactive)
REMARK    1  A    between atoms: C2_2  and  O1_3 
REMARK    2  A    between atoms: O1_3  and  P1_4 
REMARK    3  A    between atoms: P1_4  and  O4_7 
REMARK    4  A    between atoms: O4_7  and  P2_8 
ROOT
HETATM    1  P1  UNL     1      16.531 -64.508   1.891  1.00  0.00     0.418 P 
HETATM    2  O2  UNL     1      16.766 -65.981   1.550  1.00  0.00    -0.624 OA
HETATM    3  O3  UNL     1      16.142 -63.108   2.387  1.00  0.00    -0.624 OA
ENDROOT
BRANCH   1   4
HETATM    4  O1  UNL     1      17.510 -63.938   0.726  1.00  0.00    -0.290 OA
BRANCH   4   5
HETATM    5  C2  UNL     1      18.445 -64.817   0.226  1.00  0.00     0.177 C 
HETATM    6  C1  UNL     1      19.828 -64.271   0.493  1.00  0.00     0.034 C 
ENDBRANCH   4   5
ENDBRANCH   1   4
BRANCH   1   7
HETATM    7  O4  UNL     1      14.912 -64.711   1.535  1.00  0.00    -0.173 OA
BRANCH   7   8
HETATM    8  P2  UNL     1      14.731 -65.713   0.241  1.00  0.00     0.431 P 
HETATM    9  O5  UNL     1      15.248 -65.301  -1.275  1.00  0.00    -0.616 OA
HETATM   10  O6  UNL     1      13.318 -65.208  -0.030  1.00  0.00    -0.616 OA
HETATM   11  O7  UNL     1      14.219 -67.261   0.486  1.00  0.00    -0.616 OA
ENDBRANCH   7   8
ENDBRANCH   1   7
TORSDOF 4
ENDMDL
