MODEL 16
REMARK VINA RESULT: -5.088080297      1.497      2.238
REMARK  4 active torsions:
REMARK  status: ('A' for Active; 'I' for Inactive)
REMARK    1  A    between atoms: C2_2  and  O1_3 
REMARK    2  A    between atoms: O1_3  and  P1_4 
REMARK    3  A    between atoms: P1_4  and  O4_7 
REMARK    4  A    between atoms: O4_7  and  P2_8 
ROOT
HETATM    1  P1  UNL     1      16.846 -64.544   0.585  1.00  0.00     0.418 P 
HETATM    2  O2  UNL     1      17.333 -65.969   0.853  1.00  0.00    -0.624 OA
HETATM    3  O3  UNL     1      16.147 -63.196   0.357  1.00  0.00    -0.624 OA
ENDROOT
BRANCH   1   4
HETATM    4  O1  UNL     1      18.308 -63.975   0.161  1.00  0.00    -0.290 OA
BRANCH   4   5
HETATM    5  C2  UNL     1      19.362 -64.856   0.263  1.00  0.00     0.177 C 
HETATM    6  C1  UNL     1      20.650 -64.074   0.360  1.00  0.00     0.034 C 
ENDBRANCH   4   5
ENDBRANCH   1   4
BRANCH   1   7
HETATM    7  O4  UNL     1      15.850 -65.139  -0.616  1.00  0.00    -0.173 OA
BRANCH   7   8
HETATM    8  P2  UNL     1      14.446 -65.705   0.032  1.00  0.00     0.431 P 
HETATM    9  O5  UNL     1      14.374 -66.358   1.550  1.00  0.00    -0.616 OA
HETATM   10  O6  UNL     1      14.625 -67.072  -0.621  1.00  0.00    -0.616 OA
HETATM   11  O7  UNL     1      13.024 -65.425  -0.755  1.00  0.00    -0.616 OA
ENDBRANCH   7   8
ENDBRANCH   1   7
TORSDOF 4
ENDMDL
