MODEL 8
REMARK VINA RESULT: -5.216905808      1.120      1.664
REMARK  4 active torsions:
REMARK  status: ('A' for Active; 'I' for Inactive)
REMARK    1  A    between atoms: C2_2  and  O1_3 
REMARK    2  A    between atoms: O1_3  and  P1_4 
REMARK    3  A    between atoms: P1_4  and  O4_7 
REMARK    4  A    between atoms: O4_7  and  P2_8 
ROOT
HETATM    1  P1  UNL     1      16.357 -63.660   0.993  1.00  0.00     0.418 P 
HETATM    2  O2  UNL     1      16.130 -63.236   2.446  1.00  0.00    -0.624 OA
HETATM    3  O3  UNL     1      16.366 -64.151  -0.461  1.00  0.00    -0.624 OA
ENDROOT
BRANCH   1   4
HETATM    4  O1  UNL     1      17.946 -63.314   0.995  1.00  0.00    -0.290 OA
BRANCH   4   5
HETATM    5  C2  UNL     1      18.763 -64.183   0.305  1.00  0.00     0.177 C 
HETATM    6  C1  UNL     1      19.321 -65.204   1.268  1.00  0.00     0.034 C 
ENDBRANCH   4   5
ENDBRANCH   1   4
BRANCH   1   7
HETATM    7  O4  UNL     1      15.884 -65.209   1.398  1.00  0.00    -0.173 OA
BRANCH   7   8
HETATM    8  P2  UNL     1      14.821 -65.792   0.285  1.00  0.00     0.431 P 
HETATM    9  O5  UNL     1      13.335 -65.109   0.038  1.00  0.00    -0.616 OA
HETATM   10  O6  UNL     1      14.261 -66.818   1.266  1.00  0.00    -0.616 OA
HETATM   11  O7  UNL     1      15.320 -66.956  -0.772  1.00  0.00    -0.616 OA
ENDBRANCH   7   8
ENDBRANCH   1   7
TORSDOF 4
ENDMDL
