MODEL 8
REMARK VINA RESULT: -6.327682559      1.884      3.160
REMARK  10 active torsions:
REMARK  status: ('A' for Active; 'I' for Inactive)
REMARK    1  A    between atoms: N1_1  and  C1_5 
REMARK    2  A    between atoms: C1_5  and  C2_6 
REMARK    3  A    between atoms: C1_5  and  C10_23 
REMARK    4  A    between atoms: C2_6  and  C3_7 
REMARK    5  A    between atoms: C3_7  and  C4_8 
REMARK       I    between atoms: C4_8  and  N2_10 
REMARK    6  A    between atoms: N2_10  and  C5_12 
REMARK    7  A    between atoms: C5_12  and  C6_13 
REMARK    8  A    between atoms: C5_12  and  C7_15 
REMARK       I    between atoms: C7_15  and  N3_17 
REMARK    9  A    between atoms: N3_17  and  C8_19 
REMARK   10  A    between atoms: C8_19  and  C9_20 
ROOT
HETATM    1  C4  UNL     1      -0.325  32.360 -18.218  1.00  0.00     0.218 C 
HETATM    2  O1  UNL     1      -0.927  32.054 -19.297  1.00  0.00    -0.274 OA
HETATM    3  N2  UNL     1      -0.264  31.356 -17.235  1.00  0.00    -0.347 N 
ATOM      4  H2  UNL     1       0.206  31.539 -16.348  1.00  0.00     0.163 HD
ENDROOT
BRANCH   3   5
HETATM    5  C5  UNL     1      -0.881  30.031 -17.486  1.00  0.00     0.186 C 
BRANCH   5   6
HETATM    6  C6  UNL     1       0.133  29.006 -16.946  1.00  0.00     0.120 C 
HETATM    7  S1  UNL     1       1.514  29.785 -16.123  1.00  0.00    -0.095 SA
ENDBRANCH   5   6
BRANCH   5   8
HETATM    8  C7  UNL     1      -2.072  29.955 -16.619  1.00  0.00     0.241 C 
HETATM    9  O2  UNL     1      -3.175  29.599 -17.145  1.00  0.00    -0.271 OA
HETATM   10  N3  UNL     1      -2.004  30.265 -15.238  1.00  0.00    -0.349 N 
ATOM     11  H3  UNL     1      -1.123  30.547 -14.807  1.00  0.00     0.163 HD
BRANCH  10  12
HETATM   12  C8  UNL     1      -3.220  30.170 -14.456  1.00  0.00     0.235 C 
BRANCH  12  13
HETATM   13  C9  UNL     1      -3.000  29.229 -13.338  1.00  0.00     0.191 C 
HETATM   14  O3  UNL     1      -2.369  28.158 -13.519  1.00  0.00    -0.647 OA
HETATM   15  O4  UNL     1      -3.491  29.524 -12.073  1.00  0.00    -0.647 OA
ENDBRANCH  12  13
ENDBRANCH  10  12
ENDBRANCH   5   8
ENDBRANCH   3   5
BRANCH   1  16
HETATM   16  C3  UNL     1       0.273  33.715 -18.035  1.00  0.00     0.105 C 
BRANCH  16  17
HETATM   17  C2  UNL     1      -0.117  34.545 -19.211  1.00  0.00     0.053 C 
BRANCH  17  18
HETATM   18  C1  UNL     1       1.053  35.066 -19.998  1.00  0.00     0.283 C 
BRANCH  18  19
HETATM   19  N1  UNL     1       1.557  36.312 -19.524  1.00  0.00    -0.065 N 
ATOM     20  H13 UNL     1       2.274  36.672 -20.153  1.00  0.00     0.275 HD
ATOM     21  H12 UNL     1       0.855  37.046 -19.627  1.00  0.00     0.275 HD
ATOM     22  H11 UNL     1       1.904  36.279 -18.566  1.00  0.00     0.275 HD
ENDBRANCH  18  19
BRANCH  18  23
HETATM   23  C10 UNL     1       0.655  35.164 -21.425  1.00  0.00     0.204 C 
HETATM   24  O5  UNL     1       1.135  36.031 -22.188  1.00  0.00    -0.646 OA
HETATM   25  O6  UNL     1      -0.280  34.254 -21.899  1.00  0.00    -0.646 OA
ENDBRANCH  18  23
ENDBRANCH  17  18
ENDBRANCH  16  17
ENDBRANCH   1  16
TORSDOF 10
ENDMDL
