MODEL 9
REMARK VINA RESULT: -6.258681203      2.926      6.191
REMARK  10 active torsions:
REMARK  status: ('A' for Active; 'I' for Inactive)
REMARK    1  A    between atoms: N1_1  and  C1_5 
REMARK    2  A    between atoms: C1_5  and  C2_6 
REMARK    3  A    between atoms: C1_5  and  C10_23 
REMARK    4  A    between atoms: C2_6  and  C3_7 
REMARK    5  A    between atoms: C3_7  and  C4_8 
REMARK       I    between atoms: C4_8  and  N2_10 
REMARK    6  A    between atoms: N2_10  and  C5_12 
REMARK    7  A    between atoms: C5_12  and  C6_13 
REMARK    8  A    between atoms: C5_12  and  C7_15 
REMARK       I    between atoms: C7_15  and  N3_17 
REMARK    9  A    between atoms: N3_17  and  C8_19 
REMARK   10  A    between atoms: C8_19  and  C9_20 
ROOT
HETATM    1  C4  UNL     1      -3.490  29.304 -18.290  1.00  0.00     0.218 C 
HETATM    2  O1  UNL     1      -4.060  29.106 -19.411  1.00  0.00    -0.274 OA
HETATM    3  N2  UNL     1      -3.259  30.647 -17.940  1.00  0.00    -0.347 N 
ATOM      4  H2  UNL     1      -2.806  30.872 -17.054  1.00  0.00     0.163 HD
ENDROOT
BRANCH   3   5
HETATM    5  C5  UNL     1      -3.673  31.737 -18.857  1.00  0.00     0.186 C 
BRANCH   5   6
HETATM    6  C6  UNL     1      -4.860  32.423 -18.156  1.00  0.00     0.120 C 
HETATM    7  S1  UNL     1      -6.433  31.910 -18.829  1.00  0.00    -0.095 SA
ENDBRANCH   5   6
BRANCH   5   8
HETATM    8  C7  UNL     1      -2.564  32.709 -18.877  1.00  0.00     0.241 C 
HETATM    9  O2  UNL     1      -2.721  33.811 -18.260  1.00  0.00    -0.271 OA
HETATM   10  N3  UNL     1      -1.351  32.435 -19.556  1.00  0.00    -0.349 N 
ATOM     11  H3  UNL     1      -1.214  31.552 -20.049  1.00  0.00     0.163 HD
BRANCH  10  12
HETATM   12  C8  UNL     1      -0.311  33.444 -19.531  1.00  0.00     0.235 C 
BRANCH  12  13
HETATM   13  C9  UNL     1      -0.050  33.898 -20.914  1.00  0.00     0.191 C 
HETATM   14  O3  UNL     1      -0.987  33.988 -21.745  1.00  0.00    -0.647 OA
HETATM   15  O4  UNL     1       1.241  34.229 -21.306  1.00  0.00    -0.647 OA
ENDBRANCH  12  13
ENDBRANCH  10  12
ENDBRANCH   5   8
ENDBRANCH   3   5
BRANCH   1  16
HETATM   16  C3  UNL     1      -3.100  28.158 -17.418  1.00  0.00     0.105 C 
BRANCH  16  17
HETATM   17  C2  UNL     1      -2.099  28.658 -16.432  1.00  0.00     0.053 C 
BRANCH  17  18
HETATM   18  C1  UNL     1      -0.689  28.233 -16.736  1.00  0.00     0.283 C 
BRANCH  18  19
HETATM   19  N1  UNL     1      -0.039  27.578 -15.650  1.00  0.00    -0.065 N 
ATOM     20  H13 UNL     1      -0.695  27.406 -14.889  1.00  0.00     0.275 HD
ATOM     21  H12 UNL     1       0.193  26.616 -15.898  1.00  0.00     0.275 HD
ATOM     22  H11 UNL     1       0.787  28.069 -15.308  1.00  0.00     0.275 HD
ENDBRANCH  18  19
BRANCH  18  23
HETATM   23  C10 UNL     1       0.079  29.428 -17.170  1.00  0.00     0.204 C 
HETATM   24  O5  UNL     1      -0.260  30.106 -18.166  1.00  0.00    -0.646 OA
HETATM   25  O6  UNL     1       1.201  29.779 -16.432  1.00  0.00    -0.646 OA
ENDBRANCH  18  23
ENDBRANCH  17  18
ENDBRANCH  16  17
ENDBRANCH   1  16
TORSDOF 10
ENDMDL
