MODEL 3
REMARK VINA RESULT: -6.431954232      2.992      7.165
REMARK  10 active torsions:
REMARK  status: ('A' for Active; 'I' for Inactive)
REMARK    1  A    between atoms: N1_1  and  C1_5 
REMARK    2  A    between atoms: C1_5  and  C2_6 
REMARK    3  A    between atoms: C1_5  and  C10_23 
REMARK    4  A    between atoms: C2_6  and  C3_7 
REMARK    5  A    between atoms: C3_7  and  C4_8 
REMARK       I    between atoms: C4_8  and  N2_10 
REMARK    6  A    between atoms: N2_10  and  C5_12 
REMARK    7  A    between atoms: C5_12  and  C6_13 
REMARK    8  A    between atoms: C5_12  and  C7_15 
REMARK       I    between atoms: C7_15  and  N3_17 
REMARK    9  A    between atoms: N3_17  and  C8_19 
REMARK   10  A    between atoms: C8_19  and  C9_20 
ROOT
HETATM    1  C4  UNL     1      -1.090  30.012 -16.772  1.00  0.00     0.218 C 
HETATM    2  O1  UNL     1      -1.099  29.095 -17.656  1.00  0.00    -0.274 OA
HETATM    3  N2  UNL     1      -1.287  31.324 -17.237  1.00  0.00    -0.347 N 
ATOM      4  H2  UNL     1      -1.291  32.103 -16.579  1.00  0.00     0.163 HD
ENDROOT
BRANCH   3   5
HETATM    5  C5  UNL     1      -1.488  31.578 -18.685  1.00  0.00     0.186 C 
BRANCH   5   6
HETATM    6  C6  UNL     1      -2.937  32.088 -18.807  1.00  0.00     0.120 C 
HETATM    7  S1  UNL     1      -4.095  30.769 -19.136  1.00  0.00    -0.095 SA
ENDBRANCH   5   6
BRANCH   5   8
HETATM    8  C7  UNL     1      -0.604  32.704 -19.038  1.00  0.00     0.241 C 
HETATM    9  O2  UNL     1      -0.194  33.461 -18.101  1.00  0.00    -0.271 OA
HETATM   10  N3  UNL     1      -0.211  32.945 -20.378  1.00  0.00    -0.349 N 
ATOM     11  H3  UNL     1      -0.530  32.340 -21.135  1.00  0.00     0.163 HD
BRANCH  10  12
HETATM   12  C8  UNL     1       0.657  34.075 -20.642  1.00  0.00     0.235 C 
BRANCH  12  13
HETATM   13  C9  UNL     1       0.143  34.811 -21.817  1.00  0.00     0.191 C 
HETATM   14  O3  UNL     1      -0.919  34.450 -22.383  1.00  0.00    -0.647 OA
HETATM   15  O4  UNL     1       0.834  35.912 -22.306  1.00  0.00    -0.647 OA
ENDBRANCH  12  13
ENDBRANCH  10  12
ENDBRANCH   5   8
ENDBRANCH   3   5
BRANCH   1  16
HETATM   16  C3  UNL     1      -0.881  29.682 -15.332  1.00  0.00     0.105 C 
BRANCH  16  17
HETATM   17  C2  UNL     1      -2.101  28.974 -14.848  1.00  0.00     0.053 C 
BRANCH  17  18
HETATM   18  C1  UNL     1      -2.960  29.805 -13.934  1.00  0.00     0.283 C 
BRANCH  18  19
HETATM   19  N1  UNL     1      -2.236  30.791 -13.203  1.00  0.00    -0.065 N 
ATOM     20  H13 UNL     1      -1.669  30.355 -12.476  1.00  0.00     0.275 HD
ATOM     21  H12 UNL     1      -1.496  31.194 -13.778  1.00  0.00     0.275 HD
ATOM     22  H11 UNL     1      -2.823  31.525 -12.808  1.00  0.00     0.275 HD
ENDBRANCH  18  19
BRANCH  18  23
HETATM   23  C10 UNL     1      -3.689  28.894 -13.017  1.00  0.00     0.204 C 
HETATM   24  O5  UNL     1      -4.359  29.325 -12.052  1.00  0.00    -0.646 OA
HETATM   25  O6  UNL     1      -3.608  27.530 -13.261  1.00  0.00    -0.646 OA
ENDBRANCH  18  23
ENDBRANCH  17  18
ENDBRANCH  16  17
ENDBRANCH   1  16
TORSDOF 10
ENDMDL
