MODEL 4
REMARK VINA RESULT: -6.431151989      2.127      2.981
REMARK  10 active torsions:
REMARK  status: ('A' for Active; 'I' for Inactive)
REMARK    1  A    between atoms: N1_1  and  C1_5 
REMARK    2  A    between atoms: C1_5  and  C2_6 
REMARK    3  A    between atoms: C1_5  and  C10_23 
REMARK    4  A    between atoms: C2_6  and  C3_7 
REMARK    5  A    between atoms: C3_7  and  C4_8 
REMARK       I    between atoms: C4_8  and  N2_10 
REMARK    6  A    between atoms: N2_10  and  C5_12 
REMARK    7  A    between atoms: C5_12  and  C6_13 
REMARK    8  A    between atoms: C5_12  and  C7_15 
REMARK       I    between atoms: C7_15  and  N3_17 
REMARK    9  A    between atoms: N3_17  and  C8_19 
REMARK   10  A    between atoms: C8_19  and  C9_20 
ROOT
HETATM    1  C4  UNL     1      -0.773  32.615 -18.870  1.00  0.00     0.218 C 
HETATM    2  O1  UNL     1      -1.038  31.893 -19.885  1.00  0.00    -0.274 OA
HETATM    3  N2  UNL     1      -0.429  31.928 -17.692  1.00  0.00    -0.347 N 
ATOM      4  H2  UNL     1      -0.205  32.450 -16.845  1.00  0.00     0.163 HD
ENDROOT
BRANCH   3   5
HETATM    5  C5  UNL     1      -0.390  30.445 -17.680  1.00  0.00     0.186 C 
BRANCH   5   6
HETATM    6  C6  UNL     1       0.724  30.080 -16.681  1.00  0.00     0.120 C 
HETATM    7  S1  UNL     1       1.283  28.395 -16.875  1.00  0.00    -0.095 SA
ENDBRANCH   5   6
BRANCH   5   8
HETATM    8  C7  UNL     1      -1.665  30.000 -17.086  1.00  0.00     0.241 C 
HETATM    9  O2  UNL     1      -2.486  29.372 -17.828  1.00  0.00    -0.271 OA
HETATM   10  N3  UNL     1      -1.977  30.255 -15.727  1.00  0.00    -0.349 N 
ATOM     11  H3  UNL     1      -1.323  30.752 -15.123  1.00  0.00     0.163 HD
BRANCH  10  12
HETATM   12  C8  UNL     1      -3.252  29.787 -15.221  1.00  0.00     0.235 C 
BRANCH  12  13
HETATM   13  C9  UNL     1      -3.078  28.429 -14.664  1.00  0.00     0.191 C 
HETATM   14  O3  UNL     1      -2.410  28.249 -13.615  1.00  0.00    -0.647 OA
HETATM   15  O4  UNL     1      -3.655  27.337 -15.299  1.00  0.00    -0.647 OA
ENDBRANCH  12  13
ENDBRANCH  10  12
ENDBRANCH   5   8
ENDBRANCH   3   5
BRANCH   1  16
HETATM   16  C3  UNL     1      -0.833  34.104 -18.956  1.00  0.00     0.105 C 
BRANCH  16  17
HETATM   17  C2  UNL     1      -0.084  34.517 -20.178  1.00  0.00     0.053 C 
BRANCH  17  18
HETATM   18  C1  UNL     1       1.261  35.123 -19.886  1.00  0.00     0.283 C 
BRANCH  18  19
HETATM   19  N1  UNL     1       1.411  35.572 -18.542  1.00  0.00    -0.065 N 
ATOM     20  H13 UNL     1       0.528  35.498 -18.038  1.00  0.00     0.275 HD
ATOM     21  H12 UNL     1       1.973  34.912 -18.003  1.00  0.00     0.275 HD
ATOM     22  H11 UNL     1       1.792  36.515 -18.463  1.00  0.00     0.275 HD
ENDBRANCH  18  19
BRANCH  18  23
HETATM   23  C10 UNL     1       1.496  36.231 -20.845  1.00  0.00     0.204 C 
HETATM   24  O5  UNL     1       2.059  37.295 -20.502  1.00  0.00    -0.646 OA
HETATM   25  O6  UNL     1       1.067  36.056 -22.154  1.00  0.00    -0.646 OA
ENDBRANCH  18  23
ENDBRANCH  17  18
ENDBRANCH  16  17
ENDBRANCH   1  16
TORSDOF 10
ENDMDL
