MODEL 2
REMARK VINA RESULT: -6.489008499      3.360      6.615
REMARK  10 active torsions:
REMARK  status: ('A' for Active; 'I' for Inactive)
REMARK    1  A    between atoms: N1_1  and  C1_5 
REMARK    2  A    between atoms: C1_5  and  C2_6 
REMARK    3  A    between atoms: C1_5  and  C10_23 
REMARK    4  A    between atoms: C2_6  and  C3_7 
REMARK    5  A    between atoms: C3_7  and  C4_8 
REMARK       I    between atoms: C4_8  and  N2_10 
REMARK    6  A    between atoms: N2_10  and  C5_12 
REMARK    7  A    between atoms: C5_12  and  C6_13 
REMARK    8  A    between atoms: C5_12  and  C7_15 
REMARK       I    between atoms: C7_15  and  N3_17 
REMARK    9  A    between atoms: N3_17  and  C8_19 
REMARK   10  A    between atoms: C8_19  and  C9_20 
ROOT
HETATM    1  C4  UNL     1      -4.387  32.325 -18.334  1.00  0.00     0.218 C 
HETATM    2  O1  UNL     1      -4.339  32.291 -19.606  1.00  0.00    -0.274 OA
HETATM    3  N2  UNL     1      -3.184  32.045 -17.660  1.00  0.00    -0.347 N 
ATOM      4  H2  UNL     1      -3.157  32.057 -16.641  1.00  0.00     0.163 HD
ENDROOT
BRANCH   3   5
HETATM    5  C5  UNL     1      -1.955  31.733 -18.430  1.00  0.00     0.186 C 
BRANCH   5   6
HETATM    6  C6  UNL     1      -1.151  33.046 -18.455  1.00  0.00     0.120 C 
HETATM    7  S1  UNL     1      -0.386  33.344 -20.041  1.00  0.00    -0.095 SA
ENDBRANCH   5   6
BRANCH   5   8
HETATM    8  C7  UNL     1      -1.186  30.772 -17.616  1.00  0.00     0.241 C 
HETATM    9  O2  UNL     1      -0.283  30.086 -18.192  1.00  0.00    -0.271 OA
HETATM   10  N3  UNL     1      -1.435  30.611 -16.230  1.00  0.00    -0.349 N 
ATOM     11  H3  UNL     1      -2.153  31.160 -15.759  1.00  0.00     0.163 HD
BRANCH  10  12
HETATM   12  C8  UNL     1      -0.639  29.643 -15.503  1.00  0.00     0.235 C 
BRANCH  12  13
HETATM   13  C9  UNL     1      -1.426  28.403 -15.335  1.00  0.00     0.191 C 
HETATM   14  O3  UNL     1      -2.119  28.220 -14.303  1.00  0.00    -0.647 OA
HETATM   15  O4  UNL     1      -1.405  27.426 -16.321  1.00  0.00    -0.647 OA
ENDBRANCH  12  13
ENDBRANCH  10  12
ENDBRANCH   5   8
ENDBRANCH   3   5
BRANCH   1  16
HETATM   16  C3  UNL     1      -5.660  32.647 -17.626  1.00  0.00     0.105 C 
BRANCH  16  17
HETATM   17  C2  UNL     1      -6.076  31.432 -16.867  1.00  0.00     0.053 C 
BRANCH  17  18
HETATM   18  C1  UNL     1      -6.377  31.700 -15.418  1.00  0.00     0.283 C 
BRANCH  18  19
HETATM   19  N1  UNL     1      -6.656  33.068 -15.131  1.00  0.00    -0.065 N 
ATOM     20  H13 UNL     1      -5.902  33.480 -14.583  1.00  0.00     0.275 HD
ATOM     21  H12 UNL     1      -6.584  33.634 -15.976  1.00  0.00     0.275 HD
ATOM     22  H11 UNL     1      -7.556  33.217 -14.675  1.00  0.00     0.275 HD
ENDBRANCH  18  19
BRANCH  18  23
HETATM   23  C10 UNL     1      -5.239  31.209 -14.602  1.00  0.00     0.204 C 
HETATM   24  O5  UNL     1      -4.204  30.737 -15.125  1.00  0.00    -0.646 OA
HETATM   25  O6  UNL     1      -5.353  31.287 -13.221  1.00  0.00    -0.646 OA
ENDBRANCH  18  23
ENDBRANCH  17  18
ENDBRANCH  16  17
ENDBRANCH   1  16
TORSDOF 10
ENDMDL
