MODEL 9
REMARK VINA RESULT: -7.297014716      2.485      3.469
REMARK  4 active torsions:
REMARK  status: ('A' for Active; 'I' for Inactive)
REMARK    1  A    between atoms: C6_8  and  C7_9 
REMARK    2  A    between atoms: C7_9  and  O3_10 
REMARK    3  A    between atoms: O3_10  and  S1_11 
REMARK    4  A    between atoms: S1_11  and  N1_12 
ROOT
HETATM    1  C1  UNL     1     -21.005  35.964  45.957  1.00  0.00     0.078 C 
HETATM    2  C2  UNL     1     -20.215  36.842  45.029  1.00  0.00     0.158 C 
HETATM    3  C3  UNL     1     -20.787  38.228  44.892  1.00  0.00     0.078 C 
HETATM    4  O1  UNL     1     -20.134  36.316  43.731  1.00  0.00    -0.346 OA
HETATM    5  C4  UNL     1     -19.027  37.042  43.260  1.00  0.00     0.180 C 
HETATM    6  C5  UNL     1     -18.396  36.399  42.050  1.00  0.00     0.206 C 
HETATM    7  O2  UNL     1     -17.005  36.528  42.197  1.00  0.00    -0.348 OA
HETATM    8  C6  UNL     1     -16.536  35.516  43.050  1.00  0.00     0.219 C 
HETATM    9  O6  UNL     1     -15.380  35.870  43.717  1.00  0.00    -0.315 OA
HETATM   10  C8  UNL     1     -15.448  35.339  44.996  1.00  0.00     0.161 C 
HETATM   11  C9  UNL     1     -15.124  36.375  46.065  1.00  0.00     0.078 C 
HETATM   12  C10 UNL     1     -14.460  34.207  45.165  1.00  0.00     0.078 C 
HETATM   13  O7  UNL     1     -16.749  34.930  45.217  1.00  0.00    -0.342 OA
HETATM   14  C11 UNL     1     -17.527  35.387  44.173  1.00  0.00     0.221 C 
HETATM   15  C12 UNL     1     -18.066  36.792  44.420  1.00  0.00     0.191 C 
HETATM   16  O8  UNL     1     -18.898  36.859  45.514  1.00  0.00    -0.345 OA
ENDROOT
BRANCH   8  17
HETATM   17  C7  UNL     1     -16.402  34.278  42.211  1.00  0.00     0.263 C 
BRANCH  17  18
HETATM   18  O3  UNL     1     -15.497  34.599  41.186  1.00  0.00    -0.254 OA
BRANCH  18  19
HETATM   19  S1  UNL     1     -16.151  34.405  39.668  1.00  0.00     0.355 S 
HETATM   20  O4  UNL     1     -15.200  33.578  38.853  1.00  0.00    -0.176 OA
HETATM   21  O5  UNL     1     -17.502  33.774  39.679  1.00  0.00    -0.176 OA
BRANCH  19  22
HETATM   22  N1  UNL     1     -16.281  35.956  38.921  1.00  0.00    -0.306 N 
ATOM     23  H12 UNL     1     -15.543  36.660  38.905  1.00  0.00     0.171 HD
ATOM     24  H11 UNL     1     -17.209  36.040  38.504  1.00  0.00     0.171 HD
ENDBRANCH  19  22
ENDBRANCH  18  19
ENDBRANCH  17  18
ENDBRANCH   8  17
TORSDOF 4
ENDMDL
