MODEL 6
REMARK VINA RESULT: -7.382982742      2.976      5.577
REMARK  4 active torsions:
REMARK  status: ('A' for Active; 'I' for Inactive)
REMARK    1  A    between atoms: C6_8  and  C7_9 
REMARK    2  A    between atoms: C7_9  and  O3_10 
REMARK    3  A    between atoms: O3_10  and  S1_11 
REMARK    4  A    between atoms: S1_11  and  N1_12 
ROOT
HETATM    1  C1  UNL     1     -16.778  35.937  40.913  1.00  0.00     0.078 C 
HETATM    2  C2  UNL     1     -16.650  34.826  41.917  1.00  0.00     0.158 C 
HETATM    3  C3  UNL     1     -17.200  33.514  41.425  1.00  0.00     0.078 C 
HETATM    4  O1  UNL     1     -17.317  35.110  43.119  1.00  0.00    -0.346 OA
HETATM    5  C4  UNL     1     -16.669  34.190  43.961  1.00  0.00     0.180 C 
HETATM    6  C5  UNL     1     -16.833  34.538  45.419  1.00  0.00     0.206 C 
HETATM    7  O2  UNL     1     -15.602  34.274  46.042  1.00  0.00    -0.348 OA
HETATM    8  C6  UNL     1     -14.734  35.355  45.823  1.00  0.00     0.219 C 
HETATM    9  O6  UNL     1     -13.403  34.988  45.850  1.00  0.00    -0.315 OA
HETATM   10  C8  UNL     1     -12.736  35.734  44.891  1.00  0.00     0.161 C 
HETATM   11  C9  UNL     1     -11.865  34.864  43.992  1.00  0.00     0.078 C 
HETATM   12  C10 UNL     1     -11.825  36.754  45.534  1.00  0.00     0.078 C 
HETATM   13  O7  UNL     1     -13.685  36.323  44.077  1.00  0.00    -0.342 OA
HETATM   14  C11 UNL     1     -14.917  35.789  44.396  1.00  0.00     0.221 C 
HETATM   15  C12 UNL     1     -15.222  34.520  43.607  1.00  0.00     0.191 C 
HETATM   16  O8  UNL     1     -15.290  34.739  42.250  1.00  0.00    -0.345 OA
ENDROOT
BRANCH   8  17
HETATM   17  C7  UNL     1     -15.097  36.407  46.831  1.00  0.00     0.263 C 
BRANCH  17  18
HETATM   18  O3  UNL     1     -14.456  36.039  48.025  1.00  0.00    -0.254 OA
BRANCH  18  19
HETATM   19  S1  UNL     1     -15.483  36.053  49.335  1.00  0.00     0.355 S 
HETATM   20  O4  UNL     1     -14.824  35.298  50.452  1.00  0.00    -0.176 OA
HETATM   21  O5  UNL     1     -15.852  37.424  49.788  1.00  0.00    -0.176 OA
BRANCH  19  22
HETATM   22  N1  UNL     1     -16.931  35.213  48.909  1.00  0.00    -0.306 N 
ATOM     23  H12 UNL     1     -17.018  34.555  48.134  1.00  0.00     0.171 HD
ATOM     24  H11 UNL     1     -17.669  35.487  49.558  1.00  0.00     0.171 HD
ENDBRANCH  19  22
ENDBRANCH  18  19
ENDBRANCH  17  18
ENDBRANCH   8  17
TORSDOF 4
ENDMDL
