MODEL 5
REMARK VINA RESULT: -7.452666929      2.218      4.000
REMARK  4 active torsions:
REMARK  status: ('A' for Active; 'I' for Inactive)
REMARK    1  A    between atoms: C6_8  and  C7_9 
REMARK    2  A    between atoms: C7_9  and  O3_10 
REMARK    3  A    between atoms: O3_10  and  S1_11 
REMARK    4  A    between atoms: S1_11  and  N1_12 
ROOT
HETATM    1  C1  UNL     1     -13.059  36.874  45.049  1.00  0.00     0.078 C 
HETATM    2  C2  UNL     1     -14.271  36.145  45.557  1.00  0.00     0.158 C 
HETATM    3  C3  UNL     1     -14.243  35.909  47.044  1.00  0.00     0.078 C 
HETATM    4  O1  UNL     1     -14.430  34.886  44.958  1.00  0.00    -0.346 OA
HETATM    5  C4  UNL     1     -15.789  34.669  45.244  1.00  0.00     0.180 C 
HETATM    6  C5  UNL     1     -16.396  33.611  44.357  1.00  0.00     0.206 C 
HETATM    7  O2  UNL     1     -17.688  34.049  44.023  1.00  0.00    -0.348 OA
HETATM    8  C6  UNL     1     -17.603  34.967  42.965  1.00  0.00     0.219 C 
HETATM    9  O6  UNL     1     -18.650  35.867  42.951  1.00  0.00    -0.315 OA
HETATM   10  C8  UNL     1     -18.148  37.096  42.549  1.00  0.00     0.161 C 
HETATM   11  C9  UNL     1     -18.581  38.223  43.479  1.00  0.00     0.078 C 
HETATM   12  C10 UNL     1     -18.639  37.455  41.165  1.00  0.00     0.078 C 
HETATM   13  O7  UNL     1     -16.770  37.033  42.613  1.00  0.00    -0.342 OA
HETATM   14  C11 UNL     1     -16.422  35.854  43.240  1.00  0.00     0.221 C 
HETATM   15  C12 UNL     1     -16.352  36.001  44.756  1.00  0.00     0.191 C 
HETATM   16  O8  UNL     1     -15.389  36.897  45.162  1.00  0.00    -0.345 OA
ENDROOT
BRANCH   8  17
HETATM   17  C7  UNL     1     -17.477  34.159  41.706  1.00  0.00     0.263 C 
BRANCH  17  18
HETATM   18  O3  UNL     1     -16.208  34.452  41.181  1.00  0.00    -0.254 OA
BRANCH  18  19
HETATM   19  S1  UNL     1     -16.206  34.537  39.519  1.00  0.00     0.355 S 
HETATM   20  O4  UNL     1     -15.715  35.899  39.122  1.00  0.00    -0.176 OA
HETATM   21  O5  UNL     1     -15.376  33.482  38.869  1.00  0.00    -0.176 OA
BRANCH  19  22
HETATM   22  N1  UNL     1     -17.830  34.374  38.955  1.00  0.00    -0.306 N 
ATOM     23  H12 UNL     1     -18.626  34.906  39.307  1.00  0.00     0.171 HD
ATOM     24  H11 UNL     1     -17.851  33.664  38.223  1.00  0.00     0.171 HD
ENDBRANCH  19  22
ENDBRANCH  18  19
ENDBRANCH  17  18
ENDBRANCH   8  17
TORSDOF 4
ENDMDL
