MODEL 8
REMARK VINA RESULT: -7.317916107      2.329      3.134
REMARK  4 active torsions:
REMARK  status: ('A' for Active; 'I' for Inactive)
REMARK    1  A    between atoms: C6_8  and  C7_9 
REMARK    2  A    between atoms: C7_9  and  O3_10 
REMARK    3  A    between atoms: O3_10  and  S1_11 
REMARK    4  A    between atoms: S1_11  and  N1_12 
ROOT
HETATM    1  C1  UNL     1     -20.306  36.794  47.820  1.00  0.00     0.078 C 
HETATM    2  C2  UNL     1     -19.663  37.723  46.829  1.00  0.00     0.158 C 
HETATM    3  C3  UNL     1     -19.959  39.175  47.096  1.00  0.00     0.078 C 
HETATM    4  O1  UNL     1     -20.075  37.470  45.511  1.00  0.00    -0.346 OA
HETATM    5  C4  UNL     1     -19.033  38.111  44.820  1.00  0.00     0.180 C 
HETATM    6  C5  UNL     1     -18.928  37.648  43.389  1.00  0.00     0.206 C 
HETATM    7  O2  UNL     1     -17.559  37.544  43.092  1.00  0.00    -0.348 OA
HETATM    8  C6  UNL     1     -17.075  36.320  43.582  1.00  0.00     0.219 C 
HETATM    9  O6  UNL     1     -15.727  36.359  43.881  1.00  0.00    -0.315 OA
HETATM   10  C8  UNL     1     -15.522  35.591  45.016  1.00  0.00     0.161 C 
HETATM   11  C9  UNL     1     -14.696  36.327  46.065  1.00  0.00     0.078 C 
HETATM   12  C10 UNL     1     -14.776  34.319  44.682  1.00  0.00     0.078 C 
HETATM   13  O7  UNL     1     -16.755  35.336  45.586  1.00  0.00    -0.342 OA
HETATM   14  C11 UNL     1     -17.696  36.106  44.933  1.00  0.00     0.221 C 
HETATM   15  C12 UNL     1     -17.845  37.492  45.552  1.00  0.00     0.191 C 
HETATM   16  O8  UNL     1     -18.287  37.450  46.855  1.00  0.00    -0.345 OA
ENDROOT
BRANCH   8  17
HETATM   17  C7  UNL     1     -17.445  35.276  42.568  1.00  0.00     0.263 C 
BRANCH  17  18
HETATM   18  O3  UNL     1     -16.513  35.400  41.525  1.00  0.00    -0.254 OA
BRANCH  18  19
HETATM   19  S1  UNL     1     -15.919  33.929  41.019  1.00  0.00     0.355 S 
HETATM   20  O4  UNL     1     -14.453  33.885  41.334  1.00  0.00    -0.176 OA
HETATM   21  O5  UNL     1     -16.614  32.763  41.635  1.00  0.00    -0.176 OA
BRANCH  19  22
HETATM   22  N1  UNL     1     -16.096  33.824  39.304  1.00  0.00    -0.306 N 
ATOM     23  H12 UNL     1     -16.979  33.669  38.817  1.00  0.00     0.171 HD
ATOM     24  H11 UNL     1     -15.179  33.942  38.874  1.00  0.00     0.171 HD
ENDBRANCH  19  22
ENDBRANCH  18  19
ENDBRANCH  17  18
ENDBRANCH   8  17
TORSDOF 4
ENDMDL
