MODEL 13
REMARK VINA RESULT: -7.602320736      1.886      3.135
REMARK  0 active torsions:
REMARK  status: ('A' for Active; 'I' for Inactive)
ROOT
HETATM    1  C1  UNL     1      36.294  -9.170 -28.388  1.00  0.00     0.016 C 
HETATM    2  C2  UNL     1      37.322 -10.086 -28.919  1.00  0.00    -0.029 C 
HETATM    3  C3  UNL     1      37.033 -11.504 -28.562  1.00  0.00     0.016 C 
HETATM    4  C4  UNL     1      38.747  -9.668 -28.626  1.00  0.00     0.001 C 
HETATM    5  C5  UNL     1      38.828  -8.366 -29.377  1.00  0.00     0.007 C 
HETATM    6  C6  UNL     1      38.127  -8.667 -30.689  1.00  0.00     0.018 C 
HETATM    7  C7  UNL     1      37.473 -10.001 -30.447  1.00  0.00     0.024 C 
HETATM    8  C8  UNL     1      36.244 -10.259 -31.184  1.00  0.00     0.024 C 
HETATM    9  C9  UNL     1      38.546 -11.028 -30.593  1.00  0.00     0.136 C 
HETATM   10  O1  UNL     1      38.671 -11.911 -31.392  1.00  0.00    -0.297 OA
HETATM   11  C10 UNL     1      39.492 -10.699 -29.460  1.00  0.00     0.084 C 
ENDROOT
TORSDOF 0
ENDMDL
