MODEL 12
REMARK VINA RESULT: -7.880087554      2.388      7.418
REMARK  3 active torsions:
REMARK  status: ('A' for Active; 'I' for Inactive)
REMARK       I    between atoms: N1_5  and  C5_6 
REMARK    1  A    between atoms: C5_6  and  C6_8 
REMARK    2  A    between atoms: C9_12  and  N3_13 
REMARK    3  A    between atoms: N3_13  and  C11_15 
ROOT
HETATM    1  C6  UNL     1      -1.536  15.356   4.147  1.00  0.00     0.226 C 
HETATM    2  C7  UNL     1      -2.520  15.918   3.216  1.00  0.00     0.068 C 
HETATM    3  N2  UNL     1      -3.287  16.370   2.473  1.00  0.00    -0.197 NA
ENDROOT
BRANCH   1   4
HETATM    4  C5  UNL     1      -0.438  16.322   4.380  1.00  0.00     0.232 C 
HETATM    5  N1  UNL     1       0.860  15.837   4.647  1.00  0.00    -0.349 N 
HETATM    6  C4  UNL     1       1.099  14.420   4.690  1.00  0.00     0.126 C 
HETATM    7  C8  UNL     1       1.928  16.779   4.874  1.00  0.00     0.151 C 
HETATM    8  C3  UNL     1       2.119  14.189   5.814  1.00  0.00     0.026 C 
HETATM    9  C2  UNL     1       1.959  15.329   6.785  1.00  0.00     0.007 C 
HETATM   10  C1  UNL     1       2.318  14.984   8.184  1.00  0.00     0.012 C 
HETATM   11  C9  UNL     1       2.605  16.584   6.240  1.00  0.00     0.107 C 
HETATM   12  O1  UNL     1      -0.665  17.564   4.338  1.00  0.00    -0.272 OA
BRANCH  11  13
HETATM   13  N3  UNL     1       4.013  16.504   6.081  1.00  0.00    -0.364 N 
HETATM   14  C10 UNL     1       4.632  16.055   4.847  1.00  0.00     0.152 C 
BRANCH  13  15
HETATM   15  C11 UNL     1       4.889  16.843   7.139  1.00  0.00     0.118 A 
HETATM   16  N4  UNL     1       5.813  16.001   7.625  1.00  0.00    -0.338 N 
HETATM   17  C12 UNL     1       6.640  16.350   8.633  1.00  0.00     0.183 A 
ATOM     18  H4  UNL     1       5.894  15.067   7.220  1.00  0.00     0.168 HD
HETATM   19  N5  UNL     1       6.582  17.561   9.205  1.00  0.00    -0.338 N 
HETATM   20  C13 UNL     1       5.677  18.449   8.763  1.00  0.00     0.120 A 
ATOM     21  H5  UNL     1       7.215  17.804   9.966  1.00  0.00     0.168 HD
HETATM   22  N6  UNL     1       5.410  19.706   9.153  1.00  0.00    -0.351 N 
HETATM   23  C16 UNL     1       4.825  18.100   7.730  1.00  0.00     0.053 A 
HETATM   24  C14 UNL     1       4.409  20.195   8.410  1.00  0.00     0.091 A 
ATOM     25  H6  UNL     1       5.892  20.210   9.898  1.00  0.00     0.166 HD
HETATM   26  C15 UNL     1       4.040  19.211   7.528  1.00  0.00     0.036 A 
ENDBRANCH  13  15
ENDBRANCH  11  13
ENDBRANCH   1   4
TORSDOF 3
ENDMDL
