MODEL 8
REMARK VINA RESULT: -8.041418061      2.690      7.142
REMARK  3 active torsions:
REMARK  status: ('A' for Active; 'I' for Inactive)
REMARK       I    between atoms: N1_5  and  C5_6 
REMARK    1  A    between atoms: C5_6  and  C6_8 
REMARK    2  A    between atoms: C9_12  and  N3_13 
REMARK    3  A    between atoms: N3_13  and  C11_15 
ROOT
HETATM    1  C6  UNL     1      -1.285  13.819   4.062  1.00  0.00     0.226 C 
HETATM    2  C7  UNL     1      -2.492  14.106   3.280  1.00  0.00     0.068 C 
HETATM    3  N2  UNL     1      -3.438  14.342   2.654  1.00  0.00    -0.197 NA
ENDROOT
BRANCH   1   4
HETATM    4  C5  UNL     1      -0.416  15.016   4.123  1.00  0.00     0.232 C 
HETATM    5  N1  UNL     1       0.927  14.872   4.532  1.00  0.00    -0.349 N 
HETATM    6  C4  UNL     1       1.432  13.573   4.883  1.00  0.00     0.126 C 
HETATM    7  C8  UNL     1       1.771  16.040   4.592  1.00  0.00     0.151 C 
HETATM    8  C3  UNL     1       2.388  13.785   6.065  1.00  0.00     0.026 C 
HETATM    9  C2  UNL     1       1.935  15.040   6.767  1.00  0.00     0.007 C 
HETATM   10  C1  UNL     1       2.246  15.062   8.219  1.00  0.00     0.012 C 
HETATM   11  C9  UNL     1       2.366  16.265   5.992  1.00  0.00     0.107 C 
HETATM   12  O1  UNL     1      -0.875  16.151   3.812  1.00  0.00    -0.272 OA
BRANCH  11  13
HETATM   13  N3  UNL     1       3.771  16.446   5.903  1.00  0.00    -0.364 N 
HETATM   14  C10 UNL     1       4.532  16.066   4.726  1.00  0.00     0.152 C 
BRANCH  13  15
HETATM   15  C11 UNL     1       4.507  16.994   6.979  1.00  0.00     0.118 A 
HETATM   16  N4  UNL     1       5.525  16.353   7.574  1.00  0.00    -0.338 N 
HETATM   17  C12 UNL     1       6.214  16.901   8.597  1.00  0.00     0.183 A 
ATOM     18  H4  UNL     1       5.785  15.424   7.243  1.00  0.00     0.168 HD
HETATM   19  N5  UNL     1       5.919  18.117   9.076  1.00  0.00    -0.338 N 
HETATM   20  C13 UNL     1       4.910  18.810   8.522  1.00  0.00     0.120 A 
ATOM     21  H5  UNL     1       6.452  18.511   9.851  1.00  0.00     0.168 HD
HETATM   22  N6  UNL     1       4.413  20.025   8.805  1.00  0.00    -0.351 N 
HETATM   23  C16 UNL     1       4.197  18.257   7.472  1.00  0.00     0.053 A 
HETATM   24  C14 UNL     1       3.396  20.289   7.975  1.00  0.00     0.091 A 
ATOM     25  H6  UNL     1       4.756  20.649   9.536  1.00  0.00     0.166 HD
HETATM   26  C15 UNL     1       3.254  19.204   7.148  1.00  0.00     0.036 A 
ENDBRANCH  13  15
ENDBRANCH  11  13
ENDBRANCH   1   4
TORSDOF 3
ENDMDL
