MODEL 3
REMARK VINA RESULT: -8.549508615      2.771      7.237
REMARK  3 active torsions:
REMARK  status: ('A' for Active; 'I' for Inactive)
REMARK       I    between atoms: N1_5  and  C5_6 
REMARK    1  A    between atoms: C5_6  and  C6_8 
REMARK    2  A    between atoms: C9_12  and  N3_13 
REMARK    3  A    between atoms: N3_13  and  C11_15 
ROOT
HETATM    1  C6  UNL     1      -1.267  13.653   3.777  1.00  0.00     0.226 C 
HETATM    2  C7  UNL     1      -2.601  13.889   3.216  1.00  0.00     0.068 C 
HETATM    3  N2  UNL     1      -3.651  14.087   2.764  1.00  0.00    -0.197 NA
ENDROOT
BRANCH   1   4
HETATM    4  C5  UNL     1      -0.518  14.927   3.875  1.00  0.00     0.232 C 
HETATM    5  N1  UNL     1       0.811  14.909   4.349  1.00  0.00    -0.349 N 
HETATM    6  C4  UNL     1       1.419  13.663   4.728  1.00  0.00     0.126 C 
HETATM    7  C8  UNL     1       1.538  16.151   4.445  1.00  0.00     0.151 C 
HETATM    8  C3  UNL     1       2.292  13.963   5.954  1.00  0.00     0.026 C 
HETATM    9  C2  UNL     1       1.690  15.169   6.629  1.00  0.00     0.007 C 
HETATM   10  C1  UNL     1       1.926  15.219   8.094  1.00  0.00     0.012 C 
HETATM   11  C9  UNL     1       2.040  16.431   5.871  1.00  0.00     0.107 C 
HETATM   12  O1  UNL     1      -1.067  16.014   3.538  1.00  0.00    -0.272 OA
BRANCH  11  13
HETATM   13  N3  UNL     1       3.425  16.743   5.849  1.00  0.00    -0.364 N 
HETATM   14  C10 UNL     1       4.323  16.227   4.831  1.00  0.00     0.152 C 
BRANCH  13  15
HETATM   15  C11 UNL     1       4.004  17.567   6.842  1.00  0.00     0.118 A 
HETATM   16  N4  UNL     1       3.523  18.777   7.164  1.00  0.00    -0.338 N 
HETATM   17  C12 UNL     1       4.091  19.542   8.119  1.00  0.00     0.183 A 
ATOM     18  H4  UNL     1       2.702  19.130   6.672  1.00  0.00     0.168 HD
HETATM   19  N5  UNL     1       5.172  19.134   8.799  1.00  0.00    -0.338 N 
HETATM   20  C13 UNL     1       5.701  17.931   8.523  1.00  0.00     0.120 A 
ATOM     21  H5  UNL     1       5.587  19.729   9.516  1.00  0.00     0.168 HD
HETATM   22  N6  UNL     1       6.762  17.292   9.044  1.00  0.00    -0.351 N 
HETATM   23  C16 UNL     1       5.124  17.139   7.546  1.00  0.00     0.053 A 
HETATM   24  C14 UNL     1       6.901  16.105   8.440  1.00  0.00     0.091 A 
ATOM     25  H6  UNL     1       7.366  17.653   9.783  1.00  0.00     0.166 HD
HETATM   26  C15 UNL     1       5.896  16.001   7.513  1.00  0.00     0.036 A 
ENDBRANCH  13  15
ENDBRANCH  11  13
ENDBRANCH   1   4
TORSDOF 3
ENDMDL
