MODEL 5
REMARK VINA RESULT: -8.402518948      1.951      3.183
REMARK  3 active torsions:
REMARK  status: ('A' for Active; 'I' for Inactive)
REMARK       I    between atoms: N1_5  and  C5_6 
REMARK    1  A    between atoms: C5_6  and  C6_8 
REMARK    2  A    between atoms: C9_12  and  N3_13 
REMARK    3  A    between atoms: N3_13  and  C11_15 
ROOT
HETATM    1  C6  UNL     1       4.802  17.252   7.215  1.00  0.00     0.226 C 
HETATM    2  C7  UNL     1       5.949  16.435   7.624  1.00  0.00     0.068 C 
HETATM    3  N2  UNL     1       6.856  15.784   7.934  1.00  0.00    -0.197 NA
ENDROOT
BRANCH   1   4
HETATM    4  C5  UNL     1       4.041  16.570   6.143  1.00  0.00     0.232 C 
HETATM    5  N1  UNL     1       2.710  16.964   5.886  1.00  0.00    -0.349 N 
HETATM    6  C4  UNL     1       2.113  18.016   6.663  1.00  0.00     0.126 C 
HETATM    7  C8  UNL     1       1.971  16.298   4.843  1.00  0.00     0.151 C 
HETATM    8  C3  UNL     1       0.648  17.614   6.879  1.00  0.00     0.026 C 
HETATM    9  C2  UNL     1       0.595  16.110   6.799  1.00  0.00     0.007 C 
HETATM   10  C1  UNL     1      -0.497  15.503   7.601  1.00  0.00     0.012 C 
HETATM   11  C9  UNL     1       0.674  15.653   5.359  1.00  0.00     0.107 C 
HETATM   12  O1  UNL     1       4.581  15.648   5.470  1.00  0.00    -0.272 OA
BRANCH  11  13
HETATM   13  N3  UNL     1      -0.424  16.048   4.551  1.00  0.00    -0.364 N 
HETATM   14  C10 UNL     1      -0.731  17.442   4.284  1.00  0.00     0.152 C 
BRANCH  13  15
HETATM   15  C11 UNL     1      -1.292  15.090   3.978  1.00  0.00     0.118 A 
HETATM   16  N4  UNL     1      -2.378  15.419   3.263  1.00  0.00    -0.338 N 
HETATM   17  C12 UNL     1      -3.189  14.485   2.722  1.00  0.00     0.183 A 
ATOM     18  H4  UNL     1      -2.598  16.406   3.123  1.00  0.00     0.168 HD
HETATM   19  N5  UNL     1      -2.952  13.174   2.872  1.00  0.00    -0.338 N 
HETATM   20  C13 UNL     1      -1.880  12.781   3.578  1.00  0.00     0.120 A 
ATOM     21  H5  UNL     1      -3.579  12.485   2.456  1.00  0.00     0.168 HD
HETATM   22  N6  UNL     1      -1.421  11.554   3.878  1.00  0.00    -0.351 N 
HETATM   23  C16 UNL     1      -1.043  13.731   4.136  1.00  0.00     0.053 A 
HETATM   24  C14 UNL     1      -0.309  11.669   4.615  1.00  0.00     0.091 A 
ATOM     25  H6  UNL     1      -1.851  10.675   3.589  1.00  0.00     0.166 HD
HETATM   26  C15 UNL     1      -0.067  13.008   4.780  1.00  0.00     0.036 A 
ENDBRANCH  13  15
ENDBRANCH  11  13
ENDBRANCH   1   4
TORSDOF 3
ENDMDL
