MODEL 4
REMARK VINA RESULT: -7.768797924      2.058      7.624
REMARK  3 active torsions:
REMARK  status: ('A' for Active; 'I' for Inactive)
REMARK       I    between atoms: N1_5  and  C5_6 
REMARK    1  A    between atoms: C5_6  and  C6_8 
REMARK    2  A    between atoms: C9_12  and  N3_13 
REMARK    3  A    between atoms: N3_13  and  C11_15 
ROOT
HETATM    1  C6  UNL     1      -9.467  10.148  15.201  1.00  0.00     0.226 C 
HETATM    2  C7  UNL     1     -10.160  11.125  16.047  1.00  0.00     0.068 C 
HETATM    3  N2  UNL     1     -10.695  11.903  16.721  1.00  0.00    -0.197 NA
ENDROOT
BRANCH   1   4
HETATM    4  C5  UNL     1      -8.220   9.693  15.857  1.00  0.00     0.232 C 
HETATM    5  N1  UNL     1      -7.510   8.604  15.307  1.00  0.00    -0.349 N 
HETATM    6  C4  UNL     1      -8.003   7.955  14.123  1.00  0.00     0.126 C 
HETATM    7  C8  UNL     1      -6.297   8.162  15.949  1.00  0.00     0.151 C 
HETATM    8  C3  UNL     1      -7.715   6.458  14.300  1.00  0.00     0.026 C 
HETATM    9  C2  UNL     1      -7.668   6.199  15.784  1.00  0.00     0.007 C 
HETATM   10  C1  UNL     1      -8.064   4.821  16.168  1.00  0.00     0.012 C 
HETATM   11  C9  UNL     1      -6.357   6.683  16.365  1.00  0.00     0.107 C 
HETATM   12  O1  UNL     1      -7.801  10.275  16.898  1.00  0.00    -0.272 OA
BRANCH  11  13
HETATM   13  N3  UNL     1      -5.209   5.995  15.890  1.00  0.00    -0.364 N 
HETATM   14  C10 UNL     1      -4.505   6.395  14.684  1.00  0.00     0.152 C 
BRANCH  13  15
HETATM   15  C11 UNL     1      -4.704   4.861  16.568  1.00  0.00     0.118 A 
HETATM   16  N4  UNL     1      -4.205   4.913  17.813  1.00  0.00    -0.338 N 
HETATM   17  C12 UNL     1      -3.733   3.816  18.440  1.00  0.00     0.183 A 
ATOM     18  H4  UNL     1      -4.182   5.809  18.300  1.00  0.00     0.168 HD
HETATM   19  N5  UNL     1      -3.735   2.611  17.852  1.00  0.00    -0.338 N 
HETATM   20  C13 UNL     1      -4.222   2.494  16.606  1.00  0.00     0.120 A 
ATOM     21  H5  UNL     1      -3.372   1.795  18.344  1.00  0.00     0.168 HD
HETATM   22  N6  UNL     1      -4.339   1.426  15.800  1.00  0.00    -0.351 N 
HETATM   23  C16 UNL     1      -4.709   3.614  15.955  1.00  0.00     0.053 A 
HETATM   24  C14 UNL     1      -4.887   1.808  14.639  1.00  0.00     0.091 A 
ATOM     25  H6  UNL     1      -4.055   0.474  16.034  1.00  0.00     0.166 HD
HETATM   26  C15 UNL     1      -5.119   3.157  14.724  1.00  0.00     0.036 A 
ENDBRANCH  13  15
ENDBRANCH  11  13
ENDBRANCH   1   4
TORSDOF 3
ENDMDL
