MODEL 9
REMARK VINA RESULT: -7.599941122      2.317      7.181
REMARK  3 active torsions:
REMARK  status: ('A' for Active; 'I' for Inactive)
REMARK       I    between atoms: N1_5  and  C5_6 
REMARK    1  A    between atoms: C5_6  and  C6_8 
REMARK    2  A    between atoms: C9_12  and  N3_13 
REMARK    3  A    between atoms: N3_13  and  C11_15 
ROOT
HETATM    1  C6  UNL     1      -9.400  10.270  15.139  1.00  0.00     0.226 C 
HETATM    2  C7  UNL     1     -10.152  11.210  15.976  1.00  0.00     0.068 C 
HETATM    3  N2  UNL     1     -10.734  11.959  16.643  1.00  0.00    -0.197 NA
ENDROOT
BRANCH   1   4
HETATM    4  C5  UNL     1      -8.191   9.800  15.854  1.00  0.00     0.232 C 
HETATM    5  N1  UNL     1      -7.485   8.685  15.353  1.00  0.00    -0.349 N 
HETATM    6  C4  UNL     1      -7.945   8.023  14.164  1.00  0.00     0.126 C 
HETATM    7  C8  UNL     1      -6.309   8.229  16.052  1.00  0.00     0.151 C 
HETATM    8  C3  UNL     1      -7.699   6.524  14.382  1.00  0.00     0.026 C 
HETATM    9  C2  UNL     1      -7.716   6.294  15.871  1.00  0.00     0.007 C 
HETATM   10  C1  UNL     1      -8.159   4.933  16.265  1.00  0.00     0.012 C 
HETATM   11  C9  UNL     1      -6.418   6.760  16.494  1.00  0.00     0.107 C 
HETATM   12  O1  UNL     1      -7.800  10.394  16.898  1.00  0.00    -0.272 OA
BRANCH  11  13
HETATM   13  N3  UNL     1      -5.269   6.038  16.079  1.00  0.00    -0.364 N 
HETATM   14  C10 UNL     1      -4.593   6.306  14.822  1.00  0.00     0.152 C 
BRANCH  13  15
HETATM   15  C11 UNL     1      -4.735   4.996  16.872  1.00  0.00     0.118 A 
HETATM   16  N4  UNL     1      -4.194   3.883  16.354  1.00  0.00    -0.338 N 
HETATM   17  C12 UNL     1      -3.686   2.905  17.133  1.00  0.00     0.183 A 
ATOM     18  H4  UNL     1      -4.164   3.773  15.340  1.00  0.00     0.168 HD
HETATM   19  N5  UNL     1      -3.697   2.992  18.471  1.00  0.00    -0.338 N 
HETATM   20  C13 UNL     1      -4.226   4.082  19.050  1.00  0.00     0.120 A 
ATOM     21  H5  UNL     1      -3.310   2.240  19.041  1.00  0.00     0.168 HD
HETATM   22  N6  UNL     1      -4.363   4.416  20.344  1.00  0.00    -0.351 N 
HETATM   23  C16 UNL     1      -4.748   5.090  18.259  1.00  0.00     0.053 A 
HETATM   24  C14 UNL     1      -4.959   5.612  20.429  1.00  0.00     0.091 A 
ATOM     25  H6  UNL     1      -4.061   3.849  21.137  1.00  0.00     0.166 HD
HETATM   26  C15 UNL     1      -5.201   6.037  19.148  1.00  0.00     0.036 A 
ENDBRANCH  13  15
ENDBRANCH  11  13
ENDBRANCH   1   4
TORSDOF 3
ENDMDL
