MODEL 13
REMARK VINA RESULT: -7.471330578      2.381      3.023
REMARK  3 active torsions:
REMARK  status: ('A' for Active; 'I' for Inactive)
REMARK       I    between atoms: N1_5  and  C5_6 
REMARK    1  A    between atoms: C5_6  and  C6_8 
REMARK    2  A    between atoms: C9_12  and  N3_13 
REMARK    3  A    between atoms: N3_13  and  C11_15 
ROOT
HETATM    1  C6  UNL     1      -4.862   4.716  20.806  1.00  0.00     0.226 C 
HETATM    2  C7  UNL     1      -3.628   5.000  21.547  1.00  0.00     0.068 C 
HETATM    3  N2  UNL     1      -2.650   5.236  22.122  1.00  0.00    -0.197 NA
ENDROOT
BRANCH   1   4
HETATM    4  C5  UNL     1      -4.687   5.041  19.372  1.00  0.00     0.232 C 
HETATM    5  N1  UNL     1      -5.310   6.193  18.847  1.00  0.00    -0.349 N 
HETATM    6  C4  UNL     1      -6.101   7.032  19.705  1.00  0.00     0.126 C 
HETATM    7  C8  UNL     1      -5.139   6.507  17.450  1.00  0.00     0.151 C 
HETATM    8  C3  UNL     1      -7.291   7.511  18.862  1.00  0.00     0.026 C 
HETATM    9  C2  UNL     1      -7.514   6.470  17.796  1.00  0.00     0.007 C 
HETATM   10  C1  UNL     1      -8.921   6.372  17.334  1.00  0.00     0.012 C 
HETATM   11  C9  UNL     1      -6.478   6.604  16.700  1.00  0.00     0.107 C 
HETATM   12  O1  UNL     1      -3.988   4.293  18.632  1.00  0.00    -0.272 OA
BRANCH  11  13
HETATM   13  N3  UNL     1      -6.543   7.819  15.969  1.00  0.00    -0.364 N 
HETATM   14  C10 UNL     1      -5.561   8.876  16.130  1.00  0.00     0.152 C 
BRANCH  13  15
HETATM   15  C11 UNL     1      -7.592   8.065  15.054  1.00  0.00     0.118 A 
HETATM   16  N4  UNL     1      -7.796   7.324  13.954  1.00  0.00    -0.338 N 
HETATM   17  C12 UNL     1      -8.808   7.577  13.098  1.00  0.00     0.183 A 
ATOM     18  H4  UNL     1      -7.167   6.544  13.760  1.00  0.00     0.168 HD
HETATM   19  N5  UNL     1      -9.665   8.588  13.298  1.00  0.00    -0.338 N 
HETATM   20  C13 UNL     1      -9.514   9.367  14.382  1.00  0.00     0.120 A 
ATOM     21  H5  UNL     1     -10.422   8.762  12.637  1.00  0.00     0.168 HD
HETATM   22  N6  UNL     1     -10.218  10.427  14.812  1.00  0.00    -0.351 N 
HETATM   23  C16 UNL     1      -8.480   9.114  15.266  1.00  0.00     0.053 A 
HETATM   24  C14 UNL     1      -9.679  10.879  15.952  1.00  0.00     0.091 A 
ATOM     25  H6  UNL     1     -11.034  10.824  14.346  1.00  0.00     0.166 HD
HETATM   26  C15 UNL     1      -8.606  10.076  16.241  1.00  0.00     0.036 A 
ENDBRANCH  13  15
ENDBRANCH  11  13
ENDBRANCH   1   4
TORSDOF 3
ENDMDL
