MODEL 1
REMARK VINA RESULT: -9.681927751      0.000      0.000
REMARK  13 active torsions:
REMARK  status: ('A' for Active; 'I' for Inactive)
REMARK    1  A    between atoms: C2_2  and  C4_4 
REMARK    2  A    between atoms: C4_4  and  N1_5 
REMARK    3  A    between atoms: N1_5  and  C5_6 
REMARK    4  A    between atoms: N1_5  and  S1_31 
REMARK    5  A    between atoms: C5_6  and  C6_7 
REMARK    6  A    between atoms: C6_7  and  O1_8 
REMARK    7  A    between atoms: C6_7  and  C7_10 
REMARK    8  A    between atoms: C7_10  and  C8_11 
REMARK    9  A    between atoms: C7_10  and  N2_18 
REMARK   10  A    between atoms: C8_11  and  C9_12 
REMARK       I    between atoms: N2_18  and  C15_20 
REMARK   11  A    between atoms: C15_20  and  O3_22 
REMARK   12  A    between atoms: O3_22  and  C16_23 
REMARK   13  A    between atoms: S1_31  and  C22_34 
ROOT
HETATM    1  C7  UNL     1      -8.945  15.106  -2.282  1.00  0.00     0.029 C 
ENDROOT
BRANCH   1   2
HETATM    2  C6  UNL     1      -8.311  15.502  -3.591  1.00  0.00     0.203 C 
BRANCH   2   3
HETATM    3  C5  UNL     1      -7.855  16.902  -3.676  1.00  0.00     0.119 C 
BRANCH   3   4
HETATM    4  N1  UNL     1      -7.014  17.251  -4.741  1.00  0.00    -0.262 N 
BRANCH   4   5
HETATM    5  C4  UNL     1      -7.495  17.418  -6.040  1.00  0.00     0.085 C 
BRANCH   5   6
HETATM    6  C2  UNL     1      -7.464  16.174  -6.919  1.00  0.00     0.017 C 
HETATM    7  C1  UNL     1      -8.745  15.939  -7.668  1.00  0.00     0.015 C 
HETATM    8  C3  UNL     1      -6.301  16.200  -7.883  1.00  0.00     0.015 C 
ENDBRANCH   5   6
ENDBRANCH   4   5
BRANCH   4   9
HETATM    9  S1  UNL     1      -5.581  18.028  -4.297  1.00  0.00     0.267 S 
HETATM   10  O6  UNL     1      -4.441  17.386  -5.074  1.00  0.00    -0.200 OA
HETATM   11  O7  UNL     1      -5.606  19.516  -4.620  1.00  0.00    -0.200 OA
BRANCH   9  12
HETATM   12  C22 UNL     1      -5.193  17.877  -2.588  1.00  0.00     0.080 A 
HETATM   13  C23 UNL     1      -5.446  18.869  -1.664  1.00  0.00     0.027 A 
HETATM   14  C24 UNL     1      -5.129  18.728  -0.326  1.00  0.00     0.028 A 
HETATM   15  C25 UNL     1      -4.538  17.574   0.141  1.00  0.00     0.046 A 
HETATM   16  N3  UNL     1      -4.205  17.424   1.533  1.00  0.00    -0.102 NA
HETATM   17  C26 UNL     1      -4.278  16.573  -0.768  1.00  0.00     0.028 A 
HETATM   18  C27 UNL     1      -4.597  16.718  -2.099  1.00  0.00     0.027 A 
ENDBRANCH   9  12
ENDBRANCH   4   9
ENDBRANCH   3   4
ENDBRANCH   2   3
BRANCH   2  19
HETATM   19  O1  UNL     1      -7.178  14.664  -3.732  1.00  0.00    -0.385 OA
ATOM     20  H1  UNL     1      -7.088  14.157  -2.934  1.00  0.00     0.211 HD
ENDBRANCH   2  19
ENDBRANCH   1   2
BRANCH   1  21
HETATM   21  C8  UNL     1     -10.448  15.159  -2.315  1.00  0.00     0.094 C 
BRANCH  21  22
HETATM   22  C9  UNL     1     -11.126  14.600  -1.146  1.00  0.00    -0.053 A 
HETATM   23  C10 UNL     1     -11.031  13.228  -0.910  1.00  0.00     0.007 A 
HETATM   24  C11 UNL     1     -11.647  12.588   0.131  1.00  0.00     0.001 A 
HETATM   25  C12 UNL     1     -12.412  13.337   1.007  1.00  0.00     0.000 A 
HETATM   26  C13 UNL     1     -12.536  14.691   0.816  1.00  0.00     0.001 A 
HETATM   27  C14 UNL     1     -11.886  15.306  -0.267  1.00  0.00     0.007 A 
ENDBRANCH  21  22
ENDBRANCH   1  21
BRANCH   1  28
HETATM   28  N2  UNL     1      -8.283  15.558  -1.123  1.00  0.00    -0.307 N 
HETATM   29  C15 UNL     1      -7.712  14.721  -0.133  1.00  0.00     0.365 C 
HETATM   30  O2  UNL     1      -7.782  13.492  -0.249  1.00  0.00    -0.238 OA
ATOM     31  H2  UNL     1      -8.209  16.566  -0.987  1.00  0.00     0.170 HD
BRANCH  29  32
HETATM   32  O3  UNL     1      -7.066  15.263   0.982  1.00  0.00    -0.296 OA
BRANCH  32  33
HETATM   33  C16 UNL     1      -7.683  16.262   1.779  1.00  0.00     0.166 C 
HETATM   34  C17 UNL     1      -8.976  16.727   1.197  1.00  0.00     0.204 C 
HETATM   35  O4  UNL     1      -9.910  16.825   2.194  1.00  0.00    -0.358 OA
HETATM   36  C18 UNL     1      -9.335  16.462   3.401  1.00  0.00     0.266 C 
HETATM   37  O5  UNL     1     -10.145  15.623   4.157  1.00  0.00    -0.361 OA
HETATM   38  C21 UNL     1      -8.140  15.594   3.059  1.00  0.00     0.075 C 
HETATM   39  C19 UNL     1     -10.087  14.357   3.626  1.00  0.00     0.171 C 
HETATM   40  C20 UNL     1      -8.772  14.258   2.846  1.00  0.00     0.038 C 
ENDBRANCH  32  33
ENDBRANCH  29  32
ENDBRANCH   1  28
TORSDOF 13
ENDMDL
