MODEL 8
REMARK VINA RESULT: -9.563480095      3.154      8.990
REMARK  13 active torsions:
REMARK  status: ('A' for Active; 'I' for Inactive)
REMARK    1  A    between atoms: C2_2  and  C4_4 
REMARK    2  A    between atoms: C4_4  and  N1_5 
REMARK    3  A    between atoms: N1_5  and  C5_6 
REMARK    4  A    between atoms: N1_5  and  S1_31 
REMARK    5  A    between atoms: C5_6  and  C6_7 
REMARK    6  A    between atoms: C6_7  and  O1_8 
REMARK    7  A    between atoms: C6_7  and  C7_10 
REMARK    8  A    between atoms: C7_10  and  C8_11 
REMARK    9  A    between atoms: C7_10  and  N2_18 
REMARK   10  A    between atoms: C8_11  and  C9_12 
REMARK       I    between atoms: N2_18  and  C15_20 
REMARK   11  A    between atoms: C15_20  and  O3_22 
REMARK   12  A    between atoms: O3_22  and  C16_23 
REMARK   13  A    between atoms: S1_31  and  C22_34 
ROOT
HETATM    1  C7  UNL     1      -9.098  16.433   0.010  1.00  0.00     0.029 C 
ENDROOT
BRANCH   1   2
HETATM    2  C6  UNL     1     -10.570  16.659   0.246  1.00  0.00     0.203 C 
BRANCH   2   3
HETATM    3  C5  UNL     1     -11.115  16.047   1.471  1.00  0.00     0.119 C 
BRANCH   3   4
HETATM    4  N1  UNL     1     -10.837  14.693   1.705  1.00  0.00    -0.262 N 
BRANCH   4   5
HETATM    5  C4  UNL     1     -10.065  14.272   2.789  1.00  0.00     0.085 C 
BRANCH   5   6
HETATM    6  C2  UNL     1     -10.262  15.056   4.081  1.00  0.00     0.017 C 
HETATM    7  C1  UNL     1     -10.899  14.250   5.177  1.00  0.00     0.015 C 
HETATM    8  C3  UNL     1      -8.966  15.660   4.570  1.00  0.00     0.015 C 
ENDBRANCH   5   6
ENDBRANCH   4   5
BRANCH   4   9
HETATM    9  S1  UNL     1     -11.931  13.607   1.013  1.00  0.00     0.267 S 
HETATM   10  O6  UNL     1     -12.944  14.410   0.211  1.00  0.00    -0.200 OA
HETATM   11  O7  UNL     1     -11.250  12.618   0.077  1.00  0.00    -0.200 OA
BRANCH   9  12
HETATM   12  C22 UNL     1     -12.834  12.664   2.193  1.00  0.00     0.080 A 
HETATM   13  C23 UNL     1     -12.659  11.308   2.371  1.00  0.00     0.027 A 
HETATM   14  C24 UNL     1     -13.384  10.588   3.301  1.00  0.00     0.028 A 
HETATM   15  C25 UNL     1     -14.322  11.208   4.098  1.00  0.00     0.046 A 
HETATM   16  N3  UNL     1     -15.080  10.461   5.068  1.00  0.00    -0.102 NA
HETATM   17  C26 UNL     1     -14.510  12.562   3.934  1.00  0.00     0.028 A 
HETATM   18  C27 UNL     1     -13.785  13.274   3.006  1.00  0.00     0.027 A 
ENDBRANCH   9  12
ENDBRANCH   4   9
ENDBRANCH   3   4
ENDBRANCH   2   3
BRANCH   2  19
HETATM   19  O1  UNL     1     -10.726  18.062   0.352  1.00  0.00    -0.385 OA
ATOM     20  H1  UNL     1     -11.295  18.347  -0.354  1.00  0.00     0.211 HD
ENDBRANCH   2  19
ENDBRANCH   1   2
BRANCH   1  21
HETATM   21  C8  UNL     1      -8.226  17.131   1.017  1.00  0.00     0.094 C 
BRANCH  21  22
HETATM   22  C9  UNL     1      -6.845  17.370   0.599  1.00  0.00    -0.053 A 
HETATM   23  C10 UNL     1      -5.877  16.414   0.910  1.00  0.00     0.007 A 
HETATM   24  C11 UNL     1      -4.550  16.541   0.600  1.00  0.00     0.001 A 
HETATM   25  C12 UNL     1      -4.133  17.682  -0.062  1.00  0.00     0.000 A 
HETATM   26  C13 UNL     1      -5.049  18.652  -0.389  1.00  0.00     0.001 A 
HETATM   27  C14 UNL     1      -6.401  18.480  -0.050  1.00  0.00     0.007 A 
ENDBRANCH  21  22
ENDBRANCH   1  21
BRANCH   1  28
HETATM   28  N2  UNL     1      -8.692  16.425  -1.340  1.00  0.00    -0.307 N 
HETATM   29  C15 UNL     1      -8.416  15.262  -2.100  1.00  0.00     0.365 C 
HETATM   30  O2  UNL     1      -8.520  14.145  -1.580  1.00  0.00    -0.238 OA
ATOM     31  H2  UNL     1      -8.588  17.327  -1.805  1.00  0.00     0.170 HD
BRANCH  29  32
HETATM   32  O3  UNL     1      -8.025  15.354  -3.440  1.00  0.00    -0.296 OA
BRANCH  32  33
HETATM   33  C16 UNL     1      -8.506  16.391  -4.279  1.00  0.00     0.166 C 
HETATM   34  C17 UNL     1      -7.508  17.488  -4.449  1.00  0.00     0.204 C 
HETATM   35  O4  UNL     1      -7.463  17.857  -5.767  1.00  0.00    -0.358 OA
HETATM   36  C18 UNL     1      -8.361  17.089  -6.491  1.00  0.00     0.266 C 
HETATM   37  O5  UNL     1      -7.832  16.621  -7.687  1.00  0.00    -0.361 OA
HETATM   38  C21 UNL     1      -8.591  15.828  -5.683  1.00  0.00     0.075 C 
HETATM   39  C19 UNL     1      -6.988  15.571  -7.417  1.00  0.00     0.171 C 
HETATM   40  C20 UNL     1      -7.415  14.990  -6.065  1.00  0.00     0.038 C 
ENDBRANCH  32  33
ENDBRANCH  29  32
ENDBRANCH   1  28
TORSDOF 13
ENDMDL
