MODEL 5
REMARK VINA RESULT: -9.639994455      2.049      4.814
REMARK  13 active torsions:
REMARK  status: ('A' for Active; 'I' for Inactive)
REMARK    1  A    between atoms: C2_2  and  C4_4 
REMARK    2  A    between atoms: C4_4  and  N1_5 
REMARK    3  A    between atoms: N1_5  and  C5_6 
REMARK    4  A    between atoms: N1_5  and  S1_31 
REMARK    5  A    between atoms: C5_6  and  C6_7 
REMARK    6  A    between atoms: C6_7  and  O1_8 
REMARK    7  A    between atoms: C6_7  and  C7_10 
REMARK    8  A    between atoms: C7_10  and  C8_11 
REMARK    9  A    between atoms: C7_10  and  N2_18 
REMARK   10  A    between atoms: C8_11  and  C9_12 
REMARK       I    between atoms: N2_18  and  C15_20 
REMARK   11  A    between atoms: C15_20  and  O3_22 
REMARK   12  A    between atoms: O3_22  and  C16_23 
REMARK   13  A    between atoms: S1_31  and  C22_34 
ROOT
HETATM    1  C7  UNL     1      -9.814  16.166   0.378  1.00  0.00     0.029 C 
ENDROOT
BRANCH   1   2
HETATM    2  C6  UNL     1      -9.402  17.604   0.193  1.00  0.00     0.203 C 
BRANCH   2   3
HETATM    3  C5  UNL     1      -8.408  17.845  -0.870  1.00  0.00     0.119 C 
BRANCH   3   4
HETATM    4  N1  UNL     1      -7.143  17.261  -0.726  1.00  0.00    -0.262 N 
BRANCH   4   5
HETATM    5  C4  UNL     1      -6.450  17.282   0.485  1.00  0.00     0.085 C 
BRANCH   5   6
HETATM    6  C2  UNL     1      -5.250  18.218   0.541  1.00  0.00     0.017 C 
HETATM    7  C1  UNL     1      -3.938  17.500   0.686  1.00  0.00     0.015 C 
HETATM    8  C3  UNL     1      -5.204  19.140  -0.656  1.00  0.00     0.015 C 
ENDBRANCH   5   6
ENDBRANCH   4   5
BRANCH   4   9
HETATM    9  S1  UNL     1      -6.780  16.052  -1.850  1.00  0.00     0.267 S 
HETATM   10  O6  UNL     1      -5.266  15.942  -1.946  1.00  0.00    -0.200 OA
HETATM   11  O7  UNL     1      -7.336  14.695  -1.440  1.00  0.00    -0.200 OA
BRANCH   9  12
HETATM   12  C22 UNL     1      -7.379  16.389  -3.470  1.00  0.00     0.080 A 
HETATM   13  C23 UNL     1      -8.467  15.746  -4.022  1.00  0.00     0.027 A 
HETATM   14  C24 UNL     1      -8.916  16.024  -5.299  1.00  0.00     0.028 A 
HETATM   15  C25 UNL     1      -8.284  16.969  -6.079  1.00  0.00     0.046 A 
HETATM   16  N3  UNL     1      -8.749  17.261  -7.410  1.00  0.00    -0.102 NA
HETATM   17  C26 UNL     1      -7.196  17.620  -5.543  1.00  0.00     0.028 A 
HETATM   18  C27 UNL     1      -6.753  17.339  -4.271  1.00  0.00     0.027 A 
ENDBRANCH   9  12
ENDBRANCH   4   9
ENDBRANCH   3   4
ENDBRANCH   2   3
BRANCH   2  19
HETATM   19  O1  UNL     1     -10.587  18.298  -0.152  1.00  0.00    -0.385 OA
ATOM     20  H1  UNL     1     -11.317  17.852   0.261  1.00  0.00     0.211 HD
ENDBRANCH   2  19
ENDBRANCH   1   2
BRANCH   1  21
HETATM   21  C8  UNL     1     -10.841  15.714  -0.623  1.00  0.00     0.094 C 
BRANCH  21  22
HETATM   22  C9  UNL     1     -11.668  14.579  -0.213  1.00  0.00    -0.053 A 
HETATM   23  C10 UNL     1     -11.210  13.288  -0.478  1.00  0.00     0.007 A 
HETATM   24  C11 UNL     1     -11.909  12.152  -0.170  1.00  0.00     0.001 A 
HETATM   25  C12 UNL     1     -13.143  12.281   0.441  1.00  0.00     0.000 A 
HETATM   26  C13 UNL     1     -13.635  13.531   0.722  1.00  0.00     0.001 A 
HETATM   27  C14 UNL     1     -12.885  14.670   0.387  1.00  0.00     0.007 A 
ENDBRANCH  21  22
ENDBRANCH   1  21
BRANCH   1  28
HETATM   28  N2  UNL     1      -9.945  15.737   1.714  1.00  0.00    -0.307 N 
HETATM   29  C15 UNL     1      -9.099  14.798   2.355  1.00  0.00     0.365 C 
HETATM   30  O2  UNL     1      -8.165  14.284   1.730  1.00  0.00    -0.238 OA
ATOM     31  H2  UNL     1     -10.708  16.134   2.263  1.00  0.00     0.170 HD
BRANCH  29  32
HETATM   32  O3  UNL     1      -9.304  14.439   3.691  1.00  0.00    -0.296 OA
BRANCH  32  33
HETATM   33  C16 UNL     1     -10.502  14.778   4.370  1.00  0.00     0.166 C 
HETATM   34  C17 UNL     1     -10.993  13.664   5.235  1.00  0.00     0.204 C 
HETATM   35  O4  UNL     1     -11.390  14.172   6.443  1.00  0.00    -0.358 OA
HETATM   36  C18 UNL     1     -11.201  15.545   6.449  1.00  0.00     0.266 C 
HETATM   37  O5  UNL     1     -10.625  16.007   7.626  1.00  0.00    -0.361 OA
HETATM   38  C21 UNL     1     -10.152  15.836   5.396  1.00  0.00     0.075 C 
HETATM   39  C19 UNL     1      -9.282  15.716   7.603  1.00  0.00     0.171 C 
HETATM   40  C20 UNL     1      -8.882  15.560   6.133  1.00  0.00     0.038 C 
ENDBRANCH  32  33
ENDBRANCH  29  32
ENDBRANCH   1  28
TORSDOF 13
ENDMDL
