MODEL 2
REMARK VINA RESULT: -9.671708326      2.125      4.420
REMARK  13 active torsions:
REMARK  status: ('A' for Active; 'I' for Inactive)
REMARK    1  A    between atoms: C2_2  and  C4_4 
REMARK    2  A    between atoms: C4_4  and  N1_5 
REMARK    3  A    between atoms: N1_5  and  C5_6 
REMARK    4  A    between atoms: N1_5  and  S1_31 
REMARK    5  A    between atoms: C5_6  and  C6_7 
REMARK    6  A    between atoms: C6_7  and  O1_8 
REMARK    7  A    between atoms: C6_7  and  C7_10 
REMARK    8  A    between atoms: C7_10  and  C8_11 
REMARK    9  A    between atoms: C7_10  and  N2_18 
REMARK   10  A    between atoms: C8_11  and  C9_12 
REMARK       I    between atoms: N2_18  and  C15_20 
REMARK   11  A    between atoms: C15_20  and  O3_22 
REMARK   12  A    between atoms: O3_22  and  C16_23 
REMARK   13  A    between atoms: S1_31  and  C22_34 
ROOT
HETATM    1  C7  UNL     1      -9.724  16.050  -0.124  1.00  0.00     0.029 C 
ENDROOT
BRANCH   1   2
HETATM    2  C6  UNL     1      -9.241  17.389  -0.621  1.00  0.00     0.203 C 
BRANCH   2   3
HETATM    3  C5  UNL     1      -9.014  17.479  -2.075  1.00  0.00     0.119 C 
BRANCH   3   4
HETATM    4  N1  UNL     1      -7.851  16.893  -2.592  1.00  0.00    -0.262 N 
BRANCH   4   5
HETATM    5  C4  UNL     1      -6.694  16.742  -1.826  1.00  0.00     0.085 C 
BRANCH   5   6
HETATM    6  C2  UNL     1      -5.702  17.897  -1.897  1.00  0.00     0.017 C 
HETATM    7  C1  UNL     1      -5.683  18.745  -0.657  1.00  0.00     0.015 C 
HETATM    8  C3  UNL     1      -4.306  17.415  -2.214  1.00  0.00     0.015 C 
ENDBRANCH   5   6
ENDBRANCH   4   5
BRANCH   4   9
HETATM    9  S1  UNL     1      -8.091  15.868  -3.915  1.00  0.00     0.267 S 
HETATM   10  O6  UNL     1      -7.604  14.481  -3.526  1.00  0.00    -0.200 OA
HETATM   11  O7  UNL     1      -9.558  15.770  -4.310  1.00  0.00    -0.200 OA
BRANCH   9  12
HETATM   12  C22 UNL     1      -7.198  16.348  -5.353  1.00  0.00     0.080 A 
HETATM   13  C23 UNL     1      -7.140  15.581  -6.497  1.00  0.00     0.027 A 
HETATM   14  C24 UNL     1      -6.428  15.977  -7.614  1.00  0.00     0.028 A 
HETATM   15  C25 UNL     1      -5.739  17.170  -7.624  1.00  0.00     0.046 A 
HETATM   16  N3  UNL     1      -4.995  17.585  -8.784  1.00  0.00    -0.102 NA
HETATM   17  C26 UNL     1      -5.785  17.948  -6.489  1.00  0.00     0.028 A 
HETATM   18  C27 UNL     1      -6.496  17.549  -5.380  1.00  0.00     0.027 A 
ENDBRANCH   9  12
ENDBRANCH   4   9
ENDBRANCH   3   4
ENDBRANCH   2   3
BRANCH   2  19
HETATM   19  O1  UNL     1     -10.261  18.311  -0.281  1.00  0.00    -0.385 OA
ATOM     20  H1  UNL     1      -9.851  19.062   0.130  1.00  0.00     0.211 HD
ENDBRANCH   2  19
ENDBRANCH   1   2
BRANCH   1  21
HETATM   21  C8  UNL     1     -10.920  15.538  -0.878  1.00  0.00     0.094 C 
BRANCH  21  22
HETATM   22  C9  UNL     1     -11.708  14.513  -0.194  1.00  0.00    -0.053 A 
HETATM   23  C10 UNL     1     -11.304  13.182  -0.293  1.00  0.00     0.007 A 
HETATM   24  C11 UNL     1     -11.978  12.135   0.277  1.00  0.00     0.001 A 
HETATM   25  C12 UNL     1     -13.128  12.403   0.997  1.00  0.00     0.000 A 
HETATM   26  C13 UNL     1     -13.565  13.699   1.122  1.00  0.00     0.001 A 
HETATM   27  C14 UNL     1     -12.843  14.742   0.520  1.00  0.00     0.007 A 
ENDBRANCH  21  22
ENDBRANCH   1  21
BRANCH   1  28
HETATM   28  N2  UNL     1      -9.683  15.869   1.273  1.00  0.00    -0.307 N 
HETATM   29  C15 UNL     1      -8.877  14.918   1.947  1.00  0.00     0.365 C 
HETATM   30  O2  UNL     1      -8.142  14.163   1.300  1.00  0.00    -0.238 OA
ATOM     31  H2  UNL     1     -10.279  16.468   1.843  1.00  0.00     0.170 HD
BRANCH  29  32
HETATM   32  O3  UNL     1      -8.898  14.816   3.342  1.00  0.00    -0.296 OA
BRANCH  32  33
HETATM   33  C16 UNL     1      -9.643  15.725   4.136  1.00  0.00     0.166 C 
HETATM   34  C17 UNL     1     -11.082  15.341   4.233  1.00  0.00     0.204 C 
HETATM   35  O4  UNL     1     -11.500  15.480   5.530  1.00  0.00    -0.358 OA
HETATM   36  C18 UNL     1     -10.445  15.931   6.307  1.00  0.00     0.266 C 
HETATM   37  O5  UNL     1     -10.335  15.256   7.516  1.00  0.00    -0.361 OA
HETATM   38  C21 UNL     1      -9.178  15.553   5.568  1.00  0.00     0.075 C 
HETATM   39  C19 UNL     1      -9.775  14.023   7.284  1.00  0.00     0.171 C 
HETATM   40  C20 UNL     1      -8.992  14.127   5.971  1.00  0.00     0.038 C 
ENDBRANCH  32  33
ENDBRANCH  29  32
ENDBRANCH   1  28
TORSDOF 13
ENDMDL
