MODEL 18
REMARK VINA RESULT: -9.125566283      2.636      9.881
REMARK  13 active torsions:
REMARK  status: ('A' for Active; 'I' for Inactive)
REMARK    1  A    between atoms: C2_2  and  C4_4 
REMARK    2  A    between atoms: C4_4  and  N1_5 
REMARK    3  A    between atoms: N1_5  and  C5_6 
REMARK    4  A    between atoms: N1_5  and  S1_31 
REMARK    5  A    between atoms: C5_6  and  C6_7 
REMARK    6  A    between atoms: C6_7  and  O1_8 
REMARK    7  A    between atoms: C6_7  and  C7_10 
REMARK    8  A    between atoms: C7_10  and  C8_11 
REMARK    9  A    between atoms: C7_10  and  N2_18 
REMARK   10  A    between atoms: C8_11  and  C9_12 
REMARK       I    between atoms: N2_18  and  C15_20 
REMARK   11  A    between atoms: C15_20  and  O3_22 
REMARK   12  A    between atoms: O3_22  and  C16_23 
REMARK   13  A    between atoms: S1_31  and  C22_34 
ROOT
HETATM    1  C7  UNL     1       9.712 -15.851   1.312  1.00  0.00     0.029 C 
ENDROOT
BRANCH   1   2
HETATM    2  C6  UNL     1       8.401 -16.424   0.838  1.00  0.00     0.203 C 
BRANCH   2   3
HETATM    3  C5  UNL     1       8.466 -17.203  -0.412  1.00  0.00     0.119 C 
BRANCH   3   4
HETATM    4  N1  UNL     1       7.576 -16.864  -1.440  1.00  0.00    -0.262 N 
BRANCH   4   5
HETATM    5  C4  UNL     1       6.199 -16.778  -1.229  1.00  0.00     0.085 C 
BRANCH   5   6
HETATM    6  C2  UNL     1       5.543 -18.022  -0.644  1.00  0.00     0.017 C 
HETATM    7  C1  UNL     1       4.595 -17.725   0.482  1.00  0.00     0.015 C 
HETATM    8  C3  UNL     1       4.843 -18.837  -1.707  1.00  0.00     0.015 C 
ENDBRANCH   5   6
ENDBRANCH   4   5
BRANCH   4   9
HETATM    9  S1  UNL     1       8.259 -16.003  -2.724  1.00  0.00     0.267 S 
HETATM   10  O6  UNL     1       8.083 -14.519  -2.437  1.00  0.00    -0.200 OA
HETATM   11  O7  UNL     1       9.746 -16.289  -2.886  1.00  0.00    -0.200 OA
BRANCH   9  12
HETATM   12  C22 UNL     1       7.497 -16.325  -4.277  1.00  0.00     0.080 A 
HETATM   13  C23 UNL     1       7.435 -15.398  -5.295  1.00  0.00     0.027 A 
HETATM   14  C24 UNL     1       6.827 -15.673  -6.505  1.00  0.00     0.028 A 
HETATM   15  C25 UNL     1       6.251 -16.902  -6.742  1.00  0.00     0.046 A 
HETATM   16  N3  UNL     1       5.616 -17.192  -8.001  1.00  0.00    -0.102 NA
HETATM   17  C26 UNL     1       6.303 -17.840  -5.735  1.00  0.00     0.028 A 
HETATM   18  C27 UNL     1       6.911 -17.561  -4.532  1.00  0.00     0.027 A 
ENDBRANCH   9  12
ENDBRANCH   4   9
ENDBRANCH   3   4
ENDBRANCH   2   3
BRANCH   2  19
HETATM   19  O1  UNL     1       7.971 -17.292   1.871  1.00  0.00    -0.385 OA
ATOM     20  H1  UNL     1       8.738 -17.718   2.235  1.00  0.00     0.211 HD
ENDBRANCH   2  19
ENDBRANCH   1   2
BRANCH   1  21
HETATM   21  C8  UNL     1      10.814 -15.982   0.297  1.00  0.00     0.094 C 
BRANCH  21  22
HETATM   22  C9  UNL     1      11.573 -14.762   0.027  1.00  0.00    -0.053 A 
HETATM   23  C10 UNL     1      12.825 -14.607   0.623  1.00  0.00     0.007 A 
HETATM   24  C11 UNL     1      13.612 -13.497   0.469  1.00  0.00     0.001 A 
HETATM   25  C12 UNL     1      13.147 -12.463  -0.323  1.00  0.00     0.000 A 
HETATM   26  C13 UNL     1      11.920 -12.569  -0.930  1.00  0.00     0.001 A 
HETATM   27  C14 UNL     1      11.146 -13.726  -0.744  1.00  0.00     0.007 A 
ENDBRANCH  21  22
ENDBRANCH   1  21
BRANCH   1  28
HETATM   28  N2  UNL     1      10.020 -16.075   2.669  1.00  0.00    -0.307 N 
HETATM   29  C15 UNL     1      10.343 -15.064   3.608  1.00  0.00     0.365 C 
HETATM   30  O2  UNL     1      10.376 -13.880   3.253  1.00  0.00    -0.238 OA
ATOM     31  H2  UNL     1      10.009 -17.039   3.001  1.00  0.00     0.170 HD
BRANCH  29  32
HETATM   32  O3  UNL     1      10.627 -15.383   4.940  1.00  0.00    -0.296 OA
BRANCH  32  33
HETATM   33  C16 UNL     1       9.674 -15.169   5.969  1.00  0.00     0.166 C 
HETATM   34  C17 UNL     1       9.656 -16.284   6.961  1.00  0.00     0.204 C 
HETATM   35  O4  UNL     1       9.600 -15.762   8.226  1.00  0.00    -0.358 OA
HETATM   36  C18 UNL     1       9.576 -14.378   8.152  1.00  0.00     0.266 C 
HETATM   37  O5  UNL     1      10.425 -13.772   9.069  1.00  0.00    -0.361 OA
HETATM   38  C21 UNL     1      10.176 -14.013   6.810  1.00  0.00     0.075 C 
HETATM   39  C19 UNL     1      11.717 -13.880   8.613  1.00  0.00     0.171 C 
HETATM   40  C20 UNL     1      11.641 -14.070   7.094  1.00  0.00     0.038 C 
ENDBRANCH  32  33
ENDBRANCH  29  32
ENDBRANCH   1  28
TORSDOF 13
ENDMDL
