MODEL 3
REMARK VINA RESULT: -9.394415626      2.793      7.892
REMARK  13 active torsions:
REMARK  status: ('A' for Active; 'I' for Inactive)
REMARK    1  A    between atoms: C2_2  and  C4_4 
REMARK    2  A    between atoms: C4_4  and  N1_5 
REMARK    3  A    between atoms: N1_5  and  C5_6 
REMARK    4  A    between atoms: N1_5  and  S1_31 
REMARK    5  A    between atoms: C5_6  and  C6_7 
REMARK    6  A    between atoms: C6_7  and  O1_8 
REMARK    7  A    between atoms: C6_7  and  C7_10 
REMARK    8  A    between atoms: C7_10  and  C8_11 
REMARK    9  A    between atoms: C7_10  and  N2_18 
REMARK   10  A    between atoms: C8_11  and  C9_12 
REMARK       I    between atoms: N2_18  and  C15_20 
REMARK   11  A    between atoms: C15_20  and  O3_22 
REMARK   12  A    between atoms: O3_22  and  C16_23 
REMARK   13  A    between atoms: S1_31  and  C22_34 
ROOT
HETATM    1  C7  UNL     1       9.044 -14.932  -2.060  1.00  0.00     0.029 C 
ENDROOT
BRANCH   1   2
HETATM    2  C6  UNL     1       8.389 -15.301  -3.367  1.00  0.00     0.203 C 
BRANCH   2   3
HETATM    3  C5  UNL     1       7.864 -16.676  -3.445  1.00  0.00     0.119 C 
BRANCH   3   4
HETATM    4  N1  UNL     1       7.037 -16.999  -4.530  1.00  0.00    -0.262 N 
BRANCH   4   5
HETATM    5  C4  UNL     1       7.539 -17.153  -5.823  1.00  0.00     0.085 C 
BRANCH   5   6
HETATM    6  C2  UNL     1       7.584 -15.886  -6.668  1.00  0.00     0.017 C 
HETATM    7  C1  UNL     1       8.841 -15.753  -7.479  1.00  0.00     0.015 C 
HETATM    8  C3  UNL     1       6.375 -15.772  -7.567  1.00  0.00     0.015 C 
ENDBRANCH   5   6
ENDBRANCH   4   5
BRANCH   4   9
HETATM    9  S1  UNL     1       5.586 -17.764  -4.123  1.00  0.00     0.267 S 
HETATM   10  O6  UNL     1       4.469 -17.095  -4.910  1.00  0.00    -0.200 OA
HETATM   11  O7  UNL     1       5.598 -19.246  -4.468  1.00  0.00    -0.200 OA
BRANCH   9  12
HETATM   12  C22 UNL     1       5.171 -17.632  -2.418  1.00  0.00     0.080 A 
HETATM   13  C23 UNL     1       5.376 -18.649  -1.510  1.00  0.00     0.027 A 
HETATM   14  C24 UNL     1       5.037 -18.524  -0.176  1.00  0.00     0.028 A 
HETATM   15  C25 UNL     1       4.473 -17.361   0.303  1.00  0.00     0.046 A 
HETATM   16  N3  UNL     1       4.118 -17.227   1.691  1.00  0.00    -0.102 NA
HETATM   17  C26 UNL     1       4.261 -16.335  -0.591  1.00  0.00     0.028 A 
HETATM   18  C27 UNL     1       4.601 -16.465  -1.918  1.00  0.00     0.027 A 
ENDBRANCH   9  12
ENDBRANCH   4   9
ENDBRANCH   3   4
ENDBRANCH   2   3
BRANCH   2  19
HETATM   19  O1  UNL     1       7.299 -14.408  -3.509  1.00  0.00    -0.385 OA
ATOM     20  H1  UNL     1       6.980 -14.195  -2.640  1.00  0.00     0.211 HD
ENDBRANCH   2  19
ENDBRANCH   1   2
BRANCH   1  21
HETATM   21  C8  UNL     1      10.543 -15.048  -2.100  1.00  0.00     0.094 C 
BRANCH  21  22
HETATM   22  C9  UNL     1      11.258 -14.381  -1.012  1.00  0.00    -0.053 A 
HETATM   23  C10 UNL     1      11.201 -12.990  -0.927  1.00  0.00     0.007 A 
HETATM   24  C11 UNL     1      11.853 -12.256   0.027  1.00  0.00     0.001 A 
HETATM   25  C12 UNL     1      12.615 -12.924   0.968  1.00  0.00     0.000 A 
HETATM   26  C13 UNL     1      12.702 -14.293   0.925  1.00  0.00     0.001 A 
HETATM   27  C14 UNL     1      12.017 -15.007  -0.072  1.00  0.00     0.007 A 
ENDBRANCH  21  22
ENDBRANCH   1  21
BRANCH   1  28
HETATM   28  N2  UNL     1       8.369 -15.356  -0.899  1.00  0.00    -0.307 N 
HETATM   29  C15 UNL     1       7.760 -14.497   0.049  1.00  0.00     0.365 C 
HETATM   30  O2  UNL     1       7.806 -13.271  -0.110  1.00  0.00    -0.238 OA
ATOM     31  H2  UNL     1       8.313 -16.360  -0.727  1.00  0.00     0.170 HD
BRANCH  29  32
HETATM   32  O3  UNL     1       7.103 -15.012   1.171  1.00  0.00    -0.296 OA
BRANCH  32  33
HETATM   33  C16 UNL     1       7.703 -16.009   1.983  1.00  0.00     0.166 C 
HETATM   34  C17 UNL     1       8.954 -16.552   1.377  1.00  0.00     0.204 C 
HETATM   35  O4  UNL     1       9.917 -16.657   2.345  1.00  0.00    -0.358 OA
HETATM   36  C18 UNL     1       9.399 -16.225   3.556  1.00  0.00     0.266 C 
HETATM   37  O5  UNL     1      10.271 -15.398   4.254  1.00  0.00    -0.361 OA
HETATM   38  C21 UNL     1       8.233 -15.317   3.222  1.00  0.00     0.075 C 
HETATM   39  C19 UNL     1      10.251 -14.150   3.679  1.00  0.00     0.171 C 
HETATM   40  C20 UNL     1       8.915 -14.019   2.939  1.00  0.00     0.038 C 
ENDBRANCH  32  33
ENDBRANCH  29  32
ENDBRANCH   1  28
TORSDOF 13
ENDMDL
