MODEL 2
REMARK VINA RESULT: -9.397967897      1.652      2.106
REMARK  13 active torsions:
REMARK  status: ('A' for Active; 'I' for Inactive)
REMARK    1  A    between atoms: C2_2  and  C4_4 
REMARK    2  A    between atoms: C4_4  and  N1_5 
REMARK    3  A    between atoms: N1_5  and  C5_6 
REMARK    4  A    between atoms: N1_5  and  S1_31 
REMARK    5  A    between atoms: C5_6  and  C6_7 
REMARK    6  A    between atoms: C6_7  and  O1_8 
REMARK    7  A    between atoms: C6_7  and  C7_10 
REMARK    8  A    between atoms: C7_10  and  C8_11 
REMARK    9  A    between atoms: C7_10  and  N2_18 
REMARK   10  A    between atoms: C8_11  and  C9_12 
REMARK       I    between atoms: N2_18  and  C15_20 
REMARK   11  A    between atoms: C15_20  and  O3_22 
REMARK   12  A    between atoms: O3_22  and  C16_23 
REMARK   13  A    between atoms: S1_31  and  C22_34 
ROOT
HETATM    1  C7  UNL     1       8.939 -16.078   0.588  1.00  0.00     0.029 C 
ENDROOT
BRANCH   1   2
HETATM    2  C6  UNL     1      10.370 -16.314   1.000  1.00  0.00     0.203 C 
BRANCH   2   3
HETATM    3  C5  UNL     1      10.643 -16.178   2.443  1.00  0.00     0.119 C 
BRANCH   3   4
HETATM    4  N1  UNL     1      10.650 -14.887   2.987  1.00  0.00    -0.262 N 
BRANCH   4   5
HETATM    5  C4  UNL     1      11.054 -13.774   2.248  1.00  0.00     0.085 C 
BRANCH   5   6
HETATM    6  C2  UNL     1      12.546 -13.468   2.281  1.00  0.00     0.017 C 
HETATM    7  C1  UNL     1      13.269 -13.883   1.031  1.00  0.00     0.015 C 
HETATM    8  C3  UNL     1      12.811 -12.009   2.570  1.00  0.00     0.015 C 
ENDBRANCH   5   6
ENDBRANCH   4   5
BRANCH   4   9
HETATM    9  S1  UNL     1       9.616 -14.658   4.304  1.00  0.00     0.267 S 
HETATM   10  O6  UNL     1       8.668 -13.519   3.962  1.00  0.00    -0.200 OA
HETATM   11  O7  UNL     1       8.787 -15.899   4.610  1.00  0.00    -0.200 OA
BRANCH   9  12
HETATM   12  C22 UNL     1      10.448 -14.213   5.789  1.00  0.00     0.080 A 
HETATM   13  C23 UNL     1      11.787 -13.886   5.836  1.00  0.00     0.027 A 
HETATM   14  C24 UNL     1      12.420 -13.544   7.016  1.00  0.00     0.028 A 
HETATM   15  C25 UNL     1      11.726 -13.515   8.206  1.00  0.00     0.046 A 
HETATM   16  N3  UNL     1      12.383 -13.160   9.437  1.00  0.00    -0.102 NA
HETATM   17  C26 UNL     1      10.389 -13.840   8.178  1.00  0.00     0.028 A 
HETATM   18  C27 UNL     1       9.763 -14.180   6.999  1.00  0.00     0.027 A 
ENDBRANCH   9  12
ENDBRANCH   4   9
ENDBRANCH   3   4
ENDBRANCH   2   3
BRANCH   2  19
HETATM   19  O1  UNL     1      10.657 -17.650   0.626  1.00  0.00    -0.385 OA
ATOM     20  H1  UNL     1      11.506 -17.878   0.986  1.00  0.00     0.211 HD
ENDBRANCH   2  19
ENDBRANCH   1   2
BRANCH   1  21
HETATM   21  C8  UNL     1       7.952 -16.859   1.412  1.00  0.00     0.094 C 
BRANCH  21  22
HETATM   22  C9  UNL     1       6.656 -17.105   0.780  1.00  0.00    -0.053 A 
HETATM   23  C10 UNL     1       5.649 -16.150   0.926  1.00  0.00     0.007 A 
HETATM   24  C11 UNL     1       4.389 -16.284   0.408  1.00  0.00     0.001 A 
HETATM   25  C12 UNL     1       4.086 -17.430  -0.304  1.00  0.00     0.000 A 
HETATM   26  C13 UNL     1       5.045 -18.399  -0.474  1.00  0.00     0.001 A 
HETATM   27  C14 UNL     1       6.325 -18.220   0.075  1.00  0.00     0.007 A 
ENDBRANCH  21  22
ENDBRANCH   1  21
BRANCH   1  28
HETATM   28  N2  UNL     1       8.716 -15.966  -0.799  1.00  0.00    -0.307 N 
HETATM   29  C15 UNL     1       8.489 -14.751  -1.491  1.00  0.00     0.365 C 
HETATM   30  O2  UNL     1       8.469 -13.681  -0.871  1.00  0.00    -0.238 OA
ATOM     31  H2  UNL     1       8.718 -16.826  -1.347  1.00  0.00     0.170 HD
BRANCH  29  32
HETATM   32  O3  UNL     1       8.284 -14.738  -2.874  1.00  0.00    -0.296 OA
BRANCH  32  33
HETATM   33  C16 UNL     1       8.685 -15.827  -3.689  1.00  0.00     0.166 C 
HETATM   34  C17 UNL     1       7.643 -16.893  -3.759  1.00  0.00     0.204 C 
HETATM   35  O4  UNL     1       7.517 -17.318  -5.055  1.00  0.00    -0.358 OA
HETATM   36  C18 UNL     1       8.400 -16.614  -5.857  1.00  0.00     0.266 C 
HETATM   37  O5  UNL     1       7.825 -16.179  -7.045  1.00  0.00    -0.361 OA
HETATM   38  C21 UNL     1       8.715 -15.328  -5.120  1.00  0.00     0.075 C 
HETATM   39  C19 UNL     1       7.032 -15.090  -6.779  1.00  0.00     0.171 C 
HETATM   40  C20 UNL     1       7.549 -14.466  -5.479  1.00  0.00     0.038 C 
ENDBRANCH  32  33
ENDBRANCH  29  32
ENDBRANCH   1  28
TORSDOF 13
ENDMDL
