MODEL 1
REMARK VINA RESULT: -9.430721142      0.000      0.000
REMARK  13 active torsions:
REMARK  status: ('A' for Active; 'I' for Inactive)
REMARK    1  A    between atoms: C2_2  and  C4_4 
REMARK    2  A    between atoms: C4_4  and  N1_5 
REMARK    3  A    between atoms: N1_5  and  C5_6 
REMARK    4  A    between atoms: N1_5  and  S1_31 
REMARK    5  A    between atoms: C5_6  and  C6_7 
REMARK    6  A    between atoms: C6_7  and  O1_8 
REMARK    7  A    between atoms: C6_7  and  C7_10 
REMARK    8  A    between atoms: C7_10  and  C8_11 
REMARK    9  A    between atoms: C7_10  and  N2_18 
REMARK   10  A    between atoms: C8_11  and  C9_12 
REMARK       I    between atoms: N2_18  and  C15_20 
REMARK   11  A    between atoms: C15_20  and  O3_22 
REMARK   12  A    between atoms: O3_22  and  C16_23 
REMARK   13  A    between atoms: S1_31  and  C22_34 
ROOT
HETATM    1  C7  UNL     1       8.846 -16.186  -0.079  1.00  0.00     0.029 C 
ENDROOT
BRANCH   1   2
HETATM    2  C6  UNL     1      10.269 -16.664   0.051  1.00  0.00     0.203 C 
BRANCH   2   3
HETATM    3  C5  UNL     1      10.927 -16.354   1.333  1.00  0.00     0.119 C 
BRANCH   3   4
HETATM    4  N1  UNL     1      11.557 -15.108   1.459  1.00  0.00    -0.262 N 
BRANCH   4   5
HETATM    5  C4  UNL     1      12.446 -14.626   0.497  1.00  0.00     0.085 C 
BRANCH   5   6
HETATM    6  C2  UNL     1      11.942 -13.455  -0.337  1.00  0.00     0.017 C 
HETATM    7  C1  UNL     1      12.977 -12.388  -0.555  1.00  0.00     0.015 C 
HETATM    8  C3  UNL     1      11.386 -13.913  -1.665  1.00  0.00     0.015 C 
ENDBRANCH   5   6
ENDBRANCH   4   5
BRANCH   4   9
HETATM    9  S1  UNL     1      10.763 -14.002   2.461  1.00  0.00     0.267 S 
HETATM   10  O6  UNL     1      11.661 -12.783   2.615  1.00  0.00    -0.200 OA
HETATM   11  O7  UNL     1       9.431 -13.549   1.880  1.00  0.00    -0.200 OA
BRANCH   9  12
HETATM   12  C22 UNL     1      10.441 -14.616   4.078  1.00  0.00     0.080 A 
HETATM   13  C23 UNL     1       9.253 -15.218   4.435  1.00  0.00     0.027 A 
HETATM   14  C24 UNL     1       9.021 -15.688   5.714  1.00  0.00     0.028 A 
HETATM   15  C25 UNL     1       9.984 -15.572   6.693  1.00  0.00     0.046 A 
HETATM   16  N3  UNL     1       9.746 -16.061   8.026  1.00  0.00    -0.102 NA
HETATM   17  C26 UNL     1      11.176 -14.974   6.354  1.00  0.00     0.028 A 
HETATM   18  C27 UNL     1      11.402 -14.507   5.079  1.00  0.00     0.027 A 
ENDBRANCH   9  12
ENDBRANCH   4   9
ENDBRANCH   3   4
ENDBRANCH   2   3
BRANCH   2  19
HETATM   19  O1  UNL     1      10.209 -18.073  -0.079  1.00  0.00    -0.385 OA
ATOM     20  H1  UNL     1       9.397 -18.292  -0.521  1.00  0.00     0.211 HD
ENDBRANCH   2  19
ENDBRANCH   1   2
BRANCH   1  21
HETATM   21  C8  UNL     1       7.965 -16.647   1.049  1.00  0.00     0.094 C 
BRANCH  21  22
HETATM   22  C9  UNL     1       6.594 -16.998   0.677  1.00  0.00    -0.053 A 
HETATM   23  C10 UNL     1       5.575 -16.081   0.935  1.00  0.00     0.007 A 
HETATM   24  C11 UNL     1       4.254 -16.311   0.660  1.00  0.00     0.001 A 
HETATM   25  C12 UNL     1       3.898 -17.522   0.093  1.00  0.00     0.000 A 
HETATM   26  C13 UNL     1       4.866 -18.456  -0.178  1.00  0.00     0.001 A 
HETATM   27  C14 UNL     1       6.210 -18.178   0.120  1.00  0.00     0.007 A 
ENDBRANCH  21  22
ENDBRANCH   1  21
BRANCH   1  28
HETATM   28  N2  UNL     1       8.320 -16.186  -1.386  1.00  0.00    -0.307 N 
HETATM   29  C15 UNL     1       7.947 -15.030  -2.115  1.00  0.00     0.365 C 
HETATM   30  O2  UNL     1       8.069 -13.912  -1.602  1.00  0.00    -0.238 OA
ATOM     31  H2  UNL     1       8.198 -17.090  -1.843  1.00  0.00     0.170 HD
BRANCH  29  32
HETATM   32  O3  UNL     1       7.439 -15.130  -3.414  1.00  0.00    -0.296 OA
BRANCH  32  33
HETATM   33  C16 UNL     1       7.368 -16.379  -4.084  1.00  0.00     0.166 C 
HETATM   34  C17 UNL     1       6.174 -16.473  -4.974  1.00  0.00     0.204 C 
HETATM   35  O4  UNL     1       6.545 -17.029  -6.170  1.00  0.00    -0.358 OA
HETATM   36  C18 UNL     1       7.900 -17.315  -6.143  1.00  0.00     0.266 C 
HETATM   37  O5  UNL     1       8.557 -16.939  -7.308  1.00  0.00    -0.361 OA
HETATM   38  C21 UNL     1       8.505 -16.416  -5.084  1.00  0.00     0.075 C 
HETATM   39  C19 UNL     1       8.736 -15.577  -7.294  1.00  0.00     0.171 C 
HETATM   40  C20 UNL     1       8.691 -15.134  -5.828  1.00  0.00     0.038 C 
ENDBRANCH  32  33
ENDBRANCH  29  32
ENDBRANCH   1  28
TORSDOF 13
ENDMDL
