MODEL 6
REMARK VINA RESULT: -9.329288626      2.297      9.321
REMARK  13 active torsions:
REMARK  status: ('A' for Active; 'I' for Inactive)
REMARK    1  A    between atoms: C2_2  and  C4_4 
REMARK    2  A    between atoms: C4_4  and  N1_5 
REMARK    3  A    between atoms: N1_5  and  C5_6 
REMARK    4  A    between atoms: N1_5  and  S1_31 
REMARK    5  A    between atoms: C5_6  and  C6_7 
REMARK    6  A    between atoms: C6_7  and  O1_8 
REMARK    7  A    between atoms: C6_7  and  C7_10 
REMARK    8  A    between atoms: C7_10  and  C8_11 
REMARK    9  A    between atoms: C7_10  and  N2_18 
REMARK   10  A    between atoms: C8_11  and  C9_12 
REMARK       I    between atoms: N2_18  and  C15_20 
REMARK   11  A    between atoms: C15_20  and  O3_22 
REMARK   12  A    between atoms: O3_22  and  C16_23 
REMARK   13  A    between atoms: S1_31  and  C22_34 
ROOT
HETATM    1  C7  UNL     1       9.527 -15.867   0.403  1.00  0.00     0.029 C 
ENDROOT
BRANCH   1   2
HETATM    2  C6  UNL     1       9.228 -17.330   0.193  1.00  0.00     0.203 C 
BRANCH   2   3
HETATM    3  C5  UNL     1       8.607 -17.669  -1.100  1.00  0.00     0.119 C 
BRANCH   3   4
HETATM    4  N1  UNL     1       7.213 -17.565  -1.203  1.00  0.00    -0.262 N 
BRANCH   4   5
HETATM    5  C4  UNL     1       6.357 -18.103  -0.242  1.00  0.00     0.085 C 
BRANCH   5   6
HETATM    6  C2  UNL     1       5.546 -17.092   0.559  1.00  0.00     0.017 C 
HETATM    7  C1  UNL     1       4.131 -17.527   0.813  1.00  0.00     0.015 C 
HETATM    8  C3  UNL     1       6.221 -16.742   1.865  1.00  0.00     0.015 C 
ENDBRANCH   5   6
ENDBRANCH   4   5
BRANCH   4   9
HETATM    9  S1  UNL     1       6.659 -16.290  -2.165  1.00  0.00     0.267 S 
HETATM   10  O6  UNL     1       5.168 -16.491  -2.393  1.00  0.00    -0.200 OA
HETATM   11  O7  UNL     1       6.867 -14.935  -1.504  1.00  0.00    -0.200 OA
BRANCH   9  12
HETATM   12  C22 UNL     1       7.421 -16.216  -3.749  1.00  0.00     0.080 A 
HETATM   13  C23 UNL     1       8.454 -15.353  -4.051  1.00  0.00     0.027 A 
HETATM   14  C24 UNL     1       9.033 -15.309  -5.305  1.00  0.00     0.028 A 
HETATM   15  C25 UNL     1       8.595 -16.139  -6.314  1.00  0.00     0.046 A 
HETATM   16  N3  UNL     1       9.196 -16.096  -7.622  1.00  0.00    -0.102 NA
HETATM   17  C26 UNL     1       7.564 -17.006  -6.030  1.00  0.00     0.028 A 
HETATM   18  C27 UNL     1       6.991 -17.046  -4.779  1.00  0.00     0.027 A 
ENDBRANCH   9  12
ENDBRANCH   4   9
ENDBRANCH   3   4
ENDBRANCH   2   3
BRANCH   2  19
HETATM   19  O1  UNL     1      10.480 -17.987   0.262  1.00  0.00    -0.385 OA
ATOM     20  H1  UNL     1      10.502 -18.491   1.067  1.00  0.00     0.211 HD
ENDBRANCH   2  19
ENDBRANCH   1   2
BRANCH   1  21
HETATM   21  C8  UNL     1      10.315 -15.260  -0.725  1.00  0.00     0.094 C 
BRANCH  21  22
HETATM   22  C9  UNL     1      11.349 -14.304  -0.330  1.00  0.00    -0.053 A 
HETATM   23  C10 UNL     1      11.101 -12.941  -0.499  1.00  0.00     0.007 A 
HETATM   24  C11 UNL     1      12.003 -11.957  -0.196  1.00  0.00     0.001 A 
HETATM   25  C12 UNL     1      13.236 -12.325   0.310  1.00  0.00     0.000 A 
HETATM   26  C13 UNL     1      13.527 -13.654   0.494  1.00  0.00     0.001 A 
HETATM   27  C14 UNL     1      12.572 -14.631   0.168  1.00  0.00     0.007 A 
ENDBRANCH  21  22
ENDBRANCH   1  21
BRANCH   1  28
HETATM   28  N2  UNL     1       9.847 -15.494   1.723  1.00  0.00    -0.307 N 
HETATM   29  C15 UNL     1       9.160 -14.515   2.483  1.00  0.00     0.365 C 
HETATM   30  O2  UNL     1       8.202 -13.910   1.987  1.00  0.00    -0.238 OA
ATOM     31  H2  UNL     1      10.635 -15.966   2.167  1.00  0.00     0.170 HD
BRANCH  29  32
HETATM   32  O3  UNL     1       9.547 -14.218   3.793  1.00  0.00    -0.296 OA
BRANCH  32  33
HETATM   33  C16 UNL     1      10.110 -15.208   4.639  1.00  0.00     0.166 C 
HETATM   34  C17 UNL     1      11.538 -14.924   4.967  1.00  0.00     0.204 C 
HETATM   35  O4  UNL     1      11.748 -15.147   6.301  1.00  0.00    -0.358 OA
HETATM   36  C18 UNL     1      10.564 -15.562   6.890  1.00  0.00     0.266 C 
HETATM   37  O5  UNL     1      10.313 -14.934   8.104  1.00  0.00    -0.361 OA
HETATM   38  C21 UNL     1       9.447 -15.069   5.994  1.00  0.00     0.075 C 
HETATM   39  C19 UNL     1       9.868 -13.658   7.858  1.00  0.00     0.171 C 
HETATM   40  C20 UNL     1       9.286 -13.652   6.440  1.00  0.00     0.038 C 
ENDBRANCH  32  33
ENDBRANCH  29  32
ENDBRANCH   1  28
TORSDOF 13
ENDMDL
