MODEL 2
REMARK VINA RESULT: -7.024730957      3.359      4.981
REMARK  8 active torsions:
REMARK  status: ('A' for Active; 'I' for Inactive)
REMARK    1  A    between atoms: N4_10  and  C5_11 
REMARK    2  A    between atoms: C6_13  and  C7_14 
REMARK    3  A    between atoms: C7_14  and  O2_15 
REMARK    4  A    between atoms: O2_15  and  P1_16 
REMARK    5  A    between atoms: P1_16  and  O5_19 
REMARK    6  A    between atoms: O5_19  and  P2_20 
REMARK    7  A    between atoms: C8_24  and  O9_25 
REMARK    8  A    between atoms: C9_27  and  O10_28 
ROOT
HETATM    1  C5  UNL     1     -24.105  -7.722   7.718  1.00  0.00     0.262 C 
HETATM    2  O1  UNL     1     -24.106  -8.077   6.370  1.00  0.00    -0.353 OA
HETATM    3  C6  UNL     1     -25.204  -8.851   6.132  1.00  0.00     0.180 C 
HETATM    4  C8  UNL     1     -26.299  -8.440   7.079  1.00  0.00     0.182 C 
HETATM    5  C9  UNL     1     -25.552  -7.553   8.055  1.00  0.00     0.198 C 
ENDROOT
BRANCH   1   6
HETATM    6  N4  UNL     1     -23.363  -6.466   7.796  1.00  0.00    -0.297 N 
HETATM    7  C2  UNL     1     -22.011  -6.381   7.875  1.00  0.00     0.146 A 
HETATM    8  N2  UNL     1     -21.050  -7.324   7.904  1.00  0.00    -0.314 N 
HETATM    9  C3  UNL     1     -21.721  -5.027   7.929  1.00  0.00     0.146 A 
HETATM   10  C1  UNL     1     -19.783  -6.929   7.987  1.00  0.00     0.196 A 
ATOM     11  H2  UNL     1     -21.287  -8.315   7.863  1.00  0.00     0.170 HD
HETATM   12  N1  UNL     1     -18.755  -7.907   8.018  1.00  0.00    -0.063 NA
HETATM   13  N5  UNL     1     -19.451  -5.623   8.042  1.00  0.00    -0.295 N 
HETATM   14  C10 UNL     1     -20.390  -4.658   8.015  1.00  0.00     0.278 A 
ATOM     15  H5  UNL     1     -18.467  -5.360   8.104  1.00  0.00     0.171 HD
HETATM   16  O11 UNL     1     -20.074  -3.421   8.068  1.00  0.00    -0.265 OA
HETATM   17  N3  UNL     1     -22.872  -4.308   7.883  1.00  0.00    -0.345 N 
HETATM   18  C4  UNL     1     -23.869  -5.207   7.802  1.00  0.00     0.188 A 
ATOM     19  H3  UNL     1     -22.962  -3.292   7.906  1.00  0.00     0.167 HD
ENDBRANCH   1   6
BRANCH   5  20
HETATM   20  O10 UNL     1     -25.861  -8.050   9.339  1.00  0.00    -0.388 OA
ATOM     21  H10 UNL     1     -26.638  -8.596   9.334  1.00  0.00     0.210 HD
ENDBRANCH   5  20
BRANCH   3  22
HETATM   22  C7  UNL     1     -25.731  -8.720   4.730  1.00  0.00     0.216 C 
BRANCH  22  23
HETATM   23  O2  UNL     1     -27.123  -8.715   4.798  1.00  0.00    -0.287 OA
BRANCH  23  24
HETATM   24  P1  UNL     1     -27.952  -9.612   3.851  1.00  0.00     0.418 P 
HETATM   25  O3  UNL     1     -26.893  -9.275   2.631  1.00  0.00    -0.624 OA
HETATM   26  O4  UNL     1     -27.572 -10.888   4.882  1.00  0.00    -0.624 OA
BRANCH  24  27
HETATM   27  O5  UNL     1     -28.642 -10.655   2.957  1.00  0.00    -0.173 OA
BRANCH  27  28
HETATM   28  P2  UNL     1     -30.009 -11.357   3.038  1.00  0.00     0.431 P 
HETATM   29  O6  UNL     1     -31.227 -12.310   3.141  1.00  0.00    -0.616 OA
HETATM   30  O7  UNL     1     -29.426 -12.344   1.822  1.00  0.00    -0.616 OA
HETATM   31  O8  UNL     1     -30.859 -10.047   2.573  1.00  0.00    -0.616 OA
ENDBRANCH  27  28
ENDBRANCH  24  27
ENDBRANCH  23  24
ENDBRANCH  22  23
ENDBRANCH   3  22
BRANCH   4  32
HETATM   32  O9  UNL     1     -26.774  -9.605   7.689  1.00  0.00    -0.390 OA
ATOM     33  H9  UNL     1     -27.713  -9.502   7.793  1.00  0.00     0.210 HD
ENDBRANCH   4  32
TORSDOF 8
ENDMDL
