MODEL 3
REMARK VINA RESULT: -6.996937502      4.385      7.608
REMARK  8 active torsions:
REMARK  status: ('A' for Active; 'I' for Inactive)
REMARK    1  A    between atoms: N4_10  and  C5_11 
REMARK    2  A    between atoms: C6_13  and  C7_14 
REMARK    3  A    between atoms: C7_14  and  O2_15 
REMARK    4  A    between atoms: O2_15  and  P1_16 
REMARK    5  A    between atoms: P1_16  and  O5_19 
REMARK    6  A    between atoms: O5_19  and  P2_20 
REMARK    7  A    between atoms: C8_24  and  O9_25 
REMARK    8  A    between atoms: C9_27  and  O10_28 
ROOT
HETATM    1  C5  UNL     1     -25.681  -8.956   6.178  1.00  0.00     0.262 C 
HETATM    2  O1  UNL     1     -25.930  -8.461   7.457  1.00  0.00    -0.353 OA
HETATM    3  C6  UNL     1     -24.820  -7.791   7.881  1.00  0.00     0.180 C 
HETATM    4  C8  UNL     1     -24.120  -7.211   6.682  1.00  0.00     0.182 C 
HETATM    5  C9  UNL     1     -24.829  -7.907   5.538  1.00  0.00     0.198 C 
ENDROOT
BRANCH   1   6
HETATM    6  N4  UNL     1     -26.989  -9.079   5.539  1.00  0.00    -0.297 N 
HETATM    7  C2  UNL     1     -27.178  -9.184   4.200  1.00  0.00     0.146 A 
HETATM    8  N2  UNL     1     -26.314  -9.204   3.168  1.00  0.00    -0.314 N 
HETATM    9  C3  UNL     1     -28.549  -9.279   4.020  1.00  0.00     0.146 A 
HETATM   10  C1  UNL     1     -26.805  -9.320   1.937  1.00  0.00     0.196 A 
ATOM     11  H2  UNL     1     -25.309  -9.133   3.325  1.00  0.00     0.170 HD
HETATM   12  N1  UNL     1     -25.912  -9.344   0.836  1.00  0.00    -0.063 NA
HETATM   13  N5  UNL     1     -28.132  -9.415   1.711  1.00  0.00    -0.295 N 
HETATM   14  C10 UNL     1     -29.020  -9.398   2.724  1.00  0.00     0.278 A 
ATOM     15  H5  UNL     1     -28.469  -9.503   0.752  1.00  0.00     0.171 HD
HETATM   16  O11 UNL     1     -30.276  -9.488   2.507  1.00  0.00    -0.265 OA
HETATM   17  N3  UNL     1     -29.176  -9.232   5.223  1.00  0.00    -0.345 N 
HETATM   18  C4  UNL     1     -28.203  -9.109   6.144  1.00  0.00     0.188 A 
ATOM     19  H3  UNL     1     -30.181  -9.281   5.394  1.00  0.00     0.167 HD
ENDBRANCH   1   6
BRANCH   5  20
HETATM   20  O10 UNL     1     -23.810  -8.465   4.737  1.00  0.00    -0.388 OA
ATOM     21  H10 UNL     1     -24.056  -8.506   3.821  1.00  0.00     0.210 HD
ENDBRANCH   5  20
BRANCH   3  22
HETATM   22  C7  UNL     1     -25.131  -6.664   8.826  1.00  0.00     0.216 C 
BRANCH  22  23
HETATM   23  O2  UNL     1     -23.954  -5.948   9.036  1.00  0.00    -0.287 OA
BRANCH  23  24
HETATM   24  P1  UNL     1     -23.900  -4.433   8.735  1.00  0.00     0.418 P 
HETATM   25  O3  UNL     1     -25.536  -4.351   8.936  1.00  0.00    -0.624 OA
HETATM   26  O4  UNL     1     -22.938  -4.291  10.110  1.00  0.00    -0.624 OA
BRANCH  24  27
HETATM   27  O5  UNL     1     -23.839  -2.899   8.642  1.00  0.00    -0.173 OA
BRANCH  27  28
HETATM   28  P2  UNL     1     -23.586  -1.935   7.471  1.00  0.00     0.431 P 
HETATM   29  O6  UNL     1     -23.350  -0.754   6.495  1.00  0.00    -0.616 OA
HETATM   30  O7  UNL     1     -24.941  -1.125   8.016  1.00  0.00    -0.616 OA
HETATM   31  O8  UNL     1     -23.822  -3.061   6.317  1.00  0.00    -0.616 OA
ENDBRANCH  27  28
ENDBRANCH  24  27
ENDBRANCH  23  24
ENDBRANCH  22  23
ENDBRANCH   3  22
BRANCH   4  32
HETATM   32  O9  UNL     1     -22.775  -7.586   6.770  1.00  0.00    -0.390 OA
ATOM     33  H9  UNL     1     -22.294  -6.827   7.079  1.00  0.00     0.210 HD
ENDBRANCH   4  32
TORSDOF 8
ENDMDL
