MODEL 1
REMARK VINA RESULT: -7.252146558      0.000      0.000
REMARK  8 active torsions:
REMARK  status: ('A' for Active; 'I' for Inactive)
REMARK    1  A    between atoms: N4_10  and  C5_11 
REMARK    2  A    between atoms: C6_13  and  C7_14 
REMARK    3  A    between atoms: C7_14  and  O2_15 
REMARK    4  A    between atoms: O2_15  and  P1_16 
REMARK    5  A    between atoms: P1_16  and  O5_19 
REMARK    6  A    between atoms: O5_19  and  P2_20 
REMARK    7  A    between atoms: C8_24  and  O9_25 
REMARK    8  A    between atoms: C9_27  and  O10_28 
ROOT
HETATM    1  C5  UNL     1     -26.721  -9.023   7.136  1.00  0.00     0.262 C 
HETATM    2  O1  UNL     1     -27.831  -9.346   6.357  1.00  0.00    -0.353 OA
HETATM    3  C6  UNL     1     -28.951  -9.201   7.124  1.00  0.00     0.180 C 
HETATM    4  C8  UNL     1     -28.700  -8.121   8.143  1.00  0.00     0.182 C 
HETATM    5  C9  UNL     1     -27.203  -7.917   8.020  1.00  0.00     0.198 C 
ENDROOT
BRANCH   1   6
HETATM    6  N4  UNL     1     -25.694  -8.581   6.197  1.00  0.00    -0.297 N 
HETATM    7  C2  UNL     1     -25.826  -8.619   4.847  1.00  0.00     0.146 A 
HETATM    8  N2  UNL     1     -26.832  -9.032   4.052  1.00  0.00    -0.314 N 
HETATM    9  C3  UNL     1     -24.640  -8.115   4.338  1.00  0.00     0.146 A 
HETATM   10  C1  UNL     1     -26.669  -8.948   2.735  1.00  0.00     0.196 A 
ATOM     11  H2  UNL     1     -27.696  -9.400   4.450  1.00  0.00     0.170 HD
HETATM   12  N1  UNL     1     -27.717  -9.377   1.881  1.00  0.00    -0.063 NA
HETATM   13  N5  UNL     1     -25.533  -8.464   2.192  1.00  0.00    -0.295 N 
HETATM   14  C10 UNL     1     -24.511  -8.043   2.962  1.00  0.00     0.278 A 
ATOM     15  H5  UNL     1     -25.447  -8.415   1.177  1.00  0.00     0.171 HD
HETATM   16  O11 UNL     1     -23.435  -7.586   2.445  1.00  0.00    -0.265 OA
HETATM   17  N3  UNL     1     -23.808  -7.778   5.356  1.00  0.00    -0.345 N 
HETATM   18  C4  UNL     1     -24.471  -8.071   6.490  1.00  0.00     0.188 A 
ATOM     19  H3  UNL     1     -22.871  -7.383   5.278  1.00  0.00     0.167 HD
ENDBRANCH   1   6
BRANCH   5  20
HETATM   20  O10 UNL     1     -26.692  -8.023   9.331  1.00  0.00    -0.388 OA
ATOM     21  H10 UNL     1     -27.286  -7.661   9.977  1.00  0.00     0.210 HD
ENDBRANCH   5  20
BRANCH   3  22
HETATM   22  C7  UNL     1     -30.167  -8.814   6.331  1.00  0.00     0.216 C 
BRANCH  22  23
HETATM   23  O2  UNL     1     -29.881  -9.027   4.983  1.00  0.00    -0.287 OA
BRANCH  23  24
HETATM   24  P1  UNL     1     -30.550 -10.191   4.219  1.00  0.00     0.418 P 
HETATM   25  O3  UNL     1     -30.971  -9.139   3.019  1.00  0.00    -0.624 OA
HETATM   26  O4  UNL     1     -29.021 -10.892   4.140  1.00  0.00    -0.624 OA
BRANCH  24  27
HETATM   27  O5  UNL     1     -31.037 -11.365   3.354  1.00  0.00    -0.173 OA
BRANCH  27  28
HETATM   28  P2  UNL     1     -30.296 -12.466   2.577  1.00  0.00     0.431 P 
HETATM   29  O6  UNL     1     -29.630 -13.424   1.556  1.00  0.00    -0.616 OA
HETATM   30  O7  UNL     1     -31.699 -12.598   1.681  1.00  0.00    -0.616 OA
HETATM   31  O8  UNL     1     -30.150 -13.460   3.860  1.00  0.00    -0.616 OA
ENDBRANCH  27  28
ENDBRANCH  24  27
ENDBRANCH  23  24
ENDBRANCH  22  23
ENDBRANCH   3  22
BRANCH   4  32
HETATM   32  O9  UNL     1     -29.055  -8.644   9.390  1.00  0.00    -0.390 OA
ATOM     33  H9  UNL     1     -29.102  -7.912   9.995  1.00  0.00     0.210 HD
ENDBRANCH   4  32
TORSDOF 8
ENDMDL
