MODEL 7
REMARK VINA RESULT: -4.240025307      6.202      6.823
REMARK  1 active torsions:
REMARK  status: ('A' for Active; 'I' for Inactive)
REMARK    1  A    between atoms: O1_1  and  N1_3 
ROOT
HETATM    1  N1  UNL     1      16.900   3.787  11.110  1.00  0.00    -0.250 N 
HETATM    2  C1  UNL     1      17.328   5.113  10.822  1.00  0.00     0.184 A 
HETATM    3  C2  UNL     1      18.780   5.237  10.737  1.00  0.00    -0.005 A 
HETATM    4  C3  UNL     1      19.574   4.212  10.913  1.00  0.00     0.001 A 
HETATM    5  C4  UNL     1      19.095   2.866  11.207  1.00  0.00     0.039 A 
HETATM    6  C5  UNL     1      17.784   2.712  11.293  1.00  0.00     0.104 A 
HETATM    7  S1  UNL     1      17.111   1.083  11.652  1.00  0.00    -0.031 SA
ENDROOT
BRANCH   1   8
HETATM    8  O1  UNL     1      15.540   3.548  11.215  1.00  0.00    -0.286 OA
ATOM      9  H1  UNL     1      15.239   2.973  11.908  1.00  0.00     0.244 HD
ENDBRANCH   1   8
TORSDOF 1
ENDMDL
