MODEL 6
REMARK VINA RESULT: -4.465600640      5.966      6.392
REMARK  1 active torsions:
REMARK  status: ('A' for Active; 'I' for Inactive)
REMARK    1  A    between atoms: O1_1  and  N1_3 
ROOT
HETATM    1  N1  UNL     1      16.603   3.251  11.141  1.00  0.00    -0.250 N 
HETATM    2  C1  UNL     1      16.782   1.845  11.008  1.00  0.00     0.184 A 
HETATM    3  C2  UNL     1      18.187   1.453  10.954  1.00  0.00    -0.005 A 
HETATM    4  C3  UNL     1      19.155   2.331  11.025  1.00  0.00     0.001 A 
HETATM    5  C4  UNL     1      18.929   3.766  11.162  1.00  0.00     0.039 A 
HETATM    6  C5  UNL     1      17.668   4.162  11.214  1.00  0.00     0.104 A 
HETATM    7  S1  UNL     1      17.303   5.916  11.382  1.00  0.00    -0.031 SA
ENDROOT
BRANCH   1   8
HETATM    8  O1  UNL     1      15.309   3.741  11.203  1.00  0.00    -0.286 OA
ATOM      9  H1  UNL     1      14.870   3.738  12.045  1.00  0.00     0.244 HD
ENDBRANCH   1   8
TORSDOF 1
ENDMDL
