MODEL 17
REMARK VINA RESULT: -3.923829707      2.489      3.495
REMARK  1 active torsions:
REMARK  status: ('A' for Active; 'I' for Inactive)
REMARK    1  A    between atoms: O1_1  and  N1_3 
ROOT
HETATM    1  N1  UNL     1      16.342   4.824  14.303  1.00  0.00    -0.250 N 
HETATM    2  C1  UNL     1      16.325   6.000  13.500  1.00  0.00     0.184 A 
HETATM    3  C2  UNL     1      15.549   7.084  14.095  1.00  0.00    -0.005 A 
HETATM    4  C3  UNL     1      14.945   6.952  15.248  1.00  0.00     0.001 A 
HETATM    5  C4  UNL     1      14.987   5.728  16.041  1.00  0.00     0.039 A 
HETATM    6  C5  UNL     1      15.681   4.721  15.536  1.00  0.00     0.104 A 
HETATM    7  S1  UNL     1      15.783   3.177  16.452  1.00  0.00    -0.031 SA
ENDROOT
BRANCH   1   8
HETATM    8  O1  UNL     1      17.049   3.728  13.839  1.00  0.00    -0.286 OA
ATOM      9  H1  UNL     1      17.773   3.882  13.244  1.00  0.00     0.244 HD
ENDBRANCH   1   8
TORSDOF 1
ENDMDL
