MODEL 5
REMARK VINA RESULT: -4.578027656      2.030      2.852
REMARK  1 active torsions:
REMARK  status: ('A' for Active; 'I' for Inactive)
REMARK    1  A    between atoms: O1_1  and  N1_3 
ROOT
HETATM    1  N1  UNL     1      15.989   3.468  15.288  1.00  0.00    -0.250 N 
HETATM    2  C1  UNL     1      16.240   4.355  14.204  1.00  0.00     0.184 A 
HETATM    3  C2  UNL     1      15.647   5.674  14.399  1.00  0.00    -0.005 A 
HETATM    4  C3  UNL     1      14.963   5.974  15.474  1.00  0.00     0.001 A 
HETATM    5  C4  UNL     1      14.728   5.035  16.564  1.00  0.00     0.039 A 
HETATM    6  C5  UNL     1      15.249   3.827  16.425  1.00  0.00     0.104 A 
HETATM    7  S1  UNL     1      15.006   2.609  17.726  1.00  0.00    -0.031 SA
ENDROOT
BRANCH   1   8
HETATM    8  O1  UNL     1      16.504   2.185  15.214  1.00  0.00    -0.286 OA
ATOM      9  H1  UNL     1      16.185   1.538  15.832  1.00  0.00     0.244 HD
ENDBRANCH   1   8
TORSDOF 1
ENDMDL
