MODEL 9
REMARK VINA RESULT: -4.124898600      2.344      3.409
REMARK  1 active torsions:
REMARK  status: ('A' for Active; 'I' for Inactive)
REMARK    1  A    between atoms: O1_1  and  N1_3 
ROOT
HETATM    1  N1  UNL     1      16.594   4.826  15.582  1.00  0.00    -0.250 N 
HETATM    2  C1  UNL     1      17.391   5.716  14.809  1.00  0.00     0.184 A 
HETATM    3  C2  UNL     1      16.695   6.954  14.468  1.00  0.00    -0.005 A 
HETATM    4  C3  UNL     1      15.466   7.185  14.852  1.00  0.00     0.001 A 
HETATM    5  C4  UNL     1      14.681   6.246  15.645  1.00  0.00     0.039 A 
HETATM    6  C5  UNL     1      15.277   5.111  15.974  1.00  0.00     0.104 A 
HETATM    7  S1  UNL     1      14.378   3.898  16.952  1.00  0.00    -0.031 SA
ENDROOT
BRANCH   1   8
HETATM    8  O1  UNL     1      17.150   3.618  15.965  1.00  0.00    -0.286 OA
ATOM      9  H1  UNL     1      16.721   2.819  15.682  1.00  0.00     0.244 HD
ENDBRANCH   1   8
TORSDOF 1
ENDMDL
