MODEL 13
REMARK VINA RESULT: -4.008161968      5.333      5.976
REMARK  1 active torsions:
REMARK  status: ('A' for Active; 'I' for Inactive)
REMARK    1  A    between atoms: O1_1  and  N1_3 
ROOT
HETATM    1  N1  UNL     1      18.628   3.540  11.655  1.00  0.00    -0.250 N 
HETATM    2  C1  UNL     1      18.981   2.334  10.985  1.00  0.00     0.184 A 
HETATM    3  C2  UNL     1      17.819   1.552  10.574  1.00  0.00    -0.005 A 
HETATM    4  C3  UNL     1      16.595   1.950  10.813  1.00  0.00     0.001 A 
HETATM    5  C4  UNL     1      16.276   3.194  11.503  1.00  0.00     0.039 A 
HETATM    6  C5  UNL     1      17.302   3.932  11.893  1.00  0.00     0.104 A 
HETATM    7  S1  UNL     1      16.995   5.483  12.751  1.00  0.00    -0.031 SA
ENDROOT
BRANCH   1   8
HETATM    8  O1  UNL     1      19.650   4.366  12.092  1.00  0.00    -0.286 OA
ATOM      9  H1  UNL     1      19.524   5.305  12.028  1.00  0.00     0.244 HD
ENDBRANCH   1   8
TORSDOF 1
ENDMDL
