MODEL 2
REMARK VINA RESULT: -4.988361392      1.959      2.882
REMARK  1 active torsions:
REMARK  status: ('A' for Active; 'I' for Inactive)
REMARK    1  A    between atoms: O1_1  and  N1_3 
ROOT
HETATM    1  N1  UNL     1      16.533   4.167  16.091  1.00  0.00    -0.250 N 
HETATM    2  C1  UNL     1      17.079   5.212  15.294  1.00  0.00     0.184 A 
HETATM    3  C2  UNL     1      16.147   6.317  15.089  1.00  0.00    -0.005 A 
HETATM    4  C3  UNL     1      14.942   6.311  15.600  1.00  0.00     0.001 A 
HETATM    5  C4  UNL     1      14.420   5.219  16.413  1.00  0.00     0.039 A 
HETATM    6  C5  UNL     1      15.235   4.198  16.622  1.00  0.00     0.104 A 
HETATM    7  S1  UNL     1      14.667   2.810  17.615  1.00  0.00    -0.031 SA
ENDROOT
BRANCH   1   8
HETATM    8  O1  UNL     1      17.328   3.064  16.355  1.00  0.00    -0.286 OA
ATOM      9  H1  UNL     1      17.199   2.284  15.828  1.00  0.00     0.244 HD
ENDBRANCH   1   8
TORSDOF 1
ENDMDL
