MODEL 2
REMARK VINA RESULT: -8.749151580      5.068      9.560
REMARK  8 active torsions:
REMARK  status: ('A' for Active; 'I' for Inactive)
REMARK    1  A    between atoms: S1_2  and  C2_5 
REMARK    2  A    between atoms: C7_10  and  C8_11 
REMARK    3  A    between atoms: C11_14  and  N1_15 
REMARK       I    between atoms: N1_15  and  C12_17 
REMARK    4  A    between atoms: C12_17  and  C13_19 
REMARK    5  A    between atoms: C15_21  and  C16_22 
REMARK    6  A    between atoms: N3_28  and  C17_29 
REMARK    7  A    between atoms: C21_33  and  C22_34 
REMARK    8  A    between atoms: C22_34  and  N4_35 
ROOT
HETATM    1  C13 UNL     1      18.836  70.064  21.526  1.00  0.00     0.127 A 
HETATM    2  C14 UNL     1      18.206  71.043  20.775  1.00  0.00     0.073 A 
HETATM    3  C15 UNL     1      16.893  71.158  21.206  1.00  0.00     0.135 A 
HETATM    4  N2  UNL     1      16.758  70.281  22.173  1.00  0.00    -0.289 N 
ATOM      5  H2  UNL     1      15.901  70.121  22.702  1.00  0.00     0.187 HD
HETATM    6  N3  UNL     1      17.926  69.620  22.367  1.00  0.00    -0.251 N 
ENDROOT
BRANCH   1   7
HETATM    7  C12 UNL     1      20.226  69.603  21.404  1.00  0.00     0.274 C 
HETATM    8  N1  UNL     1      20.519  68.499  20.566  1.00  0.00    -0.319 N 
ATOM      9  H1  UNL     1      19.718  68.067  20.104  1.00  0.00     0.169 HD
HETATM   10  O3  UNL     1      21.157  70.145  22.007  1.00  0.00    -0.266 OA
BRANCH   8  11
HETATM   11  C11 UNL     1      21.763  67.924  20.291  1.00  0.00     0.074 A 
HETATM   12  C10 UNL     1      22.343  66.838  20.880  1.00  0.00     0.034 A 
HETATM   13  C9  UNL     1      23.604  66.348  20.579  1.00  0.00     0.014 A 
HETATM   14  C8  UNL     1      24.360  66.955  19.638  1.00  0.00    -0.021 A 
HETATM   15  C25 UNL     1      23.824  68.060  19.005  1.00  0.00     0.057 A 
HETATM   16  C24 UNL     1      22.564  68.540  19.314  1.00  0.00     0.143 A 
HETATM   17  F4  UNL     1      22.044  69.621  18.672  1.00  0.00    -0.204 F 
BRANCH  14  18
HETATM   18  C7  UNL     1      25.644  66.511  19.234  1.00  0.00    -0.004 A 
HETATM   19  C2  UNL     1      26.779  66.825  19.931  1.00  0.00     0.070 A 
HETATM   20  C3  UNL     1      28.045  66.455  19.455  1.00  0.00     0.024 A 
HETATM   21  C4  UNL     1      28.176  65.764  18.284  1.00  0.00     0.002 A 
HETATM   22  C5  UNL     1      27.054  65.430  17.569  1.00  0.00     0.001 A 
HETATM   23  C6  UNL     1      25.824  65.798  18.039  1.00  0.00     0.014 A 
BRANCH  19  24
HETATM   24  S1  UNL     1      26.733  67.558  21.488  1.00  0.00     0.172 S 
HETATM   25  C1  UNL     1      28.346  67.925  22.118  1.00  0.00     0.167 C 
HETATM   26  O1  UNL     1      26.001  68.876  21.398  1.00  0.00    -0.223 OA
HETATM   27  O2  UNL     1      26.007  66.776  22.526  1.00  0.00    -0.223 OA
ENDBRANCH  19  24
ENDBRANCH  14  18
ENDBRANCH   8  11
ENDBRANCH   1   7
BRANCH   6  28
HETATM   28  C17 UNL     1      17.943  68.617  23.383  1.00  0.00     0.057 A 
HETATM   29  C18 UNL     1      16.884  67.694  23.451  1.00  0.00     0.031 A 
HETATM   30  C19 UNL     1      16.808  66.762  24.467  1.00  0.00     0.003 A 
HETATM   31  C20 UNL     1      17.808  66.760  25.420  1.00  0.00     0.009 A 
HETATM   32  C21 UNL     1      18.852  67.649  25.374  1.00  0.00    -0.031 A 
HETATM   33  C23 UNL     1      18.898  68.557  24.357  1.00  0.00     0.040 A 
BRANCH  32  34
HETATM   34  C22 UNL     1      19.885  67.640  26.410  1.00  0.00     0.268 C 
BRANCH  34  35
HETATM   35  N4  UNL     1      19.410  67.156  27.685  1.00  0.00    -0.075 N 
ATOM     36  H43 UNL     1      18.686  67.770  28.060  1.00  0.00     0.274 HD
ATOM     37  H42 UNL     1      18.862  66.303  27.568  1.00  0.00     0.274 HD
ATOM     38  H41 UNL     1      20.157  67.016  28.366  1.00  0.00     0.274 HD
ENDBRANCH  34  35
ENDBRANCH  32  34
ENDBRANCH   6  28
BRANCH   3  39
HETATM   39  C16 UNL     1      15.926  72.122  20.597  1.00  0.00     0.434 C 
HETATM   40  F1  UNL     1      15.480  71.708  19.354  1.00  0.00    -0.165 F 
HETATM   41  F2  UNL     1      16.487  73.394  20.569  1.00  0.00    -0.165 F 
HETATM   42  F3  UNL     1      14.795  72.209  21.416  1.00  0.00    -0.165 F 
ENDBRANCH   3  39
TORSDOF 8
ENDMDL
