MODEL 1
REMARK VINA RESULT: -9.734708925      0.000      0.000
REMARK  8 active torsions:
REMARK  status: ('A' for Active; 'I' for Inactive)
REMARK    1  A    between atoms: S1_2  and  C2_5 
REMARK    2  A    between atoms: C7_10  and  C8_11 
REMARK    3  A    between atoms: C11_14  and  N1_15 
REMARK       I    between atoms: N1_15  and  C12_17 
REMARK    4  A    between atoms: C12_17  and  C13_19 
REMARK    5  A    between atoms: C15_21  and  C16_22 
REMARK    6  A    between atoms: N3_28  and  C17_29 
REMARK    7  A    between atoms: C21_33  and  C22_34 
REMARK    8  A    between atoms: C22_34  and  N4_35 
ROOT
HETATM    1  C13 UNL     1      19.873  69.854  21.820  1.00  0.00     0.127 A 
HETATM    2  C14 UNL     1      20.833  69.758  20.826  1.00  0.00     0.073 A 
HETATM    3  C15 UNL     1      21.339  68.466  20.820  1.00  0.00     0.135 A 
HETATM    4  N2  UNL     1      20.700  67.830  21.774  1.00  0.00    -0.289 N 
ATOM      5  H2  UNL     1      20.845  66.852  22.023  1.00  0.00     0.187 HD
HETATM    6  N3  UNL     1      19.818  68.664  22.379  1.00  0.00    -0.251 N 
ENDROOT
BRANCH   1   7
HETATM    7  C12 UNL     1      19.089  71.041  22.188  1.00  0.00     0.274 C 
HETATM    8  N1  UNL     1      19.746  72.287  22.342  1.00  0.00    -0.319 N 
ATOM      9  H1  UNL     1      20.757  72.275  22.205  1.00  0.00     0.169 HD
HETATM   10  O3  UNL     1      17.868  70.996  22.371  1.00  0.00    -0.266 OA
BRANCH   8  11
HETATM   11  C11 UNL     1      19.189  73.529  22.659  1.00  0.00     0.074 A 
HETATM   12  C10 UNL     1      17.931  73.986  22.390  1.00  0.00     0.034 A 
HETATM   13  C9  UNL     1      17.461  75.252  22.702  1.00  0.00     0.014 A 
HETATM   14  C8  UNL     1      18.268  76.141  23.318  1.00  0.00    -0.021 A 
HETATM   15  C25 UNL     1      19.555  75.735  23.617  1.00  0.00     0.057 A 
HETATM   16  C24 UNL     1      20.013  74.469  23.301  1.00  0.00     0.143 A 
HETATM   17  F4  UNL     1      21.278  74.077  23.614  1.00  0.00    -0.204 F 
BRANCH  14  18
HETATM   18  C7  UNL     1      17.873  77.445  23.709  1.00  0.00    -0.004 A 
HETATM   19  C2  UNL     1      18.142  78.551  22.950  1.00  0.00     0.070 A 
HETATM   20  C3  UNL     1      17.826  79.838  23.408  1.00  0.00     0.024 A 
HETATM   21  C4  UNL     1      17.230  80.019  24.623  1.00  0.00     0.002 A 
HETATM   22  C5  UNL     1      16.942  78.928  25.403  1.00  0.00     0.001 A 
HETATM   23  C6  UNL     1      17.258  77.677  24.950  1.00  0.00     0.014 A 
BRANCH  19  24
HETATM   24  S1  UNL     1      18.750  78.441  21.343  1.00  0.00     0.172 S 
HETATM   25  C1  UNL     1      17.571  77.762  20.212  1.00  0.00     0.167 C 
HETATM   26  O1  UNL     1      19.079  79.825  20.836  1.00  0.00    -0.223 OA
HETATM   27  O2  UNL     1      20.013  77.662  21.205  1.00  0.00    -0.223 OA
ENDBRANCH  19  24
ENDBRANCH  14  18
ENDBRANCH   8  11
ENDBRANCH   1   7
BRANCH   6  28
HETATM   28  C17 UNL     1      19.047  68.125  23.452  1.00  0.00     0.057 A 
HETATM   29  C18 UNL     1      17.728  67.705  23.204  1.00  0.00     0.031 A 
HETATM   30  C19 UNL     1      16.912  67.260  24.225  1.00  0.00     0.003 A 
HETATM   31  C20 UNL     1      17.429  67.239  25.505  1.00  0.00     0.009 A 
HETATM   32  C21 UNL     1      18.713  67.643  25.773  1.00  0.00    -0.031 A 
HETATM   33  C23 UNL     1      19.494  68.075  24.742  1.00  0.00     0.040 A 
BRANCH  32  34
HETATM   34  C22 UNL     1      19.229  67.632  27.142  1.00  0.00     0.268 C 
BRANCH  34  35
HETATM   35  N4  UNL     1      20.621  67.254  27.223  1.00  0.00    -0.075 N 
ATOM     36  H43 UNL     1      20.718  66.244  27.326  1.00  0.00     0.274 HD
ATOM     37  H42 UNL     1      21.083  67.377  26.322  1.00  0.00     0.274 HD
ATOM     38  H41 UNL     1      21.128  67.745  27.960  1.00  0.00     0.274 HD
ENDBRANCH  34  35
ENDBRANCH  32  34
ENDBRANCH   6  28
BRANCH   3  39
HETATM   39  C16 UNL     1      22.405  68.022  19.871  1.00  0.00     0.434 C 
HETATM   40  F1  UNL     1      22.038  68.192  18.547  1.00  0.00    -0.165 F 
HETATM   41  F2  UNL     1      22.774  66.714  20.161  1.00  0.00    -0.165 F 
HETATM   42  F3  UNL     1      23.546  68.807  20.071  1.00  0.00    -0.165 F 
ENDBRANCH   3  39
TORSDOF 8
ENDMDL
