MODEL 5
REMARK VINA RESULT: -8.297790082      1.458      1.821
REMARK  8 active torsions:
REMARK  status: ('A' for Active; 'I' for Inactive)
REMARK    1  A    between atoms: S1_2  and  C2_5 
REMARK    2  A    between atoms: C7_10  and  C8_11 
REMARK    3  A    between atoms: C11_14  and  N1_15 
REMARK       I    between atoms: N1_15  and  C12_17 
REMARK    4  A    between atoms: C12_17  and  C13_19 
REMARK    5  A    between atoms: C15_21  and  C16_22 
REMARK    6  A    between atoms: N3_28  and  C17_29 
REMARK    7  A    between atoms: C21_33  and  C22_34 
REMARK    8  A    between atoms: C22_34  and  N4_35 
ROOT
HETATM    1  C13 UNL     1      21.240  69.661  20.822  1.00  0.00     0.127 A 
HETATM    2  C14 UNL     1      22.399  69.244  20.187  1.00  0.00     0.073 A 
HETATM    3  C15 UNL     1      22.567  67.887  20.417  1.00  0.00     0.135 A 
HETATM    4  N2  UNL     1      21.546  67.522  21.157  1.00  0.00    -0.289 N 
ATOM      5  H2  UNL     1      21.379  66.575  21.497  1.00  0.00     0.187 HD
HETATM    6  N3  UNL     1      20.746  68.589  21.404  1.00  0.00    -0.251 N 
ENDROOT
BRANCH   1   7
HETATM    7  C12 UNL     1      20.683  71.020  20.854  1.00  0.00     0.274 C 
HETATM    8  N1  UNL     1      20.500  71.667  22.101  1.00  0.00    -0.319 N 
ATOM      9  H1  UNL     1      20.756  71.122  22.925  1.00  0.00     0.169 HD
HETATM   10  O3  UNL     1      20.363  71.628  19.827  1.00  0.00    -0.266 OA
BRANCH   8  11
HETATM   11  C11 UNL     1      20.016  72.954  22.350  1.00  0.00     0.074 A 
HETATM   12  C10 UNL     1      20.723  74.079  22.663  1.00  0.00     0.034 A 
HETATM   13  C9  UNL     1      20.167  75.319  22.936  1.00  0.00     0.014 A 
HETATM   14  C8  UNL     1      18.827  75.481  22.906  1.00  0.00    -0.021 A 
HETATM   15  C25 UNL     1      18.058  74.376  22.593  1.00  0.00     0.057 A 
HETATM   16  C24 UNL     1      18.624  73.143  22.322  1.00  0.00     0.143 A 
HETATM   17  F4  UNL     1      17.854  72.068  22.002  1.00  0.00    -0.204 F 
BRANCH  14  18
HETATM   18  C7  UNL     1      18.164  76.712  23.136  1.00  0.00    -0.004 A 
HETATM   19  C2  UNL     1      18.139  77.716  22.206  1.00  0.00     0.070 A 
HETATM   20  C3  UNL     1      17.560  78.958  22.498  1.00  0.00     0.024 A 
HETATM   21  C4  UNL     1      16.996  79.196  23.720  1.00  0.00     0.002 A 
HETATM   22  C5  UNL     1      17.000  78.205  24.669  1.00  0.00     0.001 A 
HETATM   23  C6  UNL     1      17.571  76.998  24.376  1.00  0.00     0.014 A 
BRANCH  19  24
HETATM   24  S1  UNL     1      18.681  77.487  20.588  1.00  0.00     0.172 S 
HETATM   25  C1  UNL     1      17.706  76.306  19.702  1.00  0.00     0.167 C 
HETATM   26  O1  UNL     1      18.562  78.790  19.832  1.00  0.00    -0.223 OA
HETATM   27  O2  UNL     1      20.109  77.087  20.458  1.00  0.00    -0.223 OA
ENDBRANCH  19  24
ENDBRANCH  14  18
ENDBRANCH   8  11
ENDBRANCH   1   7
BRANCH   6  28
HETATM   28  C17 UNL     1      19.591  68.362  22.211  1.00  0.00     0.057 A 
HETATM   29  C18 UNL     1      18.317  68.588  21.659  1.00  0.00     0.031 A 
HETATM   30  C19 UNL     1      17.173  68.469  22.423  1.00  0.00     0.003 A 
HETATM   31  C20 UNL     1      17.315  68.119  23.752  1.00  0.00     0.009 A 
HETATM   32  C21 UNL     1      18.546  67.891  24.312  1.00  0.00    -0.031 A 
HETATM   33  C23 UNL     1      19.657  68.016  23.530  1.00  0.00     0.040 A 
BRANCH  32  34
HETATM   34  C22 UNL     1      18.670  67.544  25.728  1.00  0.00     0.268 C 
BRANCH  34  35
HETATM   35  N4  UNL     1      20.035  67.309  26.140  1.00  0.00    -0.075 N 
ATOM     36  H43 UNL     1      20.385  68.088  26.697  1.00  0.00     0.274 HD
ATOM     37  H42 UNL     1      20.080  66.568  26.840  1.00  0.00     0.274 HD
ATOM     38  H41 UNL     1      20.661  67.110  25.360  1.00  0.00     0.274 HD
ENDBRANCH  34  35
ENDBRANCH  32  34
ENDBRANCH   6  28
BRANCH   3  39
HETATM   39  C16 UNL     1      23.729  67.116  19.880  1.00  0.00     0.434 C 
HETATM   40  F1  UNL     1      23.796  67.155  18.497  1.00  0.00    -0.165 F 
HETATM   41  F2  UNL     1      23.702  65.818  20.378  1.00  0.00    -0.165 F 
HETATM   42  F3  UNL     1      24.914  67.694  20.350  1.00  0.00    -0.165 F 
ENDBRANCH   3  39
TORSDOF 8
ENDMDL
