MODEL 18
REMARK VINA RESULT: -7.782012555      1.611      1.952
REMARK  8 active torsions:
REMARK  status: ('A' for Active; 'I' for Inactive)
REMARK    1  A    between atoms: S1_2  and  C2_5 
REMARK    2  A    between atoms: C7_10  and  C8_11 
REMARK    3  A    between atoms: C11_14  and  N1_15 
REMARK       I    between atoms: N1_15  and  C12_17 
REMARK    4  A    between atoms: C12_17  and  C13_19 
REMARK    5  A    between atoms: C15_21  and  C16_22 
REMARK    6  A    between atoms: N3_28  and  C17_29 
REMARK    7  A    between atoms: C21_33  and  C22_34 
REMARK    8  A    between atoms: C22_34  and  N4_35 
ROOT
HETATM    1  C13 UNL     1      20.716  69.418  21.316  1.00  0.00     0.127 A 
HETATM    2  C14 UNL     1      21.823  69.089  20.549  1.00  0.00     0.073 A 
HETATM    3  C15 UNL     1      22.187  67.782  20.833  1.00  0.00     0.135 A 
HETATM    4  N2  UNL     1      21.327  67.360  21.731  1.00  0.00    -0.289 N 
ATOM      5  H2  UNL     1      21.326  66.428  22.147  1.00  0.00     0.187 HD
HETATM    6  N3  UNL     1      20.441  68.343  22.024  1.00  0.00    -0.251 N 
ENDROOT
BRANCH   1   7
HETATM    7  C12 UNL     1      20.003  70.702  21.345  1.00  0.00     0.274 C 
HETATM    8  N1  UNL     1      20.554  71.785  22.074  1.00  0.00    -0.319 N 
ATOM      9  H1  UNL     1      21.428  71.591  22.564  1.00  0.00     0.169 HD
HETATM   10  O3  UNL     1      18.932  70.878  20.756  1.00  0.00    -0.266 OA
BRANCH   8  11
HETATM   11  C11 UNL     1      20.057  73.085  22.207  1.00  0.00     0.074 A 
HETATM   12  C10 UNL     1      18.940  73.499  22.873  1.00  0.00     0.034 A 
HETATM   13  C9  UNL     1      18.486  74.808  22.928  1.00  0.00     0.014 A 
HETATM   14  C8  UNL     1      19.164  75.787  22.293  1.00  0.00    -0.021 A 
HETATM   15  C25 UNL     1      20.307  75.428  21.603  1.00  0.00     0.057 A 
HETATM   16  C24 UNL     1      20.750  74.118  21.554  1.00  0.00     0.143 A 
HETATM   17  F4  UNL     1      21.884  73.781  20.882  1.00  0.00    -0.204 F 
BRANCH  14  18
HETATM   18  C7  UNL     1      18.803  77.158  22.317  1.00  0.00    -0.004 A 
HETATM   19  C2  UNL     1      18.184  77.771  21.263  1.00  0.00     0.070 A 
HETATM   20  C3  UNL     1      17.928  79.149  21.277  1.00  0.00     0.024 A 
HETATM   21  C4  UNL     1      18.282  79.915  22.351  1.00  0.00     0.002 A 
HETATM   22  C5  UNL     1      18.897  79.324  23.426  1.00  0.00     0.001 A 
HETATM   23  C6  UNL     1      19.148  77.980  23.402  1.00  0.00     0.014 A 
BRANCH  19  24
HETATM   24  S1  UNL     1      17.558  76.891  19.922  1.00  0.00     0.172 S 
HETATM   25  C1  UNL     1      18.813  76.418  18.769  1.00  0.00     0.167 C 
HETATM   26  O1  UNL     1      16.928  75.610  20.416  1.00  0.00    -0.223 OA
HETATM   27  O2  UNL     1      16.483  77.590  19.163  1.00  0.00    -0.223 OA
ENDBRANCH  19  24
ENDBRANCH  14  18
ENDBRANCH   8  11
ENDBRANCH   1   7
BRANCH   6  28
HETATM   28  C17 UNL     1      19.441  68.047  22.998  1.00  0.00     0.057 A 
HETATM   29  C18 UNL     1      18.096  67.966  22.594  1.00  0.00     0.031 A 
HETATM   30  C19 UNL     1      17.082  67.770  23.511  1.00  0.00     0.003 A 
HETATM   31  C20 UNL     1      17.427  67.655  24.843  1.00  0.00     0.009 A 
HETATM   32  C21 UNL     1      18.731  67.729  25.262  1.00  0.00    -0.031 A 
HETATM   33  C23 UNL     1      19.710  67.921  24.331  1.00  0.00     0.040 A 
BRANCH  32  34
HETATM   34  C22 UNL     1      19.066  67.626  26.682  1.00  0.00     0.268 C 
BRANCH  34  35
HETATM   35  N4  UNL     1      20.443  67.257  26.917  1.00  0.00    -0.075 N 
ATOM     36  H43 UNL     1      20.617  66.296  26.620  1.00  0.00     0.274 HD
ATOM     37  H42 UNL     1      21.065  67.747  26.274  1.00  0.00     0.274 HD
ATOM     38  H41 UNL     1      20.738  67.397  27.884  1.00  0.00     0.274 HD
ENDBRANCH  34  35
ENDBRANCH  32  34
ENDBRANCH   6  28
BRANCH   3  39
HETATM   39  C16 UNL     1      23.354  67.111  20.184  1.00  0.00     0.434 C 
HETATM   40  F1  UNL     1      23.411  65.757  20.467  1.00  0.00    -0.165 F 
HETATM   41  F2  UNL     1      24.526  67.778  20.523  1.00  0.00    -0.165 F 
HETATM   42  F3  UNL     1      23.226  67.221  18.795  1.00  0.00    -0.165 F 
ENDBRANCH   3  39
TORSDOF 8
ENDMDL
