MODEL 6
REMARK VINA RESULT: -8.297687139      5.981      9.522
REMARK  8 active torsions:
REMARK  status: ('A' for Active; 'I' for Inactive)
REMARK    1  A    between atoms: S1_2  and  C2_5 
REMARK    2  A    between atoms: C7_10  and  C8_11 
REMARK    3  A    between atoms: C11_14  and  N1_15 
REMARK       I    between atoms: N1_15  and  C12_17 
REMARK    4  A    between atoms: C12_17  and  C13_19 
REMARK    5  A    between atoms: C15_21  and  C16_22 
REMARK    6  A    between atoms: N3_28  and  C17_29 
REMARK    7  A    between atoms: C21_33  and  C22_34 
REMARK    8  A    between atoms: C22_34  and  N4_35 
ROOT
HETATM    1  C13 UNL     1      17.465  72.297  21.525  1.00  0.00     0.127 A 
HETATM    2  C14 UNL     1      17.557  73.670  21.691  1.00  0.00     0.073 A 
HETATM    3  C15 UNL     1      18.642  73.947  22.507  1.00  0.00     0.135 A 
HETATM    4  N2  UNL     1      19.167  72.782  22.808  1.00  0.00    -0.289 N 
ATOM      5  H2  UNL     1      19.988  72.646  23.399  1.00  0.00     0.187 HD
HETATM    6  N3  UNL     1      18.460  71.787  22.219  1.00  0.00    -0.251 N 
ENDROOT
BRANCH   1   7
HETATM    7  C12 UNL     1      16.460  71.559  20.748  1.00  0.00     0.274 C 
HETATM    8  N1  UNL     1      16.879  70.737  19.673  1.00  0.00    -0.319 N 
ATOM      9  H1  UNL     1      17.882  70.727  19.488  1.00  0.00     0.169 HD
HETATM   10  O3  UNL     1      15.252  71.627  20.996  1.00  0.00    -0.266 OA
BRANCH   8  11
HETATM   11  C11 UNL     1      16.097  69.939  18.833  1.00  0.00     0.074 A 
HETATM   12  C10 UNL     1      15.674  68.657  19.037  1.00  0.00     0.034 A 
HETATM   13  C9  UNL     1      14.929  67.913  18.135  1.00  0.00     0.014 A 
HETATM   14  C8  UNL     1      14.570  68.447  16.949  1.00  0.00    -0.021 A 
HETATM   15  C25 UNL     1      14.969  69.744  16.687  1.00  0.00     0.057 A 
HETATM   16  C24 UNL     1      15.712  70.478  17.594  1.00  0.00     0.143 A 
HETATM   17  F4  UNL     1      16.086  71.759  17.328  1.00  0.00    -0.204 F 
BRANCH  14  18
HETATM   18  C7  UNL     1      13.782  67.782  15.977  1.00  0.00    -0.004 A 
HETATM   19  C2  UNL     1      14.322  66.917  15.064  1.00  0.00     0.070 A 
HETATM   20  C3  UNL     1      13.535  66.349  14.053  1.00  0.00     0.024 A 
HETATM   21  C4  UNL     1      12.203  66.639  13.958  1.00  0.00     0.002 A 
HETATM   22  C5  UNL     1      11.634  67.498  14.864  1.00  0.00     0.001 A 
HETATM   23  C6  UNL     1      12.410  68.051  15.844  1.00  0.00     0.014 A 
BRANCH  19  24
HETATM   24  S1  UNL     1      15.946  66.358  15.172  1.00  0.00     0.172 S 
HETATM   25  C1  UNL     1      16.183  65.191  16.480  1.00  0.00     0.167 C 
HETATM   26  O1  UNL     1      16.316  65.645  13.892  1.00  0.00    -0.223 OA
HETATM   27  O2  UNL     1      16.967  67.432  15.331  1.00  0.00    -0.223 OA
ENDBRANCH  19  24
ENDBRANCH  14  18
ENDBRANCH   8  11
ENDBRANCH   1   7
BRANCH   6  28
HETATM   28  C17 UNL     1      18.898  70.450  22.458  1.00  0.00     0.057 A 
HETATM   29  C18 UNL     1      20.118  70.021  21.906  1.00  0.00     0.031 A 
HETATM   30  C19 UNL     1      20.543  68.713  22.032  1.00  0.00     0.003 A 
HETATM   31  C20 UNL     1      19.732  67.832  22.722  1.00  0.00     0.009 A 
HETATM   32  C21 UNL     1      18.539  68.228  23.271  1.00  0.00    -0.031 A 
HETATM   33  C23 UNL     1      18.148  69.527  23.129  1.00  0.00     0.040 A 
BRANCH  32  34
HETATM   34  C22 UNL     1      17.688  67.269  23.977  1.00  0.00     0.268 C 
BRANCH  34  35
HETATM   35  N4  UNL     1      16.290  67.633  23.968  1.00  0.00    -0.075 N 
ATOM     36  H43 UNL     1      16.170  68.606  23.684  1.00  0.00     0.274 HD
ATOM     37  H42 UNL     1      15.800  67.173  23.200  1.00  0.00     0.274 HD
ATOM     38  H41 UNL     1      15.822  67.454  24.856  1.00  0.00     0.274 HD
ENDBRANCH  34  35
ENDBRANCH  32  34
ENDBRANCH   6  28
BRANCH   3  39
HETATM   39  C16 UNL     1      19.022  75.339  22.899  1.00  0.00     0.434 C 
HETATM   40  F1  UNL     1      19.253  76.152  21.802  1.00  0.00    -0.165 F 
HETATM   41  F2  UNL     1      20.100  75.301  23.775  1.00  0.00    -0.165 F 
HETATM   42  F3  UNL     1      17.961  75.917  23.605  1.00  0.00    -0.165 F 
ENDBRANCH   3  39
TORSDOF 8
ENDMDL
