MODEL 7
REMARK VINA RESULT: -8.275722312      5.909     10.054
REMARK  8 active torsions:
REMARK  status: ('A' for Active; 'I' for Inactive)
REMARK    1  A    between atoms: S1_2  and  C2_5 
REMARK    2  A    between atoms: C7_10  and  C8_11 
REMARK    3  A    between atoms: C11_14  and  N1_15 
REMARK       I    between atoms: N1_15  and  C12_17 
REMARK    4  A    between atoms: C12_17  and  C13_19 
REMARK    5  A    between atoms: C15_21  and  C16_22 
REMARK    6  A    between atoms: N3_28  and  C17_29 
REMARK    7  A    between atoms: C21_33  and  C22_34 
REMARK    8  A    between atoms: C22_34  and  N4_35 
ROOT
HETATM    1  C13 UNL     1      19.012  70.288  21.031  1.00  0.00     0.127 A 
HETATM    2  C14 UNL     1      19.245  71.632  20.784  1.00  0.00     0.073 A 
HETATM    3  C15 UNL     1      19.185  72.322  21.984  1.00  0.00     0.135 A 
HETATM    4  N2  UNL     1      18.927  71.419  22.901  1.00  0.00    -0.289 N 
ATOM      5  H2  UNL     1      18.822  71.611  23.897  1.00  0.00     0.187 HD
HETATM    6  N3  UNL     1      18.821  70.194  22.330  1.00  0.00    -0.251 N 
ENDROOT
BRANCH   1   7
HETATM    7  C12 UNL     1      18.971  69.196  20.050  1.00  0.00     0.274 C 
HETATM    8  N1  UNL     1      17.849  69.075  19.192  1.00  0.00    -0.319 N 
ATOM      9  H1  UNL     1      17.109  69.764  19.331  1.00  0.00     0.169 HD
HETATM   10  O3  UNL     1      19.882  68.370  19.941  1.00  0.00    -0.266 OA
BRANCH   8  11
HETATM   11  C11 UNL     1      17.625  68.136  18.182  1.00  0.00     0.074 A 
HETATM   12  C10 UNL     1      18.113  68.130  16.908  1.00  0.00     0.034 A 
HETATM   13  C9  UNL     1      17.813  67.180  15.944  1.00  0.00     0.014 A 
HETATM   14  C8  UNL     1      16.979  66.160  16.237  1.00  0.00    -0.021 A 
HETATM   15  C25 UNL     1      16.454  66.111  17.514  1.00  0.00     0.057 A 
HETATM   16  C24 UNL     1      16.760  67.065  18.467  1.00  0.00     0.143 A 
HETATM   17  F4  UNL     1      16.246  66.997  19.725  1.00  0.00    -0.204 F 
BRANCH  14  18
HETATM   18  C7  UNL     1      16.637  65.121  15.335  1.00  0.00    -0.004 A 
HETATM   19  C2  UNL     1      15.477  65.132  14.610  1.00  0.00     0.070 A 
HETATM   20  C3  UNL     1      15.119  64.045  13.801  1.00  0.00     0.024 A 
HETATM   21  C4  UNL     1      15.928  62.948  13.707  1.00  0.00     0.002 A 
HETATM   22  C5  UNL     1      17.102  62.913  14.417  1.00  0.00     0.001 A 
HETATM   23  C6  UNL     1      17.440  63.976  15.207  1.00  0.00     0.014 A 
BRANCH  19  24
HETATM   24  S1  UNL     1      14.454  66.513  14.529  1.00  0.00     0.172 S 
HETATM   25  C1  UNL     1      15.226  67.889  13.728  1.00  0.00     0.167 C 
HETATM   26  O1  UNL     1      13.227  66.180  13.713  1.00  0.00    -0.223 OA
HETATM   27  O2  UNL     1      13.935  66.986  15.843  1.00  0.00    -0.223 OA
ENDBRANCH  19  24
ENDBRANCH  14  18
ENDBRANCH   8  11
ENDBRANCH   1   7
BRANCH   6  28
HETATM   28  C17 UNL     1      18.529  69.097  23.195  1.00  0.00     0.057 A 
HETATM   29  C18 UNL     1      17.329  68.385  23.016  1.00  0.00     0.031 A 
HETATM   30  C19 UNL     1      16.957  67.375  23.881  1.00  0.00     0.003 A 
HETATM   31  C20 UNL     1      17.803  67.079  24.933  1.00  0.00     0.009 A 
HETATM   32  C21 UNL     1      18.979  67.758  25.128  1.00  0.00    -0.031 A 
HETATM   33  C23 UNL     1      19.317  68.751  24.255  1.00  0.00     0.040 A 
BRANCH  32  34
HETATM   34  C22 UNL     1      19.844  67.441  26.264  1.00  0.00     0.268 C 
BRANCH  34  35
HETATM   35  N4  UNL     1      19.111  67.128  27.469  1.00  0.00    -0.075 N 
ATOM     36  H43 UNL     1      19.425  66.242  27.866  1.00  0.00     0.274 HD
ATOM     37  H42 UNL     1      19.375  67.756  28.228  1.00  0.00     0.274 HD
ATOM     38  H41 UNL     1      18.100  67.127  27.334  1.00  0.00     0.274 HD
ENDBRANCH  34  35
ENDBRANCH  32  34
ENDBRANCH   6  28
BRANCH   3  39
HETATM   39  C16 UNL     1      19.382  73.801  22.075  1.00  0.00     0.434 C 
HETATM   40  F1  UNL     1      20.517  74.225  21.404  1.00  0.00    -0.165 F 
HETATM   41  F2  UNL     1      19.370  74.195  23.408  1.00  0.00    -0.165 F 
HETATM   42  F3  UNL     1      18.298  74.442  21.465  1.00  0.00    -0.165 F 
ENDBRANCH   3  39
TORSDOF 8
ENDMDL
