MODEL 8
REMARK VINA RESULT: -8.212981086      1.410      1.760
REMARK  8 active torsions:
REMARK  status: ('A' for Active; 'I' for Inactive)
REMARK    1  A    between atoms: S1_2  and  C2_5 
REMARK    2  A    between atoms: C7_10  and  C8_11 
REMARK    3  A    between atoms: C11_14  and  N1_15 
REMARK       I    between atoms: N1_15  and  C12_17 
REMARK    4  A    between atoms: C12_17  and  C13_19 
REMARK    5  A    between atoms: C15_21  and  C16_22 
REMARK    6  A    between atoms: N3_28  and  C17_29 
REMARK    7  A    between atoms: C21_33  and  C22_34 
REMARK    8  A    between atoms: C22_34  and  N4_35 
ROOT
HETATM    1  C13 UNL     1      21.108  71.052  21.566  1.00  0.00     0.127 A 
HETATM    2  C14 UNL     1      22.383  71.119  21.028  1.00  0.00     0.073 A 
HETATM    3  C15 UNL     1      22.924  69.843  21.005  1.00  0.00     0.135 A 
HETATM    4  N2  UNL     1      22.001  69.057  21.510  1.00  0.00    -0.289 N 
ATOM      5  H2  UNL     1      22.093  68.048  21.629  1.00  0.00     0.187 HD
HETATM    6  N3  UNL     1      20.907  69.783  21.850  1.00  0.00    -0.251 N 
ENDROOT
BRANCH   1   7
HETATM    7  C12 UNL     1      20.176  72.166  21.789  1.00  0.00     0.274 C 
HETATM    8  N1  UNL     1      20.518  73.183  22.714  1.00  0.00    -0.319 N 
ATOM      9  H1  UNL     1      21.408  73.061  23.198  1.00  0.00     0.169 HD
HETATM   10  O3  UNL     1      19.095  72.253  21.197  1.00  0.00    -0.266 OA
BRANCH   8  11
HETATM   11  C11 UNL     1      19.794  74.330  23.051  1.00  0.00     0.074 A 
HETATM   12  C10 UNL     1      18.483  74.609  22.796  1.00  0.00     0.034 A 
HETATM   13  C9  UNL     1      17.842  75.793  23.128  1.00  0.00     0.014 A 
HETATM   14  C8  UNL     1      18.520  76.778  23.752  1.00  0.00    -0.021 A 
HETATM   15  C25 UNL     1      19.854  76.552  24.039  1.00  0.00     0.057 A 
HETATM   16  C24 UNL     1      20.483  75.367  23.703  1.00  0.00     0.143 A 
HETATM   17  F4  UNL     1      21.793  75.154  24.004  1.00  0.00    -0.204 F 
BRANCH  14  18
HETATM   18  C7  UNL     1      17.949  78.008  24.164  1.00  0.00    -0.004 A 
HETATM   19  C2  UNL     1      18.087  79.160  23.437  1.00  0.00     0.070 A 
HETATM   20  C3  UNL     1      17.594  80.381  23.917  1.00  0.00     0.024 A 
HETATM   21  C4  UNL     1      16.954  80.451  25.122  1.00  0.00     0.002 A 
HETATM   22  C5  UNL     1      16.795  79.311  25.868  1.00  0.00     0.001 A 
HETATM   23  C6  UNL     1      17.282  78.125  25.394  1.00  0.00     0.014 A 
BRANCH  19  24
HETATM   24  S1  UNL     1      18.738  79.172  21.844  1.00  0.00     0.172 S 
HETATM   25  C1  UNL     1      17.709  78.327  20.679  1.00  0.00     0.167 C 
HETATM   26  O1  UNL     1      18.847  80.599  21.359  1.00  0.00    -0.223 OA
HETATM   27  O2  UNL     1      20.113  78.612  21.726  1.00  0.00    -0.223 OA
ENDBRANCH  19  24
ENDBRANCH  14  18
ENDBRANCH   8  11
ENDBRANCH   1   7
BRANCH   6  28
HETATM   28  C17 UNL     1      19.811  69.074  22.427  1.00  0.00     0.057 A 
HETATM   29  C18 UNL     1      18.633  68.907  21.677  1.00  0.00     0.031 A 
HETATM   30  C19 UNL     1      17.514  68.308  22.221  1.00  0.00     0.003 A 
HETATM   31  C20 UNL     1      17.584  67.874  23.530  1.00  0.00     0.009 A 
HETATM   32  C21 UNL     1      18.722  68.024  24.282  1.00  0.00    -0.031 A 
HETATM   33  C23 UNL     1      19.811  68.619  23.714  1.00  0.00     0.040 A 
BRANCH  32  34
HETATM   34  C22 UNL     1      18.762  67.575  25.674  1.00  0.00     0.268 C 
BRANCH  34  35
HETATM   35  N4  UNL     1      17.577  66.851  26.073  1.00  0.00    -0.075 N 
ATOM     36  H43 UNL     1      16.918  67.468  26.549  1.00  0.00     0.274 HD
ATOM     37  H42 UNL     1      17.014  66.600  25.260  1.00  0.00     0.274 HD
ATOM     38  H41 UNL     1      17.780  66.029  26.641  1.00  0.00     0.274 HD
ENDBRANCH  34  35
ENDBRANCH  32  34
ENDBRANCH   6  28
BRANCH   3  39
HETATM   39  C16 UNL     1      24.298  69.558  20.492  1.00  0.00     0.434 C 
HETATM   40  F1  UNL     1      24.666  68.236  20.672  1.00  0.00    -0.165 F 
HETATM   41  F2  UNL     1      25.204  70.448  21.060  1.00  0.00    -0.165 F 
HETATM   42  F3  UNL     1      24.326  69.794  19.113  1.00  0.00    -0.165 F 
ENDBRANCH   3  39
TORSDOF 8
ENDMDL
