MODEL 2
REMARK VINA RESULT: -11.880725499      1.013      1.301
REMARK  8 active torsions:
REMARK  status: ('A' for Active; 'I' for Inactive)
REMARK    1  A    between atoms: S1_2  and  C2_5 
REMARK    2  A    between atoms: C7_10  and  C8_11 
REMARK    3  A    between atoms: C11_14  and  N1_15 
REMARK       I    between atoms: N1_15  and  C12_17 
REMARK    4  A    between atoms: C12_17  and  C13_19 
REMARK    5  A    between atoms: C15_21  and  C16_22 
REMARK    6  A    between atoms: N3_28  and  C17_29 
REMARK    7  A    between atoms: C21_33  and  C22_34 
REMARK    8  A    between atoms: C22_34  and  N4_35 
ROOT
HETATM    1  C13 UNL     1       6.475  28.750  15.555  1.00  0.00     0.127 A 
HETATM    2  C14 UNL     1       5.115  28.485  15.549  1.00  0.00     0.073 A 
HETATM    3  C15 UNL     1       4.857  27.506  14.602  1.00  0.00     0.135 A 
HETATM    4  N2  UNL     1       6.021  27.207  14.074  1.00  0.00    -0.289 N 
ATOM      5  H2  UNL     1       6.169  26.513  13.341  1.00  0.00     0.187 HD
HETATM    6  N3  UNL     1       6.997  27.955  14.644  1.00  0.00    -0.251 N 
ENDROOT
BRANCH   1   7
HETATM    7  C12 UNL     1       7.189  29.724  16.392  1.00  0.00     0.274 C 
HETATM    8  N1  UNL     1       6.472  30.802  16.967  1.00  0.00    -0.319 N 
ATOM      9  H1  UNL     1       5.478  30.846  16.738  1.00  0.00     0.169 HD
HETATM   10  O3  UNL     1       8.401  29.641  16.616  1.00  0.00    -0.266 OA
BRANCH   8  11
HETATM   11  C11 UNL     1       6.948  31.813  17.806  1.00  0.00     0.074 A 
HETATM   12  C10 UNL     1       6.990  33.157  17.573  1.00  0.00     0.034 A 
HETATM   13  C9  UNL     1       7.516  34.099  18.443  1.00  0.00     0.014 A 
HETATM   14  C8  UNL     1       8.042  33.711  19.624  1.00  0.00    -0.021 A 
HETATM   15  C25 UNL     1       8.026  32.361  19.917  1.00  0.00     0.057 A 
HETATM   16  C24 UNL     1       7.498  31.429  19.041  1.00  0.00     0.143 A 
HETATM   17  F4  UNL     1       7.477  30.104  19.349  1.00  0.00    -0.204 F 
BRANCH  14  18
HETATM   18  C7  UNL     1       8.572  34.598  20.595  1.00  0.00    -0.004 A 
HETATM   19  C2  UNL     1       7.815  35.103  21.617  1.00  0.00     0.070 A 
HETATM   20  C3  UNL     1       8.339  36.053  22.504  1.00  0.00     0.024 A 
HETATM   21  C4  UNL     1       9.626  36.494  22.376  1.00  0.00     0.002 A 
HETATM   22  C5  UNL     1      10.410  35.999  21.364  1.00  0.00     0.001 A 
HETATM   23  C6  UNL     1       9.889  35.076  20.501  1.00  0.00     0.014 A 
BRANCH  19  24
HETATM   24  S1  UNL     1       6.236  34.516  21.972  1.00  0.00     0.172 S 
HETATM   25  C1  UNL     1       6.256  32.921  22.738  1.00  0.00     0.167 C 
HETATM   26  O1  UNL     1       5.564  35.450  22.950  1.00  0.00    -0.223 OA
HETATM   27  O2  UNL     1       5.318  34.446  20.801  1.00  0.00    -0.223 OA
ENDBRANCH  19  24
ENDBRANCH  14  18
ENDBRANCH   8  11
ENDBRANCH   1   7
BRANCH   6  28
HETATM   28  C17 UNL     1       8.328  27.758  14.170  1.00  0.00     0.057 A 
HETATM   29  C18 UNL     1       9.132  26.777  14.777  1.00  0.00     0.031 A 
HETATM   30  C19 UNL     1      10.454  26.607  14.415  1.00  0.00     0.003 A 
HETATM   31  C20 UNL     1      10.968  27.432  13.434  1.00  0.00     0.009 A 
HETATM   32  C21 UNL     1      10.203  28.395  12.826  1.00  0.00    -0.031 A 
HETATM   33  C23 UNL     1       8.901  28.537  13.205  1.00  0.00     0.040 A 
BRANCH  32  34
HETATM   34  C22 UNL     1      10.780  29.271  11.805  1.00  0.00     0.268 C 
BRANCH  34  35
HETATM   35  N4  UNL     1       9.827  29.672  10.795  1.00  0.00    -0.075 N 
ATOM     36  H43 UNL     1      10.229  30.378  10.177  1.00  0.00     0.274 HD
ATOM     37  H42 UNL     1       9.677  28.922  10.120  1.00  0.00     0.274 HD
ATOM     38  H41 UNL     1       8.940  29.993  11.184  1.00  0.00     0.274 HD
ENDBRANCH  34  35
ENDBRANCH  32  34
ENDBRANCH   6  28
BRANCH   3  39
HETATM   39  C16 UNL     1       3.481  26.990  14.329  1.00  0.00     0.434 C 
HETATM   40  F1  UNL     1       2.514  27.973  14.457  1.00  0.00    -0.165 F 
HETATM   41  F2  UNL     1       3.228  25.882  15.130  1.00  0.00    -0.165 F 
HETATM   42  F3  UNL     1       3.418  26.542  13.005  1.00  0.00    -0.165 F 
ENDBRANCH   3  39
TORSDOF 8
ENDMDL
