MODEL 8
REMARK VINA RESULT: -9.837092846      3.077      4.980
REMARK  8 active torsions:
REMARK  status: ('A' for Active; 'I' for Inactive)
REMARK    1  A    between atoms: S1_2  and  C2_5 
REMARK    2  A    between atoms: C7_10  and  C8_11 
REMARK    3  A    between atoms: C11_14  and  N1_15 
REMARK       I    between atoms: N1_15  and  C12_17 
REMARK    4  A    between atoms: C12_17  and  C13_19 
REMARK    5  A    between atoms: C15_21  and  C16_22 
REMARK    6  A    between atoms: N3_28  and  C17_29 
REMARK    7  A    between atoms: C21_33  and  C22_34 
REMARK    8  A    between atoms: C22_34  and  N4_35 
ROOT
HETATM    1  C13 UNL     1       4.508  30.090  15.814  1.00  0.00     0.127 A 
HETATM    2  C14 UNL     1       4.875  28.819  15.401  1.00  0.00     0.073 A 
HETATM    3  C15 UNL     1       4.132  28.484  14.280  1.00  0.00     0.135 A 
HETATM    4  N2  UNL     1       3.360  29.519  14.043  1.00  0.00    -0.289 N 
ATOM      5  H2  UNL     1       2.690  29.586  13.277  1.00  0.00     0.187 HD
HETATM    6  N3  UNL     1       3.583  30.487  14.966  1.00  0.00    -0.251 N 
ENDROOT
BRANCH   1   7
HETATM    7  C12 UNL     1       5.031  30.838  16.966  1.00  0.00     0.274 C 
HETATM    8  N1  UNL     1       6.336  31.384  16.904  1.00  0.00    -0.319 N 
ATOM      9  H1  UNL     1       6.855  31.200  16.045  1.00  0.00     0.169 HD
HETATM   10  O3  UNL     1       4.372  31.010  17.997  1.00  0.00    -0.266 OA
BRANCH   8  11
HETATM   11  C11 UNL     1       7.007  32.143  17.868  1.00  0.00     0.074 A 
HETATM   12  C10 UNL     1       7.747  31.704  18.927  1.00  0.00     0.034 A 
HETATM   13  C9  UNL     1       8.353  32.522  19.868  1.00  0.00     0.014 A 
HETATM   14  C8  UNL     1       8.232  33.863  19.778  1.00  0.00    -0.021 A 
HETATM   15  C25 UNL     1       7.494  34.368  18.724  1.00  0.00     0.057 A 
HETATM   16  C24 UNL     1       6.894  33.542  17.790  1.00  0.00     0.143 A 
HETATM   17  F4  UNL     1       6.182  34.054  16.750  1.00  0.00    -0.204 F 
BRANCH  14  18
HETATM   18  C7  UNL     1       8.840  34.784  20.668  1.00  0.00    -0.004 A 
HETATM   19  C2  UNL     1       8.207  35.246  21.790  1.00  0.00     0.070 A 
HETATM   20  C3  UNL     1       8.793  36.229  22.598  1.00  0.00     0.024 A 
HETATM   21  C4  UNL     1      10.020  36.746  22.290  1.00  0.00     0.002 A 
HETATM   22  C5  UNL     1      10.681  36.296  21.175  1.00  0.00     0.001 A 
HETATM   23  C6  UNL     1      10.099  35.340  20.390  1.00  0.00     0.014 A 
BRANCH  19  24
HETATM   24  S1  UNL     1       6.732  34.566  22.362  1.00  0.00     0.172 S 
HETATM   25  C1  UNL     1       6.193  35.289  23.884  1.00  0.00     0.167 C 
HETATM   26  O1  UNL     1       5.637  34.828  21.355  1.00  0.00    -0.223 OA
HETATM   27  O2  UNL     1       6.754  33.088  22.543  1.00  0.00    -0.223 OA
ENDBRANCH  19  24
ENDBRANCH  14  18
ENDBRANCH   8  11
ENDBRANCH   1   7
BRANCH   6  28
HETATM   28  C17 UNL     1       2.810  31.681  14.855  1.00  0.00     0.057 A 
HETATM   29  C18 UNL     1       3.465  32.926  14.884  1.00  0.00     0.031 A 
HETATM   30  C19 UNL     1       2.757  34.111  14.870  1.00  0.00     0.003 A 
HETATM   31  C20 UNL     1       1.378  34.040  14.826  1.00  0.00     0.009 A 
HETATM   32  C21 UNL     1       0.716  32.839  14.796  1.00  0.00    -0.031 A 
HETATM   33  C23 UNL     1       1.445  31.686  14.809  1.00  0.00     0.040 A 
BRANCH  32  34
HETATM   34  C22 UNL     1      -0.747  32.793  14.772  1.00  0.00     0.268 C 
BRANCH  34  35
HETATM   35  N4  UNL     1      -1.269  31.632  14.089  1.00  0.00    -0.075 N 
ATOM     36  H43 UNL     1      -1.101  31.696  13.085  1.00  0.00     0.274 HD
ATOM     37  H42 UNL     1      -0.710  30.805  14.301  1.00  0.00     0.274 HD
ATOM     38  H41 UNL     1      -2.256  31.462  14.283  1.00  0.00     0.274 HD
ENDBRANCH  34  35
ENDBRANCH  32  34
ENDBRANCH   6  28
BRANCH   3  39
HETATM   39  C16 UNL     1       4.272  27.170  13.583  1.00  0.00     0.434 C 
HETATM   40  F1  UNL     1       3.787  27.205  12.286  1.00  0.00    -0.165 F 
HETATM   41  F2  UNL     1       3.684  26.169  14.348  1.00  0.00    -0.165 F 
HETATM   42  F3  UNL     1       5.630  26.848  13.489  1.00  0.00    -0.165 F 
ENDBRANCH   3  39
TORSDOF 8
ENDMDL
