MODEL 6
REMARK VINA RESULT: -10.161344829      2.956      4.702
REMARK  8 active torsions:
REMARK  status: ('A' for Active; 'I' for Inactive)
REMARK    1  A    between atoms: S1_2  and  C2_5 
REMARK    2  A    between atoms: C7_10  and  C8_11 
REMARK    3  A    between atoms: C11_14  and  N1_15 
REMARK       I    between atoms: N1_15  and  C12_17 
REMARK    4  A    between atoms: C12_17  and  C13_19 
REMARK    5  A    between atoms: C15_21  and  C16_22 
REMARK    6  A    between atoms: N3_28  and  C17_29 
REMARK    7  A    between atoms: C21_33  and  C22_34 
REMARK    8  A    between atoms: C22_34  and  N4_35 
ROOT
HETATM    1  C13 UNL     1       4.649  30.040  15.909  1.00  0.00     0.127 A 
HETATM    2  C14 UNL     1       5.015  28.789  15.439  1.00  0.00     0.073 A 
HETATM    3  C15 UNL     1       4.244  28.490  14.326  1.00  0.00     0.135 A 
HETATM    4  N2  UNL     1       3.458  29.526  14.149  1.00  0.00    -0.289 N 
ATOM      5  H2  UNL     1       2.767  29.615  13.404  1.00  0.00     0.187 HD
HETATM    6  N3  UNL     1       3.698  30.460  15.102  1.00  0.00    -0.251 N 
ENDROOT
BRANCH   1   7
HETATM    7  C12 UNL     1       5.196  30.748  17.075  1.00  0.00     0.274 C 
HETATM    8  N1  UNL     1       6.404  31.476  16.940  1.00  0.00    -0.319 N 
ATOM      9  H1  UNL     1       6.842  31.444  16.019  1.00  0.00     0.169 HD
HETATM   10  O3  UNL     1       4.641  30.734  18.178  1.00  0.00    -0.266 OA
BRANCH   8  11
HETATM   11  C11 UNL     1       7.074  32.233  17.905  1.00  0.00     0.074 A 
HETATM   12  C10 UNL     1       7.816  31.792  18.963  1.00  0.00     0.034 A 
HETATM   13  C9  UNL     1       8.422  32.608  19.906  1.00  0.00     0.014 A 
HETATM   14  C8  UNL     1       8.299  33.949  19.820  1.00  0.00    -0.021 A 
HETATM   15  C25 UNL     1       7.559  34.456  18.768  1.00  0.00     0.057 A 
HETATM   16  C24 UNL     1       6.960  33.632  17.832  1.00  0.00     0.143 A 
HETATM   17  F4  UNL     1       6.246  34.146  16.794  1.00  0.00    -0.204 F 
BRANCH  14  18
HETATM   18  C7  UNL     1       8.906  34.868  20.712  1.00  0.00    -0.004 A 
HETATM   19  C2  UNL     1       8.273  35.326  21.835  1.00  0.00     0.070 A 
HETATM   20  C3  UNL     1       8.859  36.308  22.646  1.00  0.00     0.024 A 
HETATM   21  C4  UNL     1      10.085  36.827  22.339  1.00  0.00     0.002 A 
HETATM   22  C5  UNL     1      10.746  36.380  21.223  1.00  0.00     0.001 A 
HETATM   23  C6  UNL     1      10.165  35.426  20.435  1.00  0.00     0.014 A 
BRANCH  19  24
HETATM   24  S1  UNL     1       6.799  34.644  22.406  1.00  0.00     0.172 S 
HETATM   25  C1  UNL     1       6.215  35.420  23.885  1.00  0.00     0.167 C 
HETATM   26  O1  UNL     1       5.721  34.843  21.367  1.00  0.00    -0.223 OA
HETATM   27  O2  UNL     1       6.843  33.175  22.649  1.00  0.00    -0.223 OA
ENDBRANCH  19  24
ENDBRANCH  14  18
ENDBRANCH   8  11
ENDBRANCH   1   7
BRANCH   6  28
HETATM   28  C17 UNL     1       2.913  31.651  15.057  1.00  0.00     0.057 A 
HETATM   29  C18 UNL     1       1.515  31.544  14.943  1.00  0.00     0.031 A 
HETATM   30  C19 UNL     1       0.718  32.663  14.807  1.00  0.00     0.003 A 
HETATM   31  C20 UNL     1       1.335  33.899  14.785  1.00  0.00     0.009 A 
HETATM   32  C21 UNL     1       2.696  34.029  14.896  1.00  0.00    -0.031 A 
HETATM   33  C23 UNL     1       3.455  32.904  15.031  1.00  0.00     0.040 A 
BRANCH  32  34
HETATM   34  C22 UNL     1       3.326  35.349  14.847  1.00  0.00     0.268 C 
BRANCH  34  35
HETATM   35  N4  UNL     1       3.506  35.943  16.152  1.00  0.00    -0.075 N 
ATOM     36  H43 UNL     1       4.484  35.903  16.438  1.00  0.00     0.274 HD
ATOM     37  H42 UNL     1       3.383  36.955  16.110  1.00  0.00     0.274 HD
ATOM     38  H41 UNL     1       2.903  35.534  16.866  1.00  0.00     0.274 HD
ENDBRANCH  34  35
ENDBRANCH  32  34
ENDBRANCH   6  28
BRANCH   3  39
HETATM   39  C16 UNL     1       4.376  27.204  13.576  1.00  0.00     0.434 C 
HETATM   40  F1  UNL     1       3.913  27.301  12.275  1.00  0.00    -0.165 F 
HETATM   41  F2  UNL     1       3.761  26.181  14.288  1.00  0.00    -0.165 F 
HETATM   42  F3  UNL     1       5.731  26.866  13.490  1.00  0.00    -0.165 F 
ENDBRANCH   3  39
TORSDOF 8
ENDMDL
