MODEL 1
REMARK VINA RESULT: -12.395739689      0.000      0.000
REMARK  8 active torsions:
REMARK  status: ('A' for Active; 'I' for Inactive)
REMARK    1  A    between atoms: S1_2  and  C2_5 
REMARK    2  A    between atoms: C7_10  and  C8_11 
REMARK    3  A    between atoms: C11_14  and  N1_15 
REMARK       I    between atoms: N1_15  and  C12_17 
REMARK    4  A    between atoms: C12_17  and  C13_19 
REMARK    5  A    between atoms: C15_21  and  C16_22 
REMARK    6  A    between atoms: N3_28  and  C17_29 
REMARK    7  A    between atoms: C21_33  and  C22_34 
REMARK    8  A    between atoms: C22_34  and  N4_35 
ROOT
HETATM    1  C13 UNL     1       6.492  28.761  15.753  1.00  0.00     0.127 A 
HETATM    2  C14 UNL     1       5.114  28.623  15.685  1.00  0.00     0.073 A 
HETATM    3  C15 UNL     1       4.801  27.825  14.596  1.00  0.00     0.135 A 
HETATM    4  N2  UNL     1       5.950  27.506  14.047  1.00  0.00    -0.289 N 
ATOM      5  H2  UNL     1       6.059  26.920  13.219  1.00  0.00     0.187 HD
HETATM    6  N3  UNL     1       6.969  28.069  14.740  1.00  0.00    -0.251 N 
ENDROOT
BRANCH   1   7
HETATM    7  C12 UNL     1       7.262  29.531  16.740  1.00  0.00     0.274 C 
HETATM    8  N1  UNL     1       6.808  30.817  17.125  1.00  0.00    -0.319 N 
ATOM      9  H1  UNL     1       5.961  31.145  16.661  1.00  0.00     0.169 HD
HETATM   10  O3  UNL     1       8.299  29.098  17.252  1.00  0.00    -0.266 OA
BRANCH   8  11
HETATM   11  C11 UNL     1       7.371  31.693  18.057  1.00  0.00     0.074 A 
HETATM   12  C10 UNL     1       8.062  31.391  19.194  1.00  0.00     0.034 A 
HETATM   13  C9  UNL     1       8.559  32.320  20.094  1.00  0.00     0.014 A 
HETATM   14  C8  UNL     1       8.371  33.639  19.879  1.00  0.00    -0.021 A 
HETATM   15  C25 UNL     1       7.679  34.007  18.741  1.00  0.00     0.057 A 
HETATM   16  C24 UNL     1       7.187  33.071  17.849  1.00  0.00     0.143 A 
HETATM   17  F4  UNL     1       6.520  33.449  16.725  1.00  0.00    -0.204 F 
BRANCH  14  18
HETATM   18  C7  UNL     1       8.868  34.667  20.719  1.00  0.00    -0.004 A 
HETATM   19  C2  UNL     1       8.133  35.191  21.748  1.00  0.00     0.070 A 
HETATM   20  C3  UNL     1       8.611  36.273  22.500  1.00  0.00     0.024 A 
HETATM   21  C4  UNL     1       9.831  36.826  22.231  1.00  0.00     0.002 A 
HETATM   22  C5  UNL     1      10.592  36.316  21.209  1.00  0.00     0.001 A 
HETATM   23  C6  UNL     1      10.116  35.264  20.478  1.00  0.00     0.014 A 
BRANCH  19  24
HETATM   24  S1  UNL     1       6.656  34.485  22.279  1.00  0.00     0.172 S 
HETATM   25  C1  UNL     1       6.033  35.234  23.756  1.00  0.00     0.167 C 
HETATM   26  O1  UNL     1       5.597  34.686  21.220  1.00  0.00    -0.223 OA
HETATM   27  O2  UNL     1       6.711  33.014  22.504  1.00  0.00    -0.223 OA
ENDBRANCH  19  24
ENDBRANCH  14  18
ENDBRANCH   8  11
ENDBRANCH   1   7
BRANCH   6  28
HETATM   28  C17 UNL     1       8.292  27.827  14.263  1.00  0.00     0.057 A 
HETATM   29  C18 UNL     1       9.067  26.825  14.873  1.00  0.00     0.031 A 
HETATM   30  C19 UNL     1      10.381  26.611  14.508  1.00  0.00     0.003 A 
HETATM   31  C20 UNL     1      10.918  27.414  13.520  1.00  0.00     0.009 A 
HETATM   32  C21 UNL     1      10.182  28.398  12.909  1.00  0.00    -0.031 A 
HETATM   33  C23 UNL     1       8.885  28.582  13.292  1.00  0.00     0.040 A 
BRANCH  32  34
HETATM   34  C22 UNL     1      10.781  29.249  11.881  1.00  0.00     0.268 C 
BRANCH  34  35
HETATM   35  N4  UNL     1       9.850  29.636  10.847  1.00  0.00    -0.075 N 
ATOM     36  H43 UNL     1       8.934  29.848  11.244  1.00  0.00     0.274 HD
ATOM     37  H42 UNL     1      10.087  30.553  10.469  1.00  0.00     0.274 HD
ATOM     38  H41 UNL     1       9.770  28.946  10.100  1.00  0.00     0.274 HD
ENDBRANCH  34  35
ENDBRANCH  32  34
ENDBRANCH   6  28
BRANCH   3  39
HETATM   39  C16 UNL     1       3.394  27.482  14.226  1.00  0.00     0.434 C 
HETATM   40  F1  UNL     1       2.495  28.469  14.593  1.00  0.00    -0.165 F 
HETATM   41  F2  UNL     1       3.063  26.236  14.747  1.00  0.00    -0.165 F 
HETATM   42  F3  UNL     1       3.306  27.363  12.835  1.00  0.00    -0.165 F 
ENDBRANCH   3  39
TORSDOF 8
ENDMDL
