MODEL 4
REMARK VINA RESULT: -10.807838205      1.344      1.736
REMARK  8 active torsions:
REMARK  status: ('A' for Active; 'I' for Inactive)
REMARK    1  A    between atoms: S1_2  and  C2_5 
REMARK    2  A    between atoms: C7_10  and  C8_11 
REMARK    3  A    between atoms: C11_14  and  N1_15 
REMARK       I    between atoms: N1_15  and  C12_17 
REMARK    4  A    between atoms: C12_17  and  C13_19 
REMARK    5  A    between atoms: C15_21  and  C16_22 
REMARK    6  A    between atoms: N3_28  and  C17_29 
REMARK    7  A    between atoms: C21_33  and  C22_34 
REMARK    8  A    between atoms: C22_34  and  N4_35 
ROOT
HETATM    1  C13 UNL     1       4.987  29.105  15.559  1.00  0.00     0.127 A 
HETATM    2  C14 UNL     1       3.740  28.977  14.969  1.00  0.00     0.073 A 
HETATM    3  C15 UNL     1       3.836  28.078  13.918  1.00  0.00     0.135 A 
HETATM    4  N2  UNL     1       5.090  27.693  13.893  1.00  0.00    -0.289 N 
ATOM      5  H2  UNL     1       5.483  27.026  13.229  1.00  0.00     0.187 HD
HETATM    6  N3  UNL     1       5.786  28.310  14.879  1.00  0.00    -0.251 N 
ENDROOT
BRANCH   1   7
HETATM    7  C12 UNL     1       5.350  29.960  16.698  1.00  0.00     0.274 C 
HETATM    8  N1  UNL     1       6.319  30.978  16.520  1.00  0.00    -0.319 N 
ATOM      9  H1  UNL     1       6.732  31.041  15.589  1.00  0.00     0.169 HD
HETATM   10  O3  UNL     1       4.841  29.825  17.815  1.00  0.00    -0.266 OA
BRANCH   8  11
HETATM   11  C11 UNL     1       6.784  31.908  17.455  1.00  0.00     0.074 A 
HETATM   12  C10 UNL     1       6.508  33.242  17.530  1.00  0.00     0.034 A 
HETATM   13  C9  UNL     1       7.041  34.113  18.468  1.00  0.00     0.014 A 
HETATM   14  C8  UNL     1       7.904  33.659  19.401  1.00  0.00    -0.021 A 
HETATM   15  C25 UNL     1       8.220  32.313  19.376  1.00  0.00     0.057 A 
HETATM   16  C24 UNL     1       7.683  31.453  18.435  1.00  0.00     0.143 A 
HETATM   17  F4  UNL     1       7.992  30.129  18.431  1.00  0.00    -0.204 F 
BRANCH  14  18
HETATM   18  C7  UNL     1       8.475  34.459  20.421  1.00  0.00    -0.004 A 
HETATM   19  C2  UNL     1       7.807  34.760  21.577  1.00  0.00     0.070 A 
HETATM   20  C3  UNL     1       8.358  35.634  22.525  1.00  0.00     0.024 A 
HETATM   21  C4  UNL     1       9.583  36.201  22.322  1.00  0.00     0.002 A 
HETATM   22  C5  UNL     1      10.279  35.912  21.175  1.00  0.00     0.001 A 
HETATM   23  C6  UNL     1       9.732  35.062  20.254  1.00  0.00     0.014 A 
BRANCH  19  24
HETATM   24  S1  UNL     1       6.329  33.993  22.013  1.00  0.00     0.172 S 
HETATM   25  C1  UNL     1       5.760  34.471  23.619  1.00  0.00     0.167 C 
HETATM   26  O1  UNL     1       5.248  34.400  21.040  1.00  0.00    -0.223 OA
HETATM   27  O2  UNL     1       6.359  32.504  21.967  1.00  0.00    -0.223 OA
ENDBRANCH  19  24
ENDBRANCH  14  18
ENDBRANCH   8  11
ENDBRANCH   1   7
BRANCH   6  28
HETATM   28  C17 UNL     1       7.177  28.007  14.980  1.00  0.00     0.057 A 
HETATM   29  C18 UNL     1       7.705  27.631  16.228  1.00  0.00     0.031 A 
HETATM   30  C19 UNL     1       9.058  27.414  16.399  1.00  0.00     0.003 A 
HETATM   31  C20 UNL     1       9.884  27.575  15.303  1.00  0.00     0.009 A 
HETATM   32  C21 UNL     1       9.392  27.940  14.075  1.00  0.00    -0.031 A 
HETATM   33  C23 UNL     1       8.050  28.146  13.940  1.00  0.00     0.040 A 
BRANCH  32  34
HETATM   34  C22 UNL     1      10.291  28.126  12.936  1.00  0.00     0.268 C 
BRANCH  34  35
HETATM   35  N4  UNL     1       9.715  28.928  11.882  1.00  0.00    -0.075 N 
ATOM     36  H43 UNL     1      10.256  28.838  11.021  1.00  0.00     0.274 HD
ATOM     37  H42 UNL     1       8.830  28.532  11.567  1.00  0.00     0.274 HD
ATOM     38  H41 UNL     1       9.603  29.909  12.139  1.00  0.00     0.274 HD
ENDBRANCH  34  35
ENDBRANCH  32  34
ENDBRANCH   6  28
BRANCH   3  39
HETATM   39  C16 UNL     1       2.668  27.716  13.058  1.00  0.00     0.434 C 
HETATM   40  F1  UNL     1       1.618  27.185  13.787  1.00  0.00    -0.165 F 
HETATM   41  F2  UNL     1       3.085  26.878  12.030  1.00  0.00    -0.165 F 
HETATM   42  F3  UNL     1       2.179  28.876  12.446  1.00  0.00    -0.165 F 
ENDBRANCH   3  39
TORSDOF 8
ENDMDL
