MODEL 10
REMARK VINA RESULT: -9.506775854      4.545     10.240
REMARK  8 active torsions:
REMARK  status: ('A' for Active; 'I' for Inactive)
REMARK    1  A    between atoms: S1_2  and  C2_5 
REMARK    2  A    between atoms: C7_10  and  C8_11 
REMARK    3  A    between atoms: C11_14  and  N1_15 
REMARK       I    between atoms: N1_15  and  C12_17 
REMARK    4  A    between atoms: C12_17  and  C13_19 
REMARK    5  A    between atoms: C15_21  and  C16_22 
REMARK    6  A    between atoms: N3_28  and  C17_29 
REMARK    7  A    between atoms: C21_33  and  C22_34 
REMARK    8  A    between atoms: C22_34  and  N4_35 
ROOT
HETATM    1  C13 UNL     1       6.225  34.218  22.724  1.00  0.00     0.127 A 
HETATM    2  C14 UNL     1       5.377  34.127  23.816  1.00  0.00     0.073 A 
HETATM    3  C15 UNL     1       5.849  34.962  24.817  1.00  0.00     0.135 A 
HETATM    4  N2  UNL     1       6.933  35.521  24.331  1.00  0.00    -0.289 N 
ATOM      5  H2  UNL     1       7.516  36.194  24.828  1.00  0.00     0.187 HD
HETATM    6  N3  UNL     1       7.162  35.075  23.072  1.00  0.00    -0.251 N 
ENDROOT
BRANCH   1   7
HETATM    7  C12 UNL     1       6.114  33.499  21.447  1.00  0.00     0.274 C 
HETATM    8  N1  UNL     1       6.741  32.237  21.305  1.00  0.00    -0.319 N 
ATOM      9  H1  UNL     1       7.265  31.907  22.116  1.00  0.00     0.169 HD
HETATM   10  O3  UNL     1       5.491  33.955  20.484  1.00  0.00    -0.266 OA
BRANCH   8  11
HETATM   11  C11 UNL     1       6.737  31.385  20.197  1.00  0.00     0.074 A 
HETATM   12  C10 UNL     1       5.770  30.500  19.814  1.00  0.00     0.034 A 
HETATM   13  C9  UNL     1       5.854  29.655  18.719  1.00  0.00     0.014 A 
HETATM   14  C8  UNL     1       6.955  29.667  17.937  1.00  0.00    -0.021 A 
HETATM   15  C25 UNL     1       7.968  30.544  18.275  1.00  0.00     0.057 A 
HETATM   16  C24 UNL     1       7.873  31.383  19.371  1.00  0.00     0.143 A 
HETATM   17  F4  UNL     1       8.872  32.252  19.683  1.00  0.00    -0.204 F 
BRANCH  14  18
HETATM   18  C7  UNL     1       7.123  28.868  16.778  1.00  0.00    -0.004 A 
HETATM   19  C2  UNL     1       7.819  27.691  16.794  1.00  0.00     0.070 A 
HETATM   20  C3  UNL     1       8.053  26.972  15.613  1.00  0.00     0.024 A 
HETATM   21  C4  UNL     1       7.581  27.426  14.414  1.00  0.00     0.002 A 
HETATM   22  C5  UNL     1       6.872  28.601  14.370  1.00  0.00     0.001 A 
HETATM   23  C6  UNL     1       6.654  29.297  15.526  1.00  0.00     0.014 A 
BRANCH  19  24
HETATM   24  S1  UNL     1       8.332  26.943  18.257  1.00  0.00     0.172 S 
HETATM   25  C1  UNL     1       7.000  26.673  19.390  1.00  0.00     0.167 C 
HETATM   26  O1  UNL     1       8.910  25.582  17.947  1.00  0.00    -0.223 OA
HETATM   27  O2  UNL     1       9.409  27.669  18.987  1.00  0.00    -0.223 OA
ENDBRANCH  19  24
ENDBRANCH  14  18
ENDBRANCH   8  11
ENDBRANCH   1   7
BRANCH   6  28
HETATM   28  C17 UNL     1       8.317  35.581  22.403  1.00  0.00     0.057 A 
HETATM   29  C18 UNL     1       8.845  34.866  21.313  1.00  0.00     0.031 A 
HETATM   30  C19 UNL     1      10.010  35.265  20.689  1.00  0.00     0.003 A 
HETATM   31  C20 UNL     1      10.646  36.395  21.167  1.00  0.00     0.009 A 
HETATM   32  C21 UNL     1      10.150  37.110  22.227  1.00  0.00    -0.031 A 
HETATM   33  C23 UNL     1       8.996  36.690  22.821  1.00  0.00     0.040 A 
BRANCH  32  34
HETATM   34  C22 UNL     1      10.857  38.290  22.728  1.00  0.00     0.268 C 
BRANCH  34  35
HETATM   35  N4  UNL     1      10.335  38.774  23.986  1.00  0.00    -0.075 N 
ATOM     36  H43 UNL     1       9.547  38.205  24.296  1.00  0.00     0.274 HD
ATOM     37  H42 UNL     1      10.989  38.586  24.746  1.00  0.00     0.274 HD
ATOM     38  H41 UNL     1      10.082  39.762  23.961  1.00  0.00     0.274 HD
ENDBRANCH  34  35
ENDBRANCH  32  34
ENDBRANCH   6  28
BRANCH   3  39
HETATM   39  C16 UNL     1       5.171  35.096  26.142  1.00  0.00     0.434 C 
HETATM   40  F1  UNL     1       3.791  35.068  26.035  1.00  0.00    -0.165 F 
HETATM   41  F2  UNL     1       5.635  36.233  26.793  1.00  0.00    -0.165 F 
HETATM   42  F3  UNL     1       5.528  34.008  26.947  1.00  0.00    -0.165 F 
ENDBRANCH   3  39
TORSDOF 8
ENDMDL
