MODEL 2
REMARK VINA RESULT: -11.849438129      0.755      1.683
REMARK  9 active torsions:
REMARK  status: ('A' for Active; 'I' for Inactive)
REMARK    1  A    between atoms: N1_1  and  S1_4 
REMARK    2  A    between atoms: S1_4  and  C1_7 
REMARK    3  A    between atoms: C6_12  and  C7_13 
REMARK    4  A    between atoms: C10_16  and  N2_17 
REMARK       I    between atoms: N2_17  and  C11_19 
REMARK    5  A    between atoms: C11_19  and  C12_21 
REMARK    6  A    between atoms: C14_23  and  C15_24 
REMARK    7  A    between atoms: N4_30  and  C16_31 
REMARK    8  A    between atoms: C21_36  and  C22_37 
REMARK    9  A    between atoms: C22_37  and  N5_38 
ROOT
HETATM    1  N2  UNL     1       6.587  41.727  62.033  1.00  0.00    -0.319 N 
ATOM      2  H2  UNL     1       5.609  41.574  62.275  1.00  0.00     0.169 HD
HETATM    3  C11 UNL     1       7.242  42.761  62.708  1.00  0.00     0.274 C 
HETATM    4  O3  UNL     1       8.453  43.013  62.430  1.00  0.00    -0.266 OA
ENDROOT
BRANCH   3   5
HETATM    5  C12 UNL     1       6.623  43.600  63.734  1.00  0.00     0.127 A 
HETATM    6  C13 UNL     1       5.279  43.704  64.022  1.00  0.00     0.073 A 
HETATM    7  C14 UNL     1       5.097  44.637  65.035  1.00  0.00     0.135 A 
HETATM    8  N3  UNL     1       6.317  45.065  65.324  1.00  0.00    -0.289 N 
HETATM    9  N4  UNL     1       7.237  44.447  64.548  1.00  0.00    -0.250 N 
ATOM     10  H3  UNL     1       6.534  45.763  66.035  1.00  0.00     0.187 HD
BRANCH   7  11
HETATM   11  C15 UNL     1       3.765  44.980  65.570  1.00  0.00     0.434 C 
HETATM   12  F1  UNL     1       3.848  45.808  66.677  1.00  0.00    -0.165 F 
HETATM   13  F2  UNL     1       3.097  43.832  65.900  1.00  0.00    -0.165 F 
HETATM   14  F3  UNL     1       3.082  45.697  64.596  1.00  0.00    -0.165 F 
ENDBRANCH   7  11
BRANCH   9  15
HETATM   15  C16 UNL     1       8.601  44.806  64.675  1.00  0.00     0.065 A 
HETATM   16  C17 UNL     1       9.093  45.826  63.846  1.00  0.00     0.032 A 
HETATM   17  C18 UNL     1      10.380  46.267  63.926  1.00  0.00     0.002 A 
HETATM   18  C19 UNL     1      11.251  45.715  64.839  1.00  0.00     0.001 A 
HETATM   19  C20 UNL     1      10.769  44.702  65.666  1.00  0.00     0.011 A 
HETATM   20  C21 UNL     1       9.466  44.250  65.588  1.00  0.00    -0.004 A 
BRANCH  20  21
HETATM   21  C22 UNL     1       8.937  43.140  66.423  1.00  0.00     0.270 C 
BRANCH  21  22
HETATM   22  N5  UNL     1       9.781  42.743  67.505  1.00  0.00    -0.075 N 
ATOM     23  H53 UNL     1      10.601  43.348  67.552  1.00  0.00     0.274 HD
ATOM     24  H52 UNL     1       9.342  42.971  68.397  1.00  0.00     0.274 HD
ATOM     25  H51 UNL     1      10.066  41.764  67.493  1.00  0.00     0.274 HD
ENDBRANCH  21  22
ENDBRANCH  20  21
ENDBRANCH   9  15
ENDBRANCH   3   5
BRANCH   1  26
HETATM   26  C10 UNL     1       7.136  40.871  61.051  1.00  0.00     0.074 A 
HETATM   27  C9  UNL     1       7.864  41.277  59.964  1.00  0.00     0.034 A 
HETATM   28  C8  UNL     1       8.423  40.374  59.051  1.00  0.00     0.014 A 
HETATM   29  C7  UNL     1       8.268  39.014  59.200  1.00  0.00    -0.021 A 
HETATM   30  C24 UNL     1       7.536  38.604  60.290  1.00  0.00     0.057 A 
HETATM   31  C23 UNL     1       6.982  39.470  61.194  1.00  0.00     0.143 A 
HETATM   32  F4  UNL     1       6.257  39.044  62.255  1.00  0.00    -0.204 F 
BRANCH  29  33
HETATM   33  C6  UNL     1       8.835  38.045  58.277  1.00  0.00    -0.003 A 
HETATM   34  C1  UNL     1       8.134  37.705  57.113  1.00  0.00     0.090 A 
HETATM   35  C2  UNL     1       8.682  36.775  56.225  1.00  0.00     0.026 A 
HETATM   36  C3  UNL     1       9.893  36.189  56.467  1.00  0.00     0.002 A 
HETATM   37  C4  UNL     1      10.586  36.521  57.605  1.00  0.00     0.001 A 
HETATM   38  C5  UNL     1      10.039  37.430  58.468  1.00  0.00     0.014 A 
BRANCH  34  39
HETATM   39  S1  UNL     1       6.605  38.417  56.768  1.00  0.00     0.257 S 
HETATM   40  O1  UNL     1       6.636  39.923  56.788  1.00  0.00    -0.201 OA
HETATM   41  O2  UNL     1       5.527  37.908  57.725  1.00  0.00    -0.201 OA
BRANCH  39  42
HETATM   42  N1  UNL     1       6.094  37.902  55.200  1.00  0.00    -0.324 N 
ATOM     43  H12 UNL     1       6.173  38.457  54.348  1.00  0.00     0.169 HD
ATOM     44  H11 UNL     1       5.706  36.962  55.280  1.00  0.00     0.169 HD
ENDBRANCH  39  42
ENDBRANCH  34  39
ENDBRANCH  29  33
ENDBRANCH   1  26
TORSDOF 9
ENDMDL
