MODEL 4
REMARK VINA RESULT: -10.926996281      1.471      2.147
REMARK  9 active torsions:
REMARK  status: ('A' for Active; 'I' for Inactive)
REMARK    1  A    between atoms: N1_1  and  S1_4 
REMARK    2  A    between atoms: S1_4  and  C1_7 
REMARK    3  A    between atoms: C6_12  and  C7_13 
REMARK    4  A    between atoms: C10_16  and  N2_17 
REMARK       I    between atoms: N2_17  and  C11_19 
REMARK    5  A    between atoms: C11_19  and  C12_21 
REMARK    6  A    between atoms: C14_23  and  C15_24 
REMARK    7  A    between atoms: N4_30  and  C16_31 
REMARK    8  A    between atoms: C21_36  and  C22_37 
REMARK    9  A    between atoms: C22_37  and  N5_38 
ROOT
HETATM    1  N2  UNL     1       6.879  41.508  62.285  1.00  0.00    -0.319 N 
ATOM      2  H2  UNL     1       7.465  41.653  63.107  1.00  0.00     0.169 HD
HETATM    3  C11 UNL     1       5.702  42.259  62.218  1.00  0.00     0.274 C 
HETATM    4  O3  UNL     1       4.923  42.101  61.229  1.00  0.00    -0.266 OA
ENDROOT
BRANCH   3   5
HETATM    5  C12 UNL     1       5.285  43.233  63.225  1.00  0.00     0.127 A 
HETATM    6  C13 UNL     1       4.020  43.396  63.749  1.00  0.00     0.073 A 
HETATM    7  C14 UNL     1       4.028  44.455  64.647  1.00  0.00     0.135 A 
HETATM    8  N3  UNL     1       5.277  44.896  64.640  1.00  0.00    -0.289 N 
HETATM    9  N4  UNL     1       6.036  44.167  63.789  1.00  0.00    -0.250 N 
ATOM     10  H3  UNL     1       5.620  45.677  65.199  1.00  0.00     0.187 HD
BRANCH   7  11
HETATM   11  C15 UNL     1       2.820  44.886  65.378  1.00  0.00     0.434 C 
HETATM   12  F1  UNL     1       2.138  43.815  65.931  1.00  0.00    -0.165 F 
HETATM   13  F2  UNL     1       1.994  45.573  64.530  1.00  0.00    -0.165 F 
HETATM   14  F3  UNL     1       3.224  45.684  66.442  1.00  0.00    -0.165 F 
ENDBRANCH   7  11
BRANCH   9  15
HETATM   15  C16 UNL     1       7.396  44.518  63.605  1.00  0.00     0.065 A 
HETATM   16  C17 UNL     1       7.746  45.207  62.435  1.00  0.00     0.032 A 
HETATM   17  C18 UNL     1       9.021  45.621  62.192  1.00  0.00     0.002 A 
HETATM   18  C19 UNL     1      10.022  45.371  63.103  1.00  0.00     0.001 A 
HETATM   19  C20 UNL     1       9.682  44.687  64.269  1.00  0.00     0.011 A 
HETATM   20  C21 UNL     1       8.391  44.263  64.519  1.00  0.00    -0.004 A 
BRANCH  20  21
HETATM   21  C22 UNL     1       8.007  43.491  65.730  1.00  0.00     0.270 C 
BRANCH  21  22
HETATM   22  N5  UNL     1       9.047  43.330  66.698  1.00  0.00    -0.075 N 
ATOM     23  H53 UNL     1       9.355  42.358  66.724  1.00  0.00     0.274 HD
ATOM     24  H52 UNL     1       9.903  43.780  66.374  1.00  0.00     0.274 HD
ATOM     25  H51 UNL     1       8.815  43.651  67.638  1.00  0.00     0.274 HD
ENDBRANCH  21  22
ENDBRANCH  20  21
ENDBRANCH   9  15
ENDBRANCH   3   5
BRANCH   1  26
HETATM   26  C10 UNL     1       7.346  40.569  61.336  1.00  0.00     0.074 A 
HETATM   27  C9  UNL     1       7.092  39.224  61.363  1.00  0.00     0.034 A 
HETATM   28  C8  UNL     1       7.543  38.352  60.364  1.00  0.00     0.014 A 
HETATM   29  C7  UNL     1       8.274  38.807  59.290  1.00  0.00    -0.021 A 
HETATM   30  C24 UNL     1       8.532  40.158  59.262  1.00  0.00     0.057 A 
HETATM   31  C23 UNL     1       8.099  41.027  60.227  1.00  0.00     0.143 A 
HETATM   32  F4  UNL     1       8.373  42.353  60.185  1.00  0.00    -0.204 F 
BRANCH  29  33
HETATM   33  C6  UNL     1       8.757  37.935  58.232  1.00  0.00    -0.003 A 
HETATM   34  C1  UNL     1       7.987  37.757  57.076  1.00  0.00     0.090 A 
HETATM   35  C2  UNL     1       8.454  36.920  56.059  1.00  0.00     0.026 A 
HETATM   36  C3  UNL     1       9.652  36.270  56.166  1.00  0.00     0.002 A 
HETATM   37  C4  UNL     1      10.412  36.444  57.296  1.00  0.00     0.001 A 
HETATM   38  C5  UNL     1       9.945  37.262  58.286  1.00  0.00     0.014 A 
BRANCH  34  39
HETATM   39  S1  UNL     1       6.471  38.554  56.898  1.00  0.00     0.257 S 
HETATM   40  O1  UNL     1       6.549  40.036  57.156  1.00  0.00    -0.201 OA
HETATM   41  O2  UNL     1       5.405  37.927  57.798  1.00  0.00    -0.201 OA
BRANCH  39  42
HETATM   42  N1  UNL     1       5.900  38.309  55.287  1.00  0.00    -0.324 N 
ATOM     43  H12 UNL     1       6.098  38.923  54.497  1.00  0.00     0.169 HD
ATOM     44  H11 UNL     1       5.341  37.456  55.268  1.00  0.00     0.169 HD
ENDBRANCH  39  42
ENDBRANCH  34  39
ENDBRANCH  29  33
ENDBRANCH   1  26
TORSDOF 9
ENDMDL
