MODEL 8
REMARK VINA RESULT: -9.206884740      3.136      4.676
REMARK  9 active torsions:
REMARK  status: ('A' for Active; 'I' for Inactive)
REMARK    1  A    between atoms: N1_1  and  S1_4 
REMARK    2  A    between atoms: S1_4  and  C1_7 
REMARK    3  A    between atoms: C6_12  and  C7_13 
REMARK    4  A    between atoms: C10_16  and  N2_17 
REMARK       I    between atoms: N2_17  and  C11_19 
REMARK    5  A    between atoms: C11_19  and  C12_21 
REMARK    6  A    between atoms: C14_23  and  C15_24 
REMARK    7  A    between atoms: N4_30  and  C16_31 
REMARK    8  A    between atoms: C21_36  and  C22_37 
REMARK    9  A    between atoms: C22_37  and  N5_38 
ROOT
HETATM    1  N2  UNL     1       6.236  41.726  61.834  1.00  0.00    -0.319 N 
ATOM      2  H2  UNL     1       6.830  42.195  62.518  1.00  0.00     0.169 HD
HETATM    3  C11 UNL     1       4.894  42.116  61.803  1.00  0.00     0.274 C 
HETATM    4  O3  UNL     1       4.103  41.549  60.990  1.00  0.00    -0.266 OA
ENDROOT
BRANCH   3   5
HETATM    5  C12 UNL     1       4.313  43.150  62.659  1.00  0.00     0.127 A 
HETATM    6  C13 UNL     1       4.419  43.249  64.030  1.00  0.00     0.073 A 
HETATM    7  C14 UNL     1       3.692  44.348  64.468  1.00  0.00     0.135 A 
HETATM    8  N3  UNL     1       3.175  44.874  63.367  1.00  0.00    -0.289 N 
HETATM    9  N4  UNL     1       3.544  44.160  62.279  1.00  0.00    -0.250 N 
ATOM     10  H3  UNL     1       2.581  45.702  63.343  1.00  0.00     0.187 HD
BRANCH   7  11
HETATM   11  C15 UNL     1       3.602  44.725  65.892  1.00  0.00     0.434 C 
HETATM   12  F1  UNL     1       2.316  45.094  66.251  1.00  0.00    -0.165 F 
HETATM   13  F2  UNL     1       4.467  45.755  66.147  1.00  0.00    -0.165 F 
HETATM   14  F3  UNL     1       3.914  43.606  66.654  1.00  0.00    -0.165 F 
ENDBRANCH   7  11
BRANCH   9  15
HETATM   15  C16 UNL     1       3.050  44.538  61.005  1.00  0.00     0.065 A 
HETATM   16  C17 UNL     1       3.873  45.328  60.189  1.00  0.00     0.032 A 
HETATM   17  C18 UNL     1       3.500  45.705  58.934  1.00  0.00     0.002 A 
HETATM   18  C19 UNL     1       2.283  45.314  58.421  1.00  0.00     0.001 A 
HETATM   19  C20 UNL     1       1.461  44.529  59.226  1.00  0.00     0.011 A 
HETATM   20  C21 UNL     1       1.834  44.145  60.501  1.00  0.00    -0.004 A 
BRANCH  20  21
HETATM   21  C22 UNL     1       0.959  43.348  61.400  1.00  0.00     0.270 C 
BRANCH  21  22
HETATM   22  N5  UNL     1       1.064  41.931  61.244  1.00  0.00    -0.075 N 
ATOM     23  H53 UNL     1       1.831  41.702  60.612  1.00  0.00     0.274 HD
ATOM     24  H52 UNL     1       1.411  41.507  62.105  1.00  0.00     0.274 HD
ATOM     25  H51 UNL     1       0.208  41.466  60.942  1.00  0.00     0.274 HD
ENDBRANCH  21  22
ENDBRANCH  20  21
ENDBRANCH   9  15
ENDBRANCH   3   5
BRANCH   1  26
HETATM   26  C10 UNL     1       6.858  40.751  61.021  1.00  0.00     0.074 A 
HETATM   27  C9  UNL     1       6.658  39.400  61.112  1.00  0.00     0.034 A 
HETATM   28  C8  UNL     1       7.269  38.487  60.242  1.00  0.00     0.014 A 
HETATM   29  C7  UNL     1       8.113  38.906  59.239  1.00  0.00    -0.021 A 
HETATM   30  C24 UNL     1       8.317  40.264  59.147  1.00  0.00     0.057 A 
HETATM   31  C23 UNL     1       7.729  41.171  59.986  1.00  0.00     0.143 A 
HETATM   32  F4  UNL     1       7.951  42.504  59.883  1.00  0.00    -0.204 F 
BRANCH  29  33
HETATM   33  C6  UNL     1       8.763  37.992  58.315  1.00  0.00    -0.003 A 
HETATM   34  C1  UNL     1       8.133  37.662  57.109  1.00  0.00     0.090 A 
HETATM   35  C2  UNL     1       8.761  36.785  56.220  1.00  0.00     0.026 A 
HETATM   36  C3  UNL     1       9.982  36.240  56.503  1.00  0.00     0.002 A 
HETATM   37  C4  UNL     1      10.605  36.562  57.683  1.00  0.00     0.001 A 
HETATM   38  C5  UNL     1       9.982  37.419  58.546  1.00  0.00     0.014 A 
BRANCH  34  39
HETATM   39  S1  UNL     1       6.593  38.324  56.712  1.00  0.00     0.257 S 
HETATM   40  O1  UNL     1       6.566  39.829  56.765  1.00  0.00    -0.201 OA
HETATM   41  O2  UNL     1       5.496  37.754  57.611  1.00  0.00    -0.201 OA
BRANCH  39  42
HETATM   42  N1  UNL     1       6.170  37.825  55.113  1.00  0.00    -0.324 N 
ATOM     43  H12 UNL     1       5.282  38.026  54.654  1.00  0.00     0.169 HD
ATOM     44  H11 UNL     1       6.953  37.303  54.720  1.00  0.00     0.169 HD
ENDBRANCH  39  42
ENDBRANCH  34  39
ENDBRANCH  29  33
ENDBRANCH   1  26
TORSDOF 9
ENDMDL
