MODEL 3
REMARK VINA RESULT: -11.512613337      1.062      1.887
REMARK  9 active torsions:
REMARK  status: ('A' for Active; 'I' for Inactive)
REMARK    1  A    between atoms: N1_1  and  S1_4 
REMARK    2  A    between atoms: S1_4  and  C1_7 
REMARK    3  A    between atoms: C6_12  and  C7_13 
REMARK    4  A    between atoms: C10_16  and  N2_17 
REMARK       I    between atoms: N2_17  and  C11_19 
REMARK    5  A    between atoms: C11_19  and  C12_21 
REMARK    6  A    between atoms: C14_23  and  C15_24 
REMARK    7  A    between atoms: N4_30  and  C16_31 
REMARK    8  A    between atoms: C21_36  and  C22_37 
REMARK    9  A    between atoms: C22_37  and  N5_38 
ROOT
HETATM    1  N2  UNL     1       6.513  41.644  62.014  1.00  0.00    -0.319 N 
ATOM      2  H2  UNL     1       5.500  41.611  62.118  1.00  0.00     0.169 HD
HETATM    3  C11 UNL     1       7.182  42.634  62.740  1.00  0.00     0.274 C 
HETATM    4  O3  UNL     1       8.442  42.737  62.629  1.00  0.00    -0.266 OA
ENDROOT
BRANCH   3   5
HETATM    5  C12 UNL     1       6.528  43.586  63.636  1.00  0.00     0.127 A 
HETATM    6  C13 UNL     1       5.174  43.730  63.849  1.00  0.00     0.073 A 
HETATM    7  C14 UNL     1       4.958  44.772  64.742  1.00  0.00     0.135 A 
HETATM    8  N3  UNL     1       6.169  45.221  65.038  1.00  0.00    -0.289 N 
HETATM    9  N4  UNL     1       7.115  44.514  64.377  1.00  0.00    -0.250 N 
ATOM     10  H3  UNL     1       6.361  45.994  65.675  1.00  0.00     0.187 HD
BRANCH   7  11
HETATM   11  C15 UNL     1       3.608  45.181  65.174  1.00  0.00     0.434 C 
HETATM   12  F1  UNL     1       2.755  44.098  65.308  1.00  0.00    -0.165 F 
HETATM   13  F2  UNL     1       3.088  46.069  64.271  1.00  0.00    -0.165 F 
HETATM   14  F3  UNL     1       3.714  45.751  66.437  1.00  0.00    -0.165 F 
ENDBRANCH   7  11
BRANCH   9  15
HETATM   15  C16 UNL     1       8.476  44.877  64.526  1.00  0.00     0.065 A 
HETATM   16  C17 UNL     1       8.985  45.881  63.689  1.00  0.00     0.032 A 
HETATM   17  C18 UNL     1      10.269  46.324  63.787  1.00  0.00     0.002 A 
HETATM   18  C19 UNL     1      11.121  45.791  64.728  1.00  0.00     0.001 A 
HETATM   19  C20 UNL     1      10.623  44.793  65.564  1.00  0.00     0.011 A 
HETATM   20  C21 UNL     1       9.322  44.339  65.467  1.00  0.00    -0.004 A 
BRANCH  20  21
HETATM   21  C22 UNL     1       8.776  43.245  66.312  1.00  0.00     0.270 C 
BRANCH  21  22
HETATM   22  N5  UNL     1       9.600  42.866  67.417  1.00  0.00    -0.075 N 
ATOM     23  H53 UNL     1      10.561  42.726  67.106  1.00  0.00     0.274 HD
ATOM     24  H52 UNL     1       9.731  43.658  68.047  1.00  0.00     0.274 HD
ATOM     25  H51 UNL     1       9.276  42.051  67.937  1.00  0.00     0.274 HD
ENDBRANCH  21  22
ENDBRANCH  20  21
ENDBRANCH   9  15
ENDBRANCH   3   5
BRANCH   1  26
HETATM   26  C10 UNL     1       7.091  40.684  61.151  1.00  0.00     0.074 A 
HETATM   27  C9  UNL     1       7.062  39.329  61.343  1.00  0.00     0.034 A 
HETATM   28  C8  UNL     1       7.612  38.425  60.424  1.00  0.00     0.014 A 
HETATM   29  C7  UNL     1       8.216  38.858  59.265  1.00  0.00    -0.021 A 
HETATM   30  C24 UNL     1       8.246  40.220  59.071  1.00  0.00     0.057 A 
HETATM   31  C23 UNL     1       7.714  41.118  59.956  1.00  0.00     0.143 A 
HETATM   32  F4  UNL     1       7.764  42.456  59.748  1.00  0.00    -0.204 F 
BRANCH  29  33
HETATM   33  C6  UNL     1       8.794  37.953  58.286  1.00  0.00    -0.003 A 
HETATM   34  C1  UNL     1       8.078  37.643  57.123  1.00  0.00     0.090 A 
HETATM   35  C2  UNL     1       8.637  36.775  56.181  1.00  0.00     0.026 A 
HETATM   36  C3  UNL     1       9.872  36.220  56.369  1.00  0.00     0.002 A 
HETATM   37  C4  UNL     1      10.579  36.524  57.507  1.00  0.00     0.001 A 
HETATM   38  C5  UNL     1      10.022  37.372  58.422  1.00  0.00     0.014 A 
BRANCH  34  39
HETATM   39  S1  UNL     1       6.518  38.317  56.844  1.00  0.00     0.257 S 
HETATM   40  O1  UNL     1       6.551  39.804  56.609  1.00  0.00    -0.201 OA
HETATM   41  O2  UNL     1       5.561  37.995  57.993  1.00  0.00    -0.201 OA
BRANCH  39  42
HETATM   42  N1  UNL     1       5.826  37.559  55.456  1.00  0.00    -0.324 N 
ATOM     43  H12 UNL     1       5.639  38.024  54.568  1.00  0.00     0.169 HD
ATOM     44  H11 UNL     1       5.641  36.581  55.680  1.00  0.00     0.169 HD
ENDBRANCH  39  42
ENDBRANCH  34  39
ENDBRANCH  29  33
ENDBRANCH   1  26
TORSDOF 9
ENDMDL
