MODEL 9
REMARK VINA RESULT: -9.045499989      3.105      5.162
REMARK  9 active torsions:
REMARK  status: ('A' for Active; 'I' for Inactive)
REMARK    1  A    between atoms: N1_1  and  S1_4 
REMARK    2  A    between atoms: S1_4  and  C1_7 
REMARK    3  A    between atoms: C6_12  and  C7_13 
REMARK    4  A    between atoms: C10_16  and  N2_17 
REMARK       I    between atoms: N2_17  and  C11_19 
REMARK    5  A    between atoms: C11_19  and  C12_21 
REMARK    6  A    between atoms: C14_23  and  C15_24 
REMARK    7  A    between atoms: N4_30  and  C16_31 
REMARK    8  A    between atoms: C21_36  and  C22_37 
REMARK    9  A    between atoms: C22_37  and  N5_38 
ROOT
HETATM    1  N2  UNL     1       5.886  41.096  62.294  1.00  0.00    -0.319 N 
ATOM      2  H2  UNL     1       6.360  41.285  63.177  1.00  0.00     0.169 HD
HETATM    3  C11 UNL     1       4.638  41.699  62.115  1.00  0.00     0.274 C 
HETATM    4  O3  UNL     1       3.992  41.479  61.045  1.00  0.00    -0.266 OA
ENDROOT
BRANCH   3   5
HETATM    5  C12 UNL     1       3.999  42.582  63.090  1.00  0.00     0.127 A 
HETATM    6  C13 UNL     1       4.587  43.620  63.780  1.00  0.00     0.073 A 
HETATM    7  C14 UNL     1       3.655  44.186  64.640  1.00  0.00     0.135 A 
HETATM    8  N3  UNL     1       2.547  43.484  64.448  1.00  0.00    -0.289 N 
HETATM    9  N4  UNL     1       2.747  42.521  63.520  1.00  0.00    -0.250 N 
ATOM     10  H3  UNL     1       1.666  43.648  64.934  1.00  0.00     0.187 HD
BRANCH   7  11
HETATM   11  C15 UNL     1       3.976  45.323  65.524  1.00  0.00     0.434 C 
HETATM   12  F1  UNL     1       3.460  45.152  66.798  1.00  0.00    -0.165 F 
HETATM   13  F2  UNL     1       3.487  46.479  64.978  1.00  0.00    -0.165 F 
HETATM   14  F3  UNL     1       5.358  45.379  65.667  1.00  0.00    -0.165 F 
ENDBRANCH   7  11
BRANCH   9  15
HETATM   15  C16 UNL     1       1.689  41.630  63.211  1.00  0.00     0.065 A 
HETATM   16  C17 UNL     1       0.667  42.091  62.369  1.00  0.00     0.032 A 
HETATM   17  C18 UNL     1      -0.369  41.293  61.983  1.00  0.00     0.002 A 
HETATM   18  C19 UNL     1      -0.443  39.989  62.416  1.00  0.00     0.001 A 
HETATM   19  C20 UNL     1       0.570  39.524  63.253  1.00  0.00     0.011 A 
HETATM   20  C21 UNL     1       1.621  40.329  63.648  1.00  0.00    -0.004 A 
BRANCH  20  21
HETATM   21  C22 UNL     1       2.690  39.876  64.576  1.00  0.00     0.270 C 
BRANCH  21  22
HETATM   22  N5  UNL     1       3.475  38.779  64.104  1.00  0.00    -0.075 N 
ATOM     23  H53 UNL     1       3.546  38.061  64.825  1.00  0.00     0.274 HD
ATOM     24  H52 UNL     1       2.964  38.262  63.389  1.00  0.00     0.274 HD
ATOM     25  H51 UNL     1       4.404  39.028  63.763  1.00  0.00     0.274 HD
ENDBRANCH  21  22
ENDBRANCH  20  21
ENDBRANCH   9  15
ENDBRANCH   3   5
BRANCH   1  26
HETATM   26  C10 UNL     1       6.563  40.253  61.383  1.00  0.00     0.074 A 
HETATM   27  C9  UNL     1       6.399  38.897  61.288  1.00  0.00     0.034 A 
HETATM   28  C8  UNL     1       7.064  38.122  60.329  1.00  0.00     0.014 A 
HETATM   29  C7  UNL     1       7.929  38.690  59.421  1.00  0.00    -0.021 A 
HETATM   30  C24 UNL     1       8.096  40.053  59.515  1.00  0.00     0.057 A 
HETATM   31  C23 UNL     1       7.455  40.827  60.444  1.00  0.00     0.143 A 
HETATM   32  F4  UNL     1       7.642  42.166  60.525  1.00  0.00    -0.204 F 
BRANCH  29  33
HETATM   33  C6  UNL     1       8.635  37.922  58.409  1.00  0.00    -0.003 A 
HETATM   34  C1  UNL     1       8.050  37.731  57.151  1.00  0.00     0.090 A 
HETATM   35  C2  UNL     1       8.731  36.994  56.179  1.00  0.00     0.026 A 
HETATM   36  C3  UNL     1       9.962  36.455  56.428  1.00  0.00     0.002 A 
HETATM   37  C4  UNL     1      10.542  36.642  57.659  1.00  0.00     0.001 A 
HETATM   38  C5  UNL     1       9.865  37.362  58.603  1.00  0.00     0.014 A 
BRANCH  34  39
HETATM   39  S1  UNL     1       6.500  38.391  56.793  1.00  0.00     0.257 S 
HETATM   40  O1  UNL     1       6.435  39.883  56.984  1.00  0.00    -0.201 OA
HETATM   41  O2  UNL     1       5.404  37.714  57.618  1.00  0.00    -0.201 OA
BRANCH  39  42
HETATM   42  N1  UNL     1       6.111  38.033  55.149  1.00  0.00    -0.324 N 
ATOM     43  H12 UNL     1       5.524  37.256  54.843  1.00  0.00     0.169 HD
ATOM     44  H11 UNL     1       6.565  38.723  54.551  1.00  0.00     0.169 HD
ENDBRANCH  39  42
ENDBRANCH  34  39
ENDBRANCH  29  33
ENDBRANCH   1  26
TORSDOF 9
ENDMDL
