MODEL 6
REMARK VINA RESULT: -9.444036473      2.977      4.792
REMARK  9 active torsions:
REMARK  status: ('A' for Active; 'I' for Inactive)
REMARK    1  A    between atoms: N1_1  and  S1_4 
REMARK    2  A    between atoms: S1_4  and  C1_7 
REMARK    3  A    between atoms: C6_12  and  C7_13 
REMARK    4  A    between atoms: C10_16  and  N2_17 
REMARK       I    between atoms: N2_17  and  C11_19 
REMARK    5  A    between atoms: C11_19  and  C12_21 
REMARK    6  A    between atoms: C14_23  and  C15_24 
REMARK    7  A    between atoms: N4_30  and  C16_31 
REMARK    8  A    between atoms: C21_36  and  C22_37 
REMARK    9  A    between atoms: C22_37  and  N5_38 
ROOT
HETATM    1  N2  UNL     1       6.054  41.114  62.181  1.00  0.00    -0.319 N 
ATOM      2  H2  UNL     1       6.508  41.160  63.093  1.00  0.00     0.169 HD
HETATM    3  C11 UNL     1       4.833  41.783  62.058  1.00  0.00     0.274 C 
HETATM    4  O3  UNL     1       4.212  41.740  60.952  1.00  0.00    -0.266 OA
ENDROOT
BRANCH   3   5
HETATM    5  C12 UNL     1       4.196  42.546  63.131  1.00  0.00     0.127 A 
HETATM    6  C13 UNL     1       4.669  43.697  63.724  1.00  0.00     0.073 A 
HETATM    7  C14 UNL     1       3.794  44.089  64.729  1.00  0.00     0.135 A 
HETATM    8  N3  UNL     1       2.833  43.176  64.716  1.00  0.00    -0.289 N 
HETATM    9  N4  UNL     1       3.069  42.248  63.759  1.00  0.00    -0.250 N 
ATOM     10  H3  UNL     1       2.027  43.174  65.340  1.00  0.00     0.187 HD
BRANCH   7  11
HETATM   11  C15 UNL     1       4.021  45.288  65.558  1.00  0.00     0.434 C 
HETATM   12  F1  UNL     1       3.471  45.157  66.822  1.00  0.00    -0.165 F 
HETATM   13  F2  UNL     1       3.487  46.383  64.933  1.00  0.00    -0.165 F 
HETATM   14  F3  UNL     1       5.391  45.432  65.741  1.00  0.00    -0.165 F 
ENDBRANCH   7  11
BRANCH   9  15
HETATM   15  C16 UNL     1       2.175  41.158  63.620  1.00  0.00     0.065 A 
HETATM   16  C17 UNL     1       2.461  39.979  64.323  1.00  0.00     0.032 A 
HETATM   17  C18 UNL     1       1.637  38.894  64.283  1.00  0.00     0.002 A 
HETATM   18  C19 UNL     1       0.479  38.924  63.539  1.00  0.00     0.001 A 
HETATM   19  C20 UNL     1       0.188  40.093  62.838  1.00  0.00     0.011 A 
HETATM   20  C21 UNL     1       1.021  41.195  62.874  1.00  0.00    -0.004 A 
BRANCH  20  21
HETATM   21  C22 UNL     1       0.762  42.438  62.100  1.00  0.00     0.270 C 
BRANCH  21  22
HETATM   22  N5  UNL     1       1.268  42.434  60.764  1.00  0.00    -0.075 N 
ATOM     23  H53 UNL     1       2.085  43.041  60.695  1.00  0.00     0.274 HD
ATOM     24  H52 UNL     1       1.697  41.533  60.552  1.00  0.00     0.274 HD
ATOM     25  H51 UNL     1       0.588  42.677  60.044  1.00  0.00     0.274 HD
ENDBRANCH  21  22
ENDBRANCH  20  21
ENDBRANCH   9  15
ENDBRANCH   3   5
BRANCH   1  26
HETATM   26  C10 UNL     1       6.728  40.381  61.177  1.00  0.00     0.074 A 
HETATM   27  C9  UNL     1       7.647  40.896  60.303  1.00  0.00     0.034 A 
HETATM   28  C8  UNL     1       8.317  40.105  59.361  1.00  0.00     0.014 A 
HETATM   29  C7  UNL     1       8.085  38.752  59.263  1.00  0.00    -0.021 A 
HETATM   30  C24 UNL     1       7.161  38.232  60.141  1.00  0.00     0.057 A 
HETATM   31  C23 UNL     1       6.496  38.988  61.068  1.00  0.00     0.143 A 
HETATM   32  F4  UNL     1       5.583  38.456  61.916  1.00  0.00    -0.204 F 
BRANCH  29  33
HETATM   33  C6  UNL     1       8.762  37.897  58.303  1.00  0.00    -0.003 A 
HETATM   34  C1  UNL     1       8.162  37.637  57.064  1.00  0.00     0.090 A 
HETATM   35  C2  UNL     1       8.817  36.817  56.141  1.00  0.00     0.026 A 
HETATM   36  C3  UNL     1      10.034  36.262  56.420  1.00  0.00     0.002 A 
HETATM   37  C4  UNL     1      10.627  36.516  57.631  1.00  0.00     0.001 A 
HETATM   38  C5  UNL     1       9.978  37.317  58.528  1.00  0.00     0.014 A 
BRANCH  34  39
HETATM   39  S1  UNL     1       6.629  38.314  56.670  1.00  0.00     0.257 S 
HETATM   40  O1  UNL     1       6.584  39.810  56.833  1.00  0.00    -0.201 OA
HETATM   41  O2  UNL     1       5.511  37.670  57.491  1.00  0.00    -0.201 OA
BRANCH  39  42
HETATM   42  N1  UNL     1       6.259  37.930  55.027  1.00  0.00    -0.324 N 
ATOM     43  H12 UNL     1       5.929  37.023  54.699  1.00  0.00     0.169 HD
ATOM     44  H11 UNL     1       6.426  38.759  54.456  1.00  0.00     0.169 HD
ENDBRANCH  39  42
ENDBRANCH  34  39
ENDBRANCH  29  33
ENDBRANCH   1  26
TORSDOF 9
ENDMDL
