MODEL 1
REMARK VINA RESULT: -6.387030739      0.000      0.000
REMARK  14 active torsions:
REMARK  status: ('A' for Active; 'I' for Inactive)
REMARK       I    between atoms: C2_2  and  N1_4 
REMARK    1  A    between atoms: N1_4  and  C3_6 
REMARK    2  A    between atoms: C4_7  and  O2_8 
REMARK    3  A    between atoms: O2_8  and  C5_9 
REMARK    4  A    between atoms: C8_12  and  N2_13 
REMARK    5  A    between atoms: C11_19  and  C12_20 
REMARK    6  A    between atoms: C12_20  and  O6_21 
REMARK    7  A    between atoms: C13_23  and  O7_24 
REMARK    8  A    between atoms: C14_26  and  O8_27 
REMARK    9  A    between atoms: O8_27  and  C15_28 
REMARK   10  A    between atoms: C16_30  and  C17_31 
REMARK   11  A    between atoms: C17_31  and  O10_32 
REMARK   12  A    between atoms: C18_34  and  O11_35 
REMARK   13  A    between atoms: C19_37  and  O12_38 
REMARK   14  A    between atoms: C20_40  and  O13_41 
ROOT
HETATM    1  C3  UNL     1     -16.101   4.283 -28.989  1.00  0.00     0.171 C 
HETATM    2  C4  UNL     1     -17.417   3.665 -28.503  1.00  0.00     0.292 C 
HETATM    3  O5  UNL     1     -18.488   4.128 -29.241  1.00  0.00    -0.349 OA
HETATM    4  C11 UNL     1     -18.616   5.478 -29.313  1.00  0.00     0.179 C 
HETATM    5  C13 UNL     1     -17.354   6.206 -29.698  1.00  0.00     0.180 C 
HETATM    6  C14 UNL     1     -16.233   5.767 -28.727  1.00  0.00     0.183 C 
ENDROOT
BRANCH   6   7
HETATM    7  O8  UNL     1     -15.084   6.477 -28.973  1.00  0.00    -0.348 OA
BRANCH   7   8
HETATM    8  C15 UNL     1     -15.185   7.714 -28.310  1.00  0.00     0.292 C 
HETATM    9  O9  UNL     1     -14.993   8.667 -29.307  1.00  0.00    -0.348 OA
HETATM   10  C16 UNL     1     -15.342   9.943 -28.889  1.00  0.00     0.179 C 
HETATM   11  C18 UNL     1     -14.793  10.253 -27.519  1.00  0.00     0.180 C 
HETATM   12  C19 UNL     1     -13.717   9.263 -27.121  1.00  0.00     0.183 C 
HETATM   13  C20 UNL     1     -14.120   7.834 -27.271  1.00  0.00     0.204 C 
BRANCH  10  14
HETATM   14  C17 UNL     1     -14.881  10.980 -29.879  1.00  0.00     0.198 C 
BRANCH  14  15
HETATM   15  O10 UNL     1     -13.618  10.676 -30.355  1.00  0.00    -0.398 OA
ATOM     16  H10 UNL     1     -13.245  11.416 -30.819  1.00  0.00     0.209 HD
ENDBRANCH  14  15
ENDBRANCH  10  14
BRANCH  11  17
HETATM   17  O11 UNL     1     -14.197  11.509 -27.575  1.00  0.00    -0.390 OA
ATOM     18  H11 UNL     1     -13.601  11.579 -26.839  1.00  0.00     0.210 HD
ENDBRANCH  11  17
BRANCH  12  19
HETATM   19  O12 UNL     1     -12.533   9.498 -27.789  1.00  0.00    -0.390 OA
ATOM     20  H12 UNL     1     -11.781   9.418 -27.214  1.00  0.00     0.210 HD
ENDBRANCH  12  19
BRANCH  13  21
HETATM   21  O13 UNL     1     -14.674   7.421 -26.035  1.00  0.00    -0.388 OA
ATOM     22  H13 UNL     1     -15.256   8.108 -25.734  1.00  0.00     0.210 HD
ENDBRANCH  13  21
ENDBRANCH   7   8
ENDBRANCH   6   7
BRANCH   1  23
HETATM   23  N1  UNL     1     -14.973   3.676 -28.372  1.00  0.00    -0.349 N 
HETATM   24  C2  UNL     1     -14.521   2.352 -28.631  1.00  0.00     0.214 C 
HETATM   25  C1  UNL     1     -13.344   1.745 -27.974  1.00  0.00     0.117 C 
HETATM   26  O1  UNL     1     -15.153   1.670 -29.459  1.00  0.00    -0.274 OA
ATOM     27  H1  UNL     1     -14.450   4.230 -27.693  1.00  0.00     0.163 HD
ENDBRANCH   1  23
BRANCH   5  28
HETATM   28  O7  UNL     1     -16.895   5.896 -30.961  1.00  0.00    -0.390 OA
ATOM     29  H7  UNL     1     -17.445   6.229 -31.661  1.00  0.00     0.210 HD
ENDBRANCH   5  28
BRANCH   2  30
HETATM   30  O2  UNL     1     -17.611   4.091 -27.190  1.00  0.00    -0.318 OA
BRANCH  30  31
HETATM   31  C5  UNL     1     -16.993   3.590 -26.067  1.00  0.00     0.072 A 
HETATM   32  C6  UNL     1     -17.022   2.279 -25.658  1.00  0.00     0.039 A 
HETATM   33  C7  UNL     1     -16.368   1.851 -24.505  1.00  0.00     0.039 A 
HETATM   34  C8  UNL     1     -15.658   2.723 -23.719  1.00  0.00     0.103 A 
HETATM   35  C9  UNL     1     -15.610   4.064 -24.110  1.00  0.00     0.039 A 
HETATM   36  C10 UNL     1     -16.262   4.461 -25.248  1.00  0.00     0.039 A 
BRANCH  34  37
HETATM   37  N2  UNL     1     -14.993   2.292 -22.548  1.00  0.00    -0.116 N 
HETATM   38  O3  UNL     1     -13.761   2.394 -22.474  1.00  0.00    -0.532 OA
HETATM   39  O4  UNL     1     -15.679   1.765 -21.492  1.00  0.00    -0.532 OA
ENDBRANCH  34  37
ENDBRANCH  30  31
ENDBRANCH   2  30
BRANCH   4  40
HETATM   40  C12 UNL     1     -19.802   5.919 -30.143  1.00  0.00     0.198 C 
BRANCH  40  41
HETATM   41  O6  UNL     1     -19.551   7.074 -30.852  1.00  0.00    -0.398 OA
ATOM     42  H6  UNL     1     -19.578   6.939 -31.792  1.00  0.00     0.209 HD
ENDBRANCH  40  41
ENDBRANCH   4  40
TORSDOF 14
ENDMDL
