MODEL 2
REMARK VINA RESULT: -6.273339861      1.380      1.721
REMARK  14 active torsions:
REMARK  status: ('A' for Active; 'I' for Inactive)
REMARK       I    between atoms: C2_2  and  N1_4 
REMARK    1  A    between atoms: N1_4  and  C3_6 
REMARK    2  A    between atoms: C4_7  and  O2_8 
REMARK    3  A    between atoms: O2_8  and  C5_9 
REMARK    4  A    between atoms: C8_12  and  N2_13 
REMARK    5  A    between atoms: C11_19  and  C12_20 
REMARK    6  A    between atoms: C12_20  and  O6_21 
REMARK    7  A    between atoms: C13_23  and  O7_24 
REMARK    8  A    between atoms: C14_26  and  O8_27 
REMARK    9  A    between atoms: O8_27  and  C15_28 
REMARK   10  A    between atoms: C16_30  and  C17_31 
REMARK   11  A    between atoms: C17_31  and  O10_32 
REMARK   12  A    between atoms: C18_34  and  O11_35 
REMARK   13  A    between atoms: C19_37  and  O12_38 
REMARK   14  A    between atoms: C20_40  and  O13_41 
ROOT
HETATM    1  C3  UNL     1     -15.967   3.241 -28.153  1.00  0.00     0.171 C 
HETATM    2  C4  UNL     1     -17.008   2.601 -27.227  1.00  0.00     0.292 C 
HETATM    3  O5  UNL     1     -18.288   2.795 -27.706  1.00  0.00    -0.349 OA
HETATM    4  C11 UNL     1     -18.633   4.084 -27.962  1.00  0.00     0.179 C 
HETATM    5  C13 UNL     1     -17.635   4.845 -28.795  1.00  0.00     0.180 C 
HETATM    6  C14 UNL     1     -16.253   4.726 -28.113  1.00  0.00     0.183 C 
ENDROOT
BRANCH   6   7
HETATM    7  O8  UNL     1     -15.324   5.486 -28.780  1.00  0.00    -0.348 OA
BRANCH   7   8
HETATM    8  C15 UNL     1     -15.430   6.811 -28.316  1.00  0.00     0.292 C 
HETATM    9  O9  UNL     1     -14.973   7.594 -29.373  1.00  0.00    -0.348 OA
HETATM   10  C16 UNL     1     -15.273   8.937 -29.199  1.00  0.00     0.179 C 
HETATM   11  C18 UNL     1     -14.956   9.405 -27.801  1.00  0.00     0.180 C 
HETATM   12  C19 UNL     1     -14.066   8.416 -27.078  1.00  0.00     0.183 C 
HETATM   13  C20 UNL     1     -14.565   7.010 -27.115  1.00  0.00     0.204 C 
BRANCH  10  14
HETATM   14  C17 UNL     1     -14.547   9.787 -30.208  1.00  0.00     0.198 C 
BRANCH  14  15
HETATM   15  O10 UNL     1     -14.274   9.061 -31.355  1.00  0.00    -0.398 OA
ATOM     16  H10 UNL     1     -14.646   9.486 -32.119  1.00  0.00     0.209 HD
ENDBRANCH  14  15
ENDBRANCH  10  14
BRANCH  11  17
HETATM   17  O11 UNL     1     -14.248  10.598 -27.904  1.00  0.00    -0.390 OA
ATOM     18  H11 UNL     1     -13.429  10.490 -27.435  1.00  0.00     0.210 HD
ENDBRANCH  11  17
BRANCH  12  19
HETATM   19  O12 UNL     1     -12.764   8.473 -27.531  1.00  0.00    -0.390 OA
ATOM     20  H12 UNL     1     -12.332   7.628 -27.471  1.00  0.00     0.210 HD
ENDBRANCH  12  19
BRANCH  13  21
HETATM   21  O13 UNL     1     -15.370   6.818 -25.966  1.00  0.00    -0.388 OA
ATOM     22  H13 UNL     1     -14.793   6.773 -25.213  1.00  0.00     0.210 HD
ENDBRANCH  13  21
ENDBRANCH   7   8
ENDBRANCH   6   7
BRANCH   1  23
HETATM   23  N1  UNL     1     -14.641   2.888 -27.779  1.00  0.00    -0.349 N 
HETATM   24  C2  UNL     1     -13.980   1.690 -28.170  1.00  0.00     0.214 C 
HETATM   25  C1  UNL     1     -12.599   1.348 -27.767  1.00  0.00     0.117 C 
HETATM   26  O1  UNL     1     -14.600   0.889 -28.894  1.00  0.00    -0.274 OA
ATOM     27  H1  UNL     1     -14.126   3.540 -27.187  1.00  0.00     0.163 HD
ENDBRANCH   1  23
BRANCH   5  28
HETATM   28  O7  UNL     1     -17.468   4.338 -30.067  1.00  0.00    -0.390 OA
ATOM     29  H7  UNL     1     -17.511   3.390 -30.111  1.00  0.00     0.210 HD
ENDBRANCH   5  28
BRANCH   2  30
HETATM   30  O2  UNL     1     -16.927   3.258 -26.000  1.00  0.00    -0.318 OA
BRANCH  30  31
HETATM   31  C5  UNL     1     -16.373   2.764 -24.842  1.00  0.00     0.072 A 
HETATM   32  C6  UNL     1     -15.166   3.146 -24.308  1.00  0.00     0.039 A 
HETATM   33  C7  UNL     1     -14.674   2.596 -23.128  1.00  0.00     0.039 A 
HETATM   34  C8  UNL     1     -15.375   1.640 -22.436  1.00  0.00     0.103 A 
HETATM   35  C9  UNL     1     -16.607   1.231 -22.954  1.00  0.00     0.039 A 
HETATM   36  C10 UNL     1     -17.070   1.787 -24.118  1.00  0.00     0.039 A 
BRANCH  34  37
HETATM   37  N2  UNL     1     -14.878   1.079 -21.237  1.00  0.00    -0.116 N 
HETATM   38  O3  UNL     1     -14.450   1.826 -20.346  1.00  0.00    -0.532 OA
HETATM   39  O4  UNL     1     -14.860  -0.271 -21.036  1.00  0.00    -0.532 OA
ENDBRANCH  34  37
ENDBRANCH  30  31
ENDBRANCH   2  30
BRANCH   4  40
HETATM   40  C12 UNL     1     -20.043   4.227 -28.493  1.00  0.00     0.198 C 
BRANCH  40  41
HETATM   41  O6  UNL     1     -20.174   5.284 -29.369  1.00  0.00    -0.398 OA
ATOM     42  H6  UNL     1     -20.223   6.122 -28.924  1.00  0.00     0.209 HD
ENDBRANCH  40  41
ENDBRANCH   4  40
TORSDOF 14
ENDMDL
