MODEL 3
REMARK VINA RESULT: -6.204930882      3.630      8.610
REMARK  14 active torsions:
REMARK  status: ('A' for Active; 'I' for Inactive)
REMARK       I    between atoms: C2_2  and  N1_4 
REMARK    1  A    between atoms: N1_4  and  C3_6 
REMARK    2  A    between atoms: C4_7  and  O2_8 
REMARK    3  A    between atoms: O2_8  and  C5_9 
REMARK    4  A    between atoms: C8_12  and  N2_13 
REMARK    5  A    between atoms: C11_19  and  C12_20 
REMARK    6  A    between atoms: C12_20  and  O6_21 
REMARK    7  A    between atoms: C13_23  and  O7_24 
REMARK    8  A    between atoms: C14_26  and  O8_27 
REMARK    9  A    between atoms: O8_27  and  C15_28 
REMARK   10  A    between atoms: C16_30  and  C17_31 
REMARK   11  A    between atoms: C17_31  and  O10_32 
REMARK   12  A    between atoms: C18_34  and  O11_35 
REMARK   13  A    between atoms: C19_37  and  O12_38 
REMARK   14  A    between atoms: C20_40  and  O13_41 
ROOT
HETATM    1  C3  UNL     1     -15.059   8.618 -29.526  1.00  0.00     0.171 C 
HETATM    2  C4  UNL     1     -14.971  10.128 -29.277  1.00  0.00     0.292 C 
HETATM    3  O5  UNL     1     -14.075  10.415 -28.268  1.00  0.00    -0.349 OA
HETATM    4  C11 UNL     1     -14.284   9.769 -27.092  1.00  0.00     0.179 C 
HETATM    5  C13 UNL     1     -14.475   8.280 -27.222  1.00  0.00     0.180 C 
HETATM    6  C14 UNL     1     -15.607   8.031 -28.245  1.00  0.00     0.183 C 
ENDROOT
BRANCH   6   7
HETATM    7  O8  UNL     1     -15.890   6.690 -28.326  1.00  0.00    -0.348 OA
BRANCH   7   8
HETATM    8  C15 UNL     1     -16.083   6.204 -27.019  1.00  0.00     0.292 C 
HETATM    9  O9  UNL     1     -15.169   5.163 -26.889  1.00  0.00    -0.348 OA
HETATM   10  C16 UNL     1     -15.021   4.755 -25.571  1.00  0.00     0.179 C 
HETATM   11  C18 UNL     1     -16.353   4.598 -24.882  1.00  0.00     0.180 C 
HETATM   12  C19 UNL     1     -17.490   4.562 -25.882  1.00  0.00     0.183 C 
HETATM   13  C20 UNL     1     -17.476   5.690 -26.859  1.00  0.00     0.204 C 
BRANCH  10  14
HETATM   14  C17 UNL     1     -14.239   3.471 -25.488  1.00  0.00     0.198 C 
BRANCH  14  15
HETATM   15  O10 UNL     1     -14.683   2.565 -26.436  1.00  0.00    -0.398 OA
ATOM     16  H10 UNL     1     -14.075   1.840 -26.520  1.00  0.00     0.209 HD
ENDBRANCH  14  15
ENDBRANCH  10  14
BRANCH  11  17
HETATM   17  O11 UNL     1     -16.346   3.374 -24.220  1.00  0.00    -0.390 OA
ATOM     18  H11 UNL     1     -16.610   3.530 -23.321  1.00  0.00     0.210 HD
ENDBRANCH  11  17
BRANCH  12  19
HETATM   19  O12 UNL     1     -17.547   3.354 -26.548  1.00  0.00    -0.390 OA
ATOM     20  H12 UNL     1     -18.133   2.742 -26.117  1.00  0.00     0.210 HD
ENDBRANCH  12  19
BRANCH  13  21
HETATM   21  O13 UNL     1     -18.261   6.732 -26.310  1.00  0.00    -0.388 OA
ATOM     22  H13 UNL     1     -18.337   7.415 -26.966  1.00  0.00     0.210 HD
ENDBRANCH  13  21
ENDBRANCH   7   8
ENDBRANCH   6   7
BRANCH   1  23
HETATM   23  N1  UNL     1     -15.828   8.318 -30.685  1.00  0.00    -0.349 N 
HETATM   24  C2  UNL     1     -15.420   8.589 -32.021  1.00  0.00     0.214 C 
HETATM   25  C1  UNL     1     -16.239   8.266 -33.209  1.00  0.00     0.117 C 
HETATM   26  O1  UNL     1     -14.310   9.126 -32.197  1.00  0.00    -0.274 OA
ATOM     27  H1  UNL     1     -16.737   7.877 -30.549  1.00  0.00     0.163 HD
ENDBRANCH   1  23
BRANCH   5  28
HETATM   28  O7  UNL     1     -13.372   7.618 -27.717  1.00  0.00    -0.390 OA
ATOM     29  H7  UNL     1     -13.004   6.981 -27.115  1.00  0.00     0.210 HD
ENDBRANCH   5  28
BRANCH   2  30
HETATM   30  O2  UNL     1     -16.226  10.547 -28.842  1.00  0.00    -0.318 OA
BRANCH  30  31
HETATM   31  C5  UNL     1     -16.650  11.848 -28.695  1.00  0.00     0.072 A 
HETATM   32  C6  UNL     1     -15.833  12.943 -28.555  1.00  0.00     0.039 A 
HETATM   33  C7  UNL     1     -16.342  14.231 -28.411  1.00  0.00     0.039 A 
HETATM   34  C8  UNL     1     -17.693  14.470 -28.401  1.00  0.00     0.103 A 
HETATM   35  C9  UNL     1     -18.550  13.375 -28.542  1.00  0.00     0.039 A 
HETATM   36  C10 UNL     1     -18.025  12.117 -28.682  1.00  0.00     0.039 A 
BRANCH  34  37
HETATM   37  N2  UNL     1     -18.213  15.776 -28.255  1.00  0.00    -0.116 N 
HETATM   38  O3  UNL     1     -19.379  16.011 -28.604  1.00  0.00    -0.532 OA
HETATM   39  O4  UNL     1     -17.460  16.789 -27.735  1.00  0.00    -0.532 OA
ENDBRANCH  34  37
ENDBRANCH  30  31
ENDBRANCH   2  30
BRANCH   4  40
HETATM   40  C12 UNL     1     -13.263  10.121 -26.031  1.00  0.00     0.198 C 
BRANCH  40  41
HETATM   41  O6  UNL     1     -12.847  11.433 -26.110  1.00  0.00    -0.398 OA
ATOM     42  H6  UNL     1     -12.981  11.908 -25.298  1.00  0.00     0.209 HD
ENDBRANCH  40  41
ENDBRANCH   4  40
TORSDOF 14
ENDMDL
