MODEL 1
REMARK VINA RESULT: -7.837992343      0.000      0.000
REMARK  8 active torsions:
REMARK  status: ('A' for Active; 'I' for Inactive)
REMARK    1  A    between atoms: O1_2  and  C2_3 
REMARK    2  A    between atoms: C4_9  and  N3_10 
REMARK    3  A    between atoms: N3_10  and  C5_12 
REMARK    4  A    between atoms: C5_12  and  C6_13 
REMARK    5  A    between atoms: C6_13  and  C7_14 
REMARK    6  A    between atoms: C10_17  and  S1_18 
REMARK    7  A    between atoms: S1_18  and  N4_19 
REMARK    8  A    between atoms: C13_26  and  N5_27 
ROOT
HETATM    1  N3  UNL     1      -3.698   4.252  11.629  1.00  0.00    -0.374 N 
ATOM      2  H3  UNL     1      -4.678   4.348  11.365  1.00  0.00     0.161 HD
ENDROOT
BRANCH   1   3
HETATM    3  C4  UNL     1      -2.974   3.124  11.163  1.00  0.00     0.140 A 
HETATM    4  N2  UNL     1      -1.726   3.186  10.668  1.00  0.00    -0.337 N 
HETATM    5  C3  UNL     1      -1.030   2.132  10.229  1.00  0.00     0.184 A 
ATOM      6  H2  UNL     1      -1.278   4.102  10.625  1.00  0.00     0.168 HD
HETATM    7  N1  UNL     1      -1.619   0.909  10.283  1.00  0.00    -0.331 N 
HETATM    8  C2  UNL     1      -2.870   0.732  10.761  1.00  0.00     0.180 A 
ATOM      9  H1  UNL     1      -1.099   0.097   9.951  1.00  0.00     0.168 HD
HETATM   10  C13 UNL     1      -3.544   1.851  11.202  1.00  0.00     0.197 A 
BRANCH   8  11
HETATM   11  O1  UNL     1      -3.486  -0.510  10.823  1.00  0.00    -0.339 OA
HETATM   12  C1  UNL     1      -2.663  -1.622  11.129  1.00  0.00     0.211 C 
ENDBRANCH   8  11
BRANCH  10  13
HETATM   13  N5  UNL     1      -4.871   1.660  11.708  1.00  0.00    -0.107 N 
HETATM   14  O4  UNL     1      -5.836   2.060  11.016  1.00  0.00    -0.531 OA
HETATM   15  O5  UNL     1      -5.129   1.060  12.911  1.00  0.00    -0.531 OA
ENDBRANCH  10  13
ENDBRANCH   1   3
BRANCH   1  16
HETATM   16  C5  UNL     1      -3.109   5.256  12.452  1.00  0.00     0.126 C 
BRANCH  16  17
HETATM   17  C6  UNL     1      -3.968   5.743  13.578  1.00  0.00     0.058 C 
BRANCH  17  18
HETATM   18  C7  UNL     1      -4.458   4.609  14.402  1.00  0.00    -0.057 A 
HETATM   19  C8  UNL     1      -3.581   3.659  14.920  1.00  0.00     0.009 A 
HETATM   20  C9  UNL     1      -4.029   2.594  15.682  1.00  0.00     0.026 A 
HETATM   21  C10 UNL     1      -5.373   2.446  15.951  1.00  0.00     0.079 A 
HETATM   22  C11 UNL     1      -6.269   3.368  15.452  1.00  0.00     0.026 A 
HETATM   23  C12 UNL     1      -5.795   4.434  14.687  1.00  0.00     0.009 A 
BRANCH  21  24
HETATM   24  S1  UNL     1      -5.913   1.086  16.920  1.00  0.00     0.256 S 
HETATM   25  O2  UNL     1      -5.413  -0.195  16.318  1.00  0.00    -0.201 OA
HETATM   26  O3  UNL     1      -5.461   1.228  18.346  1.00  0.00    -0.201 OA
BRANCH  24  27
HETATM   27  N4  UNL     1      -7.647   1.036  16.880  1.00  0.00    -0.324 N 
ATOM     28  H42 UNL     1      -8.260   1.803  17.157  1.00  0.00     0.169 HD
ATOM     29  H41 UNL     1      -7.937   0.121  16.537  1.00  0.00     0.169 HD
ENDBRANCH  24  27
ENDBRANCH  21  24
ENDBRANCH  17  18
ENDBRANCH  16  17
ENDBRANCH   1  16
TORSDOF 8
ENDMDL
