MODEL 3
REMARK VINA RESULT: -6.967490333      3.848      7.106
REMARK  8 active torsions:
REMARK  status: ('A' for Active; 'I' for Inactive)
REMARK    1  A    between atoms: O1_2  and  C2_3 
REMARK    2  A    between atoms: C4_9  and  N3_10 
REMARK    3  A    between atoms: N3_10  and  C5_12 
REMARK    4  A    between atoms: C5_12  and  C6_13 
REMARK    5  A    between atoms: C6_13  and  C7_14 
REMARK    6  A    between atoms: C10_17  and  S1_18 
REMARK    7  A    between atoms: S1_18  and  N4_19 
REMARK    8  A    between atoms: C13_26  and  N5_27 
ROOT
HETATM    1  N3  UNL     1      -3.557   2.167  13.163  1.00  0.00    -0.374 N 
ATOM      2  H3  UNL     1      -2.608   2.037  13.512  1.00  0.00     0.161 HD
ENDROOT
BRANCH   1   3
HETATM    3  C4  UNL     1      -4.540   2.694  14.040  1.00  0.00     0.140 A 
HETATM    4  N2  UNL     1      -5.170   3.864  13.843  1.00  0.00    -0.337 N 
HETATM    5  C3  UNL     1      -6.101   4.372  14.660  1.00  0.00     0.184 A 
ATOM      6  H2  UNL     1      -4.922   4.403  13.013  1.00  0.00     0.168 HD
HETATM    7  N1  UNL     1      -6.437   3.662  15.767  1.00  0.00    -0.331 N 
HETATM    8  C2  UNL     1      -5.865   2.474  16.062  1.00  0.00     0.180 A 
ATOM      9  H1  UNL     1      -7.145   4.038  16.397  1.00  0.00     0.168 HD
HETATM   10  C13 UNL     1      -4.912   1.994  15.188  1.00  0.00     0.197 A 
BRANCH   8  11
HETATM   11  O1  UNL     1      -6.198   1.736  17.190  1.00  0.00    -0.339 OA
HETATM   12  C1  UNL     1      -7.441   1.056  17.171  1.00  0.00     0.211 C 
ENDBRANCH   8  11
BRANCH  10  13
HETATM   13  N5  UNL     1      -4.308   0.734  15.505  1.00  0.00    -0.107 N 
HETATM   14  O4  UNL     1      -3.473   0.693  16.437  1.00  0.00    -0.531 OA
HETATM   15  O5  UNL     1      -4.602  -0.422  14.834  1.00  0.00    -0.531 OA
ENDBRANCH  10  13
ENDBRANCH   1   3
BRANCH   1  16
HETATM   16  C5  UNL     1      -3.845   1.812  11.812  1.00  0.00     0.126 C 
BRANCH  16  17
HETATM   17  C6  UNL     1      -3.712   2.925  10.819  1.00  0.00     0.058 C 
BRANCH  17  18
HETATM   18  C7  UNL     1      -2.299   3.367  10.703  1.00  0.00    -0.057 A 
HETATM   19  C8  UNL     1      -1.324   2.539  10.152  1.00  0.00     0.009 A 
HETATM   20  C9  UNL     1      -0.004   2.939  10.047  1.00  0.00     0.026 A 
HETATM   21  C10 UNL     1       0.384   4.186  10.491  1.00  0.00     0.079 A 
HETATM   22  C11 UNL     1      -0.556   5.031  11.043  1.00  0.00     0.026 A 
HETATM   23  C12 UNL     1      -1.882   4.606  11.138  1.00  0.00     0.009 A 
BRANCH  21  24
HETATM   24  S1  UNL     1       2.065   4.667  10.346  1.00  0.00     0.256 S 
HETATM   25  O2  UNL     1       2.842   3.592   9.644  1.00  0.00    -0.201 OA
HETATM   26  O3  UNL     1       2.189   5.982   9.628  1.00  0.00    -0.201 OA
BRANCH  24  27
HETATM   27  N4  UNL     1       2.730   4.831  11.940  1.00  0.00    -0.324 N 
ATOM     28  H42 UNL     1       3.225   4.096  12.446  1.00  0.00     0.169 HD
ATOM     29  H41 UNL     1       2.540   5.776  12.275  1.00  0.00     0.169 HD
ENDBRANCH  24  27
ENDBRANCH  21  24
ENDBRANCH  17  18
ENDBRANCH  16  17
ENDBRANCH   1  16
TORSDOF 8
ENDMDL
