MODEL 2
REMARK VINA RESULT: -7.124869806      3.862      7.219
REMARK  8 active torsions:
REMARK  status: ('A' for Active; 'I' for Inactive)
REMARK    1  A    between atoms: O1_2  and  C2_3 
REMARK    2  A    between atoms: C4_9  and  N3_10 
REMARK    3  A    between atoms: N3_10  and  C5_12 
REMARK    4  A    between atoms: C5_12  and  C6_13 
REMARK    5  A    between atoms: C6_13  and  C7_14 
REMARK    6  A    between atoms: C10_17  and  S1_18 
REMARK    7  A    between atoms: S1_18  and  N4_19 
REMARK    8  A    between atoms: C13_26  and  N5_27 
ROOT
HETATM    1  N3  UNL     1      -3.540   2.233  13.112  1.00  0.00    -0.374 N 
ATOM      2  H3  UNL     1      -2.626   1.955  13.469  1.00  0.00     0.161 HD
ENDROOT
BRANCH   1   3
HETATM    3  C4  UNL     1      -4.498   2.749  14.023  1.00  0.00     0.140 A 
HETATM    4  N2  UNL     1      -5.066   3.961  13.907  1.00  0.00    -0.337 N 
HETATM    5  C3  UNL     1      -5.972   4.460  14.756  1.00  0.00     0.184 A 
ATOM      6  H2  UNL     1      -4.786   4.543  13.116  1.00  0.00     0.168 HD
HETATM    7  N1  UNL     1      -6.350   3.693  15.811  1.00  0.00    -0.331 N 
HETATM    8  C2  UNL     1      -5.842   2.459  16.023  1.00  0.00     0.180 A 
ATOM      9  H1  UNL     1      -7.041   4.061  16.464  1.00  0.00     0.168 HD
HETATM   10  C13 UNL     1      -4.912   1.992  15.119  1.00  0.00     0.197 A 
BRANCH   8  11
HETATM   11  O1  UNL     1      -6.218   1.663  17.097  1.00  0.00    -0.339 OA
HETATM   12  C1  UNL     1      -7.485   1.034  17.020  1.00  0.00     0.211 C 
ENDBRANCH   8  11
BRANCH  10  13
HETATM   13  N5  UNL     1      -4.374   0.683  15.349  1.00  0.00    -0.107 N 
HETATM   14  O4  UNL     1      -3.569   0.528  16.295  1.00  0.00    -0.531 OA
HETATM   15  O5  UNL     1      -4.703  -0.400  14.580  1.00  0.00    -0.531 OA
ENDBRANCH  10  13
ENDBRANCH   1   3
BRANCH   1  16
HETATM   16  C5  UNL     1      -3.805   2.089  11.719  1.00  0.00     0.126 C 
BRANCH  16  17
HETATM   17  C6  UNL     1      -3.566   3.316  10.894  1.00  0.00     0.058 C 
BRANCH  17  18
HETATM   18  C7  UNL     1      -2.112   3.559  10.715  1.00  0.00    -0.057 A 
HETATM   19  C8  UNL     1      -1.475   4.633  11.333  1.00  0.00     0.009 A 
HETATM   20  C9  UNL     1      -0.123   4.872  11.165  1.00  0.00     0.026 A 
HETATM   21  C10 UNL     1       0.639   4.041  10.371  1.00  0.00     0.079 A 
HETATM   22  C11 UNL     1       0.040   2.969   9.743  1.00  0.00     0.026 A 
HETATM   23  C12 UNL     1      -1.325   2.747   9.927  1.00  0.00     0.009 A 
BRANCH  21  24
HETATM   24  S1  UNL     1       2.351   4.368  10.176  1.00  0.00     0.256 S 
HETATM   25  O2  UNL     1       3.017   4.405  11.520  1.00  0.00    -0.201 OA
HETATM   26  O3  UNL     1       2.996   3.348   9.279  1.00  0.00    -0.201 OA
BRANCH  24  27
HETATM   27  N4  UNL     1       2.533   5.940   9.463  1.00  0.00    -0.324 N 
ATOM     28  H42 UNL     1       1.949   6.314   8.716  1.00  0.00     0.169 HD
ATOM     29  H41 UNL     1       3.315   6.412   9.917  1.00  0.00     0.169 HD
ENDBRANCH  24  27
ENDBRANCH  21  24
ENDBRANCH  17  18
ENDBRANCH  16  17
ENDBRANCH   1  16
TORSDOF 8
ENDMDL
