MODEL 2
REMARK VINA RESULT: -7.580562840      2.542      4.022
REMARK  8 active torsions:
REMARK  status: ('A' for Active; 'I' for Inactive)
REMARK    1  A    between atoms: N1_2  and  C2_4 
REMARK    2  A    between atoms: N6_16  and  C7_17 
REMARK    3  A    between atoms: C8_19  and  C9_20 
REMARK    4  A    between atoms: C9_20  and  O2_21 
REMARK    5  A    between atoms: O2_21  and  C10_22 
REMARK    6  A    between atoms: C10_22  and  C11_23 
REMARK    7  A    between atoms: C12_26  and  O4_27 
REMARK    8  A    between atoms: C13_29  and  O5_30 
ROOT
HETATM    1  C2  UNL     1      17.326   4.608   4.521  1.00  0.00     0.684 A 
HETATM    2  N2  UNL     1      18.057   3.484   4.628  1.00  0.00    -0.184 N 
ATOM      3  H2  UNL     1      19.075   3.438   4.582  1.00  0.00     0.184 HD
HETATM    4  C3  UNL     1      17.250   2.443   4.804  1.00  0.00     0.135 A 
HETATM    5  C4  UNL     1      17.497   1.094   4.964  1.00  0.00     0.148 A 
HETATM    6  N3  UNL     1      18.818   0.569   4.962  1.00  0.00    -0.080 NA
HETATM    7  N4  UNL     1      16.418   0.306   5.121  1.00  0.00    -0.339 N 
ATOM      8  H4  UNL     1      16.569  -0.696   5.243  1.00  0.00     0.167 HD
HETATM    9  C5  UNL     1      15.152   0.760   5.128  1.00  0.00     0.183 A 
HETATM   10  N5  UNL     1      14.942   2.078   4.970  1.00  0.00    -0.336 N 
ATOM     11  H5  UNL     1      13.984   2.430   4.975  1.00  0.00     0.168 HD
HETATM   12  C6  UNL     1      15.954   2.947   4.806  1.00  0.00     0.158 A 
HETATM   13  N6  UNL     1      16.028   4.288   4.630  1.00  0.00    -0.136 N 
ENDROOT
BRANCH  13  14
HETATM   14  C7  UNL     1      14.878   5.141   4.579  1.00  0.00     0.279 C 
HETATM   15  O1  UNL     1      14.115   5.124   5.741  1.00  0.00    -0.353 OA
HETATM   16  C8  UNL     1      12.939   5.750   5.413  1.00  0.00     0.179 C 
HETATM   17  C12 UNL     1      12.656   5.514   3.962  1.00  0.00     0.182 C 
HETATM   18  C13 UNL     1      13.867   4.672   3.548  1.00  0.00     0.199 C 
BRANCH  16  19
HETATM   19  C9  UNL     1      11.755   5.157   6.194  1.00  0.00     0.203 C 
BRANCH  19  20
HETATM   20  O2  UNL     1      12.067   3.960   6.759  1.00  0.00    -0.380 OA
BRANCH  20  21
HETATM   21  C10 UNL     1      11.872   2.830   6.033  1.00  0.00     0.267 C 
BRANCH  21  22
HETATM   22  C11 UNL     1      10.489   2.527   5.625  1.00  0.00     0.254 C 
HETATM   23  N7  UNL     1       9.450   2.464   6.575  1.00  0.00    -0.060 NA
HETATM   24  O3  UNL     1      10.188   2.312   4.421  1.00  0.00    -0.275 OA
ENDBRANCH  21  22
ENDBRANCH  20  21
ENDBRANCH  19  20
ENDBRANCH  16  19
BRANCH  17  25
HETATM   25  O4  UNL     1      12.795   6.725   3.248  1.00  0.00    -0.390 OA
ATOM     26  H4  UNL     1      12.200   6.730   2.508  1.00  0.00     0.210 HD
ENDBRANCH  17  25
BRANCH  18  27
HETATM   27  O5  UNL     1      14.266   4.965   2.259  1.00  0.00    -0.388 OA
ATOM     28  H5  UNL     1      13.929   4.339   1.629  1.00  0.00     0.210 HD
ENDBRANCH  18  27
ENDBRANCH  13  14
BRANCH   1  29
HETATM   29  N1  UNL     1      17.776   5.945   4.327  1.00  0.00    -0.230 N 
HETATM   30  C1  UNL     1      18.131   6.726   5.497  1.00  0.00     0.165 C 
ATOM     31  H1  UNL     1      17.848   6.342   3.390  1.00  0.00     0.177 HD
ENDBRANCH   1  29
TORSDOF 8
ENDMDL
