MODEL 1
REMARK VINA RESULT: -7.662331442      0.000      0.000
REMARK  8 active torsions:
REMARK  status: ('A' for Active; 'I' for Inactive)
REMARK    1  A    between atoms: N1_2  and  C2_4 
REMARK    2  A    between atoms: N6_16  and  C7_17 
REMARK    3  A    between atoms: C8_19  and  C9_20 
REMARK    4  A    between atoms: C9_20  and  O2_21 
REMARK    5  A    between atoms: O2_21  and  C10_22 
REMARK    6  A    between atoms: C10_22  and  C11_23 
REMARK    7  A    between atoms: C12_26  and  O4_27 
REMARK    8  A    between atoms: C13_29  and  O5_30 
ROOT
HETATM    1  C2  UNL     1      16.434  -0.558   4.220  1.00  0.00     0.684 A 
HETATM    2  N2  UNL     1      16.175  -1.793   4.687  1.00  0.00    -0.184 N 
ATOM      3  H2  UNL     1      16.606  -2.653   4.345  1.00  0.00     0.184 HD
HETATM    4  C3  UNL     1      15.274  -1.721   5.660  1.00  0.00     0.135 A 
HETATM    5  C4  UNL     1      14.681  -2.686   6.450  1.00  0.00     0.148 A 
HETATM    6  N3  UNL     1      14.998  -4.066   6.310  1.00  0.00    -0.080 NA
HETATM    7  N4  UNL     1      13.791  -2.249   7.358  1.00  0.00    -0.339 N 
ATOM      8  H4  UNL     1      13.338  -2.939   7.958  1.00  0.00     0.167 HD
HETATM    9  C5  UNL     1      13.463  -0.955   7.524  1.00  0.00     0.183 A 
HETATM   10  N5  UNL     1      14.055  -0.037   6.741  1.00  0.00    -0.336 N 
ATOM     11  H5  UNL     1      13.811   0.947   6.861  1.00  0.00     0.168 HD
HETATM   12  C6  UNL     1      14.958  -0.374   5.804  1.00  0.00     0.158 A 
HETATM   13  N6  UNL     1      15.689   0.324   4.902  1.00  0.00    -0.136 N 
ENDROOT
BRANCH  13  14
HETATM   14  C7  UNL     1      15.620   1.748   4.765  1.00  0.00     0.279 C 
HETATM   15  O1  UNL     1      15.169   2.401   5.906  1.00  0.00    -0.353 OA
HETATM   16  C8  UNL     1      14.898   3.686   5.508  1.00  0.00     0.179 C 
HETATM   17  C12 UNL     1      14.481   3.666   4.070  1.00  0.00     0.182 C 
HETATM   18  C13 UNL     1      14.579   2.171   3.745  1.00  0.00     0.199 C 
BRANCH  16  19
HETATM   19  C9  UNL     1      13.720   4.277   6.299  1.00  0.00     0.203 C 
BRANCH  19  20
HETATM   20  O2  UNL     1      12.616   4.439   5.523  1.00  0.00    -0.380 OA
BRANCH  20  21
HETATM   21  C10 UNL     1      11.430   3.958   5.975  1.00  0.00     0.267 C 
BRANCH  21  22
HETATM   22  C11 UNL     1      11.047   2.604   5.541  1.00  0.00     0.254 C 
HETATM   23  N7  UNL     1      10.215   2.409   4.420  1.00  0.00    -0.060 NA
HETATM   24  O3  UNL     1      11.445   1.577   6.154  1.00  0.00    -0.275 OA
ENDBRANCH  21  22
ENDBRANCH  20  21
ENDBRANCH  19  20
ENDBRANCH  16  19
BRANCH  17  25
HETATM   25  O4  UNL     1      15.479   4.276   3.277  1.00  0.00    -0.390 OA
ATOM     26  H4  UNL     1      15.398   3.980   2.379  1.00  0.00     0.210 HD
ENDBRANCH  17  25
BRANCH  18  27
HETATM   27  O5  UNL     1      15.009   1.967   2.449  1.00  0.00    -0.388 OA
ATOM     28  H5  UNL     1      14.356   2.228   1.810  1.00  0.00     0.210 HD
ENDBRANCH  18  27
ENDBRANCH  13  14
BRANCH   1  29
HETATM   29  N1  UNL     1      17.331  -0.171   3.183  1.00  0.00    -0.230 N 
HETATM   30  C1  UNL     1      18.194  -1.186   2.609  1.00  0.00     0.165 C 
ATOM     31  H1  UNL     1      17.365   0.793   2.854  1.00  0.00     0.177 HD
ENDBRANCH   1  29
TORSDOF 8
ENDMDL
