MODEL 13
REMARK VINA RESULT: -7.086452054      4.669      7.208
REMARK  8 active torsions:
REMARK  status: ('A' for Active; 'I' for Inactive)
REMARK    1  A    between atoms: N1_2  and  C2_4 
REMARK    2  A    between atoms: N6_16  and  C7_17 
REMARK    3  A    between atoms: C8_19  and  C9_20 
REMARK    4  A    between atoms: C9_20  and  O2_21 
REMARK    5  A    between atoms: O2_21  and  C10_22 
REMARK    6  A    between atoms: C10_22  and  C11_23 
REMARK    7  A    between atoms: C12_26  and  O4_27 
REMARK    8  A    between atoms: C13_29  and  O5_30 
ROOT
HETATM    1  C2  UNL     1      18.694  -2.678   1.165  1.00  0.00     0.684 A 
HETATM    2  N2  UNL     1      19.295  -3.276   0.121  1.00  0.00    -0.184 N 
ATOM      3  H2  UNL     1      20.281  -3.182  -0.122  1.00  0.00     0.184 HD
HETATM    4  C3  UNL     1      18.408  -4.009  -0.544  1.00  0.00     0.135 A 
HETATM    5  C4  UNL     1      18.516  -4.802  -1.669  1.00  0.00     0.148 A 
HETATM    6  N3  UNL     1      19.750  -4.963  -2.356  1.00  0.00    -0.080 NA
HETATM    7  N4  UNL     1      17.390  -5.413  -2.077  1.00  0.00    -0.339 N 
ATOM      8  H4  UNL     1      17.438  -6.007  -2.905  1.00  0.00     0.167 HD
HETATM    9  C5  UNL     1      16.202  -5.288  -1.457  1.00  0.00     0.183 A 
HETATM   10  N5  UNL     1      16.126  -4.509  -0.365  1.00  0.00    -0.336 N 
ATOM     11  H5  UNL     1      15.229  -4.410   0.111  1.00  0.00     0.168 HD
HETATM   12  C6  UNL     1      17.196  -3.857   0.122  1.00  0.00     0.158 A 
HETATM   13  N6  UNL     1      17.400  -3.030   1.175  1.00  0.00    -0.136 N 
ENDROOT
BRANCH  13  14
HETATM   14  C7  UNL     1      16.364  -2.648   2.088  1.00  0.00     0.279 C 
HETATM   15  O1  UNL     1      16.483  -1.346   2.559  1.00  0.00    -0.353 OA
HETATM   16  C8  UNL     1      15.603  -1.257   3.609  1.00  0.00     0.179 C 
HETATM   17  C12 UNL     1      15.482  -2.604   4.251  1.00  0.00     0.182 C 
HETATM   18  C13 UNL     1      16.423  -3.443   3.379  1.00  0.00     0.199 C 
BRANCH  16  19
HETATM   19  C9  UNL     1      16.124  -0.299   4.692  1.00  0.00     0.203 C 
BRANCH  19  20
HETATM   20  O2  UNL     1      17.400   0.101   4.448  1.00  0.00    -0.380 OA
BRANCH  20  21
HETATM   21  C10 UNL     1      18.337  -0.098   5.409  1.00  0.00     0.267 C 
BRANCH  21  22
HETATM   22  C11 UNL     1      19.256   1.018   5.690  1.00  0.00     0.254 C 
HETATM   23  N7  UNL     1      18.953   2.330   5.272  1.00  0.00    -0.060 NA
HETATM   24  O3  UNL     1      20.340   0.842   6.308  1.00  0.00    -0.275 OA
ENDBRANCH  21  22
ENDBRANCH  20  21
ENDBRANCH  19  20
ENDBRANCH  16  19
BRANCH  17  25
HETATM   25  O4  UNL     1      14.194  -3.132   4.006  1.00  0.00    -0.390 OA
ATOM     26  H4  UNL     1      14.182  -4.057   4.223  1.00  0.00     0.210 HD
ENDBRANCH  17  25
BRANCH  18  27
HETATM   27  O5  UNL     1      15.947  -4.729   3.220  1.00  0.00    -0.388 OA
ATOM     28  H5  UNL     1      15.542  -5.061   4.013  1.00  0.00     0.210 HD
ENDBRANCH  18  27
ENDBRANCH  13  14
BRANCH   1  29
HETATM   29  N1  UNL     1      19.263  -1.808   2.139  1.00  0.00    -0.230 N 
HETATM   30  C1  UNL     1      20.661  -1.446   2.000  1.00  0.00     0.165 C 
ATOM     31  H1  UNL     1      18.703  -1.450   2.912  1.00  0.00     0.177 HD
ENDBRANCH   1  29
TORSDOF 8
ENDMDL
