MODEL 3
REMARK VINA RESULT: -7.553244369      3.475      6.819
REMARK  8 active torsions:
REMARK  status: ('A' for Active; 'I' for Inactive)
REMARK    1  A    between atoms: N1_2  and  C2_4 
REMARK    2  A    between atoms: N6_16  and  C7_17 
REMARK    3  A    between atoms: C8_19  and  C9_20 
REMARK    4  A    between atoms: C9_20  and  O2_21 
REMARK    5  A    between atoms: O2_21  and  C10_22 
REMARK    6  A    between atoms: C10_22  and  C11_23 
REMARK    7  A    between atoms: C12_26  and  O4_27 
REMARK    8  A    between atoms: C13_29  and  O5_30 
ROOT
HETATM    1  C2  UNL     1      14.420   1.107   5.766  1.00  0.00     0.684 A 
HETATM    2  N2  UNL     1      13.960   2.216   6.369  1.00  0.00    -0.184 N 
ATOM      3  H2  UNL     1      13.428   2.235   7.240  1.00  0.00     0.184 HD
HETATM    4  C3  UNL     1      14.304   3.285   5.658  1.00  0.00     0.135 A 
HETATM    5  C4  UNL     1      14.078   4.635   5.841  1.00  0.00     0.148 A 
HETATM    6  N3  UNL     1      13.353   5.127   6.962  1.00  0.00    -0.080 NA
HETATM    7  N4  UNL     1      14.581   5.456   4.903  1.00  0.00    -0.339 N 
ATOM      8  H4  UNL     1      14.432   6.460   5.012  1.00  0.00     0.167 HD
HETATM    9  C5  UNL     1      15.271   5.033   3.828  1.00  0.00     0.183 A 
HETATM   10  N5  UNL     1      15.476   3.714   3.675  1.00  0.00    -0.336 N 
ATOM     11  H5  UNL     1      15.999   3.386   2.863  1.00  0.00     0.168 HD
HETATM   12  C6  UNL     1      15.013   2.813   4.558  1.00  0.00     0.158 A 
HETATM   13  N6  UNL     1      15.071   1.463   4.649  1.00  0.00    -0.136 N 
ENDROOT
BRANCH  13  14
HETATM   14  C7  UNL     1      15.730   0.636   3.682  1.00  0.00     0.279 C 
HETATM   15  O1  UNL     1      14.931  -0.383   3.176  1.00  0.00    -0.353 OA
HETATM   16  C8  UNL     1      15.789  -1.220   2.508  1.00  0.00     0.179 C 
HETATM   17  C12 UNL     1      17.131  -1.161   3.168  1.00  0.00     0.182 C 
HETATM   18  C13 UNL     1      16.874  -0.152   4.293  1.00  0.00     0.199 C 
BRANCH  16  19
HETATM   19  C9  UNL     1      15.321  -2.681   2.594  1.00  0.00     0.203 C 
BRANCH  19  20
HETATM   20  O2  UNL     1      15.110  -3.222   1.364  1.00  0.00    -0.380 OA
BRANCH  20  21
HETATM   21  C10 UNL     1      16.155  -3.809   0.727  1.00  0.00     0.267 C 
BRANCH  21  22
HETATM   22  C11 UNL     1      15.846  -4.599  -0.477  1.00  0.00     0.254 C 
HETATM   23  N7  UNL     1      16.853  -4.930  -1.405  1.00  0.00    -0.060 NA
HETATM   24  O3  UNL     1      14.677  -5.002  -0.721  1.00  0.00    -0.275 OA
ENDBRANCH  21  22
ENDBRANCH  20  21
ENDBRANCH  19  20
ENDBRANCH  16  19
BRANCH  17  25
HETATM   25  O4  UNL     1      18.055  -0.521   2.310  1.00  0.00    -0.390 OA
ATOM     26  H4  UNL     1      18.899  -0.457   2.741  1.00  0.00     0.210 HD
ENDBRANCH  17  25
BRANCH  18  27
HETATM   27  O5  UNL     1      17.984   0.637   4.523  1.00  0.00    -0.388 OA
ATOM     28  H5  UNL     1      18.667   0.490   3.878  1.00  0.00     0.210 HD
ENDBRANCH  18  27
ENDBRANCH  13  14
BRANCH   1  29
HETATM   29  N1  UNL     1      14.283  -0.250   6.178  1.00  0.00    -0.230 N 
HETATM   30  C1  UNL     1      13.386  -0.544   7.280  1.00  0.00     0.165 C 
ATOM     31  H1  UNL     1      14.801  -0.994   5.712  1.00  0.00     0.177 HD
ENDBRANCH   1  29
TORSDOF 8
ENDMDL
