MODEL 2
REMARK VINA RESULT: -7.264709858      2.085      2.452
REMARK  5 active torsions:
REMARK  status: ('A' for Active; 'I' for Inactive)
REMARK    1  A    between atoms: N1_1  and  S1_4 
REMARK    2  A    between atoms: S1_4  and  C1_7 
REMARK    3  A    between atoms: C4_10  and  N2_11 
REMARK    4  A    between atoms: N2_11  and  C5_13 
REMARK    5  A    between atoms: C8_21  and  N5_22 
ROOT
HETATM    1  N2  UNL     1      -4.539   2.091  13.217  1.00  0.00    -0.340 N 
ATOM      2  H2  UNL     1      -4.902   1.218  12.835  1.00  0.00     0.167 HD
ENDROOT
BRANCH   1   3
HETATM    3  C4  UNL     1      -3.399   2.602  12.592  1.00  0.00     0.033 A 
HETATM    4  C3  UNL     1      -2.831   3.819  12.836  1.00  0.00     0.031 A 
HETATM    5  C2  UNL     1      -1.695   4.257  12.172  1.00  0.00     0.027 A 
HETATM    6  C1  UNL     1      -1.087   3.465  11.224  1.00  0.00     0.079 A 
HETATM    7  C10 UNL     1      -1.629   2.238  10.953  1.00  0.00     0.027 A 
HETATM    8  C9  UNL     1      -2.751   1.837  11.627  1.00  0.00     0.031 A 
BRANCH   6   9
HETATM    9  S1  UNL     1       0.346   4.000  10.375  1.00  0.00     0.256 S 
HETATM   10  O1  UNL     1       0.103   5.364   9.739  1.00  0.00    -0.201 OA
HETATM   11  O2  UNL     1       0.738   3.006   9.312  1.00  0.00    -0.201 OA
BRANCH   9  12
HETATM   12  N1  UNL     1       1.646   4.163  11.511  1.00  0.00    -0.324 N 
ATOM     13  H12 UNL     1       1.789   4.960  12.131  1.00  0.00     0.169 HD
ATOM     14  H11 UNL     1       2.229   3.329  11.444  1.00  0.00     0.169 HD
ENDBRANCH   9  12
ENDBRANCH   6   9
ENDBRANCH   1   3
BRANCH   1  15
HETATM   15  C5  UNL     1      -5.251   2.628  14.309  1.00  0.00     0.143 A 
HETATM   16  N3  UNL     1      -5.928   3.768  14.243  1.00  0.00    -0.336 N 
HETATM   17  C6  UNL     1      -6.602   4.285  15.262  1.00  0.00     0.183 A 
ATOM     18  H3  UNL     1      -5.929   4.276  13.358  1.00  0.00     0.168 HD
HETATM   19  N4  UNL     1      -6.615   3.635  16.433  1.00  0.00    -0.341 N 
HETATM   20  C7  UNL     1      -5.968   2.475  16.619  1.00  0.00     0.141 A 
ATOM     21  H4  UNL     1      -7.135   4.038  17.212  1.00  0.00     0.167 HD
HETATM   22 CL1  UNL     1      -6.005   1.647  18.167  1.00  0.00    -0.062 Cl
HETATM   23  C8  UNL     1      -5.278   1.966  15.543  1.00  0.00     0.185 A 
BRANCH  23  24
HETATM   24  N5  UNL     1      -4.572   0.737  15.674  1.00  0.00    -0.108 N 
HETATM   25  O3  UNL     1      -3.531   0.752  16.357  1.00  0.00    -0.532 OA
HETATM   26  O4  UNL     1      -4.984  -0.434  15.092  1.00  0.00    -0.532 OA
ENDBRANCH  23  24
ENDBRANCH   1  15
TORSDOF 5
ENDMDL
