MODEL 3
REMARK VINA RESULT: -7.250313088      1.893      2.094
REMARK  5 active torsions:
REMARK  status: ('A' for Active; 'I' for Inactive)
REMARK    1  A    between atoms: N1_1  and  S1_4 
REMARK    2  A    between atoms: S1_4  and  C1_7 
REMARK    3  A    between atoms: C4_10  and  N2_11 
REMARK    4  A    between atoms: N2_11  and  C5_13 
REMARK    5  A    between atoms: C8_21  and  N5_22 
ROOT
HETATM    1  N2  UNL     1      -4.103   1.777  13.066  1.00  0.00    -0.340 N 
ATOM      2  H2  UNL     1      -4.267   0.772  13.016  1.00  0.00     0.167 HD
ENDROOT
BRANCH   1   3
HETATM    3  C4  UNL     1      -3.151   2.284  12.179  1.00  0.00     0.033 A 
HETATM    4  C3  UNL     1      -2.922   3.605  11.921  1.00  0.00     0.031 A 
HETATM    5  C2  UNL     1      -1.954   4.031  11.023  1.00  0.00     0.027 A 
HETATM    6  C1  UNL     1      -1.175   3.119  10.346  1.00  0.00     0.079 A 
HETATM    7  C10 UNL     1      -1.377   1.786  10.579  1.00  0.00     0.027 A 
HETATM    8  C9  UNL     1      -2.341   1.400  11.473  1.00  0.00     0.031 A 
BRANCH   6   9
HETATM    9  S1  UNL     1       0.049   3.637   9.209  1.00  0.00     0.256 S 
HETATM   10  O1  UNL     1      -0.077   2.856   7.906  1.00  0.00    -0.201 OA
HETATM   11  O2  UNL     1       1.429   3.444   9.786  1.00  0.00    -0.201 OA
BRANCH   9  12
HETATM   12  N1  UNL     1      -0.190   5.317   8.851  1.00  0.00    -0.324 N 
ATOM     13  H12 UNL     1       0.310   5.842   8.134  1.00  0.00     0.169 HD
ATOM     14  H11 UNL     1      -0.911   5.673   9.479  1.00  0.00     0.169 HD
ENDBRANCH   9  12
ENDBRANCH   6   9
ENDBRANCH   1   3
BRANCH   1  15
HETATM   15  C5  UNL     1      -4.867   2.478  14.022  1.00  0.00     0.143 A 
HETATM   16  N3  UNL     1      -5.423   3.659  13.782  1.00  0.00    -0.336 N 
HETATM   17  C6  UNL     1      -6.143   4.329  14.672  1.00  0.00     0.183 A 
ATOM     18  H3  UNL     1      -5.289   4.075  12.860  1.00  0.00     0.168 HD
HETATM   19  N4  UNL     1      -6.333   3.802  15.889  1.00  0.00    -0.341 N 
HETATM   20  C7  UNL     1      -5.820   2.616  16.246  1.00  0.00     0.141 A 
ATOM     21  H4  UNL     1      -6.888   4.323  16.568  1.00  0.00     0.167 HD
HETATM   22 CL1  UNL     1      -6.088   1.952  17.849  1.00  0.00    -0.062 Cl
HETATM   23  C8  UNL     1      -5.078   1.946  15.301  1.00  0.00     0.185 A 
BRANCH  23  24
HETATM   24  N5  UNL     1      -4.507   0.681  15.617  1.00  0.00    -0.108 N 
HETATM   25  O3  UNL     1      -3.562   0.673  16.427  1.00  0.00    -0.532 OA
HETATM   26  O4  UNL     1      -4.948  -0.500  15.078  1.00  0.00    -0.532 OA
ENDBRANCH  23  24
ENDBRANCH   1  15
TORSDOF 5
ENDMDL
