MODEL 1
REMARK VINA RESULT: -7.413622165      0.000      0.000
REMARK  5 active torsions:
REMARK  status: ('A' for Active; 'I' for Inactive)
REMARK    1  A    between atoms: N1_1  and  S1_4 
REMARK    2  A    between atoms: S1_4  and  C1_7 
REMARK    3  A    between atoms: C4_10  and  N2_11 
REMARK    4  A    between atoms: N2_11  and  C5_13 
REMARK    5  A    between atoms: C8_21  and  N5_22 
ROOT
HETATM    1  N2  UNL     1      -3.577   2.868  13.967  1.00  0.00    -0.340 N 
ATOM      2  H2  UNL     1      -2.805   2.322  14.347  1.00  0.00     0.167 HD
ENDROOT
BRANCH   1   3
HETATM    3  C4  UNL     1      -3.389   3.373  12.678  1.00  0.00     0.033 A 
HETATM    4  C3  UNL     1      -4.212   3.165  11.609  1.00  0.00     0.031 A 
HETATM    5  C2  UNL     1      -3.955   3.703  10.356  1.00  0.00     0.027 A 
HETATM    6  C1  UNL     1      -2.840   4.481  10.142  1.00  0.00     0.079 A 
HETATM    7  C10 UNL     1      -1.992   4.711  11.190  1.00  0.00     0.027 A 
HETATM    8  C9  UNL     1      -2.275   4.165  12.414  1.00  0.00     0.031 A 
BRANCH   6   9
HETATM    9  S1  UNL     1      -2.500   5.167   8.569  1.00  0.00     0.256 S 
HETATM   10  O1  UNL     1      -1.520   4.282   7.809  1.00  0.00    -0.201 OA
HETATM   11  O2  UNL     1      -1.929   6.556   8.705  1.00  0.00    -0.201 OA
BRANCH   9  12
HETATM   12  N1  UNL     1      -3.972   5.242   7.657  1.00  0.00    -0.324 N 
ATOM     13  H12 UNL     1      -4.041   5.489   6.670  1.00  0.00     0.169 HD
ATOM     14  H11 UNL     1      -4.741   4.997   8.281  1.00  0.00     0.169 HD
ENDBRANCH   9  12
ENDBRANCH   6   9
ENDBRANCH   1   3
BRANCH   1  15
HETATM   15  C5  UNL     1      -4.699   3.017  14.808  1.00  0.00     0.143 A 
HETATM   16  N3  UNL     1      -5.361   4.160  14.938  1.00  0.00    -0.336 N 
HETATM   17  C6  UNL     1      -6.418   4.313  15.725  1.00  0.00     0.183 A 
ATOM     18  H3  UNL     1      -5.038   4.966  14.402  1.00  0.00     0.168 HD
HETATM   19  N4  UNL     1      -6.859   3.268  16.438  1.00  0.00    -0.341 N 
HETATM   20  C7  UNL     1      -6.271   2.064  16.387  1.00  0.00     0.141 A 
ATOM     21  H4  UNL     1      -7.672   3.393  17.041  1.00  0.00     0.167 HD
HETATM   22 CL1  UNL     1      -6.874   0.713  17.333  1.00  0.00    -0.062 Cl
HETATM   23  C8  UNL     1      -5.177   1.937  15.561  1.00  0.00     0.185 A 
BRANCH  23  24
HETATM   24  N5  UNL     1      -4.509   0.685  15.462  1.00  0.00    -0.108 N 
HETATM   25  O3  UNL     1      -3.583   0.471  16.266  1.00  0.00    -0.532 OA
HETATM   26  O4  UNL     1      -4.838  -0.273  14.537  1.00  0.00    -0.532 OA
ENDBRANCH  23  24
ENDBRANCH   1  15
TORSDOF 5
ENDMDL
