MODEL 12
REMARK VINA RESULT: -6.558974069      4.312      5.248
REMARK  7 active torsions:
REMARK  status: ('A' for Active; 'I' for Inactive)
REMARK    1  A    between atoms: S1_2  and  C2_3 
REMARK    2  A    between atoms: C4_8  and  C5_9 
REMARK    3  A    between atoms: C6_11  and  N2_12 
REMARK    4  A    between atoms: N2_12  and  C7_14 
REMARK    5  A    between atoms: C7_14  and  C8_15 
REMARK    6  A    between atoms: C11_18  and  S2_19 
REMARK    7  A    between atoms: S2_19  and  N3_20 
ROOT
HETATM    1  N2  UNL     1      -4.455   6.334  12.781  1.00  0.00    -0.371 N 
ATOM      2  H2  UNL     1      -4.931   5.581  12.285  1.00  0.00     0.161 HD
ENDROOT
BRANCH   1   3
HETATM    3  C6  UNL     1      -4.371   7.600  12.172  1.00  0.00     0.119 A 
HETATM    4  C4  UNL     1      -5.477   8.211  11.636  1.00  0.00     0.084 A 
HETATM    5  C3  UNL     1      -5.254   9.474  11.058  1.00  0.00     0.122 A 
HETATM    6  N1  UNL     1      -4.035  10.028  11.041  1.00  0.00    -0.326 N 
HETATM    7 CL1  UNL     1      -6.624  10.302  10.358  1.00  0.00    -0.063 Cl
HETATM    8  C2  UNL     1      -2.958   9.425  11.568  1.00  0.00     0.146 A 
ATOM      9  H1  UNL     1      -3.921  10.946  10.610  1.00  0.00     0.169 HD
HETATM   10  N4  UNL     1      -3.168   8.226  12.116  1.00  0.00    -0.322 N 
ATOM     11  H4  UNL     1      -2.365   7.745  12.523  1.00  0.00     0.169 HD
BRANCH   4  12
HETATM   12  C5  UNL     1      -6.806   7.637  11.638  1.00  0.00     0.277 C 
HETATM   13  O1  UNL     1      -7.327   6.876  12.450  1.00  0.00    -0.301 OA
ENDBRANCH   4  12
BRANCH   8  14
HETATM   14  S1  UNL     1      -1.344  10.196  11.527  1.00  0.00    -0.098 SA
HETATM   15  C1  UNL     1      -0.707  10.466  13.188  1.00  0.00     0.099 C 
ENDBRANCH   8  14
ENDBRANCH   1   3
BRANCH   1  16
HETATM   16  C7  UNL     1      -3.890   6.063  14.091  1.00  0.00     0.160 C 
BRANCH  16  17
HETATM   17  C8  UNL     1      -4.464   4.869  14.746  1.00  0.00    -0.041 A 
HETATM   18  C9  UNL     1      -5.798   4.728  15.056  1.00  0.00     0.010 A 
HETATM   19  C10 UNL     1      -6.271   3.570  15.680  1.00  0.00     0.026 A 
HETATM   20  C11 UNL     1      -5.428   2.548  16.001  1.00  0.00     0.079 A 
HETATM   21  C12 UNL     1      -4.099   2.667  15.703  1.00  0.00     0.026 A 
HETATM   22  C13 UNL     1      -3.633   3.804  15.089  1.00  0.00     0.010 A 
BRANCH  20  23
HETATM   23  S2  UNL     1      -5.971   1.077  16.786  1.00  0.00     0.256 S 
HETATM   24  O2  UNL     1      -5.465  -0.149  16.068  1.00  0.00    -0.201 OA
HETATM   25  O3  UNL     1      -5.511   1.046  18.220  1.00  0.00    -0.201 OA
BRANCH  23  26
HETATM   26  N3  UNL     1      -7.702   1.011  16.782  1.00  0.00    -0.324 N 
ATOM     27  H32 UNL     1      -8.252   0.414  16.166  1.00  0.00     0.169 HD
ATOM     28  H31 UNL     1      -8.075   1.654  17.481  1.00  0.00     0.169 HD
ENDBRANCH  23  26
ENDBRANCH  20  23
ENDBRANCH  16  17
ENDBRANCH   1  16
TORSDOF 7
ENDMDL
