MODEL 14
REMARK VINA RESULT: -6.535051152      4.097      5.031
REMARK  7 active torsions:
REMARK  status: ('A' for Active; 'I' for Inactive)
REMARK    1  A    between atoms: S1_2  and  C2_3 
REMARK    2  A    between atoms: C4_8  and  C5_9 
REMARK    3  A    between atoms: C6_11  and  N2_12 
REMARK    4  A    between atoms: N2_12  and  C7_14 
REMARK    5  A    between atoms: C7_14  and  C8_15 
REMARK    6  A    between atoms: C11_18  and  S2_19 
REMARK    7  A    between atoms: S2_19  and  N3_20 
ROOT
HETATM    1  N2  UNL     1      -4.980   6.045  12.708  1.00  0.00    -0.371 N 
ATOM      2  H2  UNL     1      -5.905   5.656  12.530  1.00  0.00     0.161 HD
ENDROOT
BRANCH   1   3
HETATM    3  C6  UNL     1      -4.680   7.332  12.224  1.00  0.00     0.119 A 
HETATM    4  C4  UNL     1      -5.645   8.125  11.654  1.00  0.00     0.084 A 
HETATM    5  C3  UNL     1      -5.211   9.388  11.212  1.00  0.00     0.122 A 
HETATM    6  N1  UNL     1      -3.937   9.775  11.347  1.00  0.00    -0.326 N 
HETATM    7 CL1  UNL     1      -6.395  10.443  10.477  1.00  0.00    -0.063 Cl
HETATM    8  C2  UNL     1      -2.999   8.994  11.906  1.00  0.00     0.146 A 
ATOM      9  H1  UNL     1      -3.668  10.700  11.011  1.00  0.00     0.169 HD
HETATM   10  N4  UNL     1      -3.408   7.795  12.325  1.00  0.00    -0.322 N 
ATOM     11  H4  UNL     1      -2.714   7.182  12.752  1.00  0.00     0.169 HD
BRANCH   4  12
HETATM   12  C5  UNL     1      -7.030   7.735  11.494  1.00  0.00     0.277 C 
HETATM   13  O1  UNL     1      -7.774   7.153  12.281  1.00  0.00    -0.301 OA
ENDBRANCH   4  12
BRANCH   8  14
HETATM   14  S1  UNL     1      -1.304   9.544  12.069  1.00  0.00    -0.098 SA
HETATM   15  C1  UNL     1      -0.524   8.837  13.527  1.00  0.00     0.099 C 
ENDBRANCH   8  14
ENDBRANCH   1   3
BRANCH   1  16
HETATM   16  C7  UNL     1      -4.017   5.251  13.451  1.00  0.00     0.160 C 
BRANCH  16  17
HETATM   17  C8  UNL     1      -4.640   4.315  14.410  1.00  0.00    -0.041 A 
HETATM   18  C9  UNL     1      -5.961   4.374  14.795  1.00  0.00     0.010 A 
HETATM   19  C10 UNL     1      -6.483   3.457  15.712  1.00  0.00     0.026 A 
HETATM   20  C11 UNL     1      -5.702   2.479  16.252  1.00  0.00     0.079 A 
HETATM   21  C12 UNL     1      -4.388   2.402  15.884  1.00  0.00     0.026 A 
HETATM   22  C13 UNL     1      -3.874   3.303  14.983  1.00  0.00     0.010 A 
BRANCH  20  23
HETATM   23  S2  UNL     1      -6.308   1.306  17.406  1.00  0.00     0.256 S 
HETATM   24  O2  UNL     1      -7.642   0.750  16.978  1.00  0.00    -0.201 OA
HETATM   25  O3  UNL     1      -5.323   0.178  17.573  1.00  0.00    -0.201 OA
BRANCH  23  26
HETATM   26  N3  UNL     1      -6.523   2.057  18.952  1.00  0.00    -0.324 N 
ATOM     27  H32 UNL     1      -5.788   2.145  19.654  1.00  0.00     0.169 HD
ATOM     28  H31 UNL     1      -7.482   2.389  19.046  1.00  0.00     0.169 HD
ENDBRANCH  23  26
ENDBRANCH  20  23
ENDBRANCH  16  17
ENDBRANCH   1  16
TORSDOF 7
ENDMDL
