MODEL 1
REMARK VINA RESULT: -7.702912979      0.000      0.000
REMARK  7 active torsions:
REMARK  status: ('A' for Active; 'I' for Inactive)
REMARK    1  A    between atoms: S1_2  and  C2_3 
REMARK    2  A    between atoms: C4_8  and  C5_9 
REMARK    3  A    between atoms: C6_11  and  N2_12 
REMARK    4  A    between atoms: N2_12  and  C7_14 
REMARK    5  A    between atoms: C7_14  and  C8_15 
REMARK    6  A    between atoms: C11_18  and  S2_19 
REMARK    7  A    between atoms: S2_19  and  N3_20 
ROOT
HETATM    1  N2  UNL     1      -4.204   4.391  11.869  1.00  0.00    -0.371 N 
ATOM      2  H2  UNL     1      -4.907   4.625  11.169  1.00  0.00     0.161 HD
ENDROOT
BRANCH   1   3
HETATM    3  C6  UNL     1      -3.189   3.476  11.530  1.00  0.00     0.119 A 
HETATM    4  C4  UNL     1      -3.441   2.129  11.444  1.00  0.00     0.084 A 
HETATM    5  C3  UNL     1      -2.338   1.326  11.097  1.00  0.00     0.122 A 
HETATM    6  N1  UNL     1      -1.132   1.858  10.868  1.00  0.00    -0.326 N 
HETATM    7 CL1  UNL     1      -2.596  -0.398  10.973  1.00  0.00    -0.063 Cl
HETATM    8  C2  UNL     1      -0.894   3.177  10.954  1.00  0.00     0.146 A 
ATOM      9  H1  UNL     1      -0.361   1.237  10.619  1.00  0.00     0.169 HD
HETATM   10  N4  UNL     1      -1.938   3.940  11.284  1.00  0.00    -0.322 N 
ATOM     11  H4  UNL     1      -1.784   4.946  11.356  1.00  0.00     0.169 HD
BRANCH   4  12
HETATM   12  C5  UNL     1      -4.733   1.524  11.686  1.00  0.00     0.277 C 
HETATM   13  O1  UNL     1      -5.857   1.965  11.456  1.00  0.00    -0.301 OA
ENDBRANCH   4  12
BRANCH   8  14
HETATM   14  S1  UNL     1       0.733   3.853  10.641  1.00  0.00    -0.098 SA
HETATM   15  C1  UNL     1       1.150   3.771   8.893  1.00  0.00     0.099 C 
ENDBRANCH   8  14
ENDBRANCH   1   3
BRANCH   1  16
HETATM   16  C7  UNL     1      -4.283   5.012  13.179  1.00  0.00     0.160 C 
BRANCH  16  17
HETATM   17  C8  UNL     1      -4.718   4.087  14.245  1.00  0.00    -0.041 A 
HETATM   18  C9  UNL     1      -3.859   3.294  14.973  1.00  0.00     0.010 A 
HETATM   19  C10 UNL     1      -4.342   2.437  15.966  1.00  0.00     0.026 A 
HETATM   20  C11 UNL     1      -5.674   2.360  16.244  1.00  0.00     0.079 A 
HETATM   21  C12 UNL     1      -6.545   3.138  15.535  1.00  0.00     0.026 A 
HETATM   22  C13 UNL     1      -6.072   3.981  14.558  1.00  0.00     0.010 A 
BRANCH  20  23
HETATM   23  S2  UNL     1      -6.329   1.301  17.479  1.00  0.00     0.256 S 
HETATM   24  O2  UNL     1      -7.674   0.752  17.077  1.00  0.00    -0.201 OA
HETATM   25  O3  UNL     1      -5.380   0.163  17.751  1.00  0.00    -0.201 OA
BRANCH  23  26
HETATM   26  N3  UNL     1      -6.540   2.180  18.957  1.00  0.00    -0.324 N 
ATOM     27  H32 UNL     1      -5.884   2.877  19.309  1.00  0.00     0.169 HD
ATOM     28  H31 UNL     1      -7.409   1.894  19.409  1.00  0.00     0.169 HD
ENDBRANCH  23  26
ENDBRANCH  20  23
ENDBRANCH  16  17
ENDBRANCH   1  16
TORSDOF 7
ENDMDL
