MODEL 2
REMARK VINA RESULT: -7.684359698      0.572      1.135
REMARK  7 active torsions:
REMARK  status: ('A' for Active; 'I' for Inactive)
REMARK    1  A    between atoms: S1_2  and  C2_3 
REMARK    2  A    between atoms: C4_8  and  C5_9 
REMARK    3  A    between atoms: C6_11  and  N2_12 
REMARK    4  A    between atoms: N2_12  and  C7_14 
REMARK    5  A    between atoms: C7_14  and  C8_15 
REMARK    6  A    between atoms: C11_18  and  S2_19 
REMARK    7  A    between atoms: S2_19  and  N3_20 
ROOT
HETATM    1  N2  UNL     1      -4.090   4.360  11.873  1.00  0.00    -0.371 N 
ATOM      2  H2  UNL     1      -4.827   4.691  11.252  1.00  0.00     0.161 HD
ENDROOT
BRANCH   1   3
HETATM    3  C6  UNL     1      -3.190   3.387  11.400  1.00  0.00     0.119 A 
HETATM    4  C4  UNL     1      -3.527   2.056  11.370  1.00  0.00     0.084 A 
HETATM    5  C3  UNL     1      -2.536   1.189  10.874  1.00  0.00     0.122 A 
HETATM    6  N1  UNL     1      -1.348   1.649  10.463  1.00  0.00    -0.326 N 
HETATM    7 CL1  UNL     1      -2.906  -0.518  10.811  1.00  0.00    -0.063 Cl
HETATM    8  C2  UNL     1      -1.026   2.952  10.495  1.00  0.00     0.146 A 
ATOM      9  H1  UNL     1      -0.660   0.983  10.111  1.00  0.00     0.169 HD
HETATM   10  N4  UNL     1      -1.965   3.776  10.966  1.00  0.00    -0.322 N 
ATOM     11  H4  UNL     1      -1.745   4.771  11.002  1.00  0.00     0.169 HD
BRANCH   4  12
HETATM   12  C5  UNL     1      -4.802   1.528  11.808  1.00  0.00     0.277 C 
HETATM   13  O1  UNL     1      -5.939   1.887  11.512  1.00  0.00    -0.301 OA
ENDBRANCH   4  12
BRANCH   8  14
HETATM   14  S1  UNL     1       0.572   3.532   9.937  1.00  0.00    -0.098 SA
HETATM   15  C1  UNL     1       1.286   4.701  11.102  1.00  0.00     0.099 C 
ENDBRANCH   8  14
ENDBRANCH   1   3
BRANCH   1  16
HETATM   16  C7  UNL     1      -4.005   4.909  13.215  1.00  0.00     0.160 C 
BRANCH  16  17
HETATM   17  C8  UNL     1      -4.633   4.055  14.243  1.00  0.00    -0.041 A 
HETATM   18  C9  UNL     1      -5.984   4.044  14.514  1.00  0.00     0.010 A 
HETATM   19  C10 UNL     1      -6.510   3.212  15.506  1.00  0.00     0.026 A 
HETATM   20  C11 UNL     1      -5.705   2.388  16.234  1.00  0.00     0.079 A 
HETATM   21  C12 UNL     1      -4.362   2.382  15.983  1.00  0.00     0.026 A 
HETATM   22  C13 UNL     1      -3.843   3.200  15.008  1.00  0.00     0.010 A 
BRANCH  20  23
HETATM   23  S2  UNL     1      -6.316   1.326  17.490  1.00  0.00     0.256 S 
HETATM   24  O2  UNL     1      -7.651   0.738  17.112  1.00  0.00    -0.201 OA
HETATM   25  O3  UNL     1      -5.335   0.215  17.760  1.00  0.00    -0.201 OA
BRANCH  23  26
HETATM   26  N3  UNL     1      -6.530   2.215  18.961  1.00  0.00    -0.324 N 
ATOM     27  H32 UNL     1      -5.931   2.985  19.259  1.00  0.00     0.169 HD
ATOM     28  H31 UNL     1      -7.335   1.853  19.471  1.00  0.00     0.169 HD
ENDBRANCH  23  26
ENDBRANCH  20  23
ENDBRANCH  16  17
ENDBRANCH   1  16
TORSDOF 7
ENDMDL
