MODEL 3
REMARK VINA RESULT: -7.510145522      0.782      1.350
REMARK  7 active torsions:
REMARK  status: ('A' for Active; 'I' for Inactive)
REMARK    1  A    between atoms: S1_2  and  C2_3 
REMARK    2  A    between atoms: C4_8  and  C5_9 
REMARK    3  A    between atoms: C6_11  and  N2_12 
REMARK    4  A    between atoms: N2_12  and  C7_14 
REMARK    5  A    between atoms: C7_14  and  C8_15 
REMARK    6  A    between atoms: C11_18  and  S2_19 
REMARK    7  A    between atoms: S2_19  and  N3_20 
ROOT
HETATM    1  N2  UNL     1      -4.114   4.372  11.884  1.00  0.00    -0.371 N 
ATOM      2  H2  UNL     1      -4.856   4.621  11.231  1.00  0.00     0.161 HD
ENDROOT
BRANCH   1   3
HETATM    3  C6  UNL     1      -3.147   3.431  11.486  1.00  0.00     0.119 A 
HETATM    4  C4  UNL     1      -3.445   2.093  11.396  1.00  0.00     0.084 A 
HETATM    5  C3  UNL     1      -2.388   1.261  10.986  1.00  0.00     0.122 A 
HETATM    6  N1  UNL     1      -1.177   1.758  10.705  1.00  0.00    -0.326 N 
HETATM    7 CL1  UNL     1      -2.706  -0.452  10.855  1.00  0.00    -0.063 Cl
HETATM    8  C2  UNL     1      -0.893   3.067  10.794  1.00  0.00     0.146 A 
ATOM      9  H1  UNL     1      -0.440   1.116  10.411  1.00  0.00     0.169 HD
HETATM   10  N4  UNL     1      -1.895   3.858  11.184  1.00  0.00    -0.322 N 
ATOM     11  H4  UNL     1      -1.705   4.857  11.260  1.00  0.00     0.169 HD
BRANCH   4  12
HETATM   12  C5  UNL     1      -4.744   1.527  11.694  1.00  0.00     0.277 C 
HETATM   13  O1  UNL     1      -5.863   1.994  11.501  1.00  0.00    -0.301 OA
ENDBRANCH   4  12
BRANCH   8  14
HETATM   14  S1  UNL     1       0.737   3.695  10.410  1.00  0.00    -0.098 SA
HETATM   15  C1  UNL     1       0.995   3.802   8.633  1.00  0.00     0.099 C 
ENDBRANCH   8  14
ENDBRANCH   1   3
BRANCH   1  16
HETATM   16  C7  UNL     1      -4.091   5.003  13.192  1.00  0.00     0.160 C 
BRANCH  16  17
HETATM   17  C8  UNL     1      -4.690   4.174  14.258  1.00  0.00    -0.041 A 
HETATM   18  C9  UNL     1      -6.009   4.259  14.647  1.00  0.00     0.010 A 
HETATM   19  C10 UNL     1      -6.508   3.445  15.669  1.00  0.00     0.026 A 
HETATM   20  C11 UNL     1      -5.708   2.546  16.308  1.00  0.00     0.079 A 
HETATM   21  C12 UNL     1      -4.397   2.445  15.938  1.00  0.00     0.026 A 
HETATM   22  C13 UNL     1      -3.904   3.245  14.935  1.00  0.00     0.010 A 
BRANCH  20  23
HETATM   23  S2  UNL     1      -6.287   1.504  17.595  1.00  0.00     0.256 S 
HETATM   24  O2  UNL     1      -5.369   0.326  17.804  1.00  0.00    -0.201 OA
HETATM   25  O3  UNL     1      -6.412   2.278  18.881  1.00  0.00    -0.201 OA
BRANCH  23  26
HETATM   26  N3  UNL     1      -7.854   0.886  17.193  1.00  0.00    -0.324 N 
ATOM     27  H32 UNL     1      -8.731   1.286  17.523  1.00  0.00     0.169 HD
ATOM     28  H31 UNL     1      -7.760   0.072  16.584  1.00  0.00     0.169 HD
ENDBRANCH  23  26
ENDBRANCH  20  23
ENDBRANCH  16  17
ENDBRANCH   1  16
TORSDOF 7
ENDMDL
