MODEL 10
REMARK VINA RESULT: -7.979558472      3.449      6.803
REMARK  6 active torsions:
REMARK  status: ('A' for Active; 'I' for Inactive)
REMARK    1  A    between atoms: N1_1  and  S1_4 
REMARK    2  A    between atoms: S1_4  and  C1_7 
REMARK    3  A    between atoms: C3_9  and  C4_10 
REMARK    4  A    between atoms: C4_10  and  C5_12 
REMARK    5  A    between atoms: C5_12  and  S2_13 
REMARK    6  A    between atoms: S2_13  and  C6_14 
ROOT
HETATM    1  C5  UNL     1      -3.081   1.509  11.872  1.00  0.00     0.166 C 
ENDROOT
BRANCH   1   2
HETATM    2  C4  UNL     1      -4.287   2.350  11.937  1.00  0.00     0.169 C 
HETATM    3  O3  UNL     1      -4.876   2.732  10.879  1.00  0.00    -0.291 OA
BRANCH   2   4
HETATM    4  C3  UNL     1      -4.843   2.765  13.237  1.00  0.00     0.012 A 
HETATM    5  C2  UNL     1      -5.063   1.912  14.288  1.00  0.00     0.042 A 
HETATM    6  C1  UNL     1      -5.636   2.362  15.477  1.00  0.00     0.101 A 
HETATM    7  C17 UNL     1      -6.008   3.670  15.659  1.00  0.00     0.057 A 
HETATM    8  C16 UNL     1      -5.792   4.540  14.613  1.00  0.00     0.026 A 
HETATM    9 CL1  UNL     1      -6.727   4.131  17.187  1.00  0.00    -0.083 Cl
HETATM   10  C15 UNL     1      -5.225   4.097  13.436  1.00  0.00     0.017 A 
BRANCH   6  11
HETATM   11  S1  UNL     1      -5.907   1.207  16.763  1.00  0.00     0.258 S 
HETATM   12  O1  UNL     1      -5.181   1.644  18.030  1.00  0.00    -0.201 OA
HETATM   13  O2  UNL     1      -5.359  -0.139  16.396  1.00  0.00    -0.201 OA
BRANCH  11  14
HETATM   14  N1  UNL     1      -7.554   1.045  17.129  1.00  0.00    -0.324 N 
ATOM     15  H12 UNL     1      -8.320   1.417  16.568  1.00  0.00     0.169 HD
ATOM     16  H11 UNL     1      -7.636   0.515  17.997  1.00  0.00     0.169 HD
ENDBRANCH  11  14
ENDBRANCH   6  11
ENDBRANCH   2   4
ENDBRANCH   1   2
BRANCH   1  17
HETATM   17  S2  UNL     1      -1.562   2.355  11.509  1.00  0.00    -0.086 SA
BRANCH  17  18
HETATM   18  C6  UNL     1      -1.579   4.089  12.045  1.00  0.00     0.145 A 
HETATM   19  N2  UNL     1      -1.458   4.593  13.262  1.00  0.00    -0.335 N 
HETATM   20  C7  UNL     1      -1.499   5.922  13.206  1.00  0.00     0.064 A 
ATOM     21  H2  UNL     1      -1.349   4.045  14.116  1.00  0.00     0.168 HD
HETATM   22  C8  UNL     1      -1.416   6.962  14.133  1.00  0.00     0.071 A 
HETATM   23  C12 UNL     1      -1.655   6.250  11.880  1.00  0.00     0.064 A 
HETATM   24  C9  UNL     1      -1.484   8.287  13.772  1.00  0.00     0.104 A 
HETATM   25  C10 UNL     1      -1.641   8.581  12.429  1.00  0.00     0.104 A 
HETATM   26  O5  UNL     1      -1.406   9.355  14.650  1.00  0.00    -0.346 OA
HETATM   27  C11 UNL     1      -1.728   7.589  11.472  1.00  0.00     0.071 A 
HETATM   28  O4  UNL     1      -1.708   9.911  12.071  1.00  0.00    -0.346 OA
HETATM   29  C13 UNL     1      -1.465  11.012  12.890  1.00  0.00     0.202 C 
HETATM   30  C14 UNL     1      -0.880  10.624  14.230  1.00  0.00     0.202 C 
HETATM   31  N3  UNL     1      -1.703   5.132  11.183  1.00  0.00    -0.335 N 
ATOM     32  H3  UNL     1      -1.813   5.062  10.172  1.00  0.00     0.168 HD
ENDBRANCH  17  18
ENDBRANCH   1  17
TORSDOF 6
ENDMDL
