MODEL 4
REMARK VINA RESULT: -8.388482127      4.885      8.271
REMARK  6 active torsions:
REMARK  status: ('A' for Active; 'I' for Inactive)
REMARK    1  A    between atoms: N1_1  and  S1_4 
REMARK    2  A    between atoms: S1_4  and  C1_7 
REMARK    3  A    between atoms: C3_9  and  C4_10 
REMARK    4  A    between atoms: C4_10  and  C5_12 
REMARK    5  A    between atoms: C5_12  and  S2_13 
REMARK    6  A    between atoms: S2_13  and  C6_14 
ROOT
HETATM    1  C5  UNL     1      -4.219   3.689  11.259  1.00  0.00     0.166 C 
ENDROOT
BRANCH   1   2
HETATM    2  C4  UNL     1      -3.658   3.272  12.555  1.00  0.00     0.169 C 
HETATM    3  O3  UNL     1      -2.492   2.774  12.632  1.00  0.00    -0.291 OA
BRANCH   2   4
HETATM    4  C3  UNL     1      -4.437   3.428  13.795  1.00  0.00     0.012 A 
HETATM    5  C2  UNL     1      -4.754   2.395  14.640  1.00  0.00     0.042 A 
HETATM    6  C1  UNL     1      -5.535   2.604  15.776  1.00  0.00     0.101 A 
HETATM    7  C17 UNL     1      -6.025   3.842  16.108  1.00  0.00     0.057 A 
HETATM    8  C16 UNL     1      -5.714   4.890  15.269  1.00  0.00     0.026 A 
HETATM    9 CL1  UNL     1      -7.004   3.996  17.551  1.00  0.00    -0.083 Cl
HETATM   10  C15 UNL     1      -4.941   4.685  14.145  1.00  0.00     0.017 A 
BRANCH   6  11
HETATM   11  S1  UNL     1      -5.916   1.232  16.792  1.00  0.00     0.258 S 
HETATM   12  O1  UNL     1      -5.294   1.404  18.172  1.00  0.00    -0.201 OA
HETATM   13  O2  UNL     1      -5.348  -0.031  16.219  1.00  0.00    -0.201 OA
BRANCH  11  14
HETATM   14  N1  UNL     1      -7.589   1.037  16.989  1.00  0.00    -0.324 N 
ATOM     15  H12 UNL     1      -8.061   0.876  17.878  1.00  0.00     0.169 HD
ATOM     16  H11 UNL     1      -8.027   1.110  16.070  1.00  0.00     0.169 HD
ENDBRANCH  11  14
ENDBRANCH   6  11
ENDBRANCH   2   4
ENDBRANCH   1   2
BRANCH   1  17
HETATM   17  S2  UNL     1      -3.607   5.220  10.603  1.00  0.00    -0.086 SA
BRANCH  17  18
HETATM   18  C6  UNL     1      -4.885   6.173   9.735  1.00  0.00     0.145 A 
HETATM   19  N2  UNL     1      -6.056   6.604  10.177  1.00  0.00    -0.335 N 
HETATM   20  C7  UNL     1      -6.675   7.290   9.218  1.00  0.00     0.064 A 
ATOM     21  H2  UNL     1      -6.428   6.436  11.112  1.00  0.00     0.168 HD
HETATM   22  C8  UNL     1      -7.890   7.966   9.103  1.00  0.00     0.071 A 
HETATM   23  C12 UNL     1      -5.836   7.277   8.129  1.00  0.00     0.064 A 
HETATM   24  C9  UNL     1      -8.274   8.613   7.952  1.00  0.00     0.104 A 
HETATM   25  C10 UNL     1      -7.405   8.581   6.874  1.00  0.00     0.104 A 
HETATM   26  O5  UNL     1      -9.465   9.299   7.785  1.00  0.00    -0.346 OA
HETATM   27  C11 UNL     1      -6.192   7.925   6.938  1.00  0.00     0.071 A 
HETATM   28  O4  UNL     1      -7.794   9.232   5.723  1.00  0.00    -0.346 OA
HETATM   29  C13 UNL     1      -8.896  10.071   5.566  1.00  0.00     0.202 C 
HETATM   30  C14 UNL     1      -9.561  10.411   6.880  1.00  0.00     0.202 C 
HETATM   31  N3  UNL     1      -4.754   6.598   8.451  1.00  0.00    -0.335 N 
ATOM     32  H3  UNL     1      -3.955   6.421   7.842  1.00  0.00     0.168 HD
ENDBRANCH  17  18
ENDBRANCH   1  17
TORSDOF 6
ENDMDL
