MODEL 20
REMARK VINA RESULT: -7.659775162      4.187      7.295
REMARK  6 active torsions:
REMARK  status: ('A' for Active; 'I' for Inactive)
REMARK    1  A    between atoms: N1_1  and  S1_4 
REMARK    2  A    between atoms: S1_4  and  C1_7 
REMARK    3  A    between atoms: C3_9  and  C4_10 
REMARK    4  A    between atoms: C4_10  and  C5_12 
REMARK    5  A    between atoms: C5_12  and  S2_13 
REMARK    6  A    between atoms: S2_13  and  C6_14 
ROOT
HETATM    1  C5  UNL     1      -3.977   3.700  11.268  1.00  0.00     0.166 C 
ENDROOT
BRANCH   1   2
HETATM    2  C4  UNL     1      -3.732   2.890  12.472  1.00  0.00     0.169 C 
HETATM    3  O3  UNL     1      -2.868   1.959  12.470  1.00  0.00    -0.291 OA
BRANCH   2   4
HETATM    4  C3  UNL     1      -4.483   3.146  13.714  1.00  0.00     0.012 A 
HETATM    5  C2  UNL     1      -4.809   2.178  14.629  1.00  0.00     0.042 A 
HETATM    6  C1  UNL     1      -5.562   2.479  15.763  1.00  0.00     0.101 A 
HETATM    7  C17 UNL     1      -6.016   3.747  16.023  1.00  0.00     0.057 A 
HETATM    8  C16 UNL     1      -5.696   4.732  15.113  1.00  0.00     0.026 A 
HETATM    9 CL1  UNL     1      -6.963   4.019  17.469  1.00  0.00    -0.083 Cl
HETATM   10  C15 UNL     1      -4.950   4.435  13.990  1.00  0.00     0.017 A 
BRANCH   6  11
HETATM   11  S1  UNL     1      -5.958   1.185  16.872  1.00  0.00     0.258 S 
HETATM   12  O1  UNL     1      -5.342   1.452  18.240  1.00  0.00    -0.201 OA
HETATM   13  O2  UNL     1      -5.393  -0.118  16.394  1.00  0.00    -0.201 OA
BRANCH  11  14
HETATM   14  N1  UNL     1      -7.633   1.013  17.071  1.00  0.00    -0.324 N 
ATOM     15  H12 UNL     1      -8.085   0.316  17.662  1.00  0.00     0.169 HD
ATOM     16  H11 UNL     1      -8.094   1.723  16.502  1.00  0.00     0.169 HD
ENDBRANCH  11  14
ENDBRANCH   6  11
ENDBRANCH   2   4
ENDBRANCH   1   2
BRANCH   1  17
HETATM   17  S2  UNL     1      -2.533   4.284  10.416  1.00  0.00    -0.086 SA
BRANCH  17  18
HETATM   18  C6  UNL     1      -1.649   5.576  11.337  1.00  0.00     0.145 A 
HETATM   19  N2  UNL     1      -0.470   6.125  11.091  1.00  0.00    -0.335 N 
HETATM   20  C7  UNL     1      -0.208   7.057  12.004  1.00  0.00     0.064 A 
ATOM     21  H2  UNL     1       0.145   5.871  10.317  1.00  0.00     0.168 HD
HETATM   22  C8  UNL     1       0.841   7.944  12.249  1.00  0.00     0.071 A 
HETATM   23  C12 UNL     1      -1.286   7.079  12.856  1.00  0.00     0.064 A 
HETATM   24  C9  UNL     1       0.835   8.830  13.300  1.00  0.00     0.104 A 
HETATM   25  C10 UNL     1      -0.267   8.826  14.139  1.00  0.00     0.104 A 
HETATM   26  O5  UNL     1       1.846   9.731  13.587  1.00  0.00    -0.346 OA
HETATM   27  C11 UNL     1      -1.330   7.968  13.939  1.00  0.00     0.071 A 
HETATM   28  O4  UNL     1      -0.269   9.717  15.192  1.00  0.00    -0.346 OA
HETATM   29  C13 UNL     1       0.639  10.749  15.418  1.00  0.00     0.202 C 
HETATM   30  C14 UNL     1       1.567  10.977  14.245  1.00  0.00     0.202 C 
HETATM   31  N3  UNL     1      -2.154   6.178  12.444  1.00  0.00    -0.335 N 
ATOM     32  H3  UNL     1      -3.052   5.969  12.881  1.00  0.00     0.168 HD
ENDBRANCH  17  18
ENDBRANCH   1  17
TORSDOF 6
ENDMDL
