MODEL 2
REMARK VINA RESULT: -8.546071026      0.643      1.487
REMARK  6 active torsions:
REMARK  status: ('A' for Active; 'I' for Inactive)
REMARK    1  A    between atoms: N1_1  and  S1_4 
REMARK    2  A    between atoms: S1_4  and  C1_7 
REMARK    3  A    between atoms: C3_9  and  C4_10 
REMARK    4  A    between atoms: C4_10  and  C5_12 
REMARK    5  A    between atoms: C5_12  and  S2_13 
REMARK    6  A    between atoms: S2_13  and  C6_14 
ROOT
HETATM    1  C5  UNL     1      -1.578   6.699  11.925  1.00  0.00     0.166 C 
ENDROOT
BRANCH   1   2
HETATM    2  C4  UNL     1      -2.401   5.858  11.041  1.00  0.00     0.169 C 
HETATM    3  O3  UNL     1      -3.268   6.373  10.269  1.00  0.00    -0.291 OA
BRANCH   2   4
HETATM    4  C3  UNL     1      -2.234   4.394  11.028  1.00  0.00     0.012 A 
HETATM    5  C2  UNL     1      -3.274   3.500  11.011  1.00  0.00     0.042 A 
HETATM    6  C1  UNL     1      -3.047   2.125  11.046  1.00  0.00     0.101 A 
HETATM    7  C17 UNL     1      -1.783   1.595  11.100  1.00  0.00     0.057 A 
HETATM    8  C16 UNL     1      -0.727   2.480  11.116  1.00  0.00     0.026 A 
HETATM    9 CL1  UNL     1      -1.606  -0.146  11.150  1.00  0.00    -0.083 Cl
HETATM   10  C15 UNL     1      -0.950   3.841  11.081  1.00  0.00     0.017 A 
BRANCH   6  11
HETATM   11  S1  UNL     1      -4.427   1.050  11.046  1.00  0.00     0.258 S 
HETATM   12  O1  UNL     1      -4.508   0.291   9.727  1.00  0.00    -0.201 OA
HETATM   13  O2  UNL     1      -5.705   1.822  11.176  1.00  0.00    -0.201 OA
BRANCH  11  14
HETATM   14  N1  UNL     1      -4.344  -0.084  12.303  1.00  0.00    -0.324 N 
ATOM     15  H12 UNL     1      -4.257  -1.093  12.179  1.00  0.00     0.169 HD
ATOM     16  H11 UNL     1      -4.396   0.419  13.189  1.00  0.00     0.169 HD
ENDBRANCH  11  14
ENDBRANCH   6  11
ENDBRANCH   2   4
ENDBRANCH   1   2
BRANCH   1  17
HETATM   17  S2  UNL     1      -2.249   7.024  13.536  1.00  0.00    -0.086 SA
BRANCH  17  18
HETATM   18  C6  UNL     1      -3.136   5.599  14.228  1.00  0.00     0.145 A 
HETATM   19  N2  UNL     1      -2.709   4.364  14.435  1.00  0.00    -0.335 N 
HETATM   20  C7  UNL     1      -3.678   3.637  14.986  1.00  0.00     0.064 A 
ATOM     21  H2  UNL     1      -1.776   4.020  14.206  1.00  0.00     0.168 HD
HETATM   22  C8  UNL     1      -3.810   2.319  15.422  1.00  0.00     0.071 A 
HETATM   23  C12 UNL     1      -4.760   4.475  15.124  1.00  0.00     0.064 A 
HETATM   24  C9  UNL     1      -4.969   1.832  15.979  1.00  0.00     0.104 A 
HETATM   25  C10 UNL     1      -6.039   2.703  16.103  1.00  0.00     0.104 A 
HETATM   26  O5  UNL     1      -5.153   0.536  16.429  1.00  0.00    -0.346 OA
HETATM   27  C11 UNL     1      -5.959   4.017  15.686  1.00  0.00     0.071 A 
HETATM   28  O4  UNL     1      -7.199   2.211  16.663  1.00  0.00    -0.346 OA
HETATM   29  C13 UNL     1      -7.373   0.974  17.280  1.00  0.00     0.202 C 
HETATM   30  C14 UNL     1      -6.067   0.243  17.497  1.00  0.00     0.202 C 
HETATM   31  N3  UNL     1      -4.422   5.662  14.661  1.00  0.00    -0.335 N 
ATOM     32  H3  UNL     1      -5.022   6.486  14.634  1.00  0.00     0.168 HD
ENDBRANCH  17  18
ENDBRANCH   1  17
TORSDOF 6
ENDMDL
