MODEL 1
REMARK VINA RESULT: -8.749768753      0.000      0.000
REMARK  6 active torsions:
REMARK  status: ('A' for Active; 'I' for Inactive)
REMARK    1  A    between atoms: N1_1  and  S1_4 
REMARK    2  A    between atoms: S1_4  and  C1_7 
REMARK    3  A    between atoms: C3_9  and  C4_10 
REMARK    4  A    between atoms: C4_10  and  C5_12 
REMARK    5  A    between atoms: C5_12  and  S2_13 
REMARK    6  A    between atoms: S2_13  and  C6_14 
ROOT
HETATM    1  C5  UNL     1      -3.163   7.010  11.296  1.00  0.00     0.166 C 
ENDROOT
BRANCH   1   2
HETATM    2  C4  UNL     1      -2.618   6.174  10.214  1.00  0.00     0.169 C 
HETATM    3  O3  UNL     1      -2.349   6.671   9.077  1.00  0.00    -0.291 OA
BRANCH   2   4
HETATM    4  C3  UNL     1      -2.368   4.738  10.428  1.00  0.00     0.012 A 
HETATM    5  C2  UNL     1      -3.353   3.810  10.646  1.00  0.00     0.042 A 
HETATM    6  C1  UNL     1      -3.045   2.472  10.888  1.00  0.00     0.101 A 
HETATM    7  C17 UNL     1      -1.752   2.014  10.921  1.00  0.00     0.057 A 
HETATM    8  C16 UNL     1      -0.751   2.935  10.702  1.00  0.00     0.026 A 
HETATM    9 CL1  UNL     1      -1.472   0.317  11.241  1.00  0.00    -0.083 Cl
HETATM   10  C15 UNL     1      -1.054   4.259  10.462  1.00  0.00     0.017 A 
BRANCH   6  11
HETATM   11  S1  UNL     1      -4.357   1.352  11.182  1.00  0.00     0.258 S 
HETATM   12  O1  UNL     1      -4.412   0.298  10.082  1.00  0.00    -0.201 OA
HETATM   13  O2  UNL     1      -5.677   2.060  11.163  1.00  0.00    -0.201 OA
BRANCH  11  14
HETATM   14  N1  UNL     1      -4.186   0.554  12.668  1.00  0.00    -0.324 N 
ATOM     15  H12 UNL     1      -4.854  -0.110  13.058  1.00  0.00     0.169 HD
ATOM     16  H11 UNL     1      -3.307   0.855  13.090  1.00  0.00     0.169 HD
ENDBRANCH  11  14
ENDBRANCH   6  11
ENDBRANCH   2   4
ENDBRANCH   1   2
BRANCH   1  17
HETATM   17  S2  UNL     1      -2.435   6.779  12.899  1.00  0.00    -0.086 SA
BRANCH  17  18
HETATM   18  C6  UNL     1      -3.358   5.601  13.926  1.00  0.00     0.145 A 
HETATM   19  N2  UNL     1      -4.608   5.663  14.357  1.00  0.00    -0.335 N 
HETATM   20  C7  UNL     1      -4.896   4.572  15.063  1.00  0.00     0.064 A 
ATOM     21  H2  UNL     1      -5.253   6.431  14.175  1.00  0.00     0.168 HD
HETATM   22  C8  UNL     1      -6.018   4.089  15.738  1.00  0.00     0.071 A 
HETATM   23  C12 UNL     1      -3.758   3.800  15.065  1.00  0.00     0.064 A 
HETATM   24  C9  UNL     1      -6.027   2.882  16.396  1.00  0.00     0.104 A 
HETATM   25  C10 UNL     1      -4.865   2.129  16.378  1.00  0.00     0.104 A 
HETATM   26  O5  UNL     1      -7.111   2.356  17.078  1.00  0.00    -0.346 OA
HETATM   27  C11 UNL     1      -3.727   2.564  15.725  1.00  0.00     0.071 A 
HETATM   28  O4  UNL     1      -4.878   0.919  17.039  1.00  0.00    -0.346 OA
HETATM   29  C13 UNL     1      -5.986   0.277  17.588  1.00  0.00     0.202 C 
HETATM   30  C14 UNL     1      -7.292   0.936  17.203  1.00  0.00     0.202 C 
HETATM   31  N3  UNL     1      -2.831   4.432  14.374  1.00  0.00    -0.335 N 
ATOM     32  H3  UNL     1      -1.882   4.100  14.204  1.00  0.00     0.168 HD
ENDBRANCH  17  18
ENDBRANCH   1  17
TORSDOF 6
ENDMDL
