MODEL 15
REMARK VINA RESULT: -7.850401959      3.892      7.012
REMARK  6 active torsions:
REMARK  status: ('A' for Active; 'I' for Inactive)
REMARK    1  A    between atoms: N1_1  and  S1_4 
REMARK    2  A    between atoms: S1_4  and  C1_7 
REMARK    3  A    between atoms: C3_9  and  C4_10 
REMARK    4  A    between atoms: C4_10  and  C5_12 
REMARK    5  A    between atoms: C5_12  and  S2_13 
REMARK    6  A    between atoms: S2_13  and  C6_14 
ROOT
HETATM    1  C5  UNL     1      -3.113   2.002  12.038  1.00  0.00     0.166 C 
ENDROOT
BRANCH   1   2
HETATM    2  C4  UNL     1      -4.288   2.881  12.159  1.00  0.00     0.169 C 
HETATM    3  O3  UNL     1      -4.814   3.414  11.134  1.00  0.00    -0.291 OA
BRANCH   2   4
HETATM    4  C3  UNL     1      -4.885   3.158  13.477  1.00  0.00     0.012 A 
HETATM    5  C2  UNL     1      -5.103   2.206  14.440  1.00  0.00     0.042 A 
HETATM    6  C1  UNL     1      -5.715   2.527  15.650  1.00  0.00     0.101 A 
HETATM    7  C17 UNL     1      -6.130   3.801  15.943  1.00  0.00     0.057 A 
HETATM    8  C16 UNL     1      -5.917   4.770  14.986  1.00  0.00     0.026 A 
HETATM    9 CL1  UNL     1      -6.897   4.099  17.488  1.00  0.00    -0.083 Cl
HETATM   10  C15 UNL     1      -5.312   4.454  13.788  1.00  0.00     0.017 A 
BRANCH   6  11
HETATM   11  S1  UNL     1      -5.979   1.251  16.818  1.00  0.00     0.258 S 
HETATM   12  O1  UNL     1      -5.296   1.589  18.137  1.00  0.00    -0.201 OA
HETATM   13  O2  UNL     1      -5.382  -0.039  16.344  1.00  0.00    -0.201 OA
BRANCH  11  14
HETATM   14  N1  UNL     1      -7.629   1.009  17.126  1.00  0.00    -0.324 N 
ATOM     15  H12 UNL     1      -8.132   1.362  17.940  1.00  0.00     0.169 HD
ATOM     16  H11 UNL     1      -8.016   0.455  16.362  1.00  0.00     0.169 HD
ENDBRANCH  11  14
ENDBRANCH   6  11
ENDBRANCH   2   4
ENDBRANCH   1   2
BRANCH   1  17
HETATM   17  S2  UNL     1      -1.661   2.739  11.331  1.00  0.00    -0.086 SA
BRANCH  17  18
HETATM   18  C6  UNL     1      -1.304   4.383  12.014  1.00  0.00     0.145 A 
HETATM   19  N2  UNL     1      -1.863   5.005  13.039  1.00  0.00    -0.335 N 
HETATM   20  C7  UNL     1      -1.281   6.190  13.218  1.00  0.00     0.064 A 
ATOM     21  H2  UNL     1      -2.624   4.633  13.606  1.00  0.00     0.168 HD
HETATM   22  C8  UNL     1      -1.434   7.249  14.114  1.00  0.00     0.071 A 
HETATM   23  C12 UNL     1      -0.313   6.297  12.248  1.00  0.00     0.064 A 
HETATM   24  C9  UNL     1      -0.659   8.383  14.062  1.00  0.00     0.104 A 
HETATM   25  C10 UNL     1       0.307   8.459  13.072  1.00  0.00     0.104 A 
HETATM   26  O5  UNL     1      -0.767   9.460  14.925  1.00  0.00    -0.346 OA
HETATM   27  C11 UNL     1       0.496   7.438  12.162  1.00  0.00     0.071 A 
HETATM   28  O4  UNL     1       1.082   9.598  13.024  1.00  0.00    -0.346 OA
HETATM   29  C13 UNL     1       1.124  10.623  13.967  1.00  0.00     0.202 C 
HETATM   30  C14 UNL     1       0.370  10.282  15.233  1.00  0.00     0.202 C 
HETATM   31  N3  UNL     1      -0.334   5.198  11.522  1.00  0.00    -0.335 N 
ATOM     32  H3  UNL     1       0.273   4.993  10.729  1.00  0.00     0.168 HD
ENDBRANCH  17  18
ENDBRANCH   1  17
TORSDOF 6
ENDMDL
