MODEL 12
REMARK VINA RESULT: -7.031888895      1.732      5.016
REMARK  13 active torsions:
REMARK  status: ('A' for Active; 'I' for Inactive)
REMARK    1  A    between atoms: C2_2  and  C3_3 
REMARK    2  A    between atoms: C3_3  and  C4_4 
REMARK    3  A    between atoms: C4_4  and  C5_5 
REMARK    4  A    between atoms: C5_5  and  C6_6 
REMARK    5  A    between atoms: C6_6  and  C7_7 
REMARK    6  A    between atoms: C6_6  and  C9_14 
REMARK    7  A    between atoms: C7_7  and  C8_8 
REMARK       I    between atoms: C8_8  and  N1_10 
REMARK    8  A    between atoms: N1_10  and  O2_12 
REMARK       I    between atoms: C9_14  and  N2_16 
REMARK    9  A    between atoms: N2_16  and  C10_18 
REMARK   10  A    between atoms: C10_18  and  C11_19 
REMARK   11  A    between atoms: C10_18  and  C17_29 
REMARK       I    between atoms: C11_19  and  N3_21 
REMARK   12  A    between atoms: C15_25  and  C16_26 
REMARK   13  A    between atoms: C16_26  and  O5_27 
ROOT
HETATM    1  C9  UNL     1      17.386   9.132  24.010  1.00  0.00     0.223 C 
HETATM    2  O3  UNL     1      16.793   9.735  23.074  1.00  0.00    -0.273 OA
HETATM    3  N2  UNL     1      17.275   7.711  24.010  1.00  0.00    -0.347 N 
ATOM      4  H2  UNL     1      17.732   7.165  24.740  1.00  0.00     0.163 HD
ENDROOT
BRANCH   3   5
HETATM    5  C10 UNL     1      16.506   7.036  22.965  1.00  0.00     0.180 C 
BRANCH   5   6
HETATM    6  C11 UNL     1      15.590   6.030  23.531  1.00  0.00     0.243 C 
HETATM    7  O4  UNL     1      16.009   4.810  23.457  1.00  0.00    -0.271 OA
HETATM    8  N3  UNL     1      14.344   6.310  24.119  1.00  0.00    -0.344 N 
HETATM    9  C12 UNL     1      13.403   5.296  24.623  1.00  0.00     0.126 C 
HETATM   10  C15 UNL     1      13.695   7.554  24.416  1.00  0.00     0.111 C 
HETATM   11  C13 UNL     1      12.053   5.894  24.277  1.00  0.00     0.022 C 
HETATM   12  C14 UNL     1      12.288   7.339  23.882  1.00  0.00     0.029 C 
BRANCH  10  13
HETATM   13  C16 UNL     1      13.498   7.702  25.943  1.00  0.00     0.189 C 
BRANCH  13  14
HETATM   14  O5  UNL     1      14.674   8.004  26.587  1.00  0.00    -0.399 OA
ATOM     15  H5  UNL     1      15.200   7.230  26.748  1.00  0.00     0.209 HD
ENDBRANCH  13  14
ENDBRANCH  10  13
ENDBRANCH   5   6
BRANCH   5  16
HETATM   16  C17 UNL     1      17.481   6.353  22.009  1.00  0.00     0.009 C 
HETATM   17  C18 UNL     1      17.539   7.067  20.689  1.00  0.00     0.012 C 
HETATM   18  C19 UNL     1      18.847   6.251  22.659  1.00  0.00     0.012 C 
ENDBRANCH   5  16
ENDBRANCH   3   5
BRANCH   1  19
HETATM   19  C6  UNL     1      18.124   9.914  25.008  1.00  0.00     0.086 C 
BRANCH  19  20
HETATM   20  C5  UNL     1      19.567   9.503  25.005  1.00  0.00     0.014 C 
BRANCH  20  21
HETATM   21  C4  UNL     1      20.228   9.548  23.689  1.00  0.00     0.001 C 
BRANCH  21  22
HETATM   22  C3  UNL     1      21.508   8.764  23.633  1.00  0.00    -0.000 C 
BRANCH  22  23
HETATM   23  C2  UNL     1      22.236   9.033  22.356  1.00  0.00    -0.005 C 
HETATM   24  C1  UNL     1      21.657   8.086  21.315  1.00  0.00     0.005 C 
ENDBRANCH  22  23
ENDBRANCH  21  22
ENDBRANCH  20  21
ENDBRANCH  19  20
BRANCH  19  25
HETATM   25  C7  UNL     1      17.431   9.899  26.310  1.00  0.00     0.119 C 
BRANCH  25  26
HETATM   26  C8  UNL     1      16.500  11.024  26.466  1.00  0.00     0.241 C 
HETATM   27  O1  UNL     1      15.626  11.332  25.619  1.00  0.00    -0.271 OA
HETATM   28  N1  UNL     1      16.596  11.814  27.656  1.00  0.00    -0.237 N 
ATOM     29  H1  UNL     1      17.291  11.601  28.372  1.00  0.00     0.197 HD
BRANCH  28  30
HETATM   30  O2  UNL     1      15.745  12.845  27.803  1.00  0.00    -0.287 OA
ATOM     31  H2  UNL     1      15.324  12.962  28.647  1.00  0.00     0.244 HD
ENDBRANCH  28  30
ENDBRANCH  25  26
ENDBRANCH  19  25
ENDBRANCH   1  19
TORSDOF 13
ENDMDL
