MODEL 2
REMARK VINA RESULT: -7.784778139      1.386      1.666
REMARK  13 active torsions:
REMARK  status: ('A' for Active; 'I' for Inactive)
REMARK    1  A    between atoms: C2_2  and  C3_3 
REMARK    2  A    between atoms: C3_3  and  C4_4 
REMARK    3  A    between atoms: C4_4  and  C5_5 
REMARK    4  A    between atoms: C5_5  and  C6_6 
REMARK    5  A    between atoms: C6_6  and  C7_7 
REMARK    6  A    between atoms: C6_6  and  C9_14 
REMARK    7  A    between atoms: C7_7  and  C8_8 
REMARK       I    between atoms: C8_8  and  N1_10 
REMARK    8  A    between atoms: N1_10  and  O2_12 
REMARK       I    between atoms: C9_14  and  N2_16 
REMARK    9  A    between atoms: N2_16  and  C10_18 
REMARK   10  A    between atoms: C10_18  and  C11_19 
REMARK   11  A    between atoms: C10_18  and  C17_29 
REMARK       I    between atoms: C11_19  and  N3_21 
REMARK   12  A    between atoms: C15_25  and  C16_26 
REMARK   13  A    between atoms: C16_26  and  O5_27 
ROOT
HETATM    1  C9  UNL     1      17.142   9.204  24.220  1.00  0.00     0.223 C 
HETATM    2  O3  UNL     1      17.082   9.849  23.138  1.00  0.00    -0.273 OA
HETATM    3  N2  UNL     1      18.095   8.144  24.265  1.00  0.00    -0.347 N 
ATOM      4  H2  UNL     1      18.194   7.585  25.112  1.00  0.00     0.163 HD
ENDROOT
BRANCH   3   5
HETATM    5  C10 UNL     1      18.930   7.859  23.098  1.00  0.00     0.180 C 
BRANCH   5   6
HETATM    6  C11 UNL     1      18.725   6.484  22.609  1.00  0.00     0.243 C 
HETATM    7  O4  UNL     1      19.808   5.800  22.439  1.00  0.00    -0.271 OA
HETATM    8  N3  UNL     1      17.476   5.901  22.331  1.00  0.00    -0.344 N 
HETATM    9  C12 UNL     1      17.279   4.550  21.780  1.00  0.00     0.126 C 
HETATM   10  C15 UNL     1      16.141   6.387  22.523  1.00  0.00     0.111 C 
HETATM   11  C13 UNL     1      16.079   4.732  20.871  1.00  0.00     0.022 C 
HETATM   12  C14 UNL     1      15.474   6.085  21.190  1.00  0.00     0.029 C 
BRANCH  10  13
HETATM   13  C16 UNL     1      15.385   5.490  23.531  1.00  0.00     0.189 C 
BRANCH  13  14
HETATM   14  O5  UNL     1      15.569   5.906  24.828  1.00  0.00    -0.399 OA
ATOM     15  H5  UNL     1      15.670   6.848  24.888  1.00  0.00     0.209 HD
ENDBRANCH  13  14
ENDBRANCH  10  13
ENDBRANCH   5   6
BRANCH   5  16
HETATM   16  C17 UNL     1      20.393   8.045  23.490  1.00  0.00     0.009 C 
HETATM   17  C18 UNL     1      20.907   9.388  23.056  1.00  0.00     0.012 C 
HETATM   18  C19 UNL     1      20.554   7.832  24.982  1.00  0.00     0.012 C 
ENDBRANCH   5  16
ENDBRANCH   3   5
BRANCH   1  19
HETATM   19  C6  UNL     1      16.252   9.575  25.324  1.00  0.00     0.086 C 
BRANCH  19  20
HETATM   20  C5  UNL     1      14.828   9.557  24.854  1.00  0.00     0.014 C 
BRANCH  20  21
HETATM   21  C4  UNL     1      13.907   8.749  25.672  1.00  0.00     0.001 C 
BRANCH  21  22
HETATM   22  C3  UNL     1      12.593   8.472  25.002  1.00  0.00    -0.000 C 
BRANCH  22  23
HETATM   23  C2  UNL     1      12.229   7.028  25.129  1.00  0.00    -0.005 C 
HETATM   24  C1  UNL     1      11.799   6.563  23.744  1.00  0.00     0.005 C 
ENDBRANCH  22  23
ENDBRANCH  21  22
ENDBRANCH  20  21
ENDBRANCH  19  20
BRANCH  19  25
HETATM   25  C7  UNL     1      16.718  10.808  25.988  1.00  0.00     0.119 C 
BRANCH  25  26
HETATM   26  C8  UNL     1      16.310  10.879  27.396  1.00  0.00     0.241 C 
HETATM   27  O1  UNL     1      16.595  10.006  28.253  1.00  0.00    -0.271 OA
HETATM   28  N1  UNL     1      15.542  12.012  27.816  1.00  0.00    -0.237 N 
ATOM     29  H1  UNL     1      15.288  12.747  27.155  1.00  0.00     0.197 HD
BRANCH  28  30
HETATM   30  O2  UNL     1      15.167  12.081  29.106  1.00  0.00    -0.287 OA
ATOM     31  H2  UNL     1      14.303  11.762  29.338  1.00  0.00     0.244 HD
ENDBRANCH  28  30
ENDBRANCH  25  26
ENDBRANCH  19  25
ENDBRANCH   1  19
TORSDOF 13
ENDMDL
