MODEL 4
REMARK VINA RESULT: -7.453251291      1.906      5.378
REMARK  13 active torsions:
REMARK  status: ('A' for Active; 'I' for Inactive)
REMARK    1  A    between atoms: C2_2  and  C3_3 
REMARK    2  A    between atoms: C3_3  and  C4_4 
REMARK    3  A    between atoms: C4_4  and  C5_5 
REMARK    4  A    between atoms: C5_5  and  C6_6 
REMARK    5  A    between atoms: C6_6  and  C7_7 
REMARK    6  A    between atoms: C6_6  and  C9_14 
REMARK    7  A    between atoms: C7_7  and  C8_8 
REMARK       I    between atoms: C8_8  and  N1_10 
REMARK    8  A    between atoms: N1_10  and  O2_12 
REMARK       I    between atoms: C9_14  and  N2_16 
REMARK    9  A    between atoms: N2_16  and  C10_18 
REMARK   10  A    between atoms: C10_18  and  C11_19 
REMARK   11  A    between atoms: C10_18  and  C17_29 
REMARK       I    between atoms: C11_19  and  N3_21 
REMARK   12  A    between atoms: C15_25  and  C16_26 
REMARK   13  A    between atoms: C16_26  and  O5_27 
ROOT
HETATM    1  C9  UNL     1      17.889   8.687  23.433  1.00  0.00     0.223 C 
HETATM    2  O3  UNL     1      17.289   9.428  22.608  1.00  0.00    -0.273 OA
HETATM    3  N2  UNL     1      17.433   7.339  23.512  1.00  0.00    -0.347 N 
ATOM      4  H2  UNL     1      17.879   6.688  24.159  1.00  0.00     0.163 HD
ENDROOT
BRANCH   3   5
HETATM    5  C10 UNL     1      16.328   6.888  22.666  1.00  0.00     0.180 C 
BRANCH   5   6
HETATM    6  C11 UNL     1      15.369   6.065  23.422  1.00  0.00     0.243 C 
HETATM    7  O4  UNL     1      15.537   4.789  23.309  1.00  0.00    -0.271 OA
HETATM    8  N3  UNL     1      14.328   6.566  24.225  1.00  0.00    -0.344 N 
HETATM    9  C12 UNL     1      13.331   5.741  24.926  1.00  0.00     0.126 C 
HETATM   10  C15 UNL     1      13.984   7.907  24.600  1.00  0.00     0.111 C 
HETATM   11  C13 UNL     1      12.071   6.578  24.820  1.00  0.00     0.022 C 
HETATM   12  C14 UNL     1      12.486   7.957  24.345  1.00  0.00     0.029 C 
BRANCH  10  13
HETATM   13  C16 UNL     1      14.109   8.081  26.132  1.00  0.00     0.189 C 
BRANCH  13  14
HETATM   14  O5  UNL     1      15.322   8.618  26.491  1.00  0.00    -0.399 OA
ATOM     15  H5  UNL     1      16.006   8.397  25.871  1.00  0.00     0.209 HD
ENDBRANCH  13  14
ENDBRANCH  10  13
ENDBRANCH   5   6
BRANCH   5  16
HETATM   16  C17 UNL     1      16.902   6.068  21.513  1.00  0.00     0.009 C 
HETATM   17  C18 UNL     1      16.679   6.751  20.195  1.00  0.00     0.012 C 
HETATM   18  C19 UNL     1      18.370   5.788  21.766  1.00  0.00     0.012 C 
ENDBRANCH   5  16
ENDBRANCH   3   5
BRANCH   1  19
HETATM   19  C6  UNL     1      18.982   9.249  24.233  1.00  0.00     0.086 C 
BRANCH  19  20
HETATM   20  C5  UNL     1      19.335   8.302  25.342  1.00  0.00     0.014 C 
BRANCH  20  21
HETATM   21  C4  UNL     1      20.655   7.660  25.222  1.00  0.00     0.001 C 
BRANCH  21  22
HETATM   22  C3  UNL     1      21.790   8.527  25.688  1.00  0.00    -0.000 C 
BRANCH  22  23
HETATM   23  C2  UNL     1      22.785   7.723  26.461  1.00  0.00    -0.005 C 
HETATM   24  C1  UNL     1      22.087   6.430  26.858  1.00  0.00     0.005 C 
ENDBRANCH  22  23
ENDBRANCH  21  22
ENDBRANCH  20  21
ENDBRANCH  19  20
BRANCH  19  25
HETATM   25  C7  UNL     1      18.695  10.644  24.616  1.00  0.00     0.119 C 
BRANCH  25  26
HETATM   26  C8  UNL     1      17.523  10.759  25.494  1.00  0.00     0.241 C 
HETATM   27  O1  UNL     1      17.527  10.447  26.710  1.00  0.00    -0.271 OA
HETATM   28  N1  UNL     1      16.306  11.256  24.928  1.00  0.00    -0.237 N 
ATOM     29  H1  UNL     1      16.256  11.523  23.944  1.00  0.00     0.197 HD
BRANCH  28  30
HETATM   30  O2  UNL     1      15.231  11.363  25.729  1.00  0.00    -0.287 OA
ATOM     31  H2  UNL     1      14.405  11.620  25.338  1.00  0.00     0.244 HD
ENDBRANCH  28  30
ENDBRANCH  25  26
ENDBRANCH  19  25
ENDBRANCH   1  19
TORSDOF 13
ENDMDL
