MODEL 8
REMARK VINA RESULT: -7.263156585      2.100      4.519
REMARK  13 active torsions:
REMARK  status: ('A' for Active; 'I' for Inactive)
REMARK    1  A    between atoms: C2_2  and  C3_3 
REMARK    2  A    between atoms: C3_3  and  C4_4 
REMARK    3  A    between atoms: C4_4  and  C5_5 
REMARK    4  A    between atoms: C5_5  and  C6_6 
REMARK    5  A    between atoms: C6_6  and  C7_7 
REMARK    6  A    between atoms: C6_6  and  C9_14 
REMARK    7  A    between atoms: C7_7  and  C8_8 
REMARK       I    between atoms: C8_8  and  N1_10 
REMARK    8  A    between atoms: N1_10  and  O2_12 
REMARK       I    between atoms: C9_14  and  N2_16 
REMARK    9  A    between atoms: N2_16  and  C10_18 
REMARK   10  A    between atoms: C10_18  and  C11_19 
REMARK   11  A    between atoms: C10_18  and  C17_29 
REMARK       I    between atoms: C11_19  and  N3_21 
REMARK   12  A    between atoms: C15_25  and  C16_26 
REMARK   13  A    between atoms: C16_26  and  O5_27 
ROOT
HETATM    1  C9  UNL     1      17.383   6.287  23.362  1.00  0.00     0.223 C 
HETATM    2  O3  UNL     1      17.865   5.216  23.820  1.00  0.00    -0.273 OA
HETATM    3  N2  UNL     1      18.186   6.979  22.409  1.00  0.00    -0.347 N 
ATOM      4  H2  UNL     1      17.852   7.851  21.999  1.00  0.00     0.163 HD
ENDROOT
BRANCH   3   5
HETATM    5  C10 UNL     1      19.489   6.440  22.019  1.00  0.00     0.180 C 
BRANCH   5   6
HETATM    6  C11 UNL     1      20.577   7.392  22.306  1.00  0.00     0.243 C 
HETATM    7  O4  UNL     1      21.276   7.744  21.279  1.00  0.00    -0.271 OA
HETATM    8  N3  UNL     1      20.882   7.914  23.575  1.00  0.00    -0.344 N 
HETATM    9  C12 UNL     1      22.010   8.813  23.868  1.00  0.00     0.126 C 
HETATM   10  C15 UNL     1      20.221   7.775  24.840  1.00  0.00     0.111 C 
HETATM   11  C13 UNL     1      22.450   8.358  25.247  1.00  0.00     0.022 C 
HETATM   12  C14 UNL     1      21.365   7.447  25.787  1.00  0.00     0.029 C 
BRANCH  10  13
HETATM   13  C16 UNL     1      19.712   9.150  25.331  1.00  0.00     0.189 C 
BRANCH  13  14
HETATM   14  O5  UNL     1      18.538   9.041  26.037  1.00  0.00    -0.399 OA
ATOM     15  H5  UNL     1      17.794   8.880  25.469  1.00  0.00     0.209 HD
ENDBRANCH  13  14
ENDBRANCH  10  13
ENDBRANCH   5   6
BRANCH   5  16
HETATM   16  C17 UNL     1      19.462   6.136  20.523  1.00  0.00     0.009 C 
HETATM   17  C18 UNL     1      19.488   4.657  20.267  1.00  0.00     0.012 C 
HETATM   18  C19 UNL     1      18.256   6.800  19.889  1.00  0.00     0.012 C 
ENDBRANCH   5  16
ENDBRANCH   3   5
BRANCH   1  19
HETATM   19  C6  UNL     1      16.067   6.735  23.829  1.00  0.00     0.086 C 
BRANCH  19  20
HETATM   20  C5  UNL     1      15.024   5.727  23.446  1.00  0.00     0.014 C 
BRANCH  20  21
HETATM   21  C4  UNL     1      13.915   5.578  24.404  1.00  0.00     0.001 C 
BRANCH  21  22
HETATM   22  C3  UNL     1      12.628   6.192  23.934  1.00  0.00    -0.000 C 
BRANCH  22  23
HETATM   23  C2  UNL     1      11.901   6.830  25.074  1.00  0.00    -0.005 C 
HETATM   24  C1  UNL     1      12.347   8.285  25.116  1.00  0.00     0.005 C 
ENDBRANCH  22  23
ENDBRANCH  21  22
ENDBRANCH  20  21
ENDBRANCH  19  20
BRANCH  19  25
HETATM   25  C7  UNL     1      15.815   8.135  23.437  1.00  0.00     0.119 C 
BRANCH  25  26
HETATM   26  C8  UNL     1      15.936   9.067  24.564  1.00  0.00     0.241 C 
HETATM   27  O1  UNL     1      16.315  10.259  24.450  1.00  0.00    -0.271 OA
HETATM   28  N1  UNL     1      15.600   8.587  25.871  1.00  0.00    -0.237 N 
ATOM     29  H1  UNL     1      15.287   7.627  26.012  1.00  0.00     0.197 HD
BRANCH  28  30
HETATM   30  O2  UNL     1      15.710   9.439  26.906  1.00  0.00    -0.287 OA
ATOM     31  H2  UNL     1      15.461   9.129  27.769  1.00  0.00     0.244 HD
ENDBRANCH  28  30
ENDBRANCH  25  26
ENDBRANCH  19  25
ENDBRANCH   1  19
TORSDOF 13
ENDMDL
