MODEL 1
REMARK VINA RESULT: -8.026271218      0.000      0.000
REMARK  13 active torsions:
REMARK  status: ('A' for Active; 'I' for Inactive)
REMARK    1  A    between atoms: C2_2  and  C3_3 
REMARK    2  A    between atoms: C3_3  and  C4_4 
REMARK    3  A    between atoms: C4_4  and  C5_5 
REMARK    4  A    between atoms: C5_5  and  C6_6 
REMARK    5  A    between atoms: C6_6  and  C7_7 
REMARK    6  A    between atoms: C6_6  and  C9_14 
REMARK    7  A    between atoms: C7_7  and  C8_8 
REMARK       I    between atoms: C8_8  and  N1_10 
REMARK    8  A    between atoms: N1_10  and  O2_12 
REMARK       I    between atoms: C9_14  and  N2_16 
REMARK    9  A    between atoms: N2_16  and  C10_18 
REMARK   10  A    between atoms: C10_18  and  C11_19 
REMARK   11  A    between atoms: C10_18  and  C17_29 
REMARK       I    between atoms: C11_19  and  N3_21 
REMARK   12  A    between atoms: C15_25  and  C16_26 
REMARK   13  A    between atoms: C16_26  and  O5_27 
ROOT
HETATM    1  C9  UNL     1      16.273   9.337  24.857  1.00  0.00     0.223 C 
HETATM    2  O3  UNL     1      16.093  10.368  24.153  1.00  0.00    -0.273 OA
HETATM    3  N2  UNL     1      17.348   8.488  24.461  1.00  0.00    -0.347 N 
ATOM      4  H2  UNL     1      17.547   7.639  24.989  1.00  0.00     0.163 HD
ENDROOT
BRANCH   3   5
HETATM    5  C10 UNL     1      18.165   8.834  23.297  1.00  0.00     0.180 C 
BRANCH   5   6
HETATM    6  C11 UNL     1      17.668   8.180  22.073  1.00  0.00     0.243 C 
HETATM    7  O4  UNL     1      17.778   8.886  20.997  1.00  0.00    -0.271 OA
HETATM    8  N3  UNL     1      17.108   6.892  22.014  1.00  0.00    -0.344 N 
HETATM    9  C12 UNL     1      16.553   6.269  20.801  1.00  0.00     0.126 C 
HETATM   10  C15 UNL     1      16.962   5.876  23.015  1.00  0.00     0.111 C 
HETATM   11  C13 UNL     1      15.377   5.478  21.341  1.00  0.00     0.022 C 
HETATM   12  C14 UNL     1      15.513   5.443  22.851  1.00  0.00     0.029 C 
BRANCH  10  13
HETATM   13  C16 UNL     1      17.775   4.620  22.624  1.00  0.00     0.189 C 
BRANCH  13  14
HETATM   14  O5  UNL     1      17.414   3.521  23.367  1.00  0.00    -0.399 OA
ATOM     15  H5  UNL     1      18.133   2.910  23.471  1.00  0.00     0.209 HD
ENDBRANCH  13  14
ENDBRANCH  10  13
ENDBRANCH   5   6
BRANCH   5  16
HETATM   16  C17 UNL     1      19.601   8.390  23.562  1.00  0.00     0.009 C 
HETATM   17  C18 UNL     1      20.550   9.551  23.501  1.00  0.00     0.012 C 
HETATM   18  C19 UNL     1      19.675   7.666  24.893  1.00  0.00     0.012 C 
ENDBRANCH   5  16
ENDBRANCH   3   5
BRANCH   1  19
HETATM   19  C6  UNL     1      15.389   9.088  26.000  1.00  0.00     0.086 C 
BRANCH  19  20
HETATM   20  C5  UNL     1      14.336   8.090  25.617  1.00  0.00     0.014 C 
BRANCH  20  21
HETATM   21  C4  UNL     1      13.014   8.661  25.306  1.00  0.00     0.001 C 
BRANCH  21  22
HETATM   22  C3  UNL     1      11.911   7.643  25.278  1.00  0.00    -0.000 C 
BRANCH  22  23
HETATM   23  C2  UNL     1      12.352   6.406  24.563  1.00  0.00    -0.005 C 
HETATM   24  C1  UNL     1      11.680   6.428  23.198  1.00  0.00     0.005 C 
ENDBRANCH  22  23
ENDBRANCH  21  22
ENDBRANCH  20  21
ENDBRANCH  19  20
BRANCH  19  25
HETATM   25  C7  UNL     1      14.920  10.355  26.592  1.00  0.00     0.119 C 
BRANCH  25  26
HETATM   26  C8  UNL     1      15.940  10.998  27.430  1.00  0.00     0.241 C 
HETATM   27  O1  UNL     1      16.714  10.370  28.195  1.00  0.00    -0.271 OA
HETATM   28  N1  UNL     1      16.057  12.423  27.371  1.00  0.00    -0.237 N 
ATOM     29  H1  UNL     1      15.450  12.974  26.764  1.00  0.00     0.197 HD
BRANCH  28  30
HETATM   30  O2  UNL     1      16.990  13.015  28.138  1.00  0.00    -0.287 OA
ATOM     31  H2  UNL     1      17.359  13.838  27.839  1.00  0.00     0.244 HD
ENDBRANCH  28  30
ENDBRANCH  25  26
ENDBRANCH  19  25
ENDBRANCH   1  19
TORSDOF 13
ENDMDL
