MODEL 12
REMARK VINA RESULT: -7.299400341      1.036      1.213
REMARK  13 active torsions:
REMARK  status: ('A' for Active; 'I' for Inactive)
REMARK    1  A    between atoms: C2_2  and  C3_3 
REMARK    2  A    between atoms: C3_3  and  C4_4 
REMARK    3  A    between atoms: C4_4  and  C5_5 
REMARK    4  A    between atoms: C5_5  and  C6_6 
REMARK    5  A    between atoms: C6_6  and  C7_7 
REMARK    6  A    between atoms: C6_6  and  C9_14 
REMARK    7  A    between atoms: C7_7  and  C8_8 
REMARK       I    between atoms: C8_8  and  N1_10 
REMARK    8  A    between atoms: N1_10  and  O2_12 
REMARK       I    between atoms: C9_14  and  N2_16 
REMARK    9  A    between atoms: N2_16  and  C10_18 
REMARK   10  A    between atoms: C10_18  and  C11_19 
REMARK   11  A    between atoms: C10_18  and  C17_29 
REMARK       I    between atoms: C11_19  and  N3_21 
REMARK   12  A    between atoms: C15_25  and  C16_26 
REMARK   13  A    between atoms: C16_26  and  O5_27 
ROOT
HETATM    1  C9  UNL     1     -17.636   6.336 -30.473  1.00  0.00     0.223 C 
HETATM    2  O3  UNL     1     -17.438   7.563 -30.687  1.00  0.00    -0.273 OA
HETATM    3  N2  UNL     1     -18.739   5.750 -31.160  1.00  0.00    -0.347 N 
ATOM      4  H2  UNL     1     -18.951   4.760 -31.031  1.00  0.00     0.163 HD
ENDROOT
BRANCH   3   5
HETATM    5  C10 UNL     1     -19.566   6.565 -32.050  1.00  0.00     0.180 C 
BRANCH   5   6
HETATM    6  C11 UNL     1     -20.656   7.232 -31.316  1.00  0.00     0.243 C 
HETATM    7  O4  UNL     1     -20.917   8.436 -31.704  1.00  0.00    -0.271 OA
HETATM    8  N3  UNL     1     -21.395   6.657 -30.266  1.00  0.00    -0.344 N 
HETATM    9  C12 UNL     1     -22.438   7.350 -29.492  1.00  0.00     0.126 C 
HETATM   10  C15 UNL     1     -21.385   5.334 -29.714  1.00  0.00     0.111 C 
HETATM   11  C13 UNL     1     -22.247   6.787 -28.097  1.00  0.00     0.022 C 
HETATM   12  C14 UNL     1     -21.324   5.590 -28.216  1.00  0.00     0.029 C 
BRANCH  10  13
HETATM   13  C16 UNL     1     -22.760   4.658 -29.922  1.00  0.00     0.189 C 
BRANCH  13  14
HETATM   14  O5  UNL     1     -22.902   4.161 -31.196  1.00  0.00    -0.399 OA
ATOM     15  H5  UNL     1     -23.308   3.302 -31.200  1.00  0.00     0.209 HD
ENDBRANCH  13  14
ENDBRANCH  10  13
ENDBRANCH   5   6
BRANCH   5  16
HETATM   16  C17 UNL     1     -20.160   5.660 -33.127  1.00  0.00     0.009 C 
HETATM   17  C18 UNL     1     -20.352   6.404 -34.417  1.00  0.00     0.012 C 
HETATM   18  C19 UNL     1     -19.285   4.435 -33.303  1.00  0.00     0.012 C 
ENDBRANCH   5  16
ENDBRANCH   3   5
BRANCH   1  19
HETATM   19  C6  UNL     1     -16.745   5.618 -29.556  1.00  0.00     0.086 C 
BRANCH  19  20
HETATM   20  C5  UNL     1     -17.531   5.101 -28.388  1.00  0.00     0.014 C 
BRANCH  20  21
HETATM   21  C4  UNL     1     -16.797   4.190 -27.493  1.00  0.00     0.001 C 
BRANCH  21  22
HETATM   22  C3  UNL     1     -17.060   4.438 -26.035  1.00  0.00    -0.000 C 
BRANCH  22  23
HETATM   23  C2  UNL     1     -17.661   5.791 -25.831  1.00  0.00    -0.005 C 
HETATM   24  C1  UNL     1     -19.028   5.569 -25.196  1.00  0.00     0.005 C 
ENDBRANCH  22  23
ENDBRANCH  21  22
ENDBRANCH  20  21
ENDBRANCH  19  20
BRANCH  19  25
HETATM   25  C7  UNL     1     -15.545   6.420 -29.249  1.00  0.00     0.119 C 
BRANCH  25  26
HETATM   26  C8  UNL     1     -14.339   5.906 -29.909  1.00  0.00     0.241 C 
HETATM   27  O1  UNL     1     -14.293   4.820 -30.538  1.00  0.00    -0.271 OA
HETATM   28  N1  UNL     1     -13.145   6.692 -29.831  1.00  0.00    -0.237 N 
ATOM     29  H1  UNL     1     -13.135   7.581 -29.331  1.00  0.00     0.197 HD
BRANCH  28  30
HETATM   30  O2  UNL     1     -12.037   6.225 -30.435  1.00  0.00    -0.287 OA
ATOM     31  H2  UNL     1     -12.001   5.301 -30.650  1.00  0.00     0.244 HD
ENDBRANCH  28  30
ENDBRANCH  25  26
ENDBRANCH  19  25
ENDBRANCH   1  19
TORSDOF 13
ENDMDL
