MODEL 17
REMARK VINA RESULT: -6.964999701      2.627      5.718
REMARK  13 active torsions:
REMARK  status: ('A' for Active; 'I' for Inactive)
REMARK    1  A    between atoms: C2_2  and  C3_3 
REMARK    2  A    between atoms: C3_3  and  C4_4 
REMARK    3  A    between atoms: C4_4  and  C5_5 
REMARK    4  A    between atoms: C5_5  and  C6_6 
REMARK    5  A    between atoms: C6_6  and  C7_7 
REMARK    6  A    between atoms: C6_6  and  C9_14 
REMARK    7  A    between atoms: C7_7  and  C8_8 
REMARK       I    between atoms: C8_8  and  N1_10 
REMARK    8  A    between atoms: N1_10  and  O2_12 
REMARK       I    between atoms: C9_14  and  N2_16 
REMARK    9  A    between atoms: N2_16  and  C10_18 
REMARK   10  A    between atoms: C10_18  and  C11_19 
REMARK   11  A    between atoms: C10_18  and  C17_29 
REMARK       I    between atoms: C11_19  and  N3_21 
REMARK   12  A    between atoms: C15_25  and  C16_26 
REMARK   13  A    between atoms: C16_26  and  O5_27 
ROOT
HETATM    1  C9  UNL     1     -19.945   4.715 -28.685  1.00  0.00     0.223 C 
HETATM    2  O3  UNL     1     -18.945   3.947 -28.656  1.00  0.00    -0.273 OA
HETATM    3  N2  UNL     1     -20.074   5.532 -29.846  1.00  0.00    -0.347 N 
ATOM      4  H2  UNL     1     -20.862   6.174 -29.932  1.00  0.00     0.163 HD
ENDROOT
BRANCH   3   5
HETATM    5  C10 UNL     1     -19.077   5.453 -30.914  1.00  0.00     0.180 C 
BRANCH   5   6
HETATM    6  C11 UNL     1     -18.084   6.536 -30.810  1.00  0.00     0.243 C 
HETATM    7  O4  UNL     1     -18.495   7.692 -31.215  1.00  0.00    -0.271 OA
HETATM    8  N3  UNL     1     -16.775   6.390 -30.317  1.00  0.00    -0.344 N 
HETATM    9  C12 UNL     1     -15.765   7.460 -30.276  1.00  0.00     0.126 C 
HETATM   10  C15 UNL     1     -16.107   5.270 -29.721  1.00  0.00     0.111 C 
HETATM   11  C13 UNL     1     -14.478   6.715 -30.574  1.00  0.00     0.022 C 
HETATM   12  C14 UNL     1     -14.779   5.233 -30.460  1.00  0.00     0.029 C 
BRANCH  10  13
HETATM   13  C16 UNL     1     -15.715   5.597 -28.261  1.00  0.00     0.189 C 
BRANCH  13  14
HETATM   14  O5  UNL     1     -16.340   4.766 -27.362  1.00  0.00    -0.399 OA
ATOM     15  H5  UNL     1     -16.268   5.087 -26.471  1.00  0.00     0.209 HD
ENDBRANCH  13  14
ENDBRANCH  10  13
ENDBRANCH   5   6
BRANCH   5  16
HETATM   16  C17 UNL     1     -19.795   5.549 -32.257  1.00  0.00     0.009 C 
HETATM   17  C18 UNL     1     -19.209   4.596 -33.258  1.00  0.00     0.012 C 
HETATM   18  C19 UNL     1     -21.281   5.321 -32.060  1.00  0.00     0.012 C 
ENDBRANCH   5  16
ENDBRANCH   3   5
BRANCH   1  19
HETATM   19  C6  UNL     1     -20.879   4.715 -27.555  1.00  0.00     0.086 C 
BRANCH  19  20
HETATM   20  C5  UNL     1     -22.274   4.954 -28.051  1.00  0.00     0.014 C 
BRANCH  20  21
HETATM   21  C4  UNL     1     -22.754   6.341 -27.930  1.00  0.00     0.001 C 
BRANCH  21  22
HETATM   22  C3  UNL     1     -24.021   6.473 -27.136  1.00  0.00    -0.000 C 
BRANCH  22  23
HETATM   23  C2  UNL     1     -23.912   7.590 -26.149  1.00  0.00    -0.005 C 
HETATM   24  C1  UNL     1     -23.022   8.649 -26.785  1.00  0.00     0.005 C 
ENDBRANCH  22  23
ENDBRANCH  21  22
ENDBRANCH  20  21
ENDBRANCH  19  20
BRANCH  19  25
HETATM   25  C7  UNL     1     -20.398   5.595 -26.472  1.00  0.00     0.119 C 
BRANCH  25  26
HETATM   26  C8  UNL     1     -19.328   4.978 -25.677  1.00  0.00     0.241 C 
HETATM   27  O1  UNL     1     -19.392   3.819 -25.198  1.00  0.00    -0.271 OA
HETATM   28  N1  UNL     1     -18.144   5.746 -25.437  1.00  0.00    -0.237 N 
ATOM     29  H1  UNL     1     -18.048   6.691 -25.807  1.00  0.00     0.197 HD
BRANCH  28  30
HETATM   30  O2  UNL     1     -17.162   5.185 -24.709  1.00  0.00    -0.287 OA
ATOM     31  H2  UNL     1     -16.268   5.459 -24.877  1.00  0.00     0.244 HD
ENDBRANCH  28  30
ENDBRANCH  25  26
ENDBRANCH  19  25
ENDBRANCH   1  19
TORSDOF 13
ENDMDL
