MODEL 8
REMARK VINA RESULT: -7.505853006      1.161      1.279
REMARK  13 active torsions:
REMARK  status: ('A' for Active; 'I' for Inactive)
REMARK    1  A    between atoms: C2_2  and  C3_3 
REMARK    2  A    between atoms: C3_3  and  C4_4 
REMARK    3  A    between atoms: C4_4  and  C5_5 
REMARK    4  A    between atoms: C5_5  and  C6_6 
REMARK    5  A    between atoms: C6_6  and  C7_7 
REMARK    6  A    between atoms: C6_6  and  C9_14 
REMARK    7  A    between atoms: C7_7  and  C8_8 
REMARK       I    between atoms: C8_8  and  N1_10 
REMARK    8  A    between atoms: N1_10  and  O2_12 
REMARK       I    between atoms: C9_14  and  N2_16 
REMARK    9  A    between atoms: N2_16  and  C10_18 
REMARK   10  A    between atoms: C10_18  and  C11_19 
REMARK   11  A    between atoms: C10_18  and  C17_29 
REMARK       I    between atoms: C11_19  and  N3_21 
REMARK   12  A    between atoms: C15_25  and  C16_26 
REMARK   13  A    between atoms: C16_26  and  O5_27 
ROOT
HETATM    1  C9  UNL     1     -17.468   6.361 -30.714  1.00  0.00     0.223 C 
HETATM    2  O3  UNL     1     -17.572   7.616 -30.793  1.00  0.00    -0.273 OA
HETATM    3  N2  UNL     1     -18.580   5.609 -31.194  1.00  0.00    -0.347 N 
ATOM      4  H2  UNL     1     -18.558   4.590 -31.159  1.00  0.00     0.163 HD
ENDROOT
BRANCH   3   5
HETATM    5  C10 UNL     1     -19.752   6.296 -31.736  1.00  0.00     0.180 C 
BRANCH   5   6
HETATM    6  C11 UNL     1     -20.809   6.447 -30.722  1.00  0.00     0.243 C 
HETATM    7  O4  UNL     1     -20.836   7.594 -30.128  1.00  0.00    -0.271 OA
HETATM    8  N3  UNL     1     -21.749   5.458 -30.379  1.00  0.00    -0.344 N 
HETATM    9  C12 UNL     1     -22.762   5.588 -29.319  1.00  0.00     0.126 C 
HETATM   10  C15 UNL     1     -22.006   4.162 -30.937  1.00  0.00     0.111 C 
HETATM   11  C13 UNL     1     -22.829   4.185 -28.748  1.00  0.00     0.022 C 
HETATM   12  C14 UNL     1     -22.090   3.272 -29.707  1.00  0.00     0.029 C 
BRANCH  10  13
HETATM   13  C16 UNL     1     -23.432   4.111 -31.534  1.00  0.00     0.189 C 
BRANCH  13  14
HETATM   14  O5  UNL     1     -23.536   4.860 -32.682  1.00  0.00    -0.399 OA
ATOM     15  H5  UNL     1     -24.070   5.635 -32.554  1.00  0.00     0.209 HD
ENDBRANCH  13  14
ENDBRANCH  10  13
ENDBRANCH   5   6
BRANCH   5  16
HETATM   16  C17 UNL     1     -20.289   5.487 -32.913  1.00  0.00     0.009 C 
HETATM   17  C18 UNL     1     -20.697   6.380 -34.049  1.00  0.00     0.012 C 
HETATM   18  C19 UNL     1     -19.258   4.461 -33.341  1.00  0.00     0.012 C 
ENDBRANCH   5  16
ENDBRANCH   3   5
BRANCH   1  19
HETATM   19  C6  UNL     1     -16.247   5.780 -30.147  1.00  0.00     0.086 C 
BRANCH  19  20
HETATM   20  C5  UNL     1     -16.469   5.449 -28.700  1.00  0.00     0.014 C 
BRANCH  20  21
HETATM   21  C4  UNL     1     -16.023   6.478 -27.746  1.00  0.00     0.001 C 
BRANCH  21  22
HETATM   22  C3  UNL     1     -16.021   6.013 -26.318  1.00  0.00    -0.000 C 
BRANCH  22  23
HETATM   23  C2  UNL     1     -16.951   4.857 -26.138  1.00  0.00    -0.005 C 
HETATM   24  C1  UNL     1     -18.112   5.359 -25.290  1.00  0.00     0.005 C 
ENDBRANCH  22  23
ENDBRANCH  21  22
ENDBRANCH  20  21
ENDBRANCH  19  20
BRANCH  19  25
HETATM   25  C7  UNL     1     -15.069   6.608 -30.466  1.00  0.00     0.119 C 
BRANCH  25  26
HETATM   26  C8  UNL     1     -13.813   5.851 -30.404  1.00  0.00     0.241 C 
HETATM   27  O1  UNL     1     -13.678   4.681 -30.842  1.00  0.00    -0.271 OA
HETATM   28  N1  UNL     1     -12.676   6.485 -29.808  1.00  0.00    -0.237 N 
ATOM     29  H1  UNL     1     -12.738   7.434 -29.440  1.00  0.00     0.197 HD
BRANCH  28  30
HETATM   30  O2  UNL     1     -11.523   5.794 -29.749  1.00  0.00    -0.287 OA
ATOM     31  H2  UNL     1     -11.395   5.198 -29.020  1.00  0.00     0.244 HD
ENDBRANCH  28  30
ENDBRANCH  25  26
ENDBRANCH  19  25
ENDBRANCH   1  19
TORSDOF 13
ENDMDL
