MODEL 3
REMARK VINA RESULT: -8.009813504      1.163      1.514
REMARK  13 active torsions:
REMARK  status: ('A' for Active; 'I' for Inactive)
REMARK    1  A    between atoms: C2_2  and  C3_3 
REMARK    2  A    between atoms: C3_3  and  C4_4 
REMARK    3  A    between atoms: C4_4  and  C5_5 
REMARK    4  A    between atoms: C5_5  and  C6_6 
REMARK    5  A    between atoms: C6_6  and  C7_7 
REMARK    6  A    between atoms: C6_6  and  C9_14 
REMARK    7  A    between atoms: C7_7  and  C8_8 
REMARK       I    between atoms: C8_8  and  N1_10 
REMARK    8  A    between atoms: N1_10  and  O2_12 
REMARK       I    between atoms: C9_14  and  N2_16 
REMARK    9  A    between atoms: N2_16  and  C10_18 
REMARK   10  A    between atoms: C10_18  and  C11_19 
REMARK   11  A    between atoms: C10_18  and  C17_29 
REMARK       I    between atoms: C11_19  and  N3_21 
REMARK   12  A    between atoms: C15_25  and  C16_26 
REMARK   13  A    between atoms: C16_26  and  O5_27 
ROOT
HETATM    1  C9  UNL     1     -17.707   5.973 -30.640  1.00  0.00     0.223 C 
HETATM    2  O3  UNL     1     -17.958   7.205 -30.739  1.00  0.00    -0.273 OA
HETATM    3  N2  UNL     1     -18.747   5.087 -31.045  1.00  0.00    -0.347 N 
ATOM      4  H2  UNL     1     -18.606   4.078 -30.991  1.00  0.00     0.163 HD
ENDROOT
BRANCH   3   5
HETATM    5  C10 UNL     1     -20.016   5.622 -31.538  1.00  0.00     0.180 C 
BRANCH   5   6
HETATM    6  C11 UNL     1     -21.167   4.995 -30.865  1.00  0.00     0.243 C 
HETATM    7  O4  UNL     1     -21.942   4.309 -31.637  1.00  0.00    -0.271 OA
HETATM    8  N3  UNL     1     -21.454   5.094 -29.492  1.00  0.00    -0.344 N 
HETATM    9  C12 UNL     1     -22.641   4.521 -28.835  1.00  0.00     0.126 C 
HETATM   10  C15 UNL     1     -20.724   5.693 -28.412  1.00  0.00     0.111 C 
HETATM   11  C13 UNL     1     -22.973   5.560 -27.781  1.00  0.00     0.022 C 
HETATM   12  C14 UNL     1     -21.789   6.503 -27.690  1.00  0.00     0.029 C 
BRANCH  10  13
HETATM   13  C16 UNL     1     -20.312   4.614 -27.383  1.00  0.00     0.189 C 
BRANCH  13  14
HETATM   14  O5  UNL     1     -19.355   3.765 -27.884  1.00  0.00    -0.399 OA
ATOM     15  H5  UNL     1     -18.495   4.168 -27.901  1.00  0.00     0.209 HD
ENDBRANCH  13  14
ENDBRANCH  10  13
ENDBRANCH   5   6
BRANCH   5  16
HETATM   16  C17 UNL     1     -20.104   5.361 -33.039  1.00  0.00     0.009 C 
HETATM   17  C18 UNL     1     -20.103   6.646 -33.816  1.00  0.00     0.012 C 
HETATM   18  C19 UNL     1     -18.976   4.442 -33.465  1.00  0.00     0.012 C 
ENDBRANCH   5  16
ENDBRANCH   3   5
BRANCH   1  19
HETATM   19  C6  UNL     1     -16.400   5.550 -30.127  1.00  0.00     0.086 C 
BRANCH  19  20
HETATM   20  C5  UNL     1     -16.485   5.328 -28.646  1.00  0.00     0.014 C 
BRANCH  20  21
HETATM   21  C4  UNL     1     -16.011   6.449 -27.816  1.00  0.00     0.001 C 
BRANCH  21  22
HETATM   22  C3  UNL     1     -15.926   6.120 -26.353  1.00  0.00    -0.000 C 
BRANCH  22  23
HETATM   23  C2  UNL     1     -17.272   5.755 -25.815  1.00  0.00    -0.005 C 
HETATM   24  C1  UNL     1     -17.128   4.383 -25.171  1.00  0.00     0.005 C 
ENDBRANCH  22  23
ENDBRANCH  21  22
ENDBRANCH  20  21
ENDBRANCH  19  20
BRANCH  19  25
HETATM   25  C7  UNL     1     -15.329   6.445 -30.605  1.00  0.00     0.119 C 
BRANCH  25  26
HETATM   26  C8  UNL     1     -14.000   5.826 -30.528  1.00  0.00     0.241 C 
HETATM   27  O1  UNL     1     -13.728   4.691 -30.992  1.00  0.00    -0.271 OA
HETATM   28  N1  UNL     1     -12.954   6.562 -29.885  1.00  0.00    -0.237 N 
ATOM     29  H1  UNL     1     -13.128   7.487 -29.493  1.00  0.00     0.197 HD
BRANCH  28  30
HETATM   30  O2  UNL     1     -11.734   5.998 -29.812  1.00  0.00    -0.287 OA
ATOM     31  H2  UNL     1     -11.037   6.492 -29.397  1.00  0.00     0.244 HD
ENDBRANCH  28  30
ENDBRANCH  25  26
ENDBRANCH  19  25
ENDBRANCH   1  19
TORSDOF 13
ENDMDL
