MODEL 1
REMARK VINA RESULT: -8.361396376      0.000      0.000
REMARK  13 active torsions:
REMARK  status: ('A' for Active; 'I' for Inactive)
REMARK    1  A    between atoms: C2_2  and  C3_3 
REMARK    2  A    between atoms: C3_3  and  C4_4 
REMARK    3  A    between atoms: C4_4  and  C5_5 
REMARK    4  A    between atoms: C5_5  and  C6_6 
REMARK    5  A    between atoms: C6_6  and  C7_7 
REMARK    6  A    between atoms: C6_6  and  C9_14 
REMARK    7  A    between atoms: C7_7  and  C8_8 
REMARK       I    between atoms: C8_8  and  N1_10 
REMARK    8  A    between atoms: N1_10  and  O2_12 
REMARK       I    between atoms: C9_14  and  N2_16 
REMARK    9  A    between atoms: N2_16  and  C10_18 
REMARK   10  A    between atoms: C10_18  and  C11_19 
REMARK   11  A    between atoms: C10_18  and  C17_29 
REMARK       I    between atoms: C11_19  and  N3_21 
REMARK   12  A    between atoms: C15_25  and  C16_26 
REMARK   13  A    between atoms: C16_26  and  O5_27 
ROOT
HETATM    1  C9  UNL     1     -17.422   6.274 -30.760  1.00  0.00     0.223 C 
HETATM    2  O3  UNL     1     -17.583   7.524 -30.819  1.00  0.00    -0.273 OA
HETATM    3  N2  UNL     1     -18.481   5.480 -31.289  1.00  0.00    -0.347 N 
ATOM      4  H2  UNL     1     -18.411   4.463 -31.273  1.00  0.00     0.163 HD
ENDROOT
BRANCH   3   5
HETATM    5  C10 UNL     1     -19.667   6.123 -31.854  1.00  0.00     0.180 C 
BRANCH   5   6
HETATM    6  C11 UNL     1     -20.582   6.596 -30.800  1.00  0.00     0.243 C 
HETATM    7  O4  UNL     1     -20.966   7.823 -30.923  1.00  0.00    -0.271 OA
HETATM    8  N3  UNL     1     -21.040   5.822 -29.719  1.00  0.00    -0.344 N 
HETATM    9  C12 UNL     1     -21.900   6.317 -28.632  1.00  0.00     0.126 C 
HETATM   10  C15 UNL     1     -20.857   4.435 -29.402  1.00  0.00     0.111 C 
HETATM   11  C13 UNL     1     -21.374   5.569 -27.423  1.00  0.00     0.022 C 
HETATM   12  C14 UNL     1     -20.462   4.471 -27.934  1.00  0.00     0.029 C 
BRANCH  10  13
HETATM   13  C16 UNL     1     -22.219   3.703 -29.406  1.00  0.00     0.189 C 
BRANCH  13  14
HETATM   14  O5  UNL     1     -22.103   2.403 -29.837  1.00  0.00    -0.399 OA
ATOM     15  H5  UNL     1     -22.250   2.323 -30.771  1.00  0.00     0.209 HD
ENDBRANCH  13  14
ENDBRANCH  10  13
ENDBRANCH   5   6
BRANCH   5  16
HETATM   16  C17 UNL     1     -20.392   5.112 -32.739  1.00  0.00     0.009 C 
HETATM   17  C18 UNL     1     -21.404   5.786 -33.620  1.00  0.00     0.012 C 
HETATM   18  C19 UNL     1     -19.381   4.317 -33.542  1.00  0.00     0.012 C 
ENDBRANCH   5  16
ENDBRANCH   3   5
BRANCH   1  19
HETATM   19  C6  UNL     1     -16.192   5.740 -30.166  1.00  0.00     0.086 C 
BRANCH  19  20
HETATM   20  C5  UNL     1     -16.420   5.441 -28.714  1.00  0.00     0.014 C 
BRANCH  20  21
HETATM   21  C4  UNL     1     -15.948   6.477 -27.779  1.00  0.00     0.001 C 
BRANCH  21  22
HETATM   22  C3  UNL     1     -15.989   6.051 -26.340  1.00  0.00    -0.000 C 
BRANCH  22  23
HETATM   23  C2  UNL     1     -16.968   4.939 -26.145  1.00  0.00    -0.005 C 
HETATM   24  C1  UNL     1     -18.086   5.490 -25.271  1.00  0.00     0.005 C 
ENDBRANCH  22  23
ENDBRANCH  21  22
ENDBRANCH  20  21
ENDBRANCH  19  20
BRANCH  19  25
HETATM   25  C7  UNL     1     -15.032   6.590 -30.496  1.00  0.00     0.119 C 
BRANCH  25  26
HETATM   26  C8  UNL     1     -13.761   5.858 -30.438  1.00  0.00     0.241 C 
HETATM   27  O1  UNL     1     -13.591   4.711 -30.922  1.00  0.00    -0.271 OA
HETATM   28  N1  UNL     1     -12.652   6.490 -29.792  1.00  0.00    -0.237 N 
ATOM     29  H1  UNL     1     -12.743   7.421 -29.385  1.00  0.00     0.197 HD
BRANCH  28  30
HETATM   30  O2  UNL     1     -11.485   5.822 -29.737  1.00  0.00    -0.287 OA
ATOM     31  H2  UNL     1     -10.991   5.851 -28.926  1.00  0.00     0.244 HD
ENDBRANCH  28  30
ENDBRANCH  25  26
ENDBRANCH  19  25
ENDBRANCH   1  19
TORSDOF 13
ENDMDL
