MODEL 3
REMARK VINA RESULT: -9.345960609      1.359      1.943
REMARK  10 active torsions:
REMARK  status: ('A' for Active; 'I' for Inactive)
REMARK    1  A    between atoms: N4_10  and  C5_11 
REMARK    2  A    between atoms: C6_13  and  C7_14 
REMARK    3  A    between atoms: C7_14  and  O2_15 
REMARK    4  A    between atoms: O2_15  and  P1_16 
REMARK    5  A    between atoms: P1_16  and  O5_19 
REMARK    6  A    between atoms: O5_19  and  P2_20 
REMARK    7  A    between atoms: P2_20  and  O8_23 
REMARK    8  A    between atoms: O8_23  and  P3_24 
REMARK    9  A    between atoms: C8_28  and  O11_29 
REMARK   10  A    between atoms: C9_31  and  O12_32 
ROOT
HETATM    1  C5  UNL     1     -16.807 -26.208 -12.577  1.00  0.00     0.262 C 
HETATM    2  O1  UNL     1     -16.756 -24.845 -12.651  1.00  0.00    -0.353 OA
HETATM    3  C6  UNL     1     -16.290 -24.458 -13.878  1.00  0.00     0.180 C 
HETATM    4  C8  UNL     1     -16.636 -25.605 -14.836  1.00  0.00     0.182 C 
HETATM    5  C9  UNL     1     -16.376 -26.786 -13.891  1.00  0.00     0.198 C 
ENDROOT
BRANCH   1   6
HETATM    6  N4  UNL     1     -18.099 -26.634 -12.150  1.00  0.00    -0.297 N 
HETATM    7  C2  UNL     1     -18.668 -26.430 -10.952  1.00  0.00     0.146 A 
HETATM    8  N2  UNL     1     -18.262 -25.813  -9.833  1.00  0.00    -0.314 N 
HETATM    9  C3  UNL     1     -19.920 -27.003 -10.956  1.00  0.00     0.146 A 
HETATM   10  C1  UNL     1     -18.989 -25.708  -8.707  1.00  0.00     0.196 A 
ATOM     11  H2  UNL     1     -17.334 -25.391  -9.837  1.00  0.00     0.170 HD
HETATM   12  N1  UNL     1     -18.513 -25.041  -7.546  1.00  0.00    -0.063 NA
HETATM   13  N5  UNL     1     -20.228 -26.283  -8.728  1.00  0.00    -0.295 N 
HETATM   14  C10 UNL     1     -20.708 -26.920  -9.810  1.00  0.00     0.278 A 
ATOM     15  H5  UNL     1     -20.810 -26.227  -7.893  1.00  0.00     0.171 HD
HETATM   16  O13 UNL     1     -21.837 -27.452  -9.852  1.00  0.00    -0.265 OA
HETATM   17  N3  UNL     1     -20.088 -27.550 -12.167  1.00  0.00    -0.345 N 
HETATM   18  C4  UNL     1     -18.979 -27.322 -12.888  1.00  0.00     0.188 A 
ATOM     19  H3  UNL     1     -20.917 -28.053 -12.487  1.00  0.00     0.167 HD
ENDBRANCH   1   6
BRANCH   5  20
HETATM   20  O12 UNL     1     -14.991 -26.954 -13.860  1.00  0.00    -0.388 OA
ATOM     21  H12 UNL     1     -14.647 -26.733 -14.718  1.00  0.00     0.210 HD
ENDBRANCH   5  20
BRANCH   3  22
HETATM   22  C7  UNL     1     -16.929 -23.165 -14.358  1.00  0.00     0.216 C 
BRANCH  22  23
HETATM   23  O2  UNL     1     -18.284 -23.396 -14.629  1.00  0.00    -0.287 OA
BRANCH  23  24
HETATM   24  P1  UNL     1     -18.976 -22.098 -15.429  1.00  0.00     0.417 P 
HETATM   25  O3  UNL     1     -17.887 -21.268 -16.093  1.00  0.00    -0.624 OA
HETATM   26  O4  UNL     1     -19.876 -21.112 -14.393  1.00  0.00    -0.624 OA
BRANCH  24  27
HETATM   27  O5  UNL     1     -20.006 -22.684 -16.614  1.00  0.00    -0.180 OA
BRANCH  27  28
HETATM   28  P2  UNL     1     -19.199 -23.808 -17.587  1.00  0.00     0.426 P 
HETATM   29  O6  UNL     1     -19.480 -25.186 -16.979  1.00  0.00    -0.624 OA
HETATM   30  O7  UNL     1     -17.529 -23.584 -17.558  1.00  0.00    -0.624 OA
BRANCH  28  31
HETATM   31  O8  UNL     1     -19.832 -23.767 -19.142  1.00  0.00    -0.191 OA
BRANCH  31  32
HETATM   32  P3  UNL     1     -20.050 -22.210 -19.719  1.00  0.00     0.358 P 
HETATM   33  O9  UNL     1     -18.867 -21.141 -19.176  1.00  0.00    -0.635 OA
HETATM   34  O10 UNL     1     -21.561 -21.614 -19.201  1.00  0.00    -0.635 OA
HETATM   35  S1  UNL     1     -19.997 -22.250 -21.438  1.00  0.00     0.013 SA
ENDBRANCH  31  32
ENDBRANCH  28  31
ENDBRANCH  27  28
ENDBRANCH  24  27
ENDBRANCH  23  24
ENDBRANCH  22  23
ENDBRANCH   3  22
BRANCH   4  36
HETATM   36  O11 UNL     1     -15.817 -25.630 -15.936  1.00  0.00    -0.390 OA
ATOM     37  H11 UNL     1     -16.290 -25.837 -16.734  1.00  0.00     0.210 HD
ENDBRANCH   4  36
TORSDOF 10
ENDMDL
