MODEL 1
REMARK VINA RESULT: -9.403567907      0.000      0.000
REMARK  10 active torsions:
REMARK  status: ('A' for Active; 'I' for Inactive)
REMARK    1  A    between atoms: N4_10  and  C5_11 
REMARK    2  A    between atoms: C6_13  and  C7_14 
REMARK    3  A    between atoms: C7_14  and  O2_15 
REMARK    4  A    between atoms: O2_15  and  P1_16 
REMARK    5  A    between atoms: P1_16  and  O5_19 
REMARK    6  A    between atoms: O5_19  and  P2_20 
REMARK    7  A    between atoms: P2_20  and  O8_23 
REMARK    8  A    between atoms: O8_23  and  P3_24 
REMARK    9  A    between atoms: C8_28  and  O11_29 
REMARK   10  A    between atoms: C9_31  and  O12_32 
ROOT
HETATM    1  C5  UNL     1     -16.413 -25.575 -12.154  1.00  0.00     0.262 C 
HETATM    2  O1  UNL     1     -16.578 -24.315 -12.655  1.00  0.00    -0.353 OA
HETATM    3  C6  UNL     1     -15.974 -24.213 -13.878  1.00  0.00     0.180 C 
HETATM    4  C8  UNL     1     -15.948 -25.636 -14.451  1.00  0.00     0.182 C 
HETATM    5  C9  UNL     1     -15.666 -26.405 -13.154  1.00  0.00     0.198 C 
ENDROOT
BRANCH   1   6
HETATM    6  N4  UNL     1     -17.670 -26.124 -11.766  1.00  0.00    -0.297 N 
HETATM    7  C2  UNL     1     -18.286 -25.988 -10.582  1.00  0.00     0.146 A 
HETATM    8  N2  UNL     1     -17.969 -25.348  -9.447  1.00  0.00    -0.314 N 
HETATM    9  C3  UNL     1     -19.479 -26.675 -10.625  1.00  0.00     0.146 A 
HETATM   10  C1  UNL     1     -18.731 -25.324  -8.339  1.00  0.00     0.196 A 
ATOM     11  H2  UNL     1     -17.085 -24.842  -9.422  1.00  0.00     0.170 HD
HETATM   12  N1  UNL     1     -18.351 -24.629  -7.160  1.00  0.00    -0.063 NA
HETATM   13  N5  UNL     1     -19.910 -26.012  -8.399  1.00  0.00    -0.295 N 
HETATM   14  C10 UNL     1     -20.300 -26.678  -9.499  1.00  0.00     0.278 A 
ATOM     15  H5  UNL     1     -20.517 -26.019  -7.580  1.00  0.00     0.171 HD
HETATM   16  O13 UNL     1     -21.373 -27.313  -9.576  1.00  0.00    -0.265 OA
HETATM   17  N3  UNL     1     -19.564 -27.221 -11.845  1.00  0.00    -0.345 N 
HETATM   18  C4  UNL     1     -18.462 -26.883 -12.533  1.00  0.00     0.188 A 
ATOM     19  H3  UNL     1     -20.333 -27.796 -12.191  1.00  0.00     0.167 HD
ENDBRANCH   1   6
BRANCH   5  20
HETATM   20  O12 UNL     1     -14.300 -26.256 -12.911  1.00  0.00    -0.388 OA
ATOM     21  H12 UNL     1     -13.861 -27.051 -13.190  1.00  0.00     0.210 HD
ENDBRANCH   5  20
BRANCH   3  22
HETATM   22  C7  UNL     1     -16.725 -23.283 -14.819  1.00  0.00     0.216 C 
BRANCH  22  23
HETATM   23  O2  UNL     1     -17.774 -22.673 -14.118  1.00  0.00    -0.287 OA
BRANCH  23  24
HETATM   24  P1  UNL     1     -18.985 -22.162 -15.156  1.00  0.00     0.417 P 
HETATM   25  O3  UNL     1     -19.908 -21.195 -14.429  1.00  0.00    -0.624 OA
HETATM   26  O4  UNL     1     -19.895 -23.450 -15.765  1.00  0.00    -0.624 OA
BRANCH  24  27
HETATM   27  O5  UNL     1     -18.282 -21.365 -16.452  1.00  0.00    -0.180 OA
BRANCH  27  28
HETATM   28  P2  UNL     1     -18.788 -22.057 -17.910  1.00  0.00     0.426 P 
HETATM   29  O6  UNL     1     -18.372 -21.087 -19.018  1.00  0.00    -0.624 OA
HETATM   30  O7  UNL     1     -20.465 -22.210 -17.987  1.00  0.00    -0.624 OA
BRANCH  28  31
HETATM   31  O8  UNL     1     -17.993 -23.518 -18.147  1.00  0.00    -0.191 OA
BRANCH  31  32
HETATM   32  P3  UNL     1     -17.867 -23.940 -19.762  1.00  0.00     0.358 P 
HETATM   33  O9  UNL     1     -16.685 -23.057 -20.576  1.00  0.00    -0.635 OA
HETATM   34  O10 UNL     1     -19.354 -23.658 -20.545  1.00  0.00    -0.635 OA
HETATM   35  S1  UNL     1     -17.461 -25.609 -19.863  1.00  0.00     0.013 SA
ENDBRANCH  31  32
ENDBRANCH  28  31
ENDBRANCH  27  28
ENDBRANCH  24  27
ENDBRANCH  23  24
ENDBRANCH  22  23
ENDBRANCH   3  22
BRANCH   4  36
HETATM   36  O11 UNL     1     -14.956 -25.804 -15.382  1.00  0.00    -0.390 OA
ATOM     37  H11 UNL     1     -15.266 -25.668 -16.270  1.00  0.00     0.210 HD
ENDBRANCH   4  36
TORSDOF 10
ENDMDL
