MODEL 4
REMARK VINA RESULT: -9.294019991      1.362      1.642
REMARK  10 active torsions:
REMARK  status: ('A' for Active; 'I' for Inactive)
REMARK    1  A    between atoms: N4_10  and  C5_11 
REMARK    2  A    between atoms: C6_13  and  C7_14 
REMARK    3  A    between atoms: C7_14  and  O2_15 
REMARK    4  A    between atoms: O2_15  and  P1_16 
REMARK    5  A    between atoms: P1_16  and  O5_19 
REMARK    6  A    between atoms: O5_19  and  P2_20 
REMARK    7  A    between atoms: P2_20  and  O8_23 
REMARK    8  A    between atoms: O8_23  and  P3_24 
REMARK    9  A    between atoms: C8_28  and  O11_29 
REMARK   10  A    between atoms: C9_31  and  O12_32 
ROOT
HETATM    1  C5  UNL     1     -16.250 -25.569 -11.996  1.00  0.00     0.262 C 
HETATM    2  O1  UNL     1     -16.353 -24.292 -12.472  1.00  0.00    -0.353 OA
HETATM    3  C6  UNL     1     -15.701 -24.183 -13.669  1.00  0.00     0.180 C 
HETATM    4  C8  UNL     1     -15.703 -25.592 -14.276  1.00  0.00     0.182 C 
HETATM    5  C9  UNL     1     -15.497 -26.402 -12.989  1.00  0.00     0.198 C 
ENDROOT
BRANCH   1   6
HETATM    6  N4  UNL     1     -17.539 -26.081 -11.667  1.00  0.00    -0.297 N 
HETATM    7  C2  UNL     1     -18.199 -25.940 -10.507  1.00  0.00     0.146 A 
HETATM    8  N2  UNL     1     -17.908 -25.325  -9.352  1.00  0.00    -0.314 N 
HETATM    9  C3  UNL     1     -19.410 -26.587 -10.608  1.00  0.00     0.146 A 
HETATM   10  C1  UNL     1     -18.714 -25.291  -8.275  1.00  0.00     0.196 A 
ATOM     11  H2  UNL     1     -17.009 -24.849  -9.283  1.00  0.00     0.170 HD
HETATM   12  N1  UNL     1     -18.360 -24.624  -7.072  1.00  0.00    -0.063 NA
HETATM   13  N5  UNL     1     -19.911 -25.938  -8.393  1.00  0.00    -0.295 N 
HETATM   14  C10 UNL     1     -20.277 -26.577  -9.517  1.00  0.00     0.278 A 
ATOM     15  H5  UNL     1     -20.551 -25.937  -7.599  1.00  0.00     0.171 HD
HETATM   16  O13 UNL     1     -21.366 -27.175  -9.647  1.00  0.00    -0.265 OA
HETATM   17  N3  UNL     1     -19.463 -27.114 -11.838  1.00  0.00    -0.345 N 
HETATM   18  C4  UNL     1     -18.323 -26.803 -12.477  1.00  0.00     0.188 A 
ATOM     19  H3  UNL     1     -20.235 -27.658 -12.224  1.00  0.00     0.167 HD
ENDBRANCH   1   6
BRANCH   5  20
HETATM   20  O12 UNL     1     -14.136 -26.307 -12.692  1.00  0.00    -0.388 OA
ATOM     21  H12 UNL     1     -13.740 -27.157 -12.847  1.00  0.00     0.210 HD
ENDBRANCH   5  20
BRANCH   3  22
HETATM   22  C7  UNL     1     -16.384 -23.206 -14.613  1.00  0.00     0.216 C 
BRANCH  22  23
HETATM   23  O2  UNL     1     -17.726 -23.067 -14.236  1.00  0.00    -0.287 OA
BRANCH  23  24
HETATM   24  P1  UNL     1     -18.753 -23.309 -15.536  1.00  0.00     0.417 P 
HETATM   25  O3  UNL     1     -19.961 -22.392 -15.410  1.00  0.00    -0.624 OA
HETATM   26  O4  UNL     1     -19.279 -24.912 -15.648  1.00  0.00    -0.624 OA
BRANCH  24  27
HETATM   27  O5  UNL     1     -17.934 -22.931 -16.947  1.00  0.00    -0.180 OA
BRANCH  27  28
HETATM   28  P2  UNL     1     -19.008 -22.319 -18.102  1.00  0.00     0.426 P 
HETATM   29  O6  UNL     1     -18.229 -22.237 -19.418  1.00  0.00    -0.624 OA
HETATM   30  O7  UNL     1     -19.515 -20.757 -17.726  1.00  0.00    -0.624 OA
BRANCH  28  31
HETATM   31  O8  UNL     1     -20.290 -23.386 -18.301  1.00  0.00    -0.191 OA
BRANCH  31  32
HETATM   32  P3  UNL     1     -21.210 -23.057 -19.661  1.00  0.00     0.358 P 
HETATM   33  O9  UNL     1     -20.367 -23.314 -21.097  1.00  0.00    -0.635 OA
HETATM   34  O10 UNL     1     -21.705 -21.426 -19.637  1.00  0.00    -0.635 OA
HETATM   35  S1  UNL     1     -22.590 -24.086 -19.651  1.00  0.00     0.013 SA
ENDBRANCH  31  32
ENDBRANCH  28  31
ENDBRANCH  27  28
ENDBRANCH  24  27
ENDBRANCH  23  24
ENDBRANCH  22  23
ENDBRANCH   3  22
BRANCH   4  36
HETATM   36  O11 UNL     1     -14.684 -25.775 -15.174  1.00  0.00    -0.390 OA
ATOM     37  H11 UNL     1     -13.846 -25.484 -14.834  1.00  0.00     0.210 HD
ENDBRANCH   4  36
TORSDOF 10
ENDMDL
