MODEL 6
REMARK VINA RESULT: -9.194718145      0.798      1.120
REMARK  10 active torsions:
REMARK  status: ('A' for Active; 'I' for Inactive)
REMARK    1  A    between atoms: N4_10  and  C5_11 
REMARK    2  A    between atoms: C6_13  and  C7_14 
REMARK    3  A    between atoms: C7_14  and  O2_15 
REMARK    4  A    between atoms: O2_15  and  P1_16 
REMARK    5  A    between atoms: P1_16  and  O5_19 
REMARK    6  A    between atoms: O5_19  and  P2_20 
REMARK    7  A    between atoms: P2_20  and  O8_23 
REMARK    8  A    between atoms: O8_23  and  P3_24 
REMARK    9  A    between atoms: C8_28  and  O11_29 
REMARK   10  A    between atoms: C9_31  and  O12_32 
ROOT
HETATM    1  C5  UNL     1     -16.368 -25.297 -12.034  1.00  0.00     0.262 C 
HETATM    2  O1  UNL     1     -16.579 -24.078 -12.615  1.00  0.00    -0.353 OA
HETATM    3  C6  UNL     1     -15.916 -24.007 -13.810  1.00  0.00     0.180 C 
HETATM    4  C8  UNL     1     -15.775 -25.455 -14.297  1.00  0.00     0.182 C 
HETATM    5  C9  UNL     1     -15.521 -26.133 -12.944  1.00  0.00     0.198 C 
ENDROOT
BRANCH   1   6
HETATM    6  N4  UNL     1     -17.611 -25.900 -11.680  1.00  0.00    -0.297 N 
HETATM    7  C2  UNL     1     -18.238 -25.835 -10.495  1.00  0.00     0.146 A 
HETATM    8  N2  UNL     1     -17.946 -25.239  -9.331  1.00  0.00    -0.314 N 
HETATM    9  C3  UNL     1     -19.409 -26.555 -10.578  1.00  0.00     0.146 A 
HETATM   10  C1  UNL     1     -18.715 -25.288  -8.228  1.00  0.00     0.196 A 
ATOM     11  H2  UNL     1     -17.077 -24.708  -9.276  1.00  0.00     0.170 HD
HETATM   12  N1  UNL     1     -18.362 -24.636  -7.016  1.00  0.00    -0.063 NA
HETATM   13  N5  UNL     1     -19.873 -26.006  -8.327  1.00  0.00    -0.295 N 
HETATM   14  C10 UNL     1     -20.237 -26.633  -9.459  1.00  0.00     0.278 A 
ATOM     15  H5  UNL     1     -20.484 -26.069  -7.513  1.00  0.00     0.171 HD
HETATM   16  O13 UNL     1     -21.290 -27.295  -9.573  1.00  0.00    -0.265 OA
HETATM   17  N3  UNL     1     -19.471 -27.047 -11.822  1.00  0.00    -0.345 N 
HETATM   18  C4  UNL     1     -18.376 -26.645 -12.486  1.00  0.00     0.188 A 
ATOM     19  H3  UNL     1     -20.220 -27.628 -12.199  1.00  0.00     0.167 HD
ENDBRANCH   1   6
BRANCH   5  20
HETATM   20  O12 UNL     1     -14.181 -25.887 -12.639  1.00  0.00    -0.388 OA
ATOM     21  H12 UNL     1     -13.690 -25.877 -13.453  1.00  0.00     0.210 HD
ENDBRANCH   5  20
BRANCH   3  22
HETATM   22  C7  UNL     1     -16.667 -23.179 -14.840  1.00  0.00     0.216 C 
BRANCH  22  23
HETATM   23  O2  UNL     1     -18.021 -23.121 -14.483  1.00  0.00    -0.287 OA
BRANCH  23  24
HETATM   24  P1  UNL     1     -18.839 -21.966 -15.377  1.00  0.00     0.417 P 
HETATM   25  O3  UNL     1     -17.857 -21.222 -16.272  1.00  0.00    -0.624 OA
HETATM   26  O4  UNL     1     -19.653 -20.854 -14.397  1.00  0.00    -0.624 OA
BRANCH  24  27
HETATM   27  O5  UNL     1     -19.972 -22.735 -16.343  1.00  0.00    -0.180 OA
BRANCH  27  28
HETATM   28  P2  UNL     1     -19.749 -22.304 -17.963  1.00  0.00     0.426 P 
HETATM   29  O6  UNL     1     -19.412 -20.810 -17.972  1.00  0.00    -0.624 OA
HETATM   30  O7  UNL     1     -21.156 -22.502 -18.868  1.00  0.00    -0.624 OA
BRANCH  28  31
HETATM   31  O8  UNL     1     -18.446 -23.153 -18.598  1.00  0.00    -0.191 OA
BRANCH  31  32
HETATM   32  P3  UNL     1     -18.362 -23.070 -20.269  1.00  0.00     0.358 P 
HETATM   33  O9  UNL     1     -18.515 -21.497 -20.853  1.00  0.00    -0.635 OA
HETATM   34  O10 UNL     1     -19.617 -23.999 -20.951  1.00  0.00    -0.635 OA
HETATM   35  S1  UNL     1     -16.837 -23.689 -20.772  1.00  0.00     0.013 SA
ENDBRANCH  31  32
ENDBRANCH  28  31
ENDBRANCH  27  28
ENDBRANCH  24  27
ENDBRANCH  23  24
ENDBRANCH  22  23
ENDBRANCH   3  22
BRANCH   4  36
HETATM   36  O11 UNL     1     -14.725 -25.614 -15.164  1.00  0.00    -0.390 OA
ATOM     37  H11 UNL     1     -14.916 -26.240 -15.852  1.00  0.00     0.210 HD
ENDBRANCH   4  36
TORSDOF 10
ENDMDL
