MODEL 15
REMARK VINA RESULT: -8.461436786      3.649      5.024
REMARK  10 active torsions:
REMARK  status: ('A' for Active; 'I' for Inactive)
REMARK    1  A    between atoms: N4_10  and  C5_11 
REMARK    2  A    between atoms: C6_13  and  C7_14 
REMARK    3  A    between atoms: C7_14  and  O2_15 
REMARK    4  A    between atoms: O2_15  and  P1_16 
REMARK    5  A    between atoms: P1_16  and  O5_19 
REMARK    6  A    between atoms: O5_19  and  P2_20 
REMARK    7  A    between atoms: P2_20  and  O8_23 
REMARK    8  A    between atoms: O8_23  and  P3_24 
REMARK    9  A    between atoms: C8_28  and  O11_29 
REMARK   10  A    between atoms: C9_31  and  O12_32 
ROOT
HETATM    1  C5  UNL     1     -15.510 -25.919 -13.335  1.00  0.00     0.262 C 
HETATM    2  O1  UNL     1     -16.838 -25.826 -13.642  1.00  0.00    -0.353 OA
HETATM    3  C6  UNL     1     -17.140 -24.552 -14.039  1.00  0.00     0.180 C 
HETATM    4  C8  UNL     1     -15.834 -23.965 -14.591  1.00  0.00     0.182 C 
HETATM    5  C9  UNL     1     -14.854 -24.596 -13.592  1.00  0.00     0.198 C 
ENDROOT
BRANCH   1   6
HETATM    6  N4  UNL     1     -14.914 -27.008 -14.036  1.00  0.00    -0.297 N 
HETATM    7  C2  UNL     1     -14.065 -27.924 -13.545  1.00  0.00     0.146 A 
HETATM    8  N2  UNL     1     -13.523 -28.122 -12.334  1.00  0.00    -0.314 N 
HETATM    9  C3  UNL     1     -13.730 -28.800 -14.554  1.00  0.00     0.146 A 
HETATM   10  C1  UNL     1     -12.673 -29.117 -12.026  1.00  0.00     0.196 A 
ATOM     11  H2  UNL     1     -13.774 -27.469 -11.592  1.00  0.00     0.170 HD
HETATM   12  N1  UNL     1     -12.127 -29.285 -10.726  1.00  0.00    -0.063 NA
HETATM   13  N5  UNL     1     -12.352 -29.976 -13.038  1.00  0.00    -0.295 N 
HETATM   14  C10 UNL     1     -12.852 -29.846 -14.279  1.00  0.00     0.278 A 
ATOM     15  H5  UNL     1     -11.709 -30.744 -12.846  1.00  0.00     0.171 HD
HETATM   16  O13 UNL     1     -12.572 -30.619 -15.220  1.00  0.00    -0.265 OA
HETATM   17  N3  UNL     1     -14.388 -28.395 -15.648  1.00  0.00    -0.345 N 
HETATM   18  C4  UNL     1     -15.106 -27.307 -15.327  1.00  0.00     0.188 A 
ATOM     19  H3  UNL     1     -14.351 -28.837 -16.566  1.00  0.00     0.167 HD
ENDBRANCH   1   6
BRANCH   5  20
HETATM   20  O12 UNL     1     -14.949 -23.830 -12.429  1.00  0.00    -0.388 OA
ATOM     21  H12 UNL     1     -14.413 -23.054 -12.542  1.00  0.00     0.210 HD
ENDBRANCH   5  20
BRANCH   3  22
HETATM   22  C7  UNL     1     -18.221 -24.519 -15.108  1.00  0.00     0.216 C 
BRANCH  22  23
HETATM   23  O2  UNL     1     -17.826 -23.648 -16.132  1.00  0.00    -0.287 OA
BRANCH  23  24
HETATM   24  P1  UNL     1     -18.962 -22.443 -16.380  1.00  0.00     0.417 P 
HETATM   25  O3  UNL     1     -18.258 -21.141 -16.733  1.00  0.00    -0.624 OA
HETATM   26  O4  UNL     1     -19.943 -22.198 -15.026  1.00  0.00    -0.624 OA
BRANCH  24  27
HETATM   27  O5  UNL     1     -19.947 -22.888 -17.661  1.00  0.00    -0.180 OA
BRANCH  27  28
HETATM   28  P2  UNL     1     -19.088 -22.802 -19.116  1.00  0.00     0.426 P 
HETATM   29  O6  UNL     1     -17.800 -23.605 -18.906  1.00  0.00    -0.624 OA
HETATM   30  O7  UNL     1     -18.634 -21.223 -19.489  1.00  0.00    -0.624 OA
BRANCH  28  31
HETATM   31  O8  UNL     1     -19.979 -23.526 -20.341  1.00  0.00    -0.191 OA
BRANCH  31  32
HETATM   32  P3  UNL     1     -21.540 -22.930 -20.457  1.00  0.00     0.358 P 
HETATM   33  O9  UNL     1     -21.741 -21.468 -19.643  1.00  0.00    -0.635 OA
HETATM   34  O10 UNL     1     -22.632 -24.051 -19.783  1.00  0.00    -0.635 OA
HETATM   35  S1  UNL     1     -21.910 -22.681 -22.119  1.00  0.00     0.013 SA
ENDBRANCH  31  32
ENDBRANCH  28  31
ENDBRANCH  27  28
ENDBRANCH  24  27
ENDBRANCH  23  24
ENDBRANCH  22  23
ENDBRANCH   3  22
BRANCH   4  36
HETATM   36  O11 UNL     1     -15.816 -22.595 -14.542  1.00  0.00    -0.390 OA
ATOM     37  H11 UNL     1     -15.000 -22.233 -14.866  1.00  0.00     0.210 HD
ENDBRANCH   4  36
TORSDOF 10
ENDMDL
