MODEL 19
REMARK VINA RESULT: -8.355991735      5.983      9.432
REMARK  10 active torsions:
REMARK  status: ('A' for Active; 'I' for Inactive)
REMARK    1  A    between atoms: N4_10  and  C5_11 
REMARK    2  A    between atoms: C6_13  and  C7_14 
REMARK    3  A    between atoms: C7_14  and  O2_15 
REMARK    4  A    between atoms: O2_15  and  P1_16 
REMARK    5  A    between atoms: P1_16  and  O5_19 
REMARK    6  A    between atoms: O5_19  and  P2_20 
REMARK    7  A    between atoms: P2_20  and  O8_23 
REMARK    8  A    between atoms: O8_23  and  P3_24 
REMARK    9  A    between atoms: C8_28  and  O11_29 
REMARK   10  A    between atoms: C9_31  and  O12_32 
ROOT
HETATM    1  C5  UNL     1     -15.670 -24.217 -14.037  1.00  0.00     0.262 C 
HETATM    2  O1  UNL     1     -14.565 -24.997 -14.238  1.00  0.00    -0.353 OA
HETATM    3  C6  UNL     1     -14.550 -26.029 -13.340  1.00  0.00     0.180 C 
HETATM    4  C8  UNL     1     -16.015 -26.266 -12.951  1.00  0.00     0.182 C 
HETATM    5  C9  UNL     1     -16.491 -24.808 -12.930  1.00  0.00     0.198 C 
ENDROOT
BRANCH   1   6
HETATM    6  N4  UNL     1     -16.382 -24.041 -15.259  1.00  0.00    -0.297 N 
HETATM    7  C2  UNL     1     -17.451 -23.258 -15.471  1.00  0.00     0.146 A 
HETATM    8  N2  UNL     1     -18.164 -22.439 -14.684  1.00  0.00    -0.314 N 
HETATM    9  C3  UNL     1     -17.830 -23.378 -16.790  1.00  0.00     0.146 A 
HETATM   10  C1  UNL     1     -19.227 -21.721 -15.085  1.00  0.00     0.196 A 
ATOM     11  H2  UNL     1     -17.879 -22.356 -13.709  1.00  0.00     0.170 HD
HETATM   12  N1  UNL     1     -19.950 -20.865 -14.211  1.00  0.00    -0.063 NA
HETATM   13  N5  UNL     1     -19.589 -21.852 -16.396  1.00  0.00    -0.295 N 
HETATM   14  C10 UNL     1     -18.926 -22.652 -17.249  1.00  0.00     0.278 A 
ATOM     15  H5  UNL     1     -20.391 -21.325 -16.740  1.00  0.00     0.171 HD
HETATM   16  O13 UNL     1     -19.240 -22.788 -18.451  1.00  0.00    -0.265 OA
HETATM   17  N3  UNL     1     -16.976 -24.241 -17.357  1.00  0.00    -0.345 N 
HETATM   18  C4  UNL     1     -16.099 -24.639 -16.422  1.00  0.00     0.188 A 
ATOM     19  H3  UNL     1     -16.990 -24.542 -18.332  1.00  0.00     0.167 HD
ENDBRANCH   1   6
BRANCH   5  20
HETATM   20  O12 UNL     1     -16.039 -24.276 -11.722  1.00  0.00    -0.388 OA
ATOM     21  H12 UNL     1     -15.675 -24.984 -11.204  1.00  0.00     0.210 HD
ENDBRANCH   5  20
BRANCH   3  22
HETATM   22  C7  UNL     1     -13.952 -27.298 -13.928  1.00  0.00     0.216 C 
BRANCH  22  23
HETATM   23  O2  UNL     1     -14.439 -28.404 -13.218  1.00  0.00    -0.287 OA
BRANCH  23  24
HETATM   24  P1  UNL     1     -13.188 -29.340 -12.616  1.00  0.00     0.417 P 
HETATM   25  O3  UNL     1     -12.320 -28.499 -11.690  1.00  0.00    -0.624 OA
HETATM   26  O4  UNL     1     -12.225 -29.991 -13.844  1.00  0.00    -0.624 OA
BRANCH  24  27
HETATM   27  O5  UNL     1     -13.840 -30.610 -11.739  1.00  0.00    -0.180 OA
BRANCH  27  28
HETATM   28  P2  UNL     1     -12.615 -31.459 -10.939  1.00  0.00     0.426 P 
HETATM   29  O6  UNL     1     -13.282 -32.676 -10.293  1.00  0.00    -0.624 OA
HETATM   30  O7  UNL     1     -11.926 -30.552  -9.697  1.00  0.00    -0.624 OA
BRANCH  28  31
HETATM   31  O8  UNL     1     -11.480 -31.996 -12.055  1.00  0.00    -0.191 OA
BRANCH  31  32
HETATM   32  P3  UNL     1     -10.109 -32.637 -11.338  1.00  0.00     0.358 P 
HETATM   33  O9  UNL     1     -10.464 -33.814 -10.186  1.00  0.00    -0.635 OA
HETATM   34  O10 UNL     1      -9.239 -31.396 -10.557  1.00  0.00    -0.635 OA
HETATM   35  S1  UNL     1      -9.133 -33.353 -12.562  1.00  0.00     0.013 SA
ENDBRANCH  31  32
ENDBRANCH  28  31
ENDBRANCH  27  28
ENDBRANCH  24  27
ENDBRANCH  23  24
ENDBRANCH  22  23
ENDBRANCH   3  22
BRANCH   4  36
HETATM   36  O11 UNL     1     -16.137 -26.870 -11.726  1.00  0.00    -0.390 OA
ATOM     37  H11 UNL     1     -15.327 -27.279 -11.442  1.00  0.00     0.210 HD
ENDBRANCH   4  36
TORSDOF 10
ENDMDL
