MODEL 5
REMARK VINA RESULT: -9.197904826      0.833      1.464
REMARK  10 active torsions:
REMARK  status: ('A' for Active; 'I' for Inactive)
REMARK    1  A    between atoms: N4_10  and  C5_11 
REMARK    2  A    between atoms: C6_13  and  C7_14 
REMARK    3  A    between atoms: C7_14  and  O2_15 
REMARK    4  A    between atoms: O2_15  and  P1_16 
REMARK    5  A    between atoms: P1_16  and  O5_19 
REMARK    6  A    between atoms: O5_19  and  P2_20 
REMARK    7  A    between atoms: P2_20  and  O8_23 
REMARK    8  A    between atoms: O8_23  and  P3_24 
REMARK    9  A    between atoms: C8_28  and  O11_29 
REMARK   10  A    between atoms: C9_31  and  O12_32 
ROOT
HETATM    1  C5  UNL     1     -16.369 -25.290 -12.072  1.00  0.00     0.262 C 
HETATM    2  O1  UNL     1     -16.601 -24.066 -12.634  1.00  0.00    -0.353 OA
HETATM    3  C6  UNL     1     -15.964 -23.975 -13.840  1.00  0.00     0.180 C 
HETATM    4  C8  UNL     1     -15.823 -25.416 -14.349  1.00  0.00     0.182 C 
HETATM    5  C9  UNL     1     -15.535 -26.109 -13.010  1.00  0.00     0.198 C 
ENDROOT
BRANCH   1   6
HETATM    6  N4  UNL     1     -17.600 -25.907 -11.700  1.00  0.00    -0.297 N 
HETATM    7  C2  UNL     1     -18.216 -25.839 -10.510  1.00  0.00     0.146 A 
HETATM    8  N2  UNL     1     -17.923 -25.225  -9.355  1.00  0.00    -0.314 N 
HETATM    9  C3  UNL     1     -19.378 -26.576 -10.574  1.00  0.00     0.146 A 
HETATM   10  C1  UNL     1     -18.680 -25.273  -8.245  1.00  0.00     0.196 A 
ATOM     11  H2  UNL     1     -17.061 -24.682  -9.314  1.00  0.00     0.170 HD
HETATM   12  N1  UNL     1     -18.326 -24.604  -7.043  1.00  0.00    -0.063 NA
HETATM   13  N5  UNL     1     -19.829 -26.009  -8.325  1.00  0.00    -0.295 N 
HETATM   14  C10 UNL     1     -20.194 -26.654  -9.447  1.00  0.00     0.278 A 
ATOM     15  H5  UNL     1     -20.431 -26.072  -7.505  1.00  0.00     0.171 HD
HETATM   16  O13 UNL     1     -21.238 -27.332  -9.543  1.00  0.00    -0.265 OA
HETATM   17  N3  UNL     1     -19.444 -27.083 -11.812  1.00  0.00    -0.345 N 
HETATM   18  C4  UNL     1     -18.361 -26.672 -12.491  1.00  0.00     0.188 A 
ATOM     19  H3  UNL     1     -20.189 -27.678 -12.176  1.00  0.00     0.167 HD
ENDBRANCH   1   6
BRANCH   5  20
HETATM   20  O12 UNL     1     -14.191 -25.856 -12.730  1.00  0.00    -0.388 OA
ATOM     21  H12 UNL     1     -13.776 -26.681 -12.505  1.00  0.00     0.210 HD
ENDBRANCH   5  20
BRANCH   3  22
HETATM   22  C7  UNL     1     -16.742 -23.140 -14.845  1.00  0.00     0.216 C 
BRANCH  22  23
HETATM   23  O2  UNL     1     -18.100 -23.155 -14.498  1.00  0.00    -0.287 OA
BRANCH  23  24
HETATM   24  P1  UNL     1     -18.965 -22.018 -15.372  1.00  0.00     0.417 P 
HETATM   25  O3  UNL     1     -18.006 -21.161 -16.185  1.00  0.00    -0.624 OA
HETATM   26  O4  UNL     1     -19.899 -21.020 -14.378  1.00  0.00    -0.624 OA
BRANCH  24  27
HETATM   27  O5  UNL     1     -19.996 -22.818 -16.422  1.00  0.00    -0.180 OA
BRANCH  27  28
HETATM   28  P2  UNL     1     -19.599 -22.452 -18.025  1.00  0.00     0.426 P 
HETATM   29  O6  UNL     1     -19.668 -20.927 -18.151  1.00  0.00    -0.624 OA
HETATM   30  O7  UNL     1     -20.715 -23.091 -19.114  1.00  0.00    -0.624 OA
BRANCH  28  31
HETATM   31  O8  UNL     1     -18.026 -22.948 -18.344  1.00  0.00    -0.191 OA
BRANCH  31  32
HETATM   32  P3  UNL     1     -17.871 -24.613 -18.437  1.00  0.00     0.358 P 
HETATM   33  O9  UNL     1     -19.080 -25.429 -17.595  1.00  0.00    -0.635 OA
HETATM   34  O10 UNL     1     -16.372 -25.084 -17.775  1.00  0.00    -0.635 OA
HETATM   35  S1  UNL     1     -17.952 -25.080 -20.091  1.00  0.00     0.013 SA
ENDBRANCH  31  32
ENDBRANCH  28  31
ENDBRANCH  27  28
ENDBRANCH  24  27
ENDBRANCH  23  24
ENDBRANCH  22  23
ENDBRANCH   3  22
BRANCH   4  36
HETATM   36  O11 UNL     1     -14.790 -25.556 -15.239  1.00  0.00    -0.390 OA
ATOM     37  H11 UNL     1     -15.018 -26.115 -15.972  1.00  0.00     0.210 HD
ENDBRANCH   4  36
TORSDOF 10
ENDMDL
