MODEL 16
REMARK VINA RESULT: -8.455788997      3.547      4.724
REMARK  10 active torsions:
REMARK  status: ('A' for Active; 'I' for Inactive)
REMARK    1  A    between atoms: N4_10  and  C5_11 
REMARK    2  A    between atoms: C6_13  and  C7_14 
REMARK    3  A    between atoms: C7_14  and  O2_15 
REMARK    4  A    between atoms: O2_15  and  P1_16 
REMARK    5  A    between atoms: P1_16  and  O5_19 
REMARK    6  A    between atoms: O5_19  and  P2_20 
REMARK    7  A    between atoms: P2_20  and  O8_23 
REMARK    8  A    between atoms: O8_23  and  P3_24 
REMARK    9  A    between atoms: C8_28  and  O11_29 
REMARK   10  A    between atoms: C9_31  and  O12_32 
ROOT
HETATM    1  C5  UNL     1     -16.041 -25.756 -13.750  1.00  0.00     0.262 C 
HETATM    2  O1  UNL     1     -17.230 -25.587 -14.402  1.00  0.00    -0.353 OA
HETATM    3  C6  UNL     1     -17.372 -24.282 -14.789  1.00  0.00     0.180 C 
HETATM    4  C8  UNL     1     -15.947 -23.729 -14.926  1.00  0.00     0.182 C 
HETATM    5  C9  UNL     1     -15.300 -24.453 -13.738  1.00  0.00     0.198 C 
ENDROOT
BRANCH   1   6
HETATM    6  N4  UNL     1     -15.308 -26.835 -14.325  1.00  0.00    -0.297 N 
HETATM    7  C2  UNL     1     -14.304 -27.526 -13.765  1.00  0.00     0.146 A 
HETATM    8  N2  UNL     1     -13.688 -27.455 -12.576  1.00  0.00    -0.314 N 
HETATM    9  C3  UNL     1     -13.876 -28.483 -14.658  1.00  0.00     0.146 A 
HETATM   10  C1  UNL     1     -12.678 -28.251 -12.184  1.00  0.00     0.196 A 
ATOM     11  H2  UNL     1     -14.009 -26.743 -11.920  1.00  0.00     0.170 HD
HETATM   12  N1  UNL     1     -12.058 -28.136 -10.911  1.00  0.00    -0.063 NA
HETATM   13  N5  UNL     1     -12.266 -29.194 -13.083  1.00  0.00    -0.295 N 
HETATM   14  C10 UNL     1     -12.832 -29.331 -14.294  1.00  0.00     0.278 A 
ATOM     15  H5  UNL     1     -11.501 -29.818 -12.825  1.00  0.00     0.171 HD
HETATM   16  O13 UNL     1     -12.471 -30.185 -15.131  1.00  0.00    -0.265 OA
HETATM   17  N3  UNL     1     -14.635 -28.353 -15.753  1.00  0.00    -0.345 N 
HETATM   18  C4  UNL     1     -15.503 -27.350 -15.545  1.00  0.00     0.188 A 
ATOM     19  H3  UNL     1     -14.565 -28.918 -16.600  1.00  0.00     0.167 HD
ENDBRANCH   1   6
BRANCH   5  20
HETATM   20  O12 UNL     1     -15.688 -23.742 -12.601  1.00  0.00    -0.388 OA
ATOM     21  H12 UNL     1     -15.804 -24.362 -11.890  1.00  0.00     0.210 HD
ENDBRANCH   5  20
BRANCH   3  22
HETATM   22  C7  UNL     1     -18.115 -24.147 -16.108  1.00  0.00     0.216 C 
BRANCH  22  23
HETATM   23  O2  UNL     1     -17.639 -23.019 -16.788  1.00  0.00    -0.287 OA
BRANCH  23  24
HETATM   24  P1  UNL     1     -18.884 -21.960 -17.158  1.00  0.00     0.417 P 
HETATM   25  O3  UNL     1     -19.030 -20.935 -16.042  1.00  0.00    -0.624 OA
HETATM   26  O4  UNL     1     -20.358 -22.756 -17.381  1.00  0.00    -0.624 OA
BRANCH  24  27
HETATM   27  O5  UNL     1     -18.504 -21.158 -18.579  1.00  0.00    -0.180 OA
BRANCH  27  28
HETATM   28  P2  UNL     1     -19.058 -22.040 -19.913  1.00  0.00     0.426 P 
HETATM   29  O6  UNL     1     -18.366 -21.445 -21.143  1.00  0.00    -0.624 OA
HETATM   30  O7  UNL     1     -20.718 -21.862 -20.141  1.00  0.00    -0.624 OA
BRANCH  28  31
HETATM   31  O8  UNL     1     -18.594 -23.647 -19.760  1.00  0.00    -0.191 OA
BRANCH  31  32
HETATM   32  P3  UNL     1     -19.546 -24.692 -20.657  1.00  0.00     0.358 P 
HETATM   33  O9  UNL     1     -19.944 -24.073 -22.173  1.00  0.00    -0.635 OA
HETATM   34  O10 UNL     1     -21.001 -24.998 -19.825  1.00  0.00    -0.635 OA
HETATM   35  S1  UNL     1     -18.682 -26.163 -20.882  1.00  0.00     0.013 SA
ENDBRANCH  31  32
ENDBRANCH  28  31
ENDBRANCH  27  28
ENDBRANCH  24  27
ENDBRANCH  23  24
ENDBRANCH  22  23
ENDBRANCH   3  22
BRANCH   4  36
HETATM   36  O11 UNL     1     -15.902 -22.366 -14.793  1.00  0.00    -0.390 OA
ATOM     37  H11 UNL     1     -15.410 -22.094 -14.027  1.00  0.00     0.210 HD
ENDBRANCH   4  36
TORSDOF 10
ENDMDL
