MODEL 4
REMARK VINA RESULT: -8.205005849      4.606      5.622
REMARK  6 active torsions:
REMARK  status: ('A' for Active; 'I' for Inactive)
REMARK    1  A    between atoms: N1_1  and  S1_4 
REMARK    2  A    between atoms: S1_4  and  C1_7 
REMARK    3  A    between atoms: C3_9  and  C4_10 
REMARK    4  A    between atoms: C4_10  and  C5_12 
REMARK    5  A    between atoms: C5_12  and  S2_13 
REMARK    6  A    between atoms: S2_13  and  C6_14 
ROOT
HETATM    1  C4  UNL     1      -5.599   5.450  13.350  1.00  0.00     0.169 C 
HETATM    2  O3  UNL     1      -6.651   5.838  12.744  1.00  0.00    -0.291 OA
ENDROOT
BRANCH   1   3
HETATM    3  C3  UNL     1      -5.746   4.635  14.540  1.00  0.00     0.012 A 
HETATM    4  C2  UNL     1      -5.256   3.346  14.573  1.00  0.00     0.042 A 
HETATM    5  C1  UNL     1      -5.339   2.529  15.659  1.00  0.00     0.101 A 
HETATM    6  C15 UNL     1      -5.956   3.040  16.786  1.00  0.00     0.057 A 
HETATM    7  C14 UNL     1      -6.475   4.337  16.822  1.00  0.00     0.026 A 
HETATM    8 CL1  UNL     1      -6.076   2.028  18.195  1.00  0.00    -0.083 Cl
HETATM    9  C13 UNL     1      -6.350   5.103  15.679  1.00  0.00     0.017 A 
BRANCH   5  10
HETATM   10  S1  UNL     1      -4.683   0.911  15.617  1.00  0.00     0.258 S 
HETATM   11  O1  UNL     1      -3.400   0.846  16.405  1.00  0.00    -0.201 OA
HETATM   12  O2  UNL     1      -5.658  -0.132  16.060  1.00  0.00    -0.201 OA
BRANCH  10  13
HETATM   13  N1  UNL     1      -4.306   0.535  13.952  1.00  0.00    -0.324 N 
ATOM     14  H12 UNL     1      -4.020   1.212  13.244  1.00  0.00     0.169 HD
ATOM     15  H11 UNL     1      -4.426  -0.470  13.825  1.00  0.00     0.169 HD
ENDBRANCH  10  13
ENDBRANCH   5  10
ENDBRANCH   1   3
BRANCH   1  16
HETATM   16  C5  UNL     1      -4.324   5.879  12.744  1.00  0.00     0.166 C 
BRANCH  16  17
HETATM   17  S2  UNL     1      -4.252   5.076  11.092  1.00  0.00    -0.086 SA
BRANCH  17  18
HETATM   18  C6  UNL     1      -5.126   6.109   9.925  1.00  0.00     0.145 A 
HETATM   19  N2  UNL     1      -6.319   6.713  10.047  1.00  0.00    -0.335 N 
HETATM   20  C7  UNL     1      -6.648   7.382   8.908  1.00  0.00     0.062 A 
ATOM     21  H2  UNL     1      -6.902   6.675  10.883  1.00  0.00     0.168 HD
HETATM   22  C8  UNL     1      -7.747   8.134   8.548  1.00  0.00     0.051 A 
HETATM   23  C12 UNL     1      -5.590   7.170   8.050  1.00  0.00     0.061 A 
HETATM   24  C9  UNL     1      -7.813   8.703   7.303  1.00  0.00     0.013 A 
HETATM   25 BR1  UNL     1      -9.347   9.740   6.773  1.00  0.00    -0.051 Br
HETATM   26  C10 UNL     1      -6.757   8.510   6.409  1.00  0.00     0.021 A 
HETATM   27  C11 UNL     1      -5.674   7.748   6.806  1.00  0.00     0.033 A 
HETATM   28  N3  UNL     1      -4.690   6.405   8.678  1.00  0.00    -0.335 N 
ATOM     29  H3  UNL     1      -3.806   6.091   8.277  1.00  0.00     0.168 HD
ENDBRANCH  17  18
ENDBRANCH  16  17
ENDBRANCH   1  16
TORSDOF 6
ENDMDL
