MODEL 1
REMARK VINA RESULT: -8.833580200      0.000      0.000
REMARK  6 active torsions:
REMARK  status: ('A' for Active; 'I' for Inactive)
REMARK    1  A    between atoms: N1_1  and  S1_4 
REMARK    2  A    between atoms: S1_4  and  C1_7 
REMARK    3  A    between atoms: C3_9  and  C4_10 
REMARK    4  A    between atoms: C4_10  and  C5_12 
REMARK    5  A    between atoms: C5_12  and  S2_13 
REMARK    6  A    between atoms: S2_13  and  C6_14 
ROOT
HETATM    1  C4  UNL     1      -4.728   5.335  13.241  1.00  0.00     0.169 C 
HETATM    2  O3  UNL     1      -5.542   5.466  12.269  1.00  0.00    -0.291 OA
ENDROOT
BRANCH   1   3
HETATM    3  C3  UNL     1      -5.165   4.610  14.417  1.00  0.00     0.012 A 
HETATM    4  C2  UNL     1      -4.854   3.275  14.576  1.00  0.00     0.042 A 
HETATM    5  C1  UNL     1      -5.212   2.536  15.660  1.00  0.00     0.101 A 
HETATM    6  C15 UNL     1      -5.932   3.177  16.652  1.00  0.00     0.057 A 
HETATM    7  C14 UNL     1      -6.281   4.528  16.557  1.00  0.00     0.026 A 
HETATM    8 CL1  UNL     1      -6.403   2.266  18.056  1.00  0.00    -0.083 Cl
HETATM    9  C13 UNL     1      -5.879   5.209  15.424  1.00  0.00     0.017 A 
BRANCH   5  10
HETATM   10  S1  UNL     1      -4.770   0.850  15.783  1.00  0.00     0.258 S 
HETATM   11  O1  UNL     1      -3.479   0.703  16.548  1.00  0.00    -0.201 OA
HETATM   12  O2  UNL     1      -5.854  -0.004  16.359  1.00  0.00    -0.201 OA
BRANCH  10  13
HETATM   13  N1  UNL     1      -4.501   0.253  14.163  1.00  0.00    -0.324 N 
ATOM     14  H12 UNL     1      -3.595   0.195  13.698  1.00  0.00     0.169 HD
ATOM     15  H11 UNL     1      -5.405  -0.020  13.777  1.00  0.00     0.169 HD
ENDBRANCH  10  13
ENDBRANCH   5  10
ENDBRANCH   1   3
BRANCH   1  16
HETATM   16  C5  UNL     1      -3.398   5.944  13.041  1.00  0.00     0.166 C 
BRANCH  16  17
HETATM   17  S2  UNL     1      -2.821   5.369  11.392  1.00  0.00    -0.086 SA
BRANCH  17  18
HETATM   18  C6  UNL     1      -3.099   3.608  11.280  1.00  0.00     0.145 A 
HETATM   19  N2  UNL     1      -2.259   2.593  11.542  1.00  0.00    -0.335 N 
HETATM   20  C7  UNL     1      -2.851   1.392  11.294  1.00  0.00     0.062 A 
ATOM     21  H2  UNL     1      -1.305   2.707  11.883  1.00  0.00     0.168 HD
HETATM   22  C8  UNL     1      -2.407   0.091  11.401  1.00  0.00     0.051 A 
HETATM   23  C12 UNL     1      -4.121   1.702  10.858  1.00  0.00     0.061 A 
HETATM   24  C9  UNL     1      -3.237  -0.949  11.072  1.00  0.00     0.013 A 
HETATM   25 BR1  UNL     1      -2.632  -2.773  11.195  1.00  0.00    -0.051 Br
HETATM   26  C10 UNL     1      -4.533  -0.670  10.629  1.00  0.00     0.021 A 
HETATM   27  C11 UNL     1      -4.940   0.647  10.533  1.00  0.00     0.033 A 
HETATM   28  N3  UNL     1      -4.249   3.033  10.857  1.00  0.00    -0.335 N 
ATOM     29  H3  UNL     1      -5.090   3.541  10.578  1.00  0.00     0.168 HD
ENDBRANCH  17  18
ENDBRANCH  16  17
ENDBRANCH   1  16
TORSDOF 6
ENDMDL
