MODEL 3
REMARK VINA RESULT: -8.226650125      3.215      4.855
REMARK  6 active torsions:
REMARK  status: ('A' for Active; 'I' for Inactive)
REMARK    1  A    between atoms: N1_1  and  S1_4 
REMARK    2  A    between atoms: S1_4  and  C1_7 
REMARK    3  A    between atoms: C3_9  and  C4_10 
REMARK    4  A    between atoms: C4_10  and  C5_12 
REMARK    5  A    between atoms: C5_12  and  S2_13 
REMARK    6  A    between atoms: S2_13  and  C6_14 
ROOT
HETATM    1  C4  UNL     1      -4.250   2.063  11.768  1.00  0.00     0.169 C 
HETATM    2  O3  UNL     1      -4.649   2.561  10.664  1.00  0.00    -0.291 OA
ENDROOT
BRANCH   1   3
HETATM    3  C3  UNL     1      -4.803   2.583  13.002  1.00  0.00     0.012 A 
HETATM    4  C2  UNL     1      -5.052   1.744  14.069  1.00  0.00     0.042 A 
HETATM    5  C1  UNL     1      -5.550   2.163  15.264  1.00  0.00     0.101 A 
HETATM    6  C15 UNL     1      -5.819   3.513  15.398  1.00  0.00     0.057 A 
HETATM    7  C14 UNL     1      -5.592   4.419  14.358  1.00  0.00     0.026 A 
HETATM    8 CL1  UNL     1      -6.452   4.086  16.913  1.00  0.00    -0.083 Cl
HETATM    9  C13 UNL     1      -5.083   3.915  13.176  1.00  0.00     0.017 A 
BRANCH   5  10
HETATM   10  S1  UNL     1      -5.828   1.032  16.566  1.00  0.00     0.258 S 
HETATM   11  O1  UNL     1      -5.406  -0.355  16.153  1.00  0.00    -0.201 OA
HETATM   12  O2  UNL     1      -5.186   1.444  17.852  1.00  0.00    -0.201 OA
BRANCH  10  13
HETATM   13  N1  UNL     1      -7.547   0.996  16.880  1.00  0.00    -0.324 N 
ATOM     14  H12 UNL     1      -8.096   0.156  17.063  1.00  0.00     0.169 HD
ATOM     15  H11 UNL     1      -7.890   1.956  16.844  1.00  0.00     0.169 HD
ENDBRANCH  10  13
ENDBRANCH   5  10
ENDBRANCH   1   3
BRANCH   1  16
HETATM   16  C5  UNL     1      -3.254   0.980  11.651  1.00  0.00     0.166 C 
BRANCH  16  17
HETATM   17  S2  UNL     1      -1.682   1.791  11.149  1.00  0.00    -0.086 SA
BRANCH  17  18
HETATM   18  C6  UNL     1      -1.704   3.477  11.738  1.00  0.00     0.145 A 
HETATM   19  N2  UNL     1      -1.385   3.962  12.948  1.00  0.00    -0.335 N 
HETATM   20  C7  UNL     1      -1.573   5.310  13.001  1.00  0.00     0.062 A 
ATOM     21  H2  UNL     1      -1.045   3.396  13.726  1.00  0.00     0.168 HD
HETATM   22  C8  UNL     1      -1.397   6.241  14.003  1.00  0.00     0.051 A 
HETATM   23  C12 UNL     1      -2.032   5.656  11.748  1.00  0.00     0.061 A 
HETATM   24  C9  UNL     1      -1.675   7.563  13.771  1.00  0.00     0.013 A 
HETATM   25 BR1  UNL     1      -1.454   8.877  15.162  1.00  0.00    -0.051 Br
HETATM   26  C10 UNL     1      -2.140   7.949  12.511  1.00  0.00     0.021 A 
HETATM   27  C11 UNL     1      -2.306   6.986  11.534  1.00  0.00     0.033 A 
HETATM   28  N3  UNL     1      -2.103   4.545  11.008  1.00  0.00    -0.335 N 
ATOM     29  H3  UNL     1      -2.413   4.508  10.036  1.00  0.00     0.168 HD
ENDBRANCH  17  18
ENDBRANCH  16  17
ENDBRANCH   1  16
TORSDOF 6
ENDMDL
