MODEL 2
REMARK VINA RESULT: -8.261997667      3.363      5.555
REMARK  6 active torsions:
REMARK  status: ('A' for Active; 'I' for Inactive)
REMARK    1  A    between atoms: N1_1  and  S1_4 
REMARK    2  A    between atoms: S1_4  and  C1_7 
REMARK    3  A    between atoms: C3_9  and  C4_10 
REMARK    4  A    between atoms: C4_10  and  C5_12 
REMARK    5  A    between atoms: C5_12  and  S2_13 
REMARK    6  A    between atoms: S2_13  and  C6_14 
ROOT
HETATM    1  C4  UNL     1      -2.094   5.508  10.429  1.00  0.00     0.169 C 
HETATM    2  O3  UNL     1      -1.707   6.002   9.319  1.00  0.00    -0.291 OA
ENDROOT
BRANCH   1   3
HETATM    3  C3  UNL     1      -1.998   4.075  10.621  1.00  0.00     0.012 A 
HETATM    4  C2  UNL     1      -3.120   3.330  10.924  1.00  0.00     0.042 A 
HETATM    5  C1  UNL     1      -3.111   1.981  11.098  1.00  0.00     0.101 A 
HETATM    6  C15 UNL     1      -1.895   1.334  10.961  1.00  0.00     0.057 A 
HETATM    7  C14 UNL     1      -0.720   2.027  10.655  1.00  0.00     0.026 A 
HETATM    8 CL1  UNL     1      -1.845  -0.391  11.171  1.00  0.00    -0.083 Cl
HETATM    9  C13 UNL     1      -0.813   3.396  10.493  1.00  0.00     0.017 A 
BRANCH   5  10
HETATM   10  S1  UNL     1      -4.580   1.114  11.473  1.00  0.00     0.258 S 
HETATM   11  O1  UNL     1      -4.390   0.272  12.709  1.00  0.00    -0.201 OA
HETATM   12  O2  UNL     1      -5.777   2.004  11.589  1.00  0.00    -0.201 OA
BRANCH  10  13
HETATM   13  N1  UNL     1      -4.915   0.036  10.138  1.00  0.00    -0.324 N 
ATOM     14  H12 UNL     1      -4.895  -0.983  10.184  1.00  0.00     0.169 HD
ATOM     15  H11 UNL     1      -5.129   0.608   9.322  1.00  0.00     0.169 HD
ENDBRANCH  10  13
ENDBRANCH   5  10
ENDBRANCH   1   3
BRANCH   1  16
HETATM   16  C5  UNL     1      -2.598   6.484  11.415  1.00  0.00     0.166 C 
BRANCH  16  17
HETATM   17  S2  UNL     1      -1.774   6.067  13.006  1.00  0.00    -0.086 SA
BRANCH  17  18
HETATM   18  C6  UNL     1      -2.932   5.161  14.020  1.00  0.00     0.145 A 
HETATM   19  N2  UNL     1      -2.898   3.877  14.414  1.00  0.00    -0.335 N 
HETATM   20  C7  UNL     1      -3.998   3.563  15.153  1.00  0.00     0.062 A 
ATOM     21  H2  UNL     1      -2.147   3.224  14.189  1.00  0.00     0.168 HD
HETATM   22  C8  UNL     1      -4.414   2.398  15.762  1.00  0.00     0.051 A 
HETATM   23  C12 UNL     1      -4.736   4.725  15.208  1.00  0.00     0.061 A 
HETATM   24  C9  UNL     1      -5.596   2.368  16.455  1.00  0.00     0.013 A 
HETATM   25 BR1  UNL     1      -6.205   0.746  17.298  1.00  0.00    -0.051 Br
HETATM   26  C10 UNL     1      -6.369   3.530  16.533  1.00  0.00     0.021 A 
HETATM   27  C11 UNL     1      -5.918   4.676  15.907  1.00  0.00     0.033 A 
HETATM   28  N3  UNL     1      -4.081   5.669  14.523  1.00  0.00    -0.335 N 
ATOM     29  H3  UNL     1      -4.400   6.630  14.399  1.00  0.00     0.168 HD
ENDBRANCH  17  18
ENDBRANCH  16  17
ENDBRANCH   1  16
TORSDOF 6
ENDMDL
