MODEL 5
REMARK VINA RESULT: -8.120746637      3.839      5.715
REMARK  6 active torsions:
REMARK  status: ('A' for Active; 'I' for Inactive)
REMARK    1  A    between atoms: N1_1  and  S1_4 
REMARK    2  A    between atoms: S1_4  and  C1_7 
REMARK    3  A    between atoms: C3_9  and  C4_10 
REMARK    4  A    between atoms: C4_10  and  C5_12 
REMARK    5  A    between atoms: C5_12  and  S2_13 
REMARK    6  A    between atoms: S2_13  and  C6_14 
ROOT
HETATM    1  C4  UNL     1      -4.108   3.345  12.047  1.00  0.00     0.169 C 
HETATM    2  O3  UNL     1      -4.781   3.425  10.966  1.00  0.00    -0.291 OA
ENDROOT
BRANCH   1   3
HETATM    3  C3  UNL     1      -4.807   3.486  13.308  1.00  0.00     0.012 A 
HETATM    4  C2  UNL     1      -4.897   2.423  14.183  1.00  0.00     0.042 A 
HETATM    5  C1  UNL     1      -5.519   2.484  15.392  1.00  0.00     0.101 A 
HETATM    6  C15 UNL     1      -6.089   3.694  15.747  1.00  0.00     0.057 A 
HETATM    7  C14 UNL     1      -6.036   4.811  14.910  1.00  0.00     0.026 A 
HETATM    8 CL1  UNL     1      -6.888   3.813  17.287  1.00  0.00    -0.083 Cl
HETATM    9  C13 UNL     1      -5.386   4.667  13.699  1.00  0.00     0.017 A 
BRANCH   5  10
HETATM   10  S1  UNL     1      -5.580   1.090  16.443  1.00  0.00     0.258 S 
HETATM   11  O1  UNL     1      -5.150   1.467  17.837  1.00  0.00    -0.201 OA
HETATM   12  O2  UNL     1      -6.910   0.407  16.440  1.00  0.00    -0.201 OA
BRANCH  10  13
HETATM   13  N1  UNL     1      -4.439  -0.084  15.831  1.00  0.00    -0.324 N 
ATOM     14  H12 UNL     1      -4.676  -1.021  15.502  1.00  0.00     0.169 HD
ATOM     15  H11 UNL     1      -3.511   0.336  15.865  1.00  0.00     0.169 HD
ENDBRANCH  10  13
ENDBRANCH   5  10
ENDBRANCH   1   3
BRANCH   1  16
HETATM   16  C5  UNL     1      -2.662   3.103  11.877  1.00  0.00     0.166 C 
BRANCH  16  17
HETATM   17  S2  UNL     1      -2.023   4.521  10.897  1.00  0.00    -0.086 SA
BRANCH  17  18
HETATM   18  C6  UNL     1      -1.658   5.863  12.019  1.00  0.00     0.145 A 
HETATM   19  N2  UNL     1      -0.728   6.827  11.922  1.00  0.00    -0.335 N 
HETATM   20  C7  UNL     1      -0.751   7.640  13.014  1.00  0.00     0.062 A 
ATOM     21  H2  UNL     1      -0.089   6.935  11.135  1.00  0.00     0.168 HD
HETATM   22  C8  UNL     1      -0.005   8.742  13.376  1.00  0.00     0.051 A 
HETATM   23  C12 UNL     1      -1.754   7.137  13.814  1.00  0.00     0.061 A 
HETATM   24  C9  UNL     1      -0.250   9.380  14.564  1.00  0.00     0.013 A 
HETATM   25 BR1  UNL     1       0.793  10.908  15.098  1.00  0.00    -0.051 Br
HETATM   26  C10 UNL     1      -1.262   8.897  15.399  1.00  0.00     0.021 A 
HETATM   27  C11 UNL     1      -1.986   7.789  15.002  1.00  0.00     0.033 A 
HETATM   28  N3  UNL     1      -2.284   6.073  13.201  1.00  0.00    -0.335 N 
ATOM     29  H3  UNL     1      -3.047   5.505  13.569  1.00  0.00     0.168 HD
ENDBRANCH  17  18
ENDBRANCH  16  17
ENDBRANCH   1  16
TORSDOF 6
ENDMDL
