MODEL 17
REMARK VINA RESULT: -4.312274460      1.192      3.116
REMARK  4 active torsions:
REMARK  status: ('A' for Active; 'I' for Inactive)
REMARK    1  A    between atoms: O1_1  and  C1_3 
REMARK    2  A    between atoms: C2_4  and  O2_5 
REMARK    3  A    between atoms: C4_9  and  O4_10 
REMARK    4  A    between atoms: C5_12  and  O5_13 
ROOT
HETATM    1  C1  UNL     1      61.467 -48.313  22.451  1.00  0.00     0.182 C 
HETATM    2  C2  UNL     1      62.077 -47.145  21.775  1.00  0.00     0.173 C 
HETATM    3  C3  UNL     1      62.543 -47.386  20.377  1.00  0.00     0.205 C 
HETATM    4  O3  UNL     1      61.649 -48.159  19.642  1.00  0.00    -0.356 OA
HETATM    5  C4  UNL     1      61.652 -49.424  20.203  1.00  0.00     0.288 C 
HETATM    6  C5  UNL     1      61.142 -49.474  21.594  1.00  0.00     0.204 C 
ENDROOT
BRANCH   1   7
HETATM    7  O1  UNL     1      62.263 -48.699  23.555  1.00  0.00    -0.390 OA
ATOM      8  H1  UNL     1      62.497 -49.616  23.479  1.00  0.00     0.210 HD
ENDBRANCH   1   7
BRANCH   2   9
HETATM    9  O2  UNL     1      61.214 -46.025  21.769  1.00  0.00    -0.391 OA
ATOM     10  H2  UNL     1      60.969 -45.760  22.648  1.00  0.00     0.210 HD
ENDBRANCH   2   9
BRANCH   6  11
HETATM   11  O5  UNL     1      59.753 -49.727  21.527  1.00  0.00    -0.388 OA
ATOM     12  H5  UNL     1      59.550 -50.655  21.548  1.00  0.00     0.210 HD
ENDBRANCH   6  11
BRANCH   5  13
HETATM   13  O4  UNL     1      62.925 -50.020  20.163  1.00  0.00    -0.369 OA
ATOM     14  H4  UNL     1      63.623 -49.378  20.223  1.00  0.00     0.212 HD
ENDBRANCH   5  13
TORSDOF 4
ENDMDL
