MODEL 16
REMARK VINA RESULT: -4.330707514      1.477      3.119
REMARK  4 active torsions:
REMARK  status: ('A' for Active; 'I' for Inactive)
REMARK    1  A    between atoms: O1_1  and  C1_3 
REMARK    2  A    between atoms: C2_4  and  O2_5 
REMARK    3  A    between atoms: C4_9  and  O4_10 
REMARK    4  A    between atoms: C5_12  and  O5_13 
ROOT
HETATM    1  C1  UNL     1      61.376 -49.542  21.630  1.00  0.00     0.182 C 
HETATM    2  C2  UNL     1      60.745 -48.202  21.594  1.00  0.00     0.173 C 
HETATM    3  C3  UNL     1      61.634 -47.087  21.149  1.00  0.00     0.205 C 
HETATM    4  O3  UNL     1      62.443 -47.445  20.076  1.00  0.00    -0.356 OA
HETATM    5  C4  UNL     1      63.333 -48.398  20.540  1.00  0.00     0.288 C 
HETATM    6  C5  UNL     1      62.696 -49.665  20.974  1.00  0.00     0.204 C 
ENDROOT
BRANCH   1   7
HETATM    7  O1  UNL     1      61.421 -50.015  22.963  1.00  0.00    -0.390 OA
ATOM      8  H1  UNL     1      61.891 -50.840  22.996  1.00  0.00     0.210 HD
ENDBRANCH   1   7
BRANCH   2   9
HETATM    9  O2  UNL     1      59.579 -48.188  20.793  1.00  0.00    -0.391 OA
ATOM     10  H2  UNL     1      58.800 -48.392  21.296  1.00  0.00     0.210 HD
ENDBRANCH   2   9
BRANCH   6  11
HETATM   11  O5  UNL     1      62.667 -50.530  19.856  1.00  0.00    -0.388 OA
ATOM     12  H5  UNL     1      63.537 -50.766  19.555  1.00  0.00     0.210 HD
ENDBRANCH   6  11
BRANCH   5  13
HETATM   13  O4  UNL     1      64.135 -47.910  21.586  1.00  0.00    -0.369 OA
ATOM     14  H4  UNL     1      64.263 -46.971  21.531  1.00  0.00     0.212 HD
ENDBRANCH   5  13
TORSDOF 4
ENDMDL
