MODEL 6
REMARK VINA RESULT: -5.103288392      1.168      3.295
REMARK  4 active torsions:
REMARK  status: ('A' for Active; 'I' for Inactive)
REMARK    1  A    between atoms: O1_1  and  C1_3 
REMARK    2  A    between atoms: C2_4  and  O2_5 
REMARK    3  A    between atoms: C4_9  and  O4_10 
REMARK    4  A    between atoms: C5_12  and  O5_13 
ROOT
HETATM    1  C1  UNL     1      61.924 -48.990  22.523  1.00  0.00     0.182 C 
HETATM    2  C2  UNL     1      60.811 -48.556  21.647  1.00  0.00     0.173 C 
HETATM    3  C3  UNL     1      61.143 -48.451  20.194  1.00  0.00     0.205 C 
HETATM    4  O3  UNL     1      61.936 -49.505  19.750  1.00  0.00    -0.356 OA
HETATM    5  C4  UNL     1      63.167 -49.373  20.371  1.00  0.00     0.288 C 
HETATM    6  C5  UNL     1      63.125 -49.525  21.844  1.00  0.00     0.204 C 
ENDROOT
BRANCH   1   7
HETATM    7  O1  UNL     1      62.263 -47.949  23.418  1.00  0.00    -0.390 OA
ATOM      8  H1  UNL     1      62.202 -48.261  24.313  1.00  0.00     0.210 HD
ENDBRANCH   1   7
BRANCH   2   9
HETATM    9  O2  UNL     1      59.674 -49.385  21.785  1.00  0.00    -0.391 OA
ATOM     10  H2  UNL     1      59.205 -49.486  20.965  1.00  0.00     0.210 HD
ENDBRANCH   2   9
BRANCH   6  11
HETATM   11  O5  UNL     1      63.350 -50.890  22.137  1.00  0.00    -0.388 OA
ATOM     12  H5  UNL     1      62.792 -51.468  21.631  1.00  0.00     0.210 HD
ENDBRANCH   6  11
BRANCH   5  13
HETATM   13  O4  UNL     1      63.792 -48.155  20.055  1.00  0.00    -0.369 OA
ATOM     14  H4  UNL     1      63.166 -47.451  19.934  1.00  0.00     0.212 HD
ENDBRANCH   5  13
TORSDOF 4
ENDMDL
