MODEL 8
REMARK VINA RESULT: -4.583168856      1.126      3.090
REMARK  0 active torsions:
REMARK  status: ('A' for Active; 'I' for Inactive)
ROOT
HETATM    1  C1  UNL     1      15.301  13.712  23.854  1.00  0.00     0.158 C 
HETATM    2  N1  UNL     1      16.198  13.685  22.711  1.00  0.00    -0.332 N 
HETATM    3  C2  UNL     1      16.812  12.558  22.303  1.00  0.00     0.185 A 
HETATM    4  N2  UNL     1      17.641  12.541  21.241  1.00  0.00    -0.339 N 
ATOM      5  H2  UNL     1      18.076  11.656  20.980  1.00  0.00     0.167 HD
HETATM    6  C3  UNL     1      17.925  13.634  20.508  1.00  0.00     0.148 A 
HETATM    7  N3  UNL     1      18.813  13.565  19.389  1.00  0.00    -0.080 NA
HETATM    8  C4  UNL     1      17.310  14.804  20.903  1.00  0.00     0.119 A 
HETATM    9  N4  UNL     1      17.360  16.050  20.418  1.00  0.00    -0.347 N 
ATOM     10  H4  UNL     1      17.902  16.367  19.614  1.00  0.00     0.167 HD
HETATM   11  C5  UNL     1      16.552  16.812  21.200  1.00  0.00     0.182 A 
HETATM   12  N5  UNL     1      16.004  16.062  22.158  1.00  0.00    -0.336 N 
ATOM     13  H5  UNL     1      15.358  16.388  22.878  1.00  0.00     0.168 HD
HETATM   14  C6  UNL     1      16.450  14.806  22.009  1.00  0.00     0.139 A 
ENDROOT
TORSDOF 0
ENDMDL
