MODEL 12
REMARK VINA RESULT: -4.193042352      3.554      5.145
REMARK  0 active torsions:
REMARK  status: ('A' for Active; 'I' for Inactive)
ROOT
HETATM    1  C1  UNL     1      12.522  13.492  22.968  1.00  0.00     0.158 C 
HETATM    2  N1  UNL     1      13.775  13.662  23.683  1.00  0.00    -0.332 N 
HETATM    3  C2  UNL     1      14.882  14.154  23.094  1.00  0.00     0.185 A 
HETATM    4  N2  UNL     1      16.040  14.310  23.764  1.00  0.00    -0.339 N 
ATOM      5  H2  UNL     1      16.843  14.689  23.263  1.00  0.00     0.167 HD
HETATM    6  C3  UNL     1      16.189  13.991  25.064  1.00  0.00     0.148 A 
HETATM    7  N3  UNL     1      17.440  14.173  25.733  1.00  0.00    -0.080 NA
HETATM    8  C4  UNL     1      15.072  13.483  25.695  1.00  0.00     0.119 A 
HETATM    9  N4  UNL     1      14.862  13.070  26.950  1.00  0.00    -0.347 N 
ATOM     10  H4  UNL     1      15.545  13.060  27.707  1.00  0.00     0.167 HD
HETATM   11  C5  UNL     1      13.567  12.666  27.023  1.00  0.00     0.182 A 
HETATM   12  N5  UNL     1      12.973  12.822  25.838  1.00  0.00    -0.336 N 
ATOM     13  H5  UNL     1      12.002  12.595  25.621  1.00  0.00     0.168 HD
HETATM   14  C6  UNL     1      13.874  13.328  24.984  1.00  0.00     0.139 A 
ENDROOT
TORSDOF 0
ENDMDL
