MODEL 11
REMARK VINA RESULT: -4.218798888      4.742      6.506
REMARK  0 active torsions:
REMARK  status: ('A' for Active; 'I' for Inactive)
ROOT
HETATM    1  C1  UNL     1      11.009  13.584  25.749  1.00  0.00     0.158 C 
HETATM    2  N1  UNL     1      12.452  13.590  25.577  1.00  0.00    -0.332 N 
HETATM    3  C2  UNL     1      13.034  13.750  24.373  1.00  0.00     0.185 A 
HETATM    4  N2  UNL     1      14.373  13.755  24.221  1.00  0.00    -0.339 N 
ATOM      5  H2  UNL     1      14.754  13.881  23.284  1.00  0.00     0.167 HD
HETATM    6  C3  UNL     1      15.232  13.602  25.247  1.00  0.00     0.148 A 
HETATM    7  N3  UNL     1      16.647  13.614  25.036  1.00  0.00    -0.080 NA
HETATM    8  C4  UNL     1      14.665  13.435  26.493  1.00  0.00     0.119 A 
HETATM    9  N4  UNL     1      15.201  13.260  27.706  1.00  0.00    -0.347 N 
ATOM     10  H4  UNL     1      16.196  13.217  27.929  1.00  0.00     0.167 HD
HETATM   11  C5  UNL     1      14.170  13.151  28.584  1.00  0.00     0.182 A 
HETATM   12  N5  UNL     1      13.007  13.255  27.937  1.00  0.00    -0.336 N 
ATOM     13  H5  UNL     1      12.080  13.207  28.361  1.00  0.00     0.168 HD
HETATM   14  C6  UNL     1      13.270  13.432  26.634  1.00  0.00     0.139 A 
ENDROOT
TORSDOF 0
ENDMDL
