MODEL 13
REMARK VINA RESULT: -4.098100322      3.223      5.321
REMARK  0 active torsions:
REMARK  status: ('A' for Active; 'I' for Inactive)
ROOT
HETATM    1  C1  UNL     1      12.249  12.557  24.718  1.00  0.00     0.158 C 
HETATM    2  N1  UNL     1      13.615  12.966  24.999  1.00  0.00    -0.332 N 
HETATM    3  C2  UNL     1      14.249  12.628  26.138  1.00  0.00     0.185 A 
HETATM    4  N2  UNL     1      15.515  13.010  26.392  1.00  0.00    -0.339 N 
ATOM      5  H2  UNL     1      15.941  12.722  27.272  1.00  0.00     0.167 HD
HETATM    6  C3  UNL     1      16.246  13.752  25.539  1.00  0.00     0.148 A 
HETATM    7  N3  UNL     1      17.589  14.134  25.853  1.00  0.00    -0.080 NA
HETATM    8  C4  UNL     1      15.624  14.114  24.363  1.00  0.00     0.119 A 
HETATM    9  N4  UNL     1      16.039  14.832  23.313  1.00  0.00    -0.347 N 
ATOM     10  H4  UNL     1      16.955  15.265  23.198  1.00  0.00     0.167 HD
HETATM   11  C5  UNL     1      15.008  14.875  22.429  1.00  0.00     0.182 A 
HETATM   12  N5  UNL     1      13.964  14.198  22.912  1.00  0.00    -0.336 N 
ATOM     13  H5  UNL     1      13.064  14.074  22.449  1.00  0.00     0.168 HD
HETATM   14  C6  UNL     1      14.305  13.709  24.114  1.00  0.00     0.139 A 
ENDROOT
TORSDOF 0
ENDMDL
