MODEL 2
REMARK VINA RESULT: -4.223879195      0.626      1.333
REMARK  2 active torsions:
REMARK  status: ('A' for Active; 'I' for Inactive)
REMARK    1  A    between atoms: N1_2  and  C4_5 
REMARK    2  A    between atoms: C4_5  and  C5_6 
ROOT
HETATM    1  C1  UNL     1      27.022 -16.021 -13.933  1.00  0.00     0.272 C 
HETATM    2  N1  UNL     1      25.692 -15.716 -13.399  1.00  0.00    -0.069 N 
HETATM    3  C2  UNL     1      24.711 -16.404 -14.187  1.00  0.00     0.272 C 
HETATM    4  C3  UNL     1      25.608 -16.127 -12.015  1.00  0.00     0.272 C 
ENDROOT
BRANCH   2   5
HETATM    5  C4  UNL     1      25.562 -14.275 -13.441  1.00  0.00     0.348 C 
BRANCH   5   6
HETATM    6  C5  UNL     1      24.321 -13.834 -12.743  1.00  0.00     0.199 C 
HETATM    7  O1  UNL     1      23.185 -14.021 -13.252  1.00  0.00    -0.647 OA
HETATM    8  O2  UNL     1      24.355 -13.201 -11.509  1.00  0.00    -0.647 OA
ENDBRANCH   5   6
ENDBRANCH   2   5
TORSDOF 2
ENDMDL
