MODEL 1
REMARK VINA RESULT: -4.269089358      0.000      0.000
REMARK  2 active torsions:
REMARK  status: ('A' for Active; 'I' for Inactive)
REMARK    1  A    between atoms: N1_2  and  C4_5 
REMARK    2  A    between atoms: C4_5  and  C5_6 
ROOT
HETATM    1  C1  UNL     1      25.037 -16.733 -13.864  1.00  0.00     0.272 C 
HETATM    2  N1  UNL     1      25.612 -15.883 -12.819  1.00  0.00    -0.069 N 
HETATM    3  C2  UNL     1      24.908 -16.120 -11.592  1.00  0.00     0.272 C 
HETATM    4  C3  UNL     1      27.019 -16.177 -12.659  1.00  0.00     0.272 C 
ENDROOT
BRANCH   2   5
HETATM    5  C4  UNL     1      25.497 -14.522 -13.298  1.00  0.00     0.348 C 
BRANCH   5   6
HETATM    6  C5  UNL     1      24.290 -13.859 -12.730  1.00  0.00     0.199 C 
HETATM    7  O1  UNL     1      23.152 -14.026 -13.245  1.00  0.00    -0.647 OA
HETATM    8  O2  UNL     1      24.357 -13.033 -11.618  1.00  0.00    -0.647 OA
ENDBRANCH   5   6
ENDBRANCH   2   5
TORSDOF 2
ENDMDL
