MODEL 20
REMARK VINA RESULT: -3.153046107      6.848      7.747
REMARK  2 active torsions:
REMARK  status: ('A' for Active; 'I' for Inactive)
REMARK    1  A    between atoms: N1_2  and  C4_5 
REMARK    2  A    between atoms: C4_5  and  C5_6 
ROOT
HETATM    1  C1  UNL     1      21.195 -20.116  -8.569  1.00  0.00     0.272 C 
HETATM    2  N1  UNL     1      20.858 -19.275  -9.720  1.00  0.00    -0.069 N 
HETATM    3  C2  UNL     1      19.704 -18.489  -9.394  1.00  0.00     0.272 C 
HETATM    4  C3  UNL     1      21.976 -18.420 -10.054  1.00  0.00     0.272 C 
ENDROOT
BRANCH   2   5
HETATM    5  C4  UNL     1      20.647 -20.179 -10.831  1.00  0.00     0.348 C 
BRANCH   5   6
HETATM    6  C5  UNL     1      19.235 -20.651 -10.871  1.00  0.00     0.199 C 
HETATM    7  O1  UNL     1      18.398 -20.138 -11.660  1.00  0.00    -0.647 OA
HETATM    8  O2  UNL     1      18.774 -21.669 -10.048  1.00  0.00    -0.647 OA
ENDBRANCH   5   6
ENDBRANCH   2   5
TORSDOF 2
ENDMDL
