MODEL 3
REMARK VINA RESULT: -4.215318637      0.667      1.743
REMARK  2 active torsions:
REMARK  status: ('A' for Active; 'I' for Inactive)
REMARK    1  A    between atoms: N1_2  and  C4_5 
REMARK    2  A    between atoms: C4_5  and  C5_6 
ROOT
HETATM    1  C1  UNL     1      27.022 -15.892 -13.970  1.00  0.00     0.272 C 
HETATM    2  N1  UNL     1      25.706 -15.602 -13.395  1.00  0.00    -0.069 N 
HETATM    3  C2  UNL     1      24.708 -16.298 -14.154  1.00  0.00     0.272 C 
HETATM    4  C3  UNL     1      25.668 -16.017 -12.010  1.00  0.00     0.272 C 
ENDROOT
BRANCH   2   5
HETATM    5  C4  UNL     1      25.560 -14.163 -13.429  1.00  0.00     0.348 C 
BRANCH   5   6
HETATM    6  C5  UNL     1      24.332 -13.736 -12.699  1.00  0.00     0.199 C 
HETATM    7  O1  UNL     1      24.405 -13.044 -11.650  1.00  0.00    -0.647 OA
HETATM    8  O2  UNL     1      23.060 -14.078 -13.134  1.00  0.00    -0.647 OA
ENDBRANCH   5   6
ENDBRANCH   2   5
TORSDOF 2
ENDMDL
