MODEL 12
REMARK VINA RESULT: -3.770822121      1.659      2.180
REMARK  0 active torsions:
REMARK  status: ('A' for Active; 'I' for Inactive)
ROOT
HETATM    1  C1  UNL     1      16.068  15.549  22.017  1.00  0.00     0.162 C 
HETATM    2  N1  UNL     1      16.569  14.185  21.849  1.00  0.00    -0.292 N 
HETATM    3  C2  UNL     1      16.054  13.250  22.681  1.00  0.00     0.123 A 
HETATM    4  N2  UNL     1      15.082  13.609  23.652  1.00  0.00    -0.082 NA
HETATM    5  C3  UNL     1      16.478  11.939  22.581  1.00  0.00     0.062 A 
HETATM    6  C4  UNL     1      17.409  11.639  21.638  1.00  0.00     0.096 A 
HETATM    7  N3  UNL     1      17.921  12.581  20.808  1.00  0.00    -0.319 N 
ATOM      8  H3  UNL     1      18.619  12.335  20.106  1.00  0.00     0.170 HD
HETATM    9  C5  UNL     1      17.484  13.855  20.931  1.00  0.00     0.327 A 
HETATM   10  O1  UNL     1      17.934  14.759  20.180  1.00  0.00    -0.246 OA
ENDROOT
TORSDOF 0
ENDMDL
