MODEL 19
REMARK VINA RESULT: -3.547477322      7.151      8.155
REMARK  0 active torsions:
REMARK  status: ('A' for Active; 'I' for Inactive)
ROOT
HETATM    1  C1  UNL     1      15.015  13.277  28.723  1.00  0.00     0.162 C 
HETATM    2  N1  UNL     1      14.068  13.227  27.609  1.00  0.00    -0.292 N 
HETATM    3  C2  UNL     1      12.998  14.053  27.692  1.00  0.00     0.123 A 
HETATM    4  N2  UNL     1      12.836  14.908  28.814  1.00  0.00    -0.082 NA
HETATM    5  C3  UNL     1      12.062  14.062  26.677  1.00  0.00     0.062 A 
HETATM    6  C4  UNL     1      12.257  13.228  25.621  1.00  0.00     0.096 A 
HETATM    7  N3  UNL     1      13.330  12.404  25.544  1.00  0.00    -0.319 N 
ATOM      8  H3  UNL     1      13.457  11.786  24.743  1.00  0.00     0.170 HD
HETATM    9  C5  UNL     1      14.228  12.420  26.555  1.00  0.00     0.327 A 
HETATM   10  O1  UNL     1      15.238  11.669  26.522  1.00  0.00    -0.246 OA
ENDROOT
TORSDOF 0
ENDMDL
