MODEL 9
REMARK VINA RESULT: -3.931820929      4.149      5.359
REMARK  0 active torsions:
REMARK  status: ('A' for Active; 'I' for Inactive)
ROOT
HETATM    1  C1  UNL     1      15.175  13.276  27.166  1.00  0.00     0.162 C 
HETATM    2  N1  UNL     1      15.238  13.552  25.731  1.00  0.00    -0.292 N 
HETATM    3  C2  UNL     1      14.107  13.323  25.024  1.00  0.00     0.123 A 
HETATM    4  N2  UNL     1      12.940  12.839  25.673  1.00  0.00    -0.082 NA
HETATM    5  C3  UNL     1      14.091  13.561  23.664  1.00  0.00     0.062 A 
HETATM    6  C4  UNL     1      15.229  14.023  23.083  1.00  0.00     0.096 A 
HETATM    7  N3  UNL     1      16.359  14.252  23.797  1.00  0.00    -0.319 N 
ATOM      8  H3  UNL     1      17.203  14.599  23.341  1.00  0.00     0.170 HD
HETATM    9  C5  UNL     1      16.341  14.008  25.127  1.00  0.00     0.327 A 
HETATM   10  O1  UNL     1      17.369  14.207  25.825  1.00  0.00    -0.246 OA
ENDROOT
TORSDOF 0
ENDMDL
