MODEL 13
REMARK VINA RESULT: -3.765371275      4.763      5.486
REMARK  0 active torsions:
REMARK  status: ('A' for Active; 'I' for Inactive)
ROOT
HETATM    1  C1  UNL     1      15.034  13.325  26.856  1.00  0.00     0.162 C 
HETATM    2  N1  UNL     1      14.959  13.695  25.443  1.00  0.00    -0.292 N 
HETATM    3  C2  UNL     1      16.116  14.093  24.864  1.00  0.00     0.123 A 
HETATM    4  N2  UNL     1      17.318  14.138  25.618  1.00  0.00    -0.082 NA
HETATM    5  C3  UNL     1      16.123  14.457  23.531  1.00  0.00     0.062 A 
HETATM    6  C4  UNL     1      14.950  14.400  22.847  1.00  0.00     0.096 A 
HETATM    7  N3  UNL     1      13.795  13.999  23.433  1.00  0.00    -0.319 N 
ATOM      8  H3  UNL     1      12.925  13.963  22.902  1.00  0.00     0.170 HD
HETATM    9  C5  UNL     1      13.822  13.650  24.739  1.00  0.00     0.327 A 
HETATM   10  O1  UNL     1      12.771  13.273  25.320  1.00  0.00    -0.246 OA
ENDROOT
TORSDOF 0
ENDMDL
