MODEL 1
REMARK VINA RESULT: -4.494550515      0.000      0.000
REMARK  0 active torsions:
REMARK  status: ('A' for Active; 'I' for Inactive)
ROOT
HETATM    1  C1  UNL     1      16.252  14.772  22.072  1.00  0.00     0.162 C 
HETATM    2  N1  UNL     1      17.219  14.240  21.112  1.00  0.00    -0.292 N 
HETATM    3  C2  UNL     1      17.493  12.917  21.206  1.00  0.00     0.123 A 
HETATM    4  N2  UNL     1      16.857  12.120  22.195  1.00  0.00    -0.082 NA
HETATM    5  C3  UNL     1      18.396  12.343  20.333  1.00  0.00     0.062 A 
HETATM    6  C4  UNL     1      18.981  13.142  19.403  1.00  0.00     0.096 A 
HETATM    7  N3  UNL     1      18.703  14.466  19.314  1.00  0.00    -0.319 N 
ATOM      8  H3  UNL     1      19.153  15.048  18.608  1.00  0.00     0.170 HD
HETATM    9  C5  UNL     1      17.814  14.997  20.183  1.00  0.00     0.327 A 
HETATM   10  O1  UNL     1      17.528  16.222  20.135  1.00  0.00    -0.246 OA
ENDROOT
TORSDOF 0
ENDMDL
