MODEL 3
REMARK VINA RESULT: -10.001010644      1.657      4.120
REMARK  4 active torsions:
REMARK  status: ('A' for Active; 'I' for Inactive)
REMARK    1  A    between atoms: C6_7  and  C7_8 
REMARK    2  A    between atoms: C7_8  and  C8_9 
REMARK    3  A    between atoms: C7_8  and  C14_15 
REMARK    4  A    between atoms: C7_8  and  N1_21 
ROOT
HETATM    1  C7  UNL     1      29.505   2.170  32.564  1.00  0.00     0.121 C 
ENDROOT
BRANCH   1   2
HETATM    2  C6  UNL     1      28.355   1.842  31.694  1.00  0.00     0.002 A 
HETATM    3  C1  UNL     1      28.249   2.354  30.400  1.00  0.00     0.043 A 
HETATM    4 CL1  UNL     1      29.561   3.356  29.808  1.00  0.00    -0.084 Cl
HETATM    5  C2  UNL     1      27.173   2.053  29.611  1.00  0.00     0.024 A 
HETATM    6  C3  UNL     1      26.173   1.229  30.093  1.00  0.00     0.002 A 
HETATM    7  C4  UNL     1      26.250   0.710  31.358  1.00  0.00     0.001 A 
HETATM    8  C5  UNL     1      27.354   1.033  32.137  1.00  0.00     0.012 A 
ENDBRANCH   1   2
BRANCH   1   9
HETATM    9  C8  UNL     1      30.808   1.716  32.016  1.00  0.00    -0.020 A 
HETATM   10  C9  UNL     1      30.852   0.993  30.854  1.00  0.00     0.010 A 
HETATM   11  C10 UNL     1      32.081   0.563  30.345  1.00  0.00     0.001 A 
HETATM   12  C11 UNL     1      33.240   0.868  31.018  1.00  0.00     0.000 A 
HETATM   13  C12 UNL     1      33.197   1.592  32.184  1.00  0.00     0.001 A 
HETATM   14  C13 UNL     1      31.961   2.019  32.687  1.00  0.00     0.010 A 
ENDBRANCH   1   9
BRANCH   1  15
HETATM   15  C14 UNL     1      29.612   3.639  32.733  1.00  0.00    -0.020 A 
HETATM   16  C15 UNL     1      30.734   4.364  32.439  1.00  0.00     0.010 A 
HETATM   17  C16 UNL     1      30.763   5.753  32.603  1.00  0.00     0.001 A 
HETATM   18  C17 UNL     1      29.625   6.364  33.068  1.00  0.00     0.000 A 
HETATM   19  C18 UNL     1      28.485   5.648  33.370  1.00  0.00     0.001 A 
HETATM   20  C19 UNL     1      28.456   4.299  33.212  1.00  0.00     0.010 A 
ENDBRANCH   1  15
BRANCH   1  21
HETATM   21  N1  UNL     1      29.219   1.552  33.850  1.00  0.00    -0.329 N 
HETATM   22  C20 UNL     1      28.828   2.069  35.016  1.00  0.00     0.110 A 
HETATM   23  C21 UNL     1      28.722   1.068  35.965  1.00  0.00     0.106 A 
HETATM   24  N2  UNL     1      29.058  -0.072  35.348  1.00  0.00    -0.361 N 
HETATM   25  C22 UNL     1      29.359   0.212  34.073  1.00  0.00     0.184 A 
ATOM     26  H2  UNL     1      29.081  -0.998  35.776  1.00  0.00     0.166 HD
ENDBRANCH   1  21
TORSDOF 4
ENDMDL
