MODEL 10
REMARK VINA RESULT: -9.600271996      1.082      4.533
REMARK  4 active torsions:
REMARK  status: ('A' for Active; 'I' for Inactive)
REMARK    1  A    between atoms: C6_7  and  C7_8 
REMARK    2  A    between atoms: C7_8  and  C8_9 
REMARK    3  A    between atoms: C7_8  and  C14_15 
REMARK    4  A    between atoms: C7_8  and  N1_21 
ROOT
HETATM    1  C7  UNL     1      30.070   2.495  32.190  1.00  0.00     0.121 C 
ENDROOT
BRANCH   1   2
HETATM    2  C6  UNL     1      30.319   3.932  32.434  1.00  0.00     0.002 A 
HETATM    3  C1  UNL     1      29.297   4.791  32.844  1.00  0.00     0.043 A 
HETATM    4 CL1  UNL     1      27.711   4.097  33.123  1.00  0.00    -0.084 Cl
HETATM    5  C2  UNL     1      29.538   6.120  33.053  1.00  0.00     0.024 A 
HETATM    6  C3  UNL     1      30.808   6.630  32.861  1.00  0.00     0.002 A 
HETATM    7  C4  UNL     1      31.832   5.812  32.460  1.00  0.00     0.001 A 
HETATM    8  C5  UNL     1      31.558   4.466  32.254  1.00  0.00     0.012 A 
ENDBRANCH   1   2
BRANCH   1   9
HETATM    9  C8  UNL     1      29.646   1.755  33.404  1.00  0.00    -0.020 A 
HETATM   10  C9  UNL     1      29.504   2.412  34.597  1.00  0.00     0.010 A 
HETATM   11  C10 UNL     1      29.110   1.709  35.740  1.00  0.00     0.001 A 
HETATM   12  C11 UNL     1      28.869   0.358  35.657  1.00  0.00     0.000 A 
HETATM   13  C12 UNL     1      29.013  -0.302  34.463  1.00  0.00     0.001 A 
HETATM   14  C13 UNL     1      29.408   0.410  33.322  1.00  0.00     0.010 A 
ENDBRANCH   1   9
BRANCH   1  15
HETATM   15  C14 UNL     1      28.981   2.329  31.197  1.00  0.00    -0.020 A 
HETATM   16  C15 UNL     1      27.935   1.461  31.347  1.00  0.00     0.010 A 
HETATM   17  C16 UNL     1      26.927   1.366  30.381  1.00  0.00     0.001 A 
HETATM   18  C17 UNL     1      27.024   2.176  29.277  1.00  0.00     0.000 A 
HETATM   19  C18 UNL     1      28.073   3.057  29.110  1.00  0.00     0.001 A 
HETATM   20  C19 UNL     1      29.052   3.149  30.048  1.00  0.00     0.010 A 
ENDBRANCH   1  15
BRANCH   1  21
HETATM   21  N1  UNL     1      31.311   1.965  31.643  1.00  0.00    -0.329 N 
HETATM   22  C20 UNL     1      31.627   1.524  30.424  1.00  0.00     0.110 A 
HETATM   23  C21 UNL     1      32.937   1.083  30.407  1.00  0.00     0.106 A 
HETATM   24  N2  UNL     1      33.412   1.266  31.646  1.00  0.00    -0.361 N 
HETATM   25  C22 UNL     1      32.438   1.798  32.397  1.00  0.00     0.184 A 
ATOM     26  H2  UNL     1      34.355   1.040  31.963  1.00  0.00     0.166 HD
ENDBRANCH   1  21
TORSDOF 4
ENDMDL
