MODEL 20
REMARK VINA RESULT: -9.041092731      1.322      4.062
REMARK  4 active torsions:
REMARK  status: ('A' for Active; 'I' for Inactive)
REMARK    1  A    between atoms: C6_7  and  C7_8 
REMARK    2  A    between atoms: C7_8  and  C8_9 
REMARK    3  A    between atoms: C7_8  and  C14_15 
REMARK    4  A    between atoms: C7_8  and  N1_21 
ROOT
HETATM    1  C7  UNL     1      30.082   2.598  32.370  1.00  0.00     0.121 C 
ENDROOT
BRANCH   1   2
HETATM    2  C6  UNL     1      29.020   2.362  31.370  1.00  0.00     0.002 A 
HETATM    3  C1  UNL     1      28.574   1.073  31.069  1.00  0.00     0.043 A 
HETATM    4 CL1  UNL     1      29.274  -0.263  31.965  1.00  0.00    -0.084 Cl
HETATM    5  C2  UNL     1      27.600   0.867  30.132  1.00  0.00     0.024 A 
HETATM    6  C3  UNL     1      27.041   1.944  29.469  1.00  0.00     0.002 A 
HETATM    7  C4  UNL     1      27.457   3.220  29.744  1.00  0.00     0.001 A 
HETATM    8  C5  UNL     1      28.448   3.400  30.700  1.00  0.00     0.012 A 
ENDBRANCH   1   2
BRANCH   1   9
HETATM    9  C8  UNL     1      31.400   2.045  31.974  1.00  0.00    -0.020 A 
HETATM   10  C9  UNL     1      32.425   1.989  32.882  1.00  0.00     0.010 A 
HETATM   11  C10 UNL     1      33.667   1.472  32.503  1.00  0.00     0.001 A 
HETATM   12  C11 UNL     1      33.853   1.023  31.217  1.00  0.00     0.000 A 
HETATM   13  C12 UNL     1      32.828   1.080  30.306  1.00  0.00     0.001 A 
HETATM   14  C13 UNL     1      31.586   1.600  30.694  1.00  0.00     0.010 A 
ENDBRANCH   1   9
BRANCH   1  15
HETATM   15  C14 UNL     1      30.282   4.055  32.565  1.00  0.00    -0.020 A 
HETATM   16  C15 UNL     1      31.407   4.731  32.181  1.00  0.00     0.010 A 
HETATM   17  C16 UNL     1      31.526   6.112  32.375  1.00  0.00     0.001 A 
HETATM   18  C17 UNL     1      30.471   6.765  32.964  1.00  0.00     0.000 A 
HETATM   19  C18 UNL     1      29.329   6.098  33.358  1.00  0.00     0.001 A 
HETATM   20  C19 UNL     1      29.214   4.757  33.169  1.00  0.00     0.010 A 
ENDBRANCH   1  15
BRANCH   1  21
HETATM   21  N1  UNL     1      29.600   2.004  33.609  1.00  0.00    -0.329 N 
HETATM   22  C20 UNL     1      28.368   1.842  34.095  1.00  0.00     0.110 A 
HETATM   23  C21 UNL     1      28.428   1.248  35.343  1.00  0.00     0.106 A 
HETATM   24  N2  UNL     1      29.727   1.053  35.605  1.00  0.00    -0.361 N 
HETATM   25  C22 UNL     1      30.439   1.506  34.564  1.00  0.00     0.184 A 
ATOM     26  H2  UNL     1      30.108   0.631  36.451  1.00  0.00     0.166 HD
ENDBRANCH   1  21
TORSDOF 4
ENDMDL
