MODEL 5
REMARK VINA RESULT: -6.153898399      1.036      1.527
REMARK  4 active torsions:
REMARK  status: ('A' for Active; 'I' for Inactive)
REMARK    1  A    between atoms: C2_2  and  O1_3 
REMARK    2  A    between atoms: O1_3  and  C3_4 
REMARK    3  A    between atoms: C7_10  and  S1_11 
REMARK    4  A    between atoms: S1_11  and  N2_12 
ROOT
HETATM    1  C3  UNL     1      11.456   8.138  85.987  1.00  0.00     0.070 A 
HETATM    2  C4  UNL     1      11.800   7.127  85.112  1.00  0.00     0.039 A 
HETATM    3  C5  UNL     1      12.625   7.336  84.045  1.00  0.00     0.034 A 
HETATM    4  C6  UNL     1      13.180   8.596  83.766  1.00  0.00     0.051 A 
HETATM    5  N1  UNL     1      13.973   8.892  82.778  1.00  0.00    -0.339 N 
ATOM      6  H1  UNL     1      14.248   8.171  82.112  1.00  0.00     0.167 HD
HETATM    7  C7  UNL     1      14.420  10.126  82.639  1.00  0.00     0.192 A 
HETATM    8  S2  UNL     1      13.696  10.929  83.963  1.00  0.00    -0.057 SA
HETATM    9  C8  UNL     1      12.843   9.603  84.630  1.00  0.00     0.037 A 
HETATM   10  C9  UNL     1      11.997   9.390  85.726  1.00  0.00     0.058 A 
ENDROOT
BRANCH   7  11
HETATM   11  S1  UNL     1      15.498  10.767  81.388  1.00  0.00     0.279 S 
HETATM   12  O2  UNL     1      16.799  10.060  81.483  1.00  0.00    -0.199 OA
HETATM   13  O3  UNL     1      15.728  12.234  81.608  1.00  0.00    -0.199 OA
BRANCH  11  14
HETATM   14  N2  UNL     1      14.731  10.544  79.862  1.00  0.00    -0.323 N 
ATOM     15  H22 UNL     1      15.005  11.001  78.993  1.00  0.00     0.169 HD
ATOM     16  H21 UNL     1      13.964   9.883  79.990  1.00  0.00     0.169 HD
ENDBRANCH  11  14
ENDBRANCH   7  11
BRANCH   1  17
HETATM   17  O1  UNL     1      10.618   7.924  87.071  1.00  0.00    -0.351 OA
BRANCH  17  18
HETATM   18  C2  UNL     1       9.623   6.927  86.932  1.00  0.00     0.171 C 
HETATM   19  C1  UNL     1       8.234   7.498  87.055  1.00  0.00     0.034 C 
ENDBRANCH  17  18
ENDBRANCH   1  17
TORSDOF 4
ENDMDL
