MODEL 6
REMARK VINA RESULT: -6.128196135      0.947      1.145
REMARK  4 active torsions:
REMARK  status: ('A' for Active; 'I' for Inactive)
REMARK    1  A    between atoms: C2_2  and  O1_3 
REMARK    2  A    between atoms: O1_3  and  C3_4 
REMARK    3  A    between atoms: C7_10  and  S1_11 
REMARK    4  A    between atoms: S1_11  and  N2_12 
ROOT
HETATM    1  C3  UNL     1      11.722   8.785  86.081  1.00  0.00     0.070 A 
HETATM    2  C4  UNL     1      12.518   9.832  86.502  1.00  0.00     0.039 A 
HETATM    3  C5  UNL     1      13.408  10.449  85.673  1.00  0.00     0.034 A 
HETATM    4  C6  UNL     1      13.573  10.061  84.333  1.00  0.00     0.051 A 
HETATM    5  N1  UNL     1      14.392  10.586  83.469  1.00  0.00    -0.339 N 
ATOM      6  H1  UNL     1      14.996  11.361  83.744  1.00  0.00     0.167 HD
HETATM    7  C7  UNL     1      14.441  10.115  82.237  1.00  0.00     0.192 A 
HETATM    8  S2  UNL     1      13.277   8.864  82.277  1.00  0.00    -0.057 SA
HETATM    9  C8  UNL     1      12.787   9.023  83.909  1.00  0.00     0.037 A 
HETATM   10  C9  UNL     1      11.872   8.388  84.759  1.00  0.00     0.058 A 
ENDROOT
BRANCH   7  11
HETATM   11  S1  UNL     1      15.463  10.659  80.896  1.00  0.00     0.279 S 
HETATM   12  O2  UNL     1      16.751   9.925  80.961  1.00  0.00    -0.199 OA
HETATM   13  O3  UNL     1      15.738  12.130  81.021  1.00  0.00    -0.199 OA
BRANCH  11  14
HETATM   14  N2  UNL     1      14.608  10.373  79.429  1.00  0.00    -0.323 N 
ATOM     15  H22 UNL     1      13.596  10.284  79.345  1.00  0.00     0.169 HD
ATOM     16  H21 UNL     1      15.292  10.311  78.674  1.00  0.00     0.169 HD
ENDBRANCH  11  14
ENDBRANCH   7  11
BRANCH   1  17
HETATM   17  O1  UNL     1      10.816   8.158  86.925  1.00  0.00    -0.351 OA
BRANCH  17  18
HETATM   18  C2  UNL     1      11.187   6.895  87.446  1.00  0.00     0.171 C 
HETATM   19  C1  UNL     1      11.817   7.012  88.810  1.00  0.00     0.034 C 
ENDBRANCH  17  18
ENDBRANCH   1  17
TORSDOF 4
ENDMDL
