MODEL 11
REMARK VINA RESULT: -5.922004705      4.445      5.085
REMARK  4 active torsions:
REMARK  status: ('A' for Active; 'I' for Inactive)
REMARK    1  A    between atoms: C2_2  and  O1_3 
REMARK    2  A    between atoms: O1_3  and  C3_4 
REMARK    3  A    between atoms: C7_10  and  S1_11 
REMARK    4  A    between atoms: S1_11  and  N2_12 
ROOT
HETATM    1  C3  UNL     1      13.364   4.152  81.695  1.00  0.00     0.070 A 
HETATM    2  C4  UNL     1      14.425   4.313  82.563  1.00  0.00     0.039 A 
HETATM    3  C5  UNL     1      15.074   5.505  82.707  1.00  0.00     0.034 A 
HETATM    4  C6  UNL     1      14.705   6.648  81.979  1.00  0.00     0.051 A 
HETATM    5  N1  UNL     1      15.260   7.823  82.047  1.00  0.00    -0.339 N 
ATOM      6  H1  UNL     1      16.046   7.980  82.677  1.00  0.00     0.167 HD
HETATM    7  C7  UNL     1      14.805   8.811  81.299  1.00  0.00     0.192 A 
HETATM    8  S2  UNL     1      13.524   8.065  80.447  1.00  0.00    -0.057 SA
HETATM    9  C8  UNL     1      13.653   6.495  81.116  1.00  0.00     0.037 A 
HETATM   10  C9  UNL     1      12.985   5.272  80.968  1.00  0.00     0.058 A 
ENDROOT
BRANCH   7  11
HETATM   11  S1  UNL     1      15.389  10.481  81.216  1.00  0.00     0.279 S 
HETATM   12  O2  UNL     1      16.845  10.483  81.498  1.00  0.00    -0.199 OA
HETATM   13  O3  UNL     1      14.696  11.322  82.249  1.00  0.00    -0.199 OA
BRANCH  11  14
HETATM   14  N2  UNL     1      15.014  11.097  79.651  1.00  0.00    -0.323 N 
ATOM     15  H22 UNL     1      15.130  10.588  78.775  1.00  0.00     0.169 HD
ATOM     16  H21 UNL     1      14.662  12.047  79.764  1.00  0.00     0.169 HD
ENDBRANCH  11  14
ENDBRANCH   7  11
BRANCH   1  17
HETATM   17  O1  UNL     1      12.705   2.939  81.550  1.00  0.00    -0.351 OA
BRANCH  17  18
HETATM   18  C2  UNL     1      12.940   1.954  82.539  1.00  0.00     0.171 C 
HETATM   19  C1  UNL     1      13.561   0.711  81.957  1.00  0.00     0.034 C 
ENDBRANCH  17  18
ENDBRANCH   1  17
TORSDOF 4
ENDMDL
