MODEL 2
REMARK VINA RESULT: -6.249121636      4.326      4.573
REMARK  4 active torsions:
REMARK  status: ('A' for Active; 'I' for Inactive)
REMARK    1  A    between atoms: C2_2  and  O1_3 
REMARK    2  A    between atoms: O1_3  and  C3_4 
REMARK    3  A    between atoms: C7_10  and  S1_11 
REMARK    4  A    between atoms: S1_11  and  N2_12 
ROOT
HETATM    1  C3  UNL     1      13.480   5.391  82.116  1.00  0.00     0.070 A 
HETATM    2  C4  UNL     1      14.674   5.692  82.740  1.00  0.00     0.039 A 
HETATM    3  C5  UNL     1      15.379   6.825  82.455  1.00  0.00     0.034 A 
HETATM    4  C6  UNL     1      14.936   7.761  81.506  1.00  0.00     0.051 A 
HETATM    5  N1  UNL     1      15.535   8.865  81.167  1.00  0.00    -0.339 N 
ATOM      6  H1  UNL     1      16.420   9.121  81.607  1.00  0.00     0.167 HD
HETATM    7  C7  UNL     1      14.999   9.653  80.255  1.00  0.00     0.192 A 
HETATM    8  S2  UNL     1      13.571   8.811  79.838  1.00  0.00    -0.057 SA
HETATM    9  C8  UNL     1      13.752   7.468  80.884  1.00  0.00     0.037 A 
HETATM   10  C9  UNL     1      13.027   6.306  81.176  1.00  0.00     0.058 A 
ENDROOT
BRANCH   7  11
HETATM   11  S1  UNL     1      15.620  11.191  79.633  1.00  0.00     0.279 S 
HETATM   12  O2  UNL     1      16.941  10.944  79.005  1.00  0.00    -0.199 OA
HETATM   13  O3  UNL     1      15.795  12.170  80.758  1.00  0.00    -0.199 OA
BRANCH  11  14
HETATM   14  N2  UNL     1      14.464  11.819  78.522  1.00  0.00    -0.323 N 
ATOM     15  H22 UNL     1      13.989  11.280  77.798  1.00  0.00     0.169 HD
ATOM     16  H21 UNL     1      14.346  12.813  78.719  1.00  0.00     0.169 HD
ENDBRANCH  11  14
ENDBRANCH   7  11
BRANCH   1  17
HETATM   17  O1  UNL     1      12.764   4.238  82.408  1.00  0.00    -0.351 OA
BRANCH  17  18
HETATM   18  C2  UNL     1      13.258   3.020  81.883  1.00  0.00     0.171 C 
HETATM   19  C1  UNL     1      12.193   1.955  81.835  1.00  0.00     0.034 C 
ENDBRANCH  17  18
ENDBRANCH   1  17
TORSDOF 4
ENDMDL
