MODEL 1
REMARK VINA RESULT: -6.377887156      0.000      0.000
REMARK  4 active torsions:
REMARK  status: ('A' for Active; 'I' for Inactive)
REMARK    1  A    between atoms: C2_2  and  O1_3 
REMARK    2  A    between atoms: O1_3  and  C3_4 
REMARK    3  A    between atoms: C7_10  and  S1_11 
REMARK    4  A    between atoms: S1_11  and  N2_12 
ROOT
HETATM    1  C3  UNL     1      11.646   8.526  86.180  1.00  0.00     0.070 A 
HETATM    2  C4  UNL     1      12.496   9.486  86.693  1.00  0.00     0.039 A 
HETATM    3  C5  UNL     1      13.422  10.126  85.921  1.00  0.00     0.034 A 
HETATM    4  C6  UNL     1      13.571   9.850  84.552  1.00  0.00     0.051 A 
HETATM    5  N1  UNL     1      14.420  10.406  83.737  1.00  0.00    -0.339 N 
ATOM      6  H1  UNL     1      15.064  11.119  84.080  1.00  0.00     0.167 HD
HETATM    7  C7  UNL     1      14.448  10.046  82.468  1.00  0.00     0.192 A 
HETATM    8  S2  UNL     1      13.218   8.861  82.397  1.00  0.00    -0.057 SA
HETATM    9  C8  UNL     1      12.731   8.900  84.037  1.00  0.00     0.037 A 
HETATM   10  C9  UNL     1      11.780   8.242  84.827  1.00  0.00     0.058 A 
ENDROOT
BRANCH   7  11
HETATM   11  S1  UNL     1      15.504  10.651  81.180  1.00  0.00     0.279 S 
HETATM   12  O2  UNL     1      16.823   9.984  81.302  1.00  0.00    -0.199 OA
HETATM   13  O3  UNL     1      15.696  12.133  81.325  1.00  0.00    -0.199 OA
BRANCH  11  14
HETATM   14  N2  UNL     1      14.735  10.332  79.672  1.00  0.00    -0.323 N 
ATOM     15  H22 UNL     1      15.200   9.972  78.839  1.00  0.00     0.169 HD
ATOM     16  H21 UNL     1      13.747  10.567  79.766  1.00  0.00     0.169 HD
ENDBRANCH  11  14
ENDBRANCH   7  11
BRANCH   1  17
HETATM   17  O1  UNL     1      10.705   7.876  86.966  1.00  0.00    -0.351 OA
BRANCH  17  18
HETATM   18  C2  UNL     1       9.628   7.247  86.296  1.00  0.00     0.171 C 
HETATM   19  C1  UNL     1       8.311   7.511  86.979  1.00  0.00     0.034 C 
ENDBRANCH  17  18
ENDBRANCH   1  17
TORSDOF 4
ENDMDL
