MODEL 3
REMARK VINA RESULT: -6.247578249      4.318      4.865
REMARK  4 active torsions:
REMARK  status: ('A' for Active; 'I' for Inactive)
REMARK    1  A    between atoms: C2_2  and  O1_3 
REMARK    2  A    between atoms: O1_3  and  C3_4 
REMARK    3  A    between atoms: C7_10  and  S1_11 
REMARK    4  A    between atoms: S1_11  and  N2_12 
ROOT
HETATM    1  C3  UNL     1      13.505   5.729  82.099  1.00  0.00     0.070 A 
HETATM    2  C4  UNL     1      12.634   6.052  81.077  1.00  0.00     0.039 A 
HETATM    3  C5  UNL     1      12.805   7.159  80.297  1.00  0.00     0.034 A 
HETATM    4  C6  UNL     1      13.880   8.043  80.482  1.00  0.00     0.051 A 
HETATM    5  N1  UNL     1      14.127   9.119  79.793  1.00  0.00    -0.339 N 
ATOM      6  H1  UNL     1      13.506   9.390  79.031  1.00  0.00     0.167 HD
HETATM    7  C7  UNL     1      15.181   9.860  80.082  1.00  0.00     0.192 A 
HETATM    8  S2  UNL     1      15.876   9.011  81.392  1.00  0.00    -0.057 SA
HETATM    9  C8  UNL     1      14.747   7.729  81.494  1.00  0.00     0.037 A 
HETATM   10  C9  UNL     1      14.574   6.593  82.296  1.00  0.00     0.058 A 
ENDROOT
BRANCH   7  11
HETATM   11  S1  UNL     1      15.719  11.353  79.295  1.00  0.00     0.279 S 
HETATM   12  O2  UNL     1      16.984  11.073  78.574  1.00  0.00    -0.199 OA
HETATM   13  O3  UNL     1      15.974  12.415  80.325  1.00  0.00    -0.199 OA
BRANCH  11  14
HETATM   14  N2  UNL     1      14.460  11.883  78.246  1.00  0.00    -0.323 N 
ATOM     15  H22 UNL     1      13.513  12.123  78.538  1.00  0.00     0.169 HD
ATOM     16  H21 UNL     1      14.832  11.910  77.297  1.00  0.00     0.169 HD
ENDBRANCH  11  14
ENDBRANCH   7  11
BRANCH   1  17
HETATM   17  O1  UNL     1      13.330   4.603  82.891  1.00  0.00    -0.351 OA
BRANCH  17  18
HETATM   18  C2  UNL     1      13.320   3.348  82.236  1.00  0.00     0.171 C 
HETATM   19  C1  UNL     1      14.711   2.884  81.890  1.00  0.00     0.034 C 
ENDBRANCH  17  18
ENDBRANCH   1  17
TORSDOF 4
ENDMDL
