MODEL 3
REMARK VINA RESULT: -8.317057803      0.405      1.157
REMARK  4 active torsions:
REMARK  status: ('A' for Active; 'I' for Inactive)
REMARK    1  A    between atoms: C5_5  and  C6_6 
REMARK    2  A    between atoms: C11_11  and  C12_12 
REMARK    3  A    between atoms: C14_14  and  C15_15 
REMARK    4  A    between atoms: C21_22  and  C22_23 
ROOT
HETATM    1  C12 UNL     1      77.206  32.771 -10.437  1.00  0.00    -0.000 A 
HETATM    2  C13 UNL     1      75.950  32.626  -9.990  1.00  0.00     0.033 A 
HETATM    3  C14 UNL     1      75.745  31.822  -8.899  1.00  0.00     0.017 A 
HETATM    4  S1  UNL     1      77.301  31.281  -8.517  1.00  0.00    -0.082 SA
HETATM    5  C21 UNL     1      78.190  32.074  -9.734  1.00  0.00     0.093 A 
ENDROOT
BRANCH   1   6
HETATM    6  C11 UNL     1      77.638  33.518 -11.625  1.00  0.00    -0.018 A 
HETATM    7  C6  UNL     1      77.906  34.841 -11.623  1.00  0.00    -0.043 A 
HETATM    8  C7  UNL     1      78.330  35.426 -12.827  1.00  0.00     0.008 A 
HETATM    9  C8  UNL     1      78.477  34.704 -13.994  1.00  0.00     0.001 A 
HETATM   10  C9  UNL     1      78.199  33.361 -13.977  1.00  0.00     0.001 A 
HETATM   11  C10 UNL     1      77.785  32.775 -12.810  1.00  0.00     0.013 A 
BRANCH   7  12
HETATM   12  C5  UNL     1      77.718  35.680 -10.436  1.00  0.00     0.019 C 
HETATM   13  C4  UNL     1      78.609  36.893 -10.368  1.00  0.00     0.010 C 
HETATM   14  C3  UNL     1      78.116  37.692  -9.149  1.00  0.00     0.005 C 
HETATM   15  C2  UNL     1      76.918  38.497  -9.630  1.00  0.00    -0.019 C 
HETATM   16  C1  UNL     1      75.946  38.796  -8.524  1.00  0.00     0.010 C 
HETATM   17  C24 UNL     1      76.308  37.727 -10.774  1.00  0.00     0.005 C 
HETATM   18  C23 UNL     1      76.286  36.269 -10.436  1.00  0.00     0.010 C 
ENDBRANCH   7  12
ENDBRANCH   1   6
BRANCH   5  19
HETATM   19  C22 UNL     1      79.653  32.059  -9.968  1.00  0.00     0.217 C 
HETATM   20  O1  UNL     1      80.289  31.105 -10.418  1.00  0.00    -0.643 OA
HETATM   21  O2  UNL     1      80.354  33.226  -9.647  1.00  0.00    -0.643 OA
ENDBRANCH   5  19
BRANCH   3  22
HETATM   22  C15 UNL     1      74.500  31.495  -8.213  1.00  0.00    -0.019 A 
HETATM   23  C16 UNL     1      73.334  32.155  -8.549  1.00  0.00     0.013 A 
HETATM   24  C17 UNL     1      72.128  31.887  -7.932  1.00  0.00     0.001 A 
HETATM   25  C18 UNL     1      72.080  30.929  -6.944  1.00  0.00     0.000 A 
HETATM   26  C19 UNL     1      73.235  30.258  -6.594  1.00  0.00     0.001 A 
HETATM   27  C20 UNL     1      74.442  30.542  -7.228  1.00  0.00     0.013 A 
ENDBRANCH   3  22
TORSDOF 4
ENDMDL
