MODEL 6
REMARK VINA RESULT: -7.117904698      2.882      6.261
REMARK  4 active torsions:
REMARK  status: ('A' for Active; 'I' for Inactive)
REMARK    1  A    between atoms: C5_5  and  C6_6 
REMARK    2  A    between atoms: C11_11  and  C12_12 
REMARK    3  A    between atoms: C14_14  and  C15_15 
REMARK    4  A    between atoms: C21_22  and  C22_23 
ROOT
HETATM    1  C12 UNL     1      78.971  34.935 -12.099  1.00  0.00    -0.000 A 
HETATM    2  C13 UNL     1      78.400  35.523 -11.038  1.00  0.00     0.033 A 
HETATM    3  C14 UNL     1      77.630  36.636 -11.257  1.00  0.00     0.017 A 
HETATM    4  S1  UNL     1      77.716  36.843 -12.933  1.00  0.00    -0.082 SA
HETATM    5  C21 UNL     1      78.719  35.528 -13.337  1.00  0.00     0.093 A 
ENDROOT
BRANCH   1   6
HETATM    6  C11 UNL     1      79.888  33.788 -12.083  1.00  0.00    -0.018 A 
HETATM    7  C6  UNL     1      79.528  32.545 -11.698  1.00  0.00    -0.043 A 
HETATM    8  C7  UNL     1      80.503  31.535 -11.752  1.00  0.00     0.008 A 
HETATM    9  C8  UNL     1      81.794  31.768 -12.176  1.00  0.00     0.001 A 
HETATM   10  C9  UNL     1      82.142  33.038 -12.562  1.00  0.00     0.001 A 
HETATM   11  C10 UNL     1      81.203  34.034 -12.517  1.00  0.00     0.013 A 
BRANCH   7  12
HETATM   12  C5  UNL     1      78.191  32.237 -11.183  1.00  0.00     0.019 C 
HETATM   13  C4  UNL     1      77.769  30.799 -11.334  1.00  0.00     0.010 C 
HETATM   14  C3  UNL     1      76.432  30.686 -10.580  1.00  0.00     0.005 C 
HETATM   15  C2  UNL     1      76.791  30.513  -9.112  1.00  0.00    -0.019 C 
HETATM   16  C1  UNL     1      75.718  31.030  -8.194  1.00  0.00     0.010 C 
HETATM   17  C24 UNL     1      78.127  31.181  -8.909  1.00  0.00     0.005 C 
HETATM   18  C23 UNL     1      78.153  32.478  -9.655  1.00  0.00     0.010 C 
ENDBRANCH   7  12
ENDBRANCH   1   6
BRANCH   5  19
HETATM   19  C22 UNL     1      79.181  35.096 -14.677  1.00  0.00     0.217 C 
HETATM   20  O1  UNL     1      78.800  34.084 -15.266  1.00  0.00    -0.643 OA
HETATM   21  O2  UNL     1      80.126  35.911 -15.309  1.00  0.00    -0.643 OA
ENDBRANCH   5  19
BRANCH   3  22
HETATM   22  C15 UNL     1      76.902  37.459 -10.298  1.00  0.00    -0.019 A 
HETATM   23  C16 UNL     1      75.559  37.227 -10.069  1.00  0.00     0.013 A 
HETATM   24  C17 UNL     1      74.821  37.975  -9.175  1.00  0.00     0.001 A 
HETATM   25  C18 UNL     1      75.439  38.993  -8.483  1.00  0.00     0.000 A 
HETATM   26  C19 UNL     1      76.780  39.240  -8.697  1.00  0.00     0.001 A 
HETATM   27  C20 UNL     1      77.508  38.474  -9.604  1.00  0.00     0.013 A 
ENDBRANCH   3  22
TORSDOF 4
ENDMDL
