MODEL 2
REMARK VINA RESULT: -8.490238954      0.789      1.008
REMARK  4 active torsions:
REMARK  status: ('A' for Active; 'I' for Inactive)
REMARK    1  A    between atoms: C5_5  and  C6_6 
REMARK    2  A    between atoms: C11_11  and  C12_12 
REMARK    3  A    between atoms: C14_14  and  C15_15 
REMARK    4  A    between atoms: C21_22  and  C22_23 
ROOT
HETATM    1  C12 UNL     1      77.327  32.871 -10.314  1.00  0.00    -0.000 A 
HETATM    2  C13 UNL     1      76.000  32.715 -10.191  1.00  0.00     0.033 A 
HETATM    3  C14 UNL     1      75.540  31.898  -9.190  1.00  0.00     0.017 A 
HETATM    4  S1  UNL     1      76.958  31.362  -8.442  1.00  0.00    -0.082 SA
HETATM    5  C21 UNL     1      78.113  32.173  -9.396  1.00  0.00     0.093 A 
ENDROOT
BRANCH   1   6
HETATM    6  C11 UNL     1      78.032  33.633 -11.353  1.00  0.00    -0.018 A 
HETATM    7  C6  UNL     1      78.298  34.953 -11.264  1.00  0.00    -0.043 A 
HETATM    8  C7  UNL     1      78.999  35.552 -12.323  1.00  0.00     0.008 A 
HETATM    9  C8  UNL     1      79.415  34.848 -13.434  1.00  0.00     0.001 A 
HETATM   10  C9  UNL     1      79.133  33.507 -13.507  1.00  0.00     0.001 A 
HETATM   11  C10 UNL     1      78.451  32.907 -12.482  1.00  0.00     0.013 A 
BRANCH   7  12
HETATM   12  C5  UNL     1      77.839  35.775 -10.141  1.00  0.00     0.019 C 
HETATM   13  C4  UNL     1      78.642  37.026  -9.899  1.00  0.00     0.010 C 
HETATM   14  C3  UNL     1      77.880  37.794  -8.806  1.00  0.00     0.005 C 
HETATM   15  C2  UNL     1      76.768  38.548  -9.519  1.00  0.00    -0.019 C 
HETATM   16  C1  UNL     1      75.581  38.796  -8.630  1.00  0.00     0.010 C 
HETATM   17  C24 UNL     1      76.434  37.759 -10.760  1.00  0.00     0.005 C 
HETATM   18  C23 UNL     1      76.411  36.299 -10.429  1.00  0.00     0.010 C 
ENDBRANCH   7  12
ENDBRANCH   1   6
BRANCH   5  19
HETATM   19  C22 UNL     1      79.589  32.168  -9.262  1.00  0.00     0.217 C 
HETATM   20  O1  UNL     1      80.260  33.082  -8.784  1.00  0.00    -0.643 OA
HETATM   21  O2  UNL     1      80.257  31.029  -9.722  1.00  0.00    -0.643 OA
ENDBRANCH   5  19
BRANCH   3  22
HETATM   22  C15 UNL     1      74.166  31.557  -8.835  1.00  0.00    -0.019 A 
HETATM   23  C16 UNL     1      73.511  30.545  -9.509  1.00  0.00     0.013 A 
HETATM   24  C17 UNL     1      72.212  30.181  -9.216  1.00  0.00     0.001 A 
HETATM   25  C18 UNL     1      71.540  30.849  -8.216  1.00  0.00     0.000 A 
HETATM   26  C19 UNL     1      72.178  31.863  -7.531  1.00  0.00     0.001 A 
HETATM   27  C20 UNL     1      73.489  32.215  -7.842  1.00  0.00     0.013 A 
ENDBRANCH   3  22
TORSDOF 4
ENDMDL
