MODEL 5
REMARK VINA RESULT: -7.176655433      4.883      7.072
REMARK  4 active torsions:
REMARK  status: ('A' for Active; 'I' for Inactive)
REMARK    1  A    between atoms: C5_5  and  C6_6 
REMARK    2  A    between atoms: C11_11  and  C12_12 
REMARK    3  A    between atoms: C14_14  and  C15_15 
REMARK    4  A    between atoms: C21_22  and  C22_23 
ROOT
HETATM    1  C12 UNL     1      79.236  36.694 -13.167  1.00  0.00    -0.000 A 
HETATM    2  C13 UNL     1      78.963  37.071 -11.909  1.00  0.00     0.033 A 
HETATM    3  C14 UNL     1      77.657  37.338 -11.587  1.00  0.00     0.017 A 
HETATM    4  S1  UNL     1      76.835  37.062 -13.038  1.00  0.00    -0.082 SA
HETATM    5  C21 UNL     1      78.143  36.614 -14.032  1.00  0.00     0.093 A 
ENDROOT
BRANCH   1   6
HETATM    6  C11 UNL     1      80.562  36.436 -13.742  1.00  0.00    -0.018 A 
HETATM    7  C6  UNL     1      81.081  35.200 -13.903  1.00  0.00    -0.043 A 
HETATM    8  C7  UNL     1      82.355  35.096 -14.486  1.00  0.00     0.008 A 
HETATM    9  C8  UNL     1      83.081  36.197 -14.890  1.00  0.00     0.001 A 
HETATM   10  C9  UNL     1      82.537  37.444 -14.717  1.00  0.00     0.001 A 
HETATM   11  C10 UNL     1      81.295  37.563 -14.151  1.00  0.00     0.013 A 
BRANCH   7  12
HETATM   12  C5  UNL     1      80.392  33.991 -13.446  1.00  0.00     0.019 C 
HETATM   13  C4  UNL     1      80.584  32.780 -14.323  1.00  0.00     0.010 C 
HETATM   14  C3  UNL     1      79.923  31.618 -13.561  1.00  0.00     0.005 C 
HETATM   15  C2  UNL     1      80.950  31.145 -12.543  1.00  0.00    -0.019 C 
HETATM   16  C1  UNL     1      80.312  30.522 -11.333  1.00  0.00     0.010 C 
HETATM   17  C24 UNL     1      81.819  32.333 -12.218  1.00  0.00     0.005 C 
HETATM   18  C23 UNL     1      80.962  33.553 -12.076  1.00  0.00     0.010 C 
ENDBRANCH   7  12
ENDBRANCH   1   6
BRANCH   5  19
HETATM   19  C22 UNL     1      78.123  36.204 -15.456  1.00  0.00     0.217 C 
HETATM   20  O1  UNL     1      78.333  36.951 -16.412  1.00  0.00    -0.643 OA
HETATM   21  O2  UNL     1      77.840  34.859 -15.719  1.00  0.00    -0.643 OA
ENDBRANCH   5  19
BRANCH   3  22
HETATM   22  C15 UNL     1      77.088  37.757 -10.311  1.00  0.00    -0.019 A 
HETATM   23  C16 UNL     1      75.719  37.747 -10.130  1.00  0.00     0.013 A 
HETATM   24  C17 UNL     1      75.126  38.135  -8.945  1.00  0.00     0.001 A 
HETATM   25  C18 UNL     1      75.924  38.549  -7.902  1.00  0.00     0.000 A 
HETATM   26  C19 UNL     1      77.295  38.566  -8.063  1.00  0.00     0.001 A 
HETATM   27  C20 UNL     1      77.874  38.171  -9.266  1.00  0.00     0.013 A 
ENDBRANCH   3  22
TORSDOF 4
ENDMDL
