MODEL 1
REMARK VINA RESULT: -8.874631487      0.000      0.000
REMARK  4 active torsions:
REMARK  status: ('A' for Active; 'I' for Inactive)
REMARK    1  A    between atoms: C5_5  and  C6_6 
REMARK    2  A    between atoms: C11_11  and  C12_12 
REMARK    3  A    between atoms: C14_14  and  C15_15 
REMARK    4  A    between atoms: C21_22  and  C22_23 
ROOT
HETATM    1  C12 UNL     1      76.993  32.791 -10.105  1.00  0.00    -0.000 A 
HETATM    2  C13 UNL     1      75.715  32.660  -9.722  1.00  0.00     0.033 A 
HETATM    3  C14 UNL     1      75.451  31.901  -8.611  1.00  0.00     0.017 A 
HETATM    4  S1  UNL     1      76.984  31.383  -8.122  1.00  0.00    -0.082 SA
HETATM    5  C21 UNL     1      77.938  32.129  -9.320  1.00  0.00     0.093 A 
ENDROOT
BRANCH   1   6
HETATM    6  C11 UNL     1      77.489  33.491 -11.297  1.00  0.00    -0.018 A 
HETATM    7  C6  UNL     1      77.781  34.808 -11.327  1.00  0.00    -0.043 A 
HETATM    8  C7  UNL     1      78.267  35.344 -12.531  1.00  0.00     0.008 A 
HETATM    9  C8  UNL     1      78.449  34.582 -13.666  1.00  0.00     0.001 A 
HETATM   10  C9  UNL     1      78.145  33.245 -13.617  1.00  0.00     0.001 A 
HETATM   11  C10 UNL     1      77.671  32.706 -12.450  1.00  0.00     0.013 A 
BRANCH   7  12
HETATM   12  C5  UNL     1      77.559  35.690 -10.178  1.00  0.00     0.019 C 
HETATM   13  C4  UNL     1      78.473  36.886 -10.109  1.00  0.00     0.010 C 
HETATM   14  C3  UNL     1      77.944  37.734  -8.939  1.00  0.00     0.005 C 
HETATM   15  C2  UNL     1      76.787  38.547  -9.500  1.00  0.00    -0.019 C 
HETATM   16  C1  UNL     1      75.773  38.903  -8.448  1.00  0.00     0.010 C 
HETATM   17  C24 UNL     1      76.211  37.752 -10.644  1.00  0.00     0.005 C 
HETATM   18  C23 UNL     1      76.142  36.307 -10.261  1.00  0.00     0.010 C 
ENDBRANCH   7  12
ENDBRANCH   1   6
BRANCH   5  19
HETATM   19  C22 UNL     1      79.412  32.109  -9.472  1.00  0.00     0.217 C 
HETATM   20  O1  UNL     1      80.186  32.933  -8.984  1.00  0.00    -0.643 OA
HETATM   21  O2  UNL     1      79.952  31.068 -10.234  1.00  0.00    -0.643 OA
ENDBRANCH   5  19
BRANCH   3  22
HETATM   22  C15 UNL     1      74.170  31.597  -7.982  1.00  0.00    -0.019 A 
HETATM   23  C16 UNL     1      74.132  30.842  -6.826  1.00  0.00     0.013 A 
HETATM   24  C17 UNL     1      72.949  30.524  -6.189  1.00  0.00     0.001 A 
HETATM   25  C18 UNL     1      71.761  30.972  -6.722  1.00  0.00     0.000 A 
HETATM   26  C19 UNL     1      71.779  31.728  -7.877  1.00  0.00     0.001 A 
HETATM   27  C20 UNL     1      72.982  32.038  -8.504  1.00  0.00     0.013 A 
ENDBRANCH   3  22
TORSDOF 4
ENDMDL
