MODEL 4
REMARK VINA RESULT: -7.332045744      2.152      6.103
REMARK  4 active torsions:
REMARK  status: ('A' for Active; 'I' for Inactive)
REMARK    1  A    between atoms: C5_5  and  C6_6 
REMARK    2  A    between atoms: C11_11  and  C12_12 
REMARK    3  A    between atoms: C14_14  and  C15_15 
REMARK    4  A    between atoms: C21_22  and  C22_23 
ROOT
HETATM    1  C12 UNL     1      78.238  33.836 -10.970  1.00  0.00    -0.000 A 
HETATM    2  C13 UNL     1      77.758  34.734 -10.097  1.00  0.00     0.033 A 
HETATM    3  C14 UNL     1      77.325  35.939 -10.587  1.00  0.00     0.017 A 
HETATM    4  S1  UNL     1      77.595  35.801 -12.250  1.00  0.00    -0.082 SA
HETATM    5  C21 UNL     1      78.247  34.229 -12.309  1.00  0.00     0.093 A 
ENDROOT
BRANCH   1   6
HETATM    6  C11 UNL     1      78.819  32.525 -10.656  1.00  0.00    -0.018 A 
HETATM    7  C6  UNL     1      78.088  31.443 -10.312  1.00  0.00    -0.043 A 
HETATM    8  C7  UNL     1      78.772  30.244 -10.056  1.00  0.00     0.008 A 
HETATM    9  C8  UNL     1      80.145  30.138 -10.142  1.00  0.00     0.001 A 
HETATM   10  C9  UNL     1      80.871  31.248 -10.491  1.00  0.00     0.001 A 
HETATM   11  C10 UNL     1      80.219  32.425 -10.745  1.00  0.00     0.013 A 
BRANCH   7  12
HETATM   12  C5  UNL     1      76.632  31.497 -10.147  1.00  0.00     0.019 C 
HETATM   13  C4  UNL     1      75.929  30.172 -10.282  1.00  0.00     0.010 C 
HETATM   14  C3  UNL     1      74.463  30.449  -9.904  1.00  0.00     0.005 C 
HETATM   15  C2  UNL     1      74.408  30.417  -8.384  1.00  0.00    -0.019 C 
HETATM   16  C1  UNL     1      73.302  31.271  -7.831  1.00  0.00     0.010 C 
HETATM   17  C24 UNL     1      75.776  30.814  -7.890  1.00  0.00     0.005 C 
HETATM   18  C23 UNL     1      76.288  31.957  -8.709  1.00  0.00     0.010 C 
ENDBRANCH   7  12
ENDBRANCH   1   6
BRANCH   5  19
HETATM   19  C22 UNL     1      78.685  33.454 -13.494  1.00  0.00     0.217 C 
HETATM   20  O1  UNL     1      79.779  33.566 -14.049  1.00  0.00    -0.643 OA
HETATM   21  O2  UNL     1      77.774  32.528 -14.011  1.00  0.00    -0.643 OA
ENDBRANCH   5  19
BRANCH   3  22
HETATM   22  C15 UNL     1      76.763  37.080  -9.872  1.00  0.00    -0.019 A 
HETATM   23  C16 UNL     1      75.394  37.200  -9.733  1.00  0.00     0.013 A 
HETATM   24  C17 UNL     1      74.808  38.258  -9.068  1.00  0.00     0.001 A 
HETATM   25  C18 UNL     1      75.613  39.233  -8.521  1.00  0.00     0.000 A 
HETATM   26  C19 UNL     1      76.984  39.130  -8.648  1.00  0.00     0.001 A 
HETATM   27  C20 UNL     1      77.556  38.055  -9.323  1.00  0.00     0.013 A 
ENDBRANCH   3  22
TORSDOF 4
ENDMDL
