MODEL 7
REMARK VINA RESULT: -6.395393333      1.192      1.416
REMARK  5 active torsions:
REMARK  status: ('A' for Active; 'I' for Inactive)
REMARK    1  A    between atoms: C3_6  and  C4_7 
REMARK    2  A    between atoms: C4_7  and  C5_8 
REMARK    3  A    between atoms: C5_8  and  C6_9 
REMARK    4  A    between atoms: C6_9  and  N3_10 
REMARK    5  A    between atoms: C6_9  and  C7_14 
ROOT
HETATM    1  C4  UNL     1     -19.245  15.209  -4.312  1.00  0.00     0.061 C 
ENDROOT
BRANCH   1   2
HETATM    2  C3  UNL     1     -19.500  13.948  -5.048  1.00  0.00     0.027 A 
HETATM    3  C2  UNL     1     -18.814  13.638  -6.239  1.00  0.00     0.115 A 
HETATM    4  N2  UNL     1     -19.259  12.434  -6.607  1.00  0.00    -0.339 N 
HETATM    5  C1  UNL     1     -20.162  12.013  -5.710  1.00  0.00     0.192 A 
ATOM      6  H2  UNL     1     -18.960  11.919  -7.435  1.00  0.00     0.168 HD
HETATM    7  N1  UNL     1     -20.851  10.786  -5.761  1.00  0.00    -0.063 NA
HETATM    8  N4  UNL     1     -20.319  12.943  -4.741  1.00  0.00    -0.333 N 
ATOM      9  H4  UNL     1     -20.941  12.886  -3.935  1.00  0.00     0.168 HD
ENDBRANCH   1   2
BRANCH   1  10
HETATM   10  C5  UNL     1     -20.406  16.119  -4.179  1.00  0.00     0.050 C 
BRANCH  10  11
HETATM   11  C6  UNL     1     -20.798  16.771  -5.486  1.00  0.00     0.283 C 
BRANCH  11  12
HETATM   12  N3  UNL     1     -20.386  18.185  -5.347  1.00  0.00    -0.065 N 
ATOM     13  H33 UNL     1     -21.161  18.826  -5.180  1.00  0.00     0.275 HD
ATOM     14  H32 UNL     1     -19.880  18.385  -4.484  1.00  0.00     0.275 HD
ATOM     15  H31 UNL     1     -19.855  18.389  -6.194  1.00  0.00     0.275 HD
ENDBRANCH  11  12
BRANCH  11  16
HETATM   16  C7  UNL     1     -22.285  16.701  -5.610  1.00  0.00     0.204 C 
HETATM   17  O1  UNL     1     -22.772  15.976  -6.498  1.00  0.00    -0.646 OA
HETATM   18  O2  UNL     1     -23.083  17.420  -4.760  1.00  0.00    -0.646 OA
ENDBRANCH  11  16
ENDBRANCH  10  11
ENDBRANCH   1  10
TORSDOF 5
ENDMDL
