MODEL 11
REMARK VINA RESULT: -6.344262002      2.237      2.686
REMARK  5 active torsions:
REMARK  status: ('A' for Active; 'I' for Inactive)
REMARK    1  A    between atoms: C3_6  and  C4_7 
REMARK    2  A    between atoms: C4_7  and  C5_8 
REMARK    3  A    between atoms: C5_8  and  C6_9 
REMARK    4  A    between atoms: C6_9  and  N3_10 
REMARK    5  A    between atoms: C6_9  and  C7_14 
ROOT
HETATM    1  C4  UNL     1     -20.033  14.438  -5.597  1.00  0.00     0.061 C 
ENDROOT
BRANCH   1   2
HETATM    2  C3  UNL     1     -20.117  12.969  -5.773  1.00  0.00     0.027 A 
HETATM    3  C2  UNL     1     -19.169  12.263  -6.540  1.00  0.00     0.115 A 
HETATM    4  N2  UNL     1     -19.524  10.979  -6.457  1.00  0.00    -0.339 N 
HETATM    5  C1  UNL     1     -20.619  10.880  -5.688  1.00  0.00     0.192 A 
ATOM      6  H2  UNL     1     -19.041  10.199  -6.904  1.00  0.00     0.168 HD
HETATM    7  N1  UNL     1     -21.286   9.683  -5.369  1.00  0.00    -0.063 NA
HETATM    8  N4  UNL     1     -20.994  12.106  -5.260  1.00  0.00    -0.333 N 
ATOM      9  H4  UNL     1     -21.790  12.328  -4.662  1.00  0.00     0.168 HD
ENDBRANCH   1   2
BRANCH   1  10
HETATM   10  C5  UNL     1     -18.809  14.935  -4.927  1.00  0.00     0.050 C 
BRANCH  10  11
HETATM   11  C6  UNL     1     -19.097  15.965  -3.859  1.00  0.00     0.283 C 
BRANCH  11  12
HETATM   12  N3  UNL     1     -17.937  15.899  -2.942  1.00  0.00    -0.065 N 
ATOM     13  H33 UNL     1     -17.044  15.763  -3.415  1.00  0.00     0.275 HD
ATOM     14  H32 UNL     1     -17.704  16.790  -2.505  1.00  0.00     0.275 HD
ATOM     15  H31 UNL     1     -18.169  15.160  -2.278  1.00  0.00     0.275 HD
ENDBRANCH  11  12
BRANCH  11  16
HETATM   16  C7  UNL     1     -20.328  15.541  -3.127  1.00  0.00     0.204 C 
HETATM   17  O1  UNL     1     -21.392  16.147  -3.356  1.00  0.00    -0.646 OA
HETATM   18  O2  UNL     1     -20.276  14.507  -2.230  1.00  0.00    -0.646 OA
ENDBRANCH  11  16
ENDBRANCH  10  11
ENDBRANCH   1  10
TORSDOF 5
ENDMDL
