MODEL 3
REMARK VINA RESULT: -6.678563332      1.448      1.587
REMARK  5 active torsions:
REMARK  status: ('A' for Active; 'I' for Inactive)
REMARK    1  A    between atoms: C3_6  and  C4_7 
REMARK    2  A    between atoms: C4_7  and  C5_8 
REMARK    3  A    between atoms: C5_8  and  C6_9 
REMARK    4  A    between atoms: C6_9  and  N3_10 
REMARK    5  A    between atoms: C6_9  and  C7_14 
ROOT
HETATM    1  C4  UNL     1     -20.231  14.455  -4.943  1.00  0.00     0.061 C 
ENDROOT
BRANCH   1   2
HETATM    2  C3  UNL     1     -20.200  13.052  -5.418  1.00  0.00     0.027 A 
HETATM    3  C2  UNL     1     -19.232  12.606  -6.339  1.00  0.00     0.115 A 
HETATM    4  N2  UNL     1     -19.476  11.305  -6.516  1.00  0.00    -0.339 N 
HETATM    5  C1  UNL     1     -20.525  10.954  -5.757  1.00  0.00     0.192 A 
ATOM      6  H2  UNL     1     -18.950  10.680  -7.128  1.00  0.00     0.168 HD
HETATM    7  N1  UNL     1     -21.077   9.661  -5.677  1.00  0.00    -0.063 NA
HETATM    8  N4  UNL     1     -20.981  12.027  -5.074  1.00  0.00    -0.333 N 
ATOM      9  H4  UNL     1     -21.766  12.049  -4.423  1.00  0.00     0.168 HD
ENDBRANCH   1   2
BRANCH   1  10
HETATM   10  C5  UNL     1     -20.630  15.464  -5.951  1.00  0.00     0.050 C 
BRANCH  10  11
HETATM   11  C6  UNL     1     -21.795  16.317  -5.504  1.00  0.00     0.283 C 
BRANCH  11  12
HETATM   12  N3  UNL     1     -22.864  16.051  -6.492  1.00  0.00    -0.065 N 
ATOM     13  H33 UNL     1     -23.477  16.848  -6.663  1.00  0.00     0.275 HD
ATOM     14  H32 UNL     1     -22.527  15.955  -7.450  1.00  0.00     0.275 HD
ATOM     15  H31 UNL     1     -23.348  15.226  -6.139  1.00  0.00     0.275 HD
ENDBRANCH  11  12
BRANCH  11  16
HETATM   16  C7  UNL     1     -21.382  17.749  -5.599  1.00  0.00     0.204 C 
HETATM   17  O1  UNL     1     -20.229  18.009  -5.996  1.00  0.00    -0.646 OA
HETATM   18  O2  UNL     1     -22.258  18.745  -5.255  1.00  0.00    -0.646 OA
ENDBRANCH  11  16
ENDBRANCH  10  11
ENDBRANCH   1  10
TORSDOF 5
ENDMDL
