MODEL 9
REMARK VINA RESULT: -6.364252634      3.383      5.986
REMARK  5 active torsions:
REMARK  status: ('A' for Active; 'I' for Inactive)
REMARK    1  A    between atoms: C3_6  and  C4_7 
REMARK    2  A    between atoms: C4_7  and  C5_8 
REMARK    3  A    between atoms: C5_8  and  C6_9 
REMARK    4  A    between atoms: C6_9  and  N3_10 
REMARK    5  A    between atoms: C6_9  and  C7_14 
ROOT
HETATM    1  C4  UNL     1     -19.718  15.594  -5.522  1.00  0.00     0.061 C 
ENDROOT
BRANCH   1   2
HETATM    2  C3  UNL     1     -20.620  16.770  -5.513  1.00  0.00     0.027 A 
HETATM    3  C2  UNL     1     -22.020  16.625  -5.453  1.00  0.00     0.115 A 
HETATM    4  N2  UNL     1     -22.509  17.867  -5.429  1.00  0.00    -0.339 N 
HETATM    5  C1  UNL     1     -21.488  18.736  -5.469  1.00  0.00     0.192 A 
ATOM      6  H2  UNL     1     -23.498  18.115  -5.386  1.00  0.00     0.168 HD
HETATM    7  N1  UNL     1     -21.610  20.138  -5.458  1.00  0.00    -0.063 NA
HETATM    8  N4  UNL     1     -20.314  18.068  -5.521  1.00  0.00    -0.333 N 
ATOM      9  H4  UNL     1     -19.380  18.475  -5.558  1.00  0.00     0.168 HD
ENDBRANCH   1   2
BRANCH   1  10
HETATM   10  C5  UNL     1     -20.188  14.432  -6.311  1.00  0.00     0.050 C 
BRANCH  10  11
HETATM   11  C6  UNL     1     -20.561  13.246  -5.452  1.00  0.00     0.283 C 
BRANCH  11  12
HETATM   12  N3  UNL     1     -20.221  13.653  -4.071  1.00  0.00    -0.065 N 
ATOM     13  H33 UNL     1     -19.363  13.232  -3.715  1.00  0.00     0.275 HD
ATOM     14  H32 UNL     1     -19.919  14.623  -3.988  1.00  0.00     0.275 HD
ATOM     15  H31 UNL     1     -21.050  13.430  -3.519  1.00  0.00     0.275 HD
ENDBRANCH  11  12
BRANCH  11  16
HETATM   16  C7  UNL     1     -19.696  12.096  -5.853  1.00  0.00     0.204 C 
HETATM   17  O1  UNL     1     -18.693  12.325  -6.556  1.00  0.00    -0.646 OA
HETATM   18  O2  UNL     1     -20.010  10.824  -5.452  1.00  0.00    -0.646 OA
ENDBRANCH  11  16
ENDBRANCH  10  11
ENDBRANCH   1  10
TORSDOF 5
ENDMDL
