MODEL 8
REMARK VINA RESULT: -6.389722452      3.059      5.809
REMARK  5 active torsions:
REMARK  status: ('A' for Active; 'I' for Inactive)
REMARK    1  A    between atoms: C3_6  and  C4_7 
REMARK    2  A    between atoms: C4_7  and  C5_8 
REMARK    3  A    between atoms: C5_8  and  C6_9 
REMARK    4  A    between atoms: C6_9  and  N3_10 
REMARK    5  A    between atoms: C6_9  and  C7_14 
ROOT
HETATM    1  C4  UNL     1     -19.162  15.639  -5.357  1.00  0.00     0.061 C 
ENDROOT
BRANCH   1   2
HETATM    2  C3  UNL     1     -20.292  16.596  -5.408  1.00  0.00     0.027 A 
HETATM    3  C2  UNL     1     -21.630  16.156  -5.458  1.00  0.00     0.115 A 
HETATM    4  N2  UNL     1     -22.373  17.265  -5.461  1.00  0.00    -0.339 N 
HETATM    5  C1  UNL     1     -21.561  18.332  -5.415  1.00  0.00     0.192 A 
ATOM      6  H2  UNL     1     -23.392  17.296  -5.493  1.00  0.00     0.168 HD
HETATM    7  N1  UNL     1     -21.980  19.675  -5.402  1.00  0.00    -0.063 NA
HETATM    8  N4  UNL     1     -20.271  17.929  -5.382  1.00  0.00    -0.333 N 
ATOM      9  H4  UNL     1     -19.445  18.526  -5.344  1.00  0.00     0.168 HD
ENDBRANCH   1   2
BRANCH   1  10
HETATM   10  C5  UNL     1     -19.517  14.248  -4.993  1.00  0.00     0.050 C 
BRANCH  10  11
HETATM   11  C6  UNL     1     -19.082  13.237  -6.030  1.00  0.00     0.283 C 
BRANCH  11  12
HETATM   12  N3  UNL     1     -19.355  13.884  -7.332  1.00  0.00    -0.065 N 
ATOM     13  H33 UNL     1     -20.327  14.167  -7.458  1.00  0.00     0.275 HD
ATOM     14  H32 UNL     1     -18.949  14.815  -7.424  1.00  0.00     0.275 HD
ATOM     15  H31 UNL     1     -19.025  13.218  -8.031  1.00  0.00     0.275 HD
ENDBRANCH  11  12
BRANCH  11  16
HETATM   16  C7  UNL     1     -19.949  12.029  -5.889  1.00  0.00     0.204 C 
HETATM   17  O1  UNL     1     -21.125  12.184  -5.508  1.00  0.00    -0.646 OA
HETATM   18  O2  UNL     1     -19.451  10.785  -6.174  1.00  0.00    -0.646 OA
ENDBRANCH  11  16
ENDBRANCH  10  11
ENDBRANCH   1  10
TORSDOF 5
ENDMDL
