MODEL 4
REMARK VINA RESULT: -6.623458186      0.932      1.467
REMARK  5 active torsions:
REMARK  status: ('A' for Active; 'I' for Inactive)
REMARK    1  A    between atoms: C3_6  and  C4_7 
REMARK    2  A    between atoms: C4_7  and  C5_8 
REMARK    3  A    between atoms: C5_8  and  C6_9 
REMARK    4  A    between atoms: C6_9  and  N3_10 
REMARK    5  A    between atoms: C6_9  and  C7_14 
ROOT
HETATM    1  C4  UNL     1     -19.300  14.939  -6.490  1.00  0.00     0.061 C 
ENDROOT
BRANCH   1   2
HETATM    2  C3  UNL     1     -19.711  13.565  -6.118  1.00  0.00     0.027 A 
HETATM    3  C2  UNL     1     -20.863  13.324  -5.343  1.00  0.00     0.115 A 
HETATM    4  N2  UNL     1     -20.948  11.996  -5.229  1.00  0.00    -0.339 N 
HETATM    5  C1  UNL     1     -19.921  11.438  -5.887  1.00  0.00     0.192 A 
ATOM      6  H2  UNL     1     -21.675  11.489  -4.724  1.00  0.00     0.168 HD
HETATM    7  N1  UNL     1     -19.674  10.056  -5.992  1.00  0.00    -0.063 NA
HETATM    8  N4  UNL     1     -19.149  12.400  -6.441  1.00  0.00    -0.333 N 
ATOM      9  H4  UNL     1     -18.305  12.262  -6.996  1.00  0.00     0.168 HD
ENDBRANCH   1   2
BRANCH   1  10
HETATM   10  C5  UNL     1     -20.405  15.882  -6.779  1.00  0.00     0.050 C 
BRANCH  10  11
HETATM   11  C6  UNL     1     -20.280  17.188  -6.028  1.00  0.00     0.283 C 
BRANCH  11  12
HETATM   12  N3  UNL     1     -19.075  17.029  -5.184  1.00  0.00    -0.065 N 
ATOM     13  H33 UNL     1     -19.018  16.127  -4.710  1.00  0.00     0.275 HD
ATOM     14  H32 UNL     1     -18.208  16.938  -5.714  1.00  0.00     0.275 HD
ATOM     15  H31 UNL     1     -19.091  17.828  -4.550  1.00  0.00     0.275 HD
ENDBRANCH  11  12
BRANCH  11  16
HETATM   16  C7  UNL     1     -21.480  17.333  -5.151  1.00  0.00     0.204 C 
HETATM   17  O1  UNL     1     -21.641  16.515  -4.225  1.00  0.00    -0.646 OA
HETATM   18  O2  UNL     1     -22.376  18.346  -5.370  1.00  0.00    -0.646 OA
ENDBRANCH  11  16
ENDBRANCH  10  11
ENDBRANCH   1  10
TORSDOF 5
ENDMDL
