MODEL 1
REMARK VINA RESULT: -6.816950527      0.000      0.000
REMARK  5 active torsions:
REMARK  status: ('A' for Active; 'I' for Inactive)
REMARK    1  A    between atoms: C3_6  and  C4_7 
REMARK    2  A    between atoms: C4_7  and  C5_8 
REMARK    3  A    between atoms: C5_8  and  C6_9 
REMARK    4  A    between atoms: C6_9  and  N3_10 
REMARK    5  A    between atoms: C6_9  and  C7_14 
ROOT
HETATM    1  C4  UNL     1     -20.882  14.865  -4.910  1.00  0.00     0.061 C 
ENDROOT
BRANCH   1   2
HETATM    2  C3  UNL     1     -20.332  13.601  -5.454  1.00  0.00     0.027 A 
HETATM    3  C2  UNL     1     -19.342  13.598  -6.457  1.00  0.00     0.115 A 
HETATM    4  N2  UNL     1     -19.059  12.313  -6.680  1.00  0.00    -0.339 N 
HETATM    5  C1  UNL     1     -19.817  11.556  -5.872  1.00  0.00     0.192 A 
ATOM      6  H2  UNL     1     -18.378  11.963  -7.354  1.00  0.00     0.168 HD
HETATM    7  N1  UNL     1     -19.798  10.149  -5.819  1.00  0.00    -0.063 NA
HETATM    8  N4  UNL     1     -20.608  12.343  -5.109  1.00  0.00    -0.333 N 
ATOM      9  H4  UNL     1     -21.282  12.036  -4.408  1.00  0.00     0.168 HD
ENDBRANCH   1   2
BRANCH   1  10
HETATM   10  C5  UNL     1     -21.455  15.795  -5.910  1.00  0.00     0.050 C 
BRANCH  10  11
HETATM   11  C6  UNL     1     -20.964  17.216  -5.745  1.00  0.00     0.283 C 
BRANCH  11  12
HETATM   12  N3  UNL     1     -19.938  17.144  -4.682  1.00  0.00    -0.065 N 
ATOM     13  H33 UNL     1     -20.241  16.641  -3.848  1.00  0.00     0.275 HD
ATOM     14  H32 UNL     1     -19.152  16.534  -4.907  1.00  0.00     0.275 HD
ATOM     15  H31 UNL     1     -19.673  18.113  -4.506  1.00  0.00     0.275 HD
ENDBRANCH  11  12
BRANCH  11  16
HETATM   16  C7  UNL     1     -22.110  18.048  -5.268  1.00  0.00     0.204 C 
HETATM   17  O1  UNL     1     -23.067  17.476  -4.711  1.00  0.00    -0.646 OA
HETATM   18  O2  UNL     1     -22.097  19.406  -5.445  1.00  0.00    -0.646 OA
ENDBRANCH  11  16
ENDBRANCH  10  11
ENDBRANCH   1  10
TORSDOF 5
ENDMDL
