MODEL 2
REMARK VINA RESULT: -6.423416235      2.855      5.113
REMARK  4 active torsions:
REMARK  status: ('A' for Active; 'I' for Inactive)
REMARK    1  A    between atoms: C3_6  and  C4_7 
REMARK    2  A    between atoms: C4_7  and  C5_8 
REMARK    3  A    between atoms: C5_8  and  N3_9 
REMARK    4  A    between atoms: C5_8  and  C6_13 
ROOT
HETATM    1  C4  UNL     1       2.393  24.340  30.224  1.00  0.00     0.102 C 
ENDROOT
BRANCH   1   2
HETATM    2  C3  UNL     1       3.465  25.312  29.953  1.00  0.00     0.029 A 
HETATM    3  C2  UNL     1       4.751  24.968  29.591  1.00  0.00     0.116 A 
HETATM    4  N2  UNL     1       5.445  26.104  29.429  1.00  0.00    -0.339 N 
HETATM    5  C1  UNL     1       4.593  27.126  29.687  1.00  0.00     0.192 A 
ATOM      6  H2  UNL     1       6.426  26.183  29.162  1.00  0.00     0.168 HD
HETATM    7  N1  UNL     1       5.010  28.479  29.606  1.00  0.00    -0.063 NA
HETATM    8  N4  UNL     1       3.374  26.639  30.010  1.00  0.00    -0.333 N 
ATOM      9  H4  UNL     1       2.546  27.182  30.251  1.00  0.00     0.168 HD
ENDBRANCH   1   2
BRANCH   1  10
HETATM   10  C5  UNL     1       1.342  24.309  29.142  1.00  0.00     0.289 C 
BRANCH  10  11
HETATM   11  N3  UNL     1       0.004  24.452  29.674  1.00  0.00    -0.065 N 
ATOM     12  H33 UNL     1       0.014  24.482  30.693  1.00  0.00     0.275 HD
ATOM     13  H32 UNL     1      -0.368  25.383  29.488  1.00  0.00     0.275 HD
ATOM     14  H31 UNL     1      -0.627  23.728  29.332  1.00  0.00     0.275 HD
ENDBRANCH  10  11
BRANCH  10  15
HETATM   15  C6  UNL     1       1.414  23.074  28.353  1.00  0.00     0.204 C 
HETATM   16  O1  UNL     1       0.374  22.393  28.133  1.00  0.00    -0.646 OA
HETATM   17  O2  UNL     1       2.598  22.579  27.807  1.00  0.00    -0.646 OA
ENDBRANCH  10  15
ENDBRANCH   1  10
TORSDOF 4
ENDMDL
