MODEL 6
REMARK VINA RESULT: -6.142323676      1.454      1.672
REMARK  4 active torsions:
REMARK  status: ('A' for Active; 'I' for Inactive)
REMARK    1  A    between atoms: C3_6  and  C4_7 
REMARK    2  A    between atoms: C4_7  and  C5_8 
REMARK    3  A    between atoms: C5_8  and  N3_9 
REMARK    4  A    between atoms: C5_8  and  C6_13 
ROOT
HETATM    1  C4  UNL     1       3.673  25.952  30.301  1.00  0.00     0.102 C 
ENDROOT
BRANCH   1   2
HETATM    2  C3  UNL     1       2.767  25.003  29.634  1.00  0.00     0.029 A 
HETATM    3  C2  UNL     1       3.022  24.414  28.413  1.00  0.00     0.116 A 
HETATM    4  N2  UNL     1       1.985  23.615  28.122  1.00  0.00    -0.339 N 
HETATM    5  C1  UNL     1       1.110  23.715  29.152  1.00  0.00     0.192 A 
ATOM      6  H2  UNL     1       1.875  23.042  27.285  1.00  0.00     0.168 HD
HETATM    7  N1  UNL     1      -0.109  22.991  29.165  1.00  0.00    -0.063 NA
HETATM    8  N4  UNL     1       1.591  24.569  30.083  1.00  0.00    -0.333 N 
ATOM      9  H4  UNL     1       1.141  24.831  30.960  1.00  0.00     0.168 HD
ENDBRANCH   1   2
BRANCH   1  10
HETATM   10  C5  UNL     1       4.588  26.665  29.338  1.00  0.00     0.289 C 
BRANCH  10  11
HETATM   11  N3  UNL     1       5.926  26.115  29.343  1.00  0.00    -0.065 N 
ATOM     12  H33 UNL     1       6.541  26.648  29.957  1.00  0.00     0.275 HD
ATOM     13  H32 UNL     1       5.953  25.217  29.825  1.00  0.00     0.275 HD
ATOM     14  H31 UNL     1       6.317  26.041  28.404  1.00  0.00     0.275 HD
ENDBRANCH  10  11
BRANCH  10  15
HETATM   15  C6  UNL     1       4.661  28.103  29.626  1.00  0.00     0.204 C 
HETATM   16  O1  UNL     1       3.635  28.735  30.001  1.00  0.00    -0.646 OA
HETATM   17  O2  UNL     1       5.833  28.850  29.510  1.00  0.00    -0.646 OA
ENDBRANCH  10  15
ENDBRANCH   1  10
TORSDOF 4
ENDMDL
