MODEL 9
REMARK VINA RESULT: -6.076782949      1.860      1.923
REMARK  4 active torsions:
REMARK  status: ('A' for Active; 'I' for Inactive)
REMARK    1  A    between atoms: C3_6  and  C4_7 
REMARK    2  A    between atoms: C4_7  and  C5_8 
REMARK    3  A    between atoms: C5_8  and  N3_9 
REMARK    4  A    between atoms: C5_8  and  C6_13 
ROOT
HETATM    1  C4  UNL     1       2.767  25.493  29.652  1.00  0.00     0.102 C 
ENDROOT
BRANCH   1   2
HETATM    2  C3  UNL     1       1.828  24.440  29.232  1.00  0.00     0.029 A 
HETATM    3  C2  UNL     1       2.069  23.551  28.205  1.00  0.00     0.116 A 
HETATM    4  N2  UNL     1       1.003  22.743  28.108  1.00  0.00    -0.339 N 
HETATM    5  C1  UNL     1       0.125  23.134  29.064  1.00  0.00     0.192 A 
ATOM      6  H2  UNL     1       0.876  21.980  27.443  1.00  0.00     0.168 HD
HETATM    7  N1  UNL     1      -1.122  22.484  29.239  1.00  0.00    -0.063 NA
HETATM    8  N4  UNL     1       0.633  24.179  29.755  1.00  0.00    -0.333 N 
ATOM      9  H4  UNL     1       0.187  24.672  30.529  1.00  0.00     0.168 HD
ENDBRANCH   1   2
BRANCH   1  10
HETATM   10  C5  UNL     1       4.125  24.954  30.026  1.00  0.00     0.289 C 
BRANCH  10  11
HETATM   11  N3  UNL     1       4.405  25.107  31.437  1.00  0.00    -0.065 N 
ATOM     12  H33 UNL     1       3.729  24.596  32.004  1.00  0.00     0.275 HD
ATOM     13  H32 UNL     1       5.252  24.603  31.700  1.00  0.00     0.275 HD
ATOM     14  H31 UNL     1       4.457  26.086  31.718  1.00  0.00     0.275 HD
ENDBRANCH  10  11
BRANCH  10  15
HETATM   15  C6  UNL     1       5.194  25.597  29.253  1.00  0.00     0.204 C 
HETATM   16  O1  UNL     1       6.263  24.976  28.997  1.00  0.00    -0.646 OA
HETATM   17  O2  UNL     1       5.109  26.899  28.761  1.00  0.00    -0.646 OA
ENDBRANCH  10  15
ENDBRANCH   1  10
TORSDOF 4
ENDMDL
