MODEL 3
REMARK VINA RESULT: -6.244640475      1.186      1.371
REMARK  4 active torsions:
REMARK  status: ('A' for Active; 'I' for Inactive)
REMARK    1  A    between atoms: C3_6  and  C4_7 
REMARK    2  A    between atoms: C4_7  and  C5_8 
REMARK    3  A    between atoms: C5_8  and  N3_9 
REMARK    4  A    between atoms: C5_8  and  C6_13 
ROOT
HETATM    1  C4  UNL     1       2.849  25.008  30.242  1.00  0.00     0.102 C 
ENDROOT
BRANCH   1   2
HETATM    2  C3  UNL     1       1.878  24.139  29.558  1.00  0.00     0.029 A 
HETATM    3  C2  UNL     1       2.136  23.461  28.385  1.00  0.00     0.116 A 
HETATM    4  N2  UNL     1       1.030  22.775  28.060  1.00  0.00    -0.339 N 
HETATM    5  C1  UNL     1       0.111  23.031  29.023  1.00  0.00     0.192 A 
ATOM      6  H2  UNL     1       0.904  22.176  27.244  1.00  0.00     0.168 HD
HETATM    7  N1  UNL     1      -1.185  22.457  28.985  1.00  0.00    -0.063 NA
HETATM    8  N4  UNL     1       0.633  23.870  29.945  1.00  0.00    -0.333 N 
ATOM      9  H4  UNL     1       0.165  24.229  30.777  1.00  0.00     0.168 HD
ENDBRANCH   1   2
BRANCH   1  10
HETATM   10  C5  UNL     1       3.763  25.733  29.287  1.00  0.00     0.289 C 
BRANCH  10  11
HETATM   11  N3  UNL     1       5.098  25.895  29.822  1.00  0.00    -0.065 N 
ATOM     12  H33 UNL     1       5.071  26.277  30.767  1.00  0.00     0.275 HD
ATOM     13  H32 UNL     1       5.526  24.992  30.023  1.00  0.00     0.275 HD
ATOM     14  H31 UNL     1       5.692  26.458  29.214  1.00  0.00     0.275 HD
ENDBRANCH  10  11
BRANCH  10  15
HETATM   15  C6  UNL     1       3.230  27.051  28.922  1.00  0.00     0.204 C 
HETATM   16  O1  UNL     1       2.422  27.171  27.960  1.00  0.00    -0.646 OA
HETATM   17  O2  UNL     1       3.567  28.227  29.592  1.00  0.00    -0.646 OA
ENDBRANCH  10  15
ENDBRANCH   1  10
TORSDOF 4
ENDMDL
