MODEL 8
REMARK VINA RESULT: -6.089149243      3.084      5.346
REMARK  4 active torsions:
REMARK  status: ('A' for Active; 'I' for Inactive)
REMARK    1  A    between atoms: C3_6  and  C4_7 
REMARK    2  A    between atoms: C4_7  and  C5_8 
REMARK    3  A    between atoms: C5_8  and  N3_9 
REMARK    4  A    between atoms: C5_8  and  C6_13 
ROOT
HETATM    1  C4  UNL     1       3.880  24.310  29.623  1.00  0.00     0.102 C 
ENDROOT
BRANCH   1   2
HETATM    2  C3  UNL     1       4.777  25.461  29.435  1.00  0.00     0.029 A 
HETATM    3  C2  UNL     1       6.040  25.378  28.886  1.00  0.00     0.116 A 
HETATM    4  N2  UNL     1       6.559  26.615  28.872  1.00  0.00    -0.339 N 
HETATM    5  C1  UNL     1       5.624  27.440  29.404  1.00  0.00     0.192 A 
ATOM      6  H2  UNL     1       7.481  26.884  28.527  1.00  0.00     0.168 HD
HETATM    7  N1  UNL     1       5.853  28.833  29.538  1.00  0.00    -0.063 NA
HETATM    8  N4  UNL     1       4.528  26.730  29.750  1.00  0.00    -0.333 N 
ATOM      9  H4  UNL     1       3.674  27.095  30.172  1.00  0.00     0.168 HD
ENDBRANCH   1   2
BRANCH   1  10
HETATM   10  C5  UNL     1       2.461  24.716  29.934  1.00  0.00     0.289 C 
BRANCH  10  11
HETATM   11  N3  UNL     1       2.151  24.590  31.342  1.00  0.00    -0.065 N 
ATOM     12  H33 UNL     1       2.455  23.687  31.706  1.00  0.00     0.275 HD
ATOM     13  H32 UNL     1       2.741  25.200  31.905  1.00  0.00     0.275 HD
ATOM     14  H31 UNL     1       1.163  24.751  31.536  1.00  0.00     0.275 HD
ENDBRANCH  10  11
BRANCH  10  15
HETATM   15  C6  UNL     1       1.492  23.934  29.158  1.00  0.00     0.204 C 
HETATM   16  O1  UNL     1       0.262  24.218  29.195  1.00  0.00    -0.646 OA
HETATM   17  O2  UNL     1       1.847  22.855  28.350  1.00  0.00    -0.646 OA
ENDBRANCH  10  15
ENDBRANCH   1  10
TORSDOF 4
ENDMDL
