MODEL 11
REMARK VINA RESULT: -6.035453969      1.570      2.296
REMARK  4 active torsions:
REMARK  status: ('A' for Active; 'I' for Inactive)
REMARK    1  A    between atoms: C3_6  and  C4_7 
REMARK    2  A    between atoms: C4_7  and  C5_8 
REMARK    3  A    between atoms: C5_8  and  N3_9 
REMARK    4  A    between atoms: C5_8  and  C6_13 
ROOT
HETATM    1  C4  UNL     1       4.344  25.810  30.362  1.00  0.00     0.102 C 
ENDROOT
BRANCH   1   2
HETATM    2  C3  UNL     1       3.207  24.988  29.915  1.00  0.00     0.029 A 
HETATM    3  C2  UNL     1       2.094  24.720  30.685  1.00  0.00     0.116 A 
HETATM    4  N2  UNL     1       1.274  23.947  29.957  1.00  0.00    -0.339 N 
HETATM    5  C1  UNL     1       1.879  23.748  28.761  1.00  0.00     0.192 A 
ATOM      6  H2  UNL     1       0.368  23.580  30.249  1.00  0.00     0.168 HD
HETATM    7  N1  UNL     1       1.275  22.966  27.744  1.00  0.00    -0.063 NA
HETATM    8  N4  UNL     1       3.069  24.389  28.735  1.00  0.00    -0.333 N 
ATOM      9  H4  UNL     1       3.732  24.410  27.961  1.00  0.00     0.168 HD
ENDBRANCH   1   2
BRANCH   1  10
HETATM   10  C5  UNL     1       4.925  26.657  29.259  1.00  0.00     0.289 C 
BRANCH  10  11
HETATM   11  N3  UNL     1       6.294  26.300  28.956  1.00  0.00    -0.065 N 
ATOM     12  H33 UNL     1       6.449  25.300  29.080  1.00  0.00     0.275 HD
ATOM     13  H32 UNL     1       6.481  26.372  27.957  1.00  0.00     0.275 HD
ATOM     14  H31 UNL     1       6.965  26.847  29.496  1.00  0.00     0.275 HD
ENDBRANCH  10  11
BRANCH  10  15
HETATM   15  C6  UNL     1       4.865  28.087  29.585  1.00  0.00     0.204 C 
HETATM   16  O1  UNL     1       3.778  28.617  29.947  1.00  0.00    -0.646 OA
HETATM   17  O2  UNL     1       5.969  28.936  29.522  1.00  0.00    -0.646 OA
ENDBRANCH  10  15
ENDBRANCH   1  10
TORSDOF 4
ENDMDL
