MODEL 5
REMARK VINA RESULT: -7.299851232      1.106      1.817
REMARK  4 active torsions:
REMARK  status: ('A' for Active; 'I' for Inactive)
REMARK    1  A    between atoms: N1_1  and  S1_4 
REMARK    2  A    between atoms: S1_4  and  C1_7 
REMARK    3  A    between atoms: C2_12  and  N4_13 
REMARK       I    between atoms: N4_13  and  C3_15 
REMARK    4  A    between atoms: C3_15  and  C4_17 
ROOT
HETATM    1  N4  UNL     1      -4.334   5.666  12.361  1.00  0.00    -0.305 N 
ATOM      2  H4  UNL     1      -3.446   5.763  11.868  1.00  0.00     0.171 HD
HETATM    3  C3  UNL     1      -5.368   6.620  12.115  1.00  0.00     0.232 C 
HETATM    4  O3  UNL     1      -6.435   6.439  12.756  1.00  0.00    -0.272 OA
ENDROOT
BRANCH   1   5
HETATM    5  C2  UNL     1      -4.501   4.586  13.271  1.00  0.00     0.168 A 
HETATM    6  N3  UNL     1      -5.021   4.693  14.484  1.00  0.00    -0.278 N 
HETATM    7  N2  UNL     1      -5.128   3.671  15.218  1.00  0.00    -0.281 N 
ATOM      8  H3  UNL     1      -5.334   5.601  14.826  1.00  0.00     0.189 HD
HETATM    9  C1  UNL     1      -4.718   2.487  14.774  1.00  0.00     0.208 A 
ATOM     10  H2  UNL     1      -5.529   3.754  16.152  1.00  0.00     0.188 HD
HETATM   11  S2  UNL     1      -4.156   2.924  13.205  1.00  0.00    -0.020 SA
BRANCH   9  12
HETATM   12  S1  UNL     1      -4.752   0.920  15.586  1.00  0.00     0.280 S 
HETATM   13  O1  UNL     1      -4.850  -0.114  14.507  1.00  0.00    -0.199 OA
HETATM   14  O2  UNL     1      -3.518   0.741  16.388  1.00  0.00    -0.199 OA
BRANCH  12  15
HETATM   15  N1  UNL     1      -6.168   0.794  16.581  1.00  0.00    -0.323 N 
ATOM     16  H12 UNL     1      -7.091   1.154  16.339  1.00  0.00     0.169 HD
ATOM     17  H11 UNL     1      -5.910   0.301  17.435  1.00  0.00     0.169 HD
ENDBRANCH  12  15
ENDBRANCH   9  12
ENDBRANCH   1   5
BRANCH   3  18
HETATM   18  C4  UNL     1      -5.222   7.745  11.180  1.00  0.00     0.042 C 
HETATM   19  C5  UNL     1      -3.953   8.528  11.383  1.00  0.00     0.024 C 
HETATM   20  C6  UNL     1      -3.917   9.651  10.391  1.00  0.00    -0.013 C 
HETATM   21  C7  UNL     1      -3.892   9.096   8.985  1.00  0.00     0.009 C 
HETATM   22  C11 UNL     1      -5.071  10.598  10.504  1.00  0.00     0.009 C 
HETATM   23  C8  UNL     1      -5.161   8.290   8.758  1.00  0.00    -0.013 C 
HETATM   24  C9  UNL     1      -6.347   9.192   8.913  1.00  0.00     0.009 C 
HETATM   25  C13 UNL     1      -5.251   7.197   9.771  1.00  0.00     0.024 C 
HETATM   26  C10 UNL     1      -6.344   9.786  10.294  1.00  0.00    -0.013 C 
HETATM   27  C12 UNL     1      -6.381   8.734  11.357  1.00  0.00     0.024 C 
ENDBRANCH   3  18
TORSDOF 4
ENDMDL
