MODEL 3
REMARK VINA RESULT: -7.347236635      1.067      1.939
REMARK  4 active torsions:
REMARK  status: ('A' for Active; 'I' for Inactive)
REMARK    1  A    between atoms: N1_1  and  S1_4 
REMARK    2  A    between atoms: S1_4  and  C1_7 
REMARK    3  A    between atoms: C2_12  and  N4_13 
REMARK       I    between atoms: N4_13  and  C3_15 
REMARK    4  A    between atoms: C3_15  and  C4_17 
ROOT
HETATM    1  N4  UNL     1      -4.354   5.570  12.221  1.00  0.00    -0.305 N 
ATOM      2  H4  UNL     1      -3.506   5.617  11.657  1.00  0.00     0.171 HD
HETATM    3  C3  UNL     1      -5.366   6.561  12.033  1.00  0.00     0.232 C 
HETATM    4  O3  UNL     1      -6.384   6.440  12.761  1.00  0.00    -0.272 OA
ENDROOT
BRANCH   1   5
HETATM    5  C2  UNL     1      -4.491   4.519  13.169  1.00  0.00     0.168 A 
HETATM    6  N3  UNL     1      -4.836   4.684  14.437  1.00  0.00    -0.278 N 
HETATM    7  N2  UNL     1      -4.932   3.684  15.202  1.00  0.00    -0.281 N 
ATOM      8  H3  UNL     1      -5.023   5.620  14.796  1.00  0.00     0.189 HD
HETATM    9  C1  UNL     1      -4.686   2.464  14.735  1.00  0.00     0.208 A 
ATOM     10  H2  UNL     1      -5.198   3.812  16.178  1.00  0.00     0.188 HD
HETATM   11  S2  UNL     1      -4.301   2.832  13.097  1.00  0.00    -0.020 SA
BRANCH   9  12
HETATM   12  S1  UNL     1      -4.746   0.915  15.580  1.00  0.00     0.280 S 
HETATM   13  O1  UNL     1      -4.848  -0.141  14.522  1.00  0.00    -0.199 OA
HETATM   14  O2  UNL     1      -3.521   0.738  16.395  1.00  0.00    -0.199 OA
BRANCH  12  15
HETATM   15  N1  UNL     1      -6.171   0.827  16.565  1.00  0.00    -0.323 N 
ATOM     16  H12 UNL     1      -7.124   0.986  16.237  1.00  0.00     0.169 HD
ATOM     17  H11 UNL     1      -5.884   0.590  17.514  1.00  0.00     0.169 HD
ENDBRANCH  12  15
ENDBRANCH   9  12
ENDBRANCH   1   5
BRANCH   3  18
HETATM   18  C4  UNL     1      -5.250   7.657  11.061  1.00  0.00     0.042 C 
HETATM   19  C5  UNL     1      -5.326   7.196   9.630  1.00  0.00     0.024 C 
HETATM   20  C6  UNL     1      -5.185   8.388   8.733  1.00  0.00    -0.013 C 
HETATM   21  C7  UNL     1      -6.329   9.349   8.966  1.00  0.00     0.009 C 
HETATM   22  C11 UNL     1      -3.899   9.134   8.913  1.00  0.00     0.009 C 
HETATM   23  C8  UNL     1      -6.280   9.822  10.410  1.00  0.00    -0.013 C 
HETATM   24  C9  UNL     1      -4.982  10.531  10.648  1.00  0.00     0.009 C 
HETATM   25  C13 UNL     1      -6.363   8.647  11.328  1.00  0.00     0.024 C 
HETATM   26  C10 UNL     1      -3.842   9.592  10.366  1.00  0.00    -0.013 C 
HETATM   27  C12 UNL     1      -3.899   8.366  11.222  1.00  0.00     0.024 C 
ENDBRANCH   3  18
TORSDOF 4
ENDMDL
