MODEL 2
REMARK VINA RESULT: -7.359598728      0.233      1.459
REMARK  4 active torsions:
REMARK  status: ('A' for Active; 'I' for Inactive)
REMARK    1  A    between atoms: N1_1  and  S1_4 
REMARK    2  A    between atoms: S1_4  and  C1_7 
REMARK    3  A    between atoms: C2_12  and  N4_13 
REMARK       I    between atoms: N4_13  and  C3_15 
REMARK    4  A    between atoms: C3_15  and  C4_17 
ROOT
HETATM    1  N4  UNL     1      -4.680   6.022  12.792  1.00  0.00    -0.305 N 
ATOM      2  H4  UNL     1      -4.543   6.833  13.395  1.00  0.00     0.171 HD
HETATM    3  C3  UNL     1      -4.952   6.229  11.405  1.00  0.00     0.232 C 
HETATM    4  O3  UNL     1      -5.110   5.185  10.722  1.00  0.00    -0.272 OA
ENDROOT
BRANCH   1   5
HETATM    5  C2  UNL     1      -4.595   4.721  13.360  1.00  0.00     0.168 A 
HETATM    6  N3  UNL     1      -3.880   3.723  12.862  1.00  0.00    -0.278 N 
HETATM    7  N2  UNL     1      -3.869   2.602  13.443  1.00  0.00    -0.281 N 
ATOM      8  H3  UNL     1      -3.339   3.861  12.008  1.00  0.00     0.189 HD
HETATM    9  C1  UNL     1      -4.574   2.422  14.555  1.00  0.00     0.208 A 
ATOM     10  H2  UNL     1      -3.317   1.834  13.059  1.00  0.00     0.188 HD
HETATM   11  S2  UNL     1      -5.275   3.986  14.732  1.00  0.00    -0.020 SA
BRANCH   9  12
HETATM   12  S1  UNL     1      -4.732   0.974  15.552  1.00  0.00     0.280 S 
HETATM   13  O1  UNL     1      -4.849  -0.182  14.605  1.00  0.00    -0.199 OA
HETATM   14  O2  UNL     1      -3.541   0.831  16.424  1.00  0.00    -0.199 OA
BRANCH  12  15
HETATM   15  N1  UNL     1      -6.189   1.049  16.490  1.00  0.00    -0.323 N 
ATOM     16  H12 UNL     1      -6.850   0.282  16.610  1.00  0.00     0.169 HD
ATOM     17  H11 UNL     1      -6.258   1.984  16.890  1.00  0.00     0.169 HD
ENDBRANCH  12  15
ENDBRANCH   9  12
ENDBRANCH   1   5
BRANCH   3  18
HETATM   18  C4  UNL     1      -5.046   7.561  10.792  1.00  0.00     0.042 C 
HETATM   19  C5  UNL     1      -3.884   8.457  11.131  1.00  0.00     0.024 C 
HETATM   20  C6  UNL     1      -4.090   9.784  10.467  1.00  0.00    -0.013 C 
HETATM   21  C7  UNL     1      -4.113   9.613   8.965  1.00  0.00     0.009 C 
HETATM   22  C11 UNL     1      -5.349  10.480  10.881  1.00  0.00     0.009 C 
HETATM   23  C8  UNL     1      -5.275   8.702   8.597  1.00  0.00    -0.013 C 
HETATM   24  C9  UNL     1      -6.555   9.340   9.042  1.00  0.00     0.009 C 
HETATM   25  C13 UNL     1      -5.123   7.389   9.292  1.00  0.00     0.024 C 
HETATM   26  C10 UNL     1      -6.512   9.559  10.529  1.00  0.00    -0.013 C 
HETATM   27  C12 UNL     1      -6.310   8.281  11.280  1.00  0.00     0.024 C 
ENDBRANCH   3  18
TORSDOF 4
ENDMDL
