MODEL 4
REMARK VINA RESULT: -7.307658337      1.634      2.373
REMARK  4 active torsions:
REMARK  status: ('A' for Active; 'I' for Inactive)
REMARK    1  A    between atoms: N1_1  and  S1_4 
REMARK    2  A    between atoms: S1_4  and  C1_7 
REMARK    3  A    between atoms: C2_12  and  N4_13 
REMARK       I    between atoms: N4_13  and  C3_15 
REMARK    4  A    between atoms: C3_15  and  C4_17 
ROOT
HETATM    1  N4  UNL     1      -4.825   5.529  13.043  1.00  0.00    -0.305 N 
ATOM      2  H4  UNL     1      -3.873   5.519  12.678  1.00  0.00     0.171 HD
HETATM    3  C3  UNL     1      -5.764   6.458  12.497  1.00  0.00     0.232 C 
HETATM    4  O3  UNL     1      -6.919   6.415  12.994  1.00  0.00    -0.272 OA
ENDROOT
BRANCH   1   5
HETATM    5  C2  UNL     1      -5.175   4.620  14.078  1.00  0.00     0.168 A 
HETATM    6  N3  UNL     1      -6.044   4.872  15.045  1.00  0.00    -0.278 N 
HETATM    7  N2  UNL     1      -6.288   3.996  15.921  1.00  0.00    -0.281 N 
ATOM      8  H3  UNL     1      -6.516   5.775  15.083  1.00  0.00     0.189 HD
HETATM    9  C1  UNL     1      -5.672   2.819  15.873  1.00  0.00     0.208 A 
ATOM     10  H2  UNL     1      -6.958   4.190  16.665  1.00  0.00     0.188 HD
HETATM   11  S2  UNL     1      -4.697   3.037  14.469  1.00  0.00    -0.020 SA
BRANCH   9  12
HETATM   12  S1  UNL     1      -5.827   1.435  16.959  1.00  0.00     0.280 S 
HETATM   13  O1  UNL     1      -6.970   0.616  16.440  1.00  0.00    -0.199 OA
HETATM   14  O2  UNL     1      -4.567   0.653  16.963  1.00  0.00    -0.199 OA
BRANCH  12  15
HETATM   15  N1  UNL     1      -6.234   1.973  18.557  1.00  0.00    -0.323 N 
ATOM     16  H12 UNL     1      -6.597   2.896  18.792  1.00  0.00     0.169 HD
ATOM     17  H11 UNL     1      -6.046   1.208  19.205  1.00  0.00     0.169 HD
ENDBRANCH  12  15
ENDBRANCH   9  12
ENDBRANCH   1   5
BRANCH   3  18
HETATM   18  C4  UNL     1      -5.430   7.408  11.428  1.00  0.00     0.042 C 
HETATM   19  C5  UNL     1      -5.388   6.778  10.061  1.00  0.00     0.024 C 
HETATM   20  C6  UNL     1      -5.027   7.831   9.057  1.00  0.00    -0.013 C 
HETATM   21  C7  UNL     1      -6.089   8.907   9.032  1.00  0.00     0.009 C 
HETATM   22  C11 UNL     1      -3.703   8.481   9.310  1.00  0.00     0.009 C 
HETATM   23  C8  UNL     1      -6.159   9.553  10.407  1.00  0.00    -0.013 C 
HETATM   24  C9  UNL     1      -4.832  10.174  10.722  1.00  0.00     0.009 C 
HETATM   25  C13 UNL     1      -6.462   8.514  11.437  1.00  0.00     0.024 C 
HETATM   26  C10 UNL     1      -3.766   9.113  10.696  1.00  0.00    -0.013 C 
HETATM   27  C12 UNL     1      -4.043   8.015  11.673  1.00  0.00     0.024 C 
ENDBRANCH   3  18
TORSDOF 4
ENDMDL
