MODEL 3
REMARK VINA RESULT: -7.882906932      0.813      1.542
REMARK  7 active torsions:
REMARK  status: ('A' for Active; 'I' for Inactive)
REMARK    1  A    between atoms: N1_1  and  S1_4 
REMARK    2  A    between atoms: S1_4  and  C1_7 
REMARK    3  A    between atoms: C4_10  and  C5_11 
REMARK    4  A    between atoms: C5_11  and  N2_12 
REMARK    5  A    between atoms: N2_12  and  C6_14 
REMARK    6  A    between atoms: C8_20  and  O3_21 
REMARK    7  A    between atoms: C9_23  and  N5_24 
ROOT
HETATM    1  N2  UNL     1      -3.951   4.089  11.862  1.00  0.00    -0.370 N 
ATOM      2  H2  UNL     1      -4.774   4.297  11.297  1.00  0.00     0.161 HD
ENDROOT
BRANCH   1   3
HETATM    3  C5  UNL     1      -3.737   4.818  13.115  1.00  0.00     0.160 C 
BRANCH   3   4
HETATM    4  C4  UNL     1      -4.355   4.020  14.193  1.00  0.00    -0.041 A 
HETATM    5  C3  UNL     1      -5.722   4.052  14.449  1.00  0.00     0.010 A 
HETATM    6  C2  UNL     1      -6.265   3.288  15.469  1.00  0.00     0.026 A 
HETATM    7  C1  UNL     1      -5.501   2.470  16.270  1.00  0.00     0.079 A 
HETATM    8  C11 UNL     1      -4.147   2.446  16.005  1.00  0.00     0.026 A 
HETATM    9  C10 UNL     1      -3.592   3.201  14.994  1.00  0.00     0.010 A 
BRANCH   7  10
HETATM   10  S1  UNL     1      -6.252   1.529  17.540  1.00  0.00     0.256 S 
HETATM   11  O1  UNL     1      -6.406   2.440  18.725  1.00  0.00    -0.201 OA
HETATM   12  O2  UNL     1      -5.372   0.371  17.886  1.00  0.00    -0.201 OA
BRANCH  10  13
HETATM   13  N1  UNL     1      -7.794   1.009  16.944  1.00  0.00    -0.324 N 
ATOM     14  H12 UNL     1      -8.380   0.322  17.418  1.00  0.00     0.169 HD
ATOM     15  H11 UNL     1      -8.028   1.478  16.068  1.00  0.00     0.169 HD
ENDBRANCH  10  13
ENDBRANCH   7  10
ENDBRANCH   3   4
ENDBRANCH   1   3
BRANCH   1  16
HETATM   16  C6  UNL     1      -3.037   3.098  11.420  1.00  0.00     0.140 A 
HETATM   17  N3  UNL     1      -1.836   3.498  10.979  1.00  0.00    -0.337 N 
HETATM   18  C7  UNL     1      -0.962   2.577  10.557  1.00  0.00     0.184 A 
ATOM     19  H3  UNL     1      -1.593   4.488  10.965  1.00  0.00     0.168 HD
HETATM   20  N4  UNL     1      -1.303   1.265  10.583  1.00  0.00    -0.331 N 
HETATM   21  C8  UNL     1      -2.480   0.814  11.010  1.00  0.00     0.178 A 
ATOM     22  H4  UNL     1      -0.618   0.584  10.256  1.00  0.00     0.168 HD
HETATM   23  C9  UNL     1      -3.393   1.773  11.450  1.00  0.00     0.197 A 
BRANCH  21  24
HETATM   24  O3  UNL     1      -2.767  -0.539  11.013  1.00  0.00    -0.344 OA
ATOM     25  H3  UNL     1      -3.374  -0.909  11.643  1.00  0.00     0.219 HD
ENDBRANCH  21  24
BRANCH  23  26
HETATM   26  N5  UNL     1      -4.654   1.350  11.912  1.00  0.00    -0.107 N 
HETATM   27  O4  UNL     1      -4.708   0.539  12.874  1.00  0.00    -0.531 OA
HETATM   28  O5  UNL     1      -5.853   1.750  11.396  1.00  0.00    -0.531 OA
ENDBRANCH  23  26
ENDBRANCH   1  16
TORSDOF 7
ENDMDL
