MODEL 2
REMARK VINA RESULT: -7.959634162      0.053      1.003
REMARK  7 active torsions:
REMARK  status: ('A' for Active; 'I' for Inactive)
REMARK    1  A    between atoms: N1_1  and  S1_4 
REMARK    2  A    between atoms: S1_4  and  C1_7 
REMARK    3  A    between atoms: C4_10  and  C5_11 
REMARK    4  A    between atoms: C5_11  and  N2_12 
REMARK    5  A    between atoms: N2_12  and  C6_14 
REMARK    6  A    between atoms: C8_20  and  O3_21 
REMARK    7  A    between atoms: C9_23  and  N5_24 
ROOT
HETATM    1  N2  UNL     1      -4.107   4.137  11.858  1.00  0.00    -0.370 N 
ATOM      2  H2  UNL     1      -4.941   4.294  11.291  1.00  0.00     0.161 HD
ENDROOT
BRANCH   1   3
HETATM    3  C5  UNL     1      -3.951   4.860  13.122  1.00  0.00     0.160 C 
BRANCH   3   4
HETATM    4  C4  UNL     1      -4.531   4.010  14.182  1.00  0.00    -0.041 A 
HETATM    5  C3  UNL     1      -5.902   3.930  14.401  1.00  0.00     0.010 A 
HETATM    6  C2  UNL     1      -6.408   3.120  15.406  1.00  0.00     0.026 A 
HETATM    7  C1  UNL     1      -5.601   2.365  16.226  1.00  0.00     0.079 A 
HETATM    8  C11 UNL     1      -4.243   2.453  15.998  1.00  0.00     0.026 A 
HETATM    9  C10 UNL     1      -3.725   3.254  15.003  1.00  0.00     0.010 A 
BRANCH   7  10
HETATM   10  S1  UNL     1      -6.306   1.362  17.475  1.00  0.00     0.256 S 
HETATM   11  O1  UNL     1      -5.323   0.263  17.758  1.00  0.00    -0.201 OA
HETATM   12  O2  UNL     1      -7.597   0.790  16.982  1.00  0.00    -0.201 OA
BRANCH  10  13
HETATM   13  N1  UNL     1      -6.539   2.370  18.865  1.00  0.00    -0.324 N 
ATOM     14  H12 UNL     1      -6.702   2.007  19.804  1.00  0.00     0.169 HD
ATOM     15  H11 UNL     1      -6.490   3.359  18.617  1.00  0.00     0.169 HD
ENDBRANCH  10  13
ENDBRANCH   7  10
ENDBRANCH   3   4
ENDBRANCH   1   3
BRANCH   1  16
HETATM   16  C6  UNL     1      -3.122   3.222  11.404  1.00  0.00     0.140 A 
HETATM   17  N3  UNL     1      -1.967   3.717  10.939  1.00  0.00    -0.337 N 
HETATM   18  C7  UNL     1      -1.027   2.868  10.506  1.00  0.00     0.184 A 
ATOM     19  H3  UNL     1      -1.807   4.724  10.914  1.00  0.00     0.168 HD
HETATM   20  N4  UNL     1      -1.258   1.532  10.547  1.00  0.00    -0.331 N 
HETATM   21  C8  UNL     1      -2.385   0.988  10.999  1.00  0.00     0.178 A 
ATOM     22  H4  UNL     1      -0.524   0.908  10.212  1.00  0.00     0.168 HD
HETATM   23  C9  UNL     1      -3.366   1.872  11.450  1.00  0.00     0.197 A 
BRANCH  21  24
HETATM   24  O3  UNL     1      -2.558  -0.383  11.016  1.00  0.00    -0.344 OA
ATOM     25  H3  UNL     1      -2.373  -0.909  10.247  1.00  0.00     0.219 HD
ENDBRANCH  21  24
BRANCH  23  26
HETATM   26  N5  UNL     1      -4.579   1.350  11.938  1.00  0.00    -0.107 N 
HETATM   27  O4  UNL     1      -5.657   1.705  11.393  1.00  0.00    -0.531 OA
HETATM   28  O5  UNL     1      -4.693   0.471  12.978  1.00  0.00    -0.531 OA
ENDBRANCH  23  26
ENDBRANCH   1  16
TORSDOF 7
ENDMDL
