MODEL 1
REMARK VINA RESULT: -7.972641567      0.000      0.000
REMARK  7 active torsions:
REMARK  status: ('A' for Active; 'I' for Inactive)
REMARK    1  A    between atoms: N1_1  and  S1_4 
REMARK    2  A    between atoms: S1_4  and  C1_7 
REMARK    3  A    between atoms: C4_10  and  C5_11 
REMARK    4  A    between atoms: C5_11  and  N2_12 
REMARK    5  A    between atoms: N2_12  and  C6_14 
REMARK    6  A    between atoms: C8_20  and  O3_21 
REMARK    7  A    between atoms: C9_23  and  N5_24 
ROOT
HETATM    1  N2  UNL     1      -4.057   4.118  11.869  1.00  0.00    -0.370 N 
ATOM      2  H2  UNL     1      -4.892   4.297  11.311  1.00  0.00     0.161 HD
ENDROOT
BRANCH   1   3
HETATM    3  C5  UNL     1      -3.877   4.825  13.139  1.00  0.00     0.160 C 
BRANCH   3   4
HETATM    4  C4  UNL     1      -4.465   3.976  14.196  1.00  0.00    -0.041 A 
HETATM    5  C3  UNL     1      -3.682   3.210  15.052  1.00  0.00     0.010 A 
HETATM    6  C2  UNL     1      -4.271   2.426  16.031  1.00  0.00     0.026 A 
HETATM    7  C1  UNL     1      -5.634   2.362  16.209  1.00  0.00     0.079 A 
HETATM    8  C11 UNL     1      -6.400   3.127  15.354  1.00  0.00     0.026 A 
HETATM    9  C10 UNL     1      -5.828   3.912  14.375  1.00  0.00     0.010 A 
BRANCH   7  10
HETATM   10  S1  UNL     1      -6.312   1.352  17.468  1.00  0.00     0.256 S 
HETATM   11  O1  UNL     1      -5.313   0.265  17.741  1.00  0.00    -0.201 OA
HETATM   12  O2  UNL     1      -7.602   0.766  16.993  1.00  0.00    -0.201 OA
BRANCH  10  13
HETATM   13  N1  UNL     1      -6.538   2.360  18.860  1.00  0.00    -0.324 N 
ATOM     14  H12 UNL     1      -5.894   2.383  19.650  1.00  0.00     0.169 HD
ATOM     15  H11 UNL     1      -7.391   2.914  18.781  1.00  0.00     0.169 HD
ENDBRANCH  10  13
ENDBRANCH   7  10
ENDBRANCH   3   4
ENDBRANCH   1   3
BRANCH   1  16
HETATM   16  C6  UNL     1      -3.093   3.189  11.399  1.00  0.00     0.140 A 
HETATM   17  N3  UNL     1      -1.936   3.666  10.921  1.00  0.00    -0.337 N 
HETATM   18  C7  UNL     1      -1.016   2.803  10.473  1.00  0.00     0.184 A 
ATOM     19  H3  UNL     1      -1.759   4.670  10.899  1.00  0.00     0.168 HD
HETATM   20  N4  UNL     1      -1.269   1.472  10.511  1.00  0.00    -0.331 N 
HETATM   21  C8  UNL     1      -2.400   0.945  10.974  1.00  0.00     0.178 A 
ATOM     22  H4  UNL     1      -0.551   0.837  10.163  1.00  0.00     0.168 HD
HETATM   23  C9  UNL     1      -3.360   1.843  11.441  1.00  0.00     0.197 A 
BRANCH  21  24
HETATM   24  O3  UNL     1      -2.597  -0.424  10.986  1.00  0.00    -0.344 OA
ATOM     25  H3  UNL     1      -2.828  -0.892  10.193  1.00  0.00     0.219 HD
ENDBRANCH  21  24
BRANCH  23  26
HETATM   26  N5  UNL     1      -4.576   1.339  11.942  1.00  0.00    -0.107 N 
HETATM   27  O4  UNL     1      -5.654   1.705  11.405  1.00  0.00    -0.531 OA
HETATM   28  O5  UNL     1      -4.692   0.468  12.988  1.00  0.00    -0.531 OA
ENDBRANCH  23  26
ENDBRANCH   1  16
TORSDOF 7
ENDMDL
