MODEL 3
REMARK VINA RESULT: -7.329513680      3.794      7.377
REMARK  7 active torsions:
REMARK  status: ('A' for Active; 'I' for Inactive)
REMARK    1  A    between atoms: O1_2  and  C2_3 
REMARK    2  A    between atoms: C4_9  and  N3_10 
REMARK    3  A    between atoms: N3_10  and  C5_12 
REMARK    4  A    between atoms: C5_12  and  C6_13 
REMARK    5  A    between atoms: C9_16  and  S1_17 
REMARK    6  A    between atoms: S1_17  and  N4_18 
REMARK    7  A    between atoms: C12_25  and  N5_26 
ROOT
HETATM    1  N3  UNL     1      -3.241   2.171  13.137  1.00  0.00    -0.370 N 
ATOM      2  H3  UNL     1      -2.297   2.124  13.521  1.00  0.00     0.161 HD
ENDROOT
BRANCH   1   3
HETATM    3  C4  UNL     1      -4.285   2.742  13.925  1.00  0.00     0.140 A 
HETATM    4  N2  UNL     1      -4.867   3.910  13.587  1.00  0.00    -0.337 N 
HETATM    5  C3  UNL     1      -5.857   4.464  14.318  1.00  0.00     0.184 A 
ATOM      6  H2  UNL     1      -4.549   4.392  12.747  1.00  0.00     0.168 HD
HETATM    7  N1  UNL     1      -6.254   3.803  15.420  1.00  0.00    -0.331 N 
HETATM    8  C2  UNL     1      -5.720   2.631  15.825  1.00  0.00     0.180 A 
ATOM      9  H1  UNL     1      -7.001   4.211  15.982  1.00  0.00     0.168 HD
HETATM   10  C12 UNL     1      -4.693   2.069  15.052  1.00  0.00     0.197 A 
BRANCH   8  11
HETATM   11  O1  UNL     1      -6.123   1.956  16.945  1.00  0.00    -0.339 OA
HETATM   12  C1  UNL     1      -7.184   1.033  16.947  1.00  0.00     0.211 C 
ENDBRANCH   8  11
BRANCH  10  13
HETATM   13  N5  UNL     1      -4.077   0.851  15.397  1.00  0.00    -0.107 N 
HETATM   14  O4  UNL     1      -3.085   0.835  16.131  1.00  0.00    -0.531 OA
HETATM   15  O5  UNL     1      -4.580  -0.322  14.917  1.00  0.00    -0.531 OA
ENDBRANCH  10  13
ENDBRANCH   1   3
BRANCH   1  16
HETATM   16  C5  UNL     1      -3.491   1.656  11.801  1.00  0.00     0.160 C 
BRANCH  16  17
HETATM   17  C6  UNL     1      -2.568   2.364  10.898  1.00  0.00    -0.041 A 
HETATM   18  C7  UNL     1      -2.785   3.614  10.362  1.00  0.00     0.010 A 
HETATM   19  C8  UNL     1      -1.865   4.225   9.524  1.00  0.00     0.026 A 
HETATM   20  C9  UNL     1      -0.695   3.572   9.208  1.00  0.00     0.079 A 
HETATM   21  C10 UNL     1      -0.474   2.329   9.738  1.00  0.00     0.026 A 
HETATM   22  C11 UNL     1      -1.381   1.716  10.571  1.00  0.00     0.010 A 
BRANCH  20  23
HETATM   23  S1  UNL     1       0.512   4.303   8.142  1.00  0.00     0.256 S 
HETATM   24  O2  UNL     1       0.142   5.736   7.925  1.00  0.00    -0.201 OA
HETATM   25  O3  UNL     1       1.840   4.181   8.855  1.00  0.00    -0.201 OA
BRANCH  23  26
HETATM   26  N4  UNL     1       0.604   3.421   6.686  1.00  0.00    -0.324 N 
ATOM     27  H42 UNL     1       0.574   3.839   5.757  1.00  0.00     0.169 HD
ATOM     28  H41 UNL     1       0.692   2.425   6.892  1.00  0.00     0.169 HD
ENDBRANCH  23  26
ENDBRANCH  20  23
ENDBRANCH  16  17
ENDBRANCH   1  16
TORSDOF 7
ENDMDL
