MODEL 2
REMARK VINA RESULT: -7.703294964      3.886      7.145
REMARK  7 active torsions:
REMARK  status: ('A' for Active; 'I' for Inactive)
REMARK    1  A    between atoms: O1_2  and  C2_3 
REMARK    2  A    between atoms: C4_9  and  N3_10 
REMARK    3  A    between atoms: N3_10  and  C5_12 
REMARK    4  A    between atoms: C5_12  and  C6_13 
REMARK    5  A    between atoms: C9_16  and  S1_17 
REMARK    6  A    between atoms: S1_17  and  N4_18 
REMARK    7  A    between atoms: C12_25  and  N5_26 
ROOT
HETATM    1  N3  UNL     1      -3.309   1.950  12.966  1.00  0.00    -0.370 N 
ATOM      2  H3  UNL     1      -2.664   1.293  13.406  1.00  0.00     0.161 HD
ENDROOT
BRANCH   1   3
HETATM    3  C4  UNL     1      -4.308   2.584  13.765  1.00  0.00     0.140 A 
HETATM    4  N2  UNL     1      -4.889   3.739  13.382  1.00  0.00    -0.337 N 
HETATM    5  C3  UNL     1      -5.836   4.352  14.123  1.00  0.00     0.184 A 
ATOM      6  H2  UNL     1      -4.603   4.165  12.501  1.00  0.00     0.168 HD
HETATM    7  N1  UNL     1      -6.191   3.766  15.280  1.00  0.00    -0.331 N 
HETATM    8  C2  UNL     1      -5.656   2.612  15.731  1.00  0.00     0.180 A 
ATOM      9  H1  UNL     1      -6.906   4.220  15.849  1.00  0.00     0.168 HD
HETATM   10  C12 UNL     1      -4.673   1.988  14.947  1.00  0.00     0.197 A 
BRANCH   8  11
HETATM   11  O1  UNL     1      -6.015   2.013  16.907  1.00  0.00    -0.339 OA
HETATM   12  C1  UNL     1      -7.044   1.059  17.000  1.00  0.00     0.211 C 
ENDBRANCH   8  11
BRANCH  10  13
HETATM   13  N5  UNL     1      -4.059   0.782  15.338  1.00  0.00    -0.107 N 
HETATM   14  O4  UNL     1      -3.101   0.789  16.116  1.00  0.00    -0.531 OA
HETATM   15  O5  UNL     1      -4.525  -0.404  14.853  1.00  0.00    -0.531 OA
ENDBRANCH  10  13
ENDBRANCH   1   3
BRANCH   1  16
HETATM   16  C5  UNL     1      -3.190   2.218  11.543  1.00  0.00     0.160 C 
BRANCH  16  17
HETATM   17  C6  UNL     1      -1.897   2.899  11.351  1.00  0.00    -0.041 A 
HETATM   18  C7  UNL     1      -1.467   3.999  12.059  1.00  0.00     0.010 A 
HETATM   19  C8  UNL     1      -0.232   4.584  11.830  1.00  0.00     0.026 A 
HETATM   20  C9  UNL     1       0.602   4.059  10.867  1.00  0.00     0.079 A 
HETATM   21  C10 UNL     1       0.179   2.964  10.161  1.00  0.00     0.026 A 
HETATM   22  C11 UNL     1      -1.046   2.378  10.382  1.00  0.00     0.010 A 
BRANCH  20  23
HETATM   23  S1  UNL     1       2.187   4.766  10.533  1.00  0.00     0.256 S 
HETATM   24  O2  UNL     1       2.921   3.856   9.600  1.00  0.00    -0.201 OA
HETATM   25  O3  UNL     1       1.928   6.113   9.895  1.00  0.00    -0.201 OA
BRANCH  23  26
HETATM   26  N4  UNL     1       3.025   5.020  11.996  1.00  0.00    -0.324 N 
ATOM     27  H42 UNL     1       2.853   5.800  12.629  1.00  0.00     0.169 HD
ATOM     28  H41 UNL     1       3.712   4.278  12.133  1.00  0.00     0.169 HD
ENDBRANCH  23  26
ENDBRANCH  20  23
ENDBRANCH  16  17
ENDBRANCH   1  16
TORSDOF 7
ENDMDL
