MODEL 1
REMARK VINA RESULT: -8.091532751      0.000      0.000
REMARK  7 active torsions:
REMARK  status: ('A' for Active; 'I' for Inactive)
REMARK    1  A    between atoms: O1_2  and  C2_3 
REMARK    2  A    between atoms: C4_9  and  N3_10 
REMARK    3  A    between atoms: N3_10  and  C5_12 
REMARK    4  A    between atoms: C5_12  and  C6_13 
REMARK    5  A    between atoms: C9_16  and  S1_17 
REMARK    6  A    between atoms: S1_17  and  N4_18 
REMARK    7  A    between atoms: C12_25  and  N5_26 
ROOT
HETATM    1  N3  UNL     1      -3.615   4.037  11.816  1.00  0.00    -0.370 N 
ATOM      2  H3  UNL     1      -4.453   4.298  11.298  1.00  0.00     0.161 HD
ENDROOT
BRANCH   1   3
HETATM    3  C4  UNL     1      -2.730   3.062  11.265  1.00  0.00     0.140 A 
HETATM    4  N2  UNL     1      -1.471   3.376  10.901  1.00  0.00    -0.337 N 
HETATM    5  C3  UNL     1      -0.620   2.468  10.380  1.00  0.00     0.184 A 
ATOM      6  H2  UNL     1      -1.149   4.336  11.025  1.00  0.00     0.168 HD
HETATM    7  N1  UNL     1      -1.074   1.212  10.229  1.00  0.00    -0.331 N 
HETATM    8  C2  UNL     1      -2.321   0.820  10.568  1.00  0.00     0.180 A 
ATOM      9  H1  UNL     1      -0.441   0.515   9.836  1.00  0.00     0.168 HD
HETATM   10  C12 UNL     1      -3.192   1.778  11.109  1.00  0.00     0.197 A 
BRANCH   8  11
HETATM   11  O1  UNL     1      -2.786  -0.458  10.416  1.00  0.00    -0.339 OA
HETATM   12  C1  UNL     1      -2.442  -1.510  11.285  1.00  0.00     0.211 C 
ENDBRANCH   8  11
BRANCH  10  13
HETATM   13  N5  UNL     1      -4.510   1.460  11.491  1.00  0.00    -0.107 N 
HETATM   14  O4  UNL     1      -5.462   1.747  10.760  1.00  0.00    -0.531 OA
HETATM   15  O5  UNL     1      -4.738   0.829  12.678  1.00  0.00    -0.531 OA
ENDBRANCH  10  13
ENDBRANCH   1   3
BRANCH   1  16
HETATM   16  C5  UNL     1      -3.348   4.667  13.099  1.00  0.00     0.160 C 
BRANCH  16  17
HETATM   17  C6  UNL     1      -4.069   3.878  14.112  1.00  0.00    -0.041 A 
HETATM   18  C7  UNL     1      -5.426   3.928  14.339  1.00  0.00     0.010 A 
HETATM   19  C8  UNL     1      -6.040   3.148  15.307  1.00  0.00     0.026 A 
HETATM   20  C9  UNL     1      -5.280   2.293  16.073  1.00  0.00     0.079 A 
HETATM   21  C10 UNL     1      -3.930   2.238  15.851  1.00  0.00     0.026 A 
HETATM   22  C11 UNL     1      -3.314   3.009  14.893  1.00  0.00     0.010 A 
BRANCH  20  23
HETATM   23  S1  UNL     1      -6.010   1.276  17.322  1.00  0.00     0.256 S 
HETATM   24  O2  UNL     1      -7.364   0.851  16.851  1.00  0.00    -0.201 OA
HETATM   25  O3  UNL     1      -5.091   0.088  17.497  1.00  0.00    -0.201 OA
BRANCH  23  26
HETATM   26  N4  UNL     1      -6.067   2.130  18.797  1.00  0.00    -0.324 N 
ATOM     27  H42 UNL     1      -5.440   2.895  19.043  1.00  0.00     0.169 HD
ATOM     28  H41 UNL     1      -6.815   1.756  19.383  1.00  0.00     0.169 HD
ENDBRANCH  23  26
ENDBRANCH  20  23
ENDBRANCH  16  17
ENDBRANCH   1  16
TORSDOF 7
ENDMDL
