MODEL 4
REMARK VINA RESULT: -7.749505700      3.798      6.722
REMARK  9 active torsions:
REMARK  status: ('A' for Active; 'I' for Inactive)
REMARK    1  A    between atoms: N1_1  and  S1_4 
REMARK    2  A    between atoms: S1_4  and  C1_7 
REMARK    3  A    between atoms: C4_10  and  C5_11 
REMARK    4  A    between atoms: C5_11  and  N2_12 
REMARK    5  A    between atoms: N2_12  and  C6_14 
REMARK    6  A    between atoms: C8_20  and  N5_21 
REMARK    7  A    between atoms: N5_21  and  C9_23 
REMARK    8  A    between atoms: C9_23  and  C10_24 
REMARK    9  A    between atoms: C16_30  and  N6_31 
ROOT
HETATM    1  C6  UNL     1      -1.811   4.360  11.877  1.00  0.00     0.139 A 
HETATM    2  N3  UNL     1      -1.056   4.740  12.904  1.00  0.00    -0.337 N 
ATOM      3  H3  UNL     1      -0.107   5.064  12.714  1.00  0.00     0.168 HD
HETATM    4  C7  UNL     1      -1.481   4.719  14.176  1.00  0.00     0.183 A 
HETATM    5  N4  UNL     1      -2.729   4.291  14.422  1.00  0.00    -0.337 N 
ATOM      6  H4  UNL     1      -3.061   4.272  15.386  1.00  0.00     0.168 HD
HETATM    7  C8  UNL     1      -3.552   3.890  13.449  1.00  0.00     0.139 A 
HETATM    8  C16 UNL     1      -3.087   3.924  12.150  1.00  0.00     0.190 A 
ENDROOT
BRANCH   1   9
HETATM    9  N2  UNL     1      -1.375   4.377  10.530  1.00  0.00    -0.370 N 
ATOM     10  H2  UNL     1      -1.245   3.490  10.044  1.00  0.00     0.161 HD
BRANCH   9  11
HETATM   11  C5  UNL     1      -1.106   5.613   9.817  1.00  0.00     0.160 C 
BRANCH  11  12
HETATM   12  C4  UNL     1      -2.383   6.072   9.217  1.00  0.00    -0.041 A 
HETATM   13  C3  UNL     1      -3.137   7.105   9.736  1.00  0.00     0.010 A 
HETATM   14  C2  UNL     1      -4.318   7.477   9.132  1.00  0.00     0.026 A 
HETATM   15  C1  UNL     1      -4.752   6.824   8.011  1.00  0.00     0.079 A 
HETATM   16  C18 UNL     1      -3.982   5.792   7.508  1.00  0.00     0.026 A 
HETATM   17  C17 UNL     1      -2.805   5.395   8.081  1.00  0.00     0.010 A 
BRANCH  15  18
HETATM   18  S1  UNL     1      -6.248   7.280   7.227  1.00  0.00     0.256 S 
HETATM   19  O1  UNL     1      -6.745   8.567   7.830  1.00  0.00    -0.201 OA
HETATM   20  O2  UNL     1      -7.288   6.244   7.430  1.00  0.00    -0.201 OA
BRANCH  18  21
HETATM   21  N1  UNL     1      -5.935   7.567   5.553  1.00  0.00    -0.324 N 
ATOM     22  H12 UNL     1      -6.643   7.778   4.848  1.00  0.00     0.169 HD
ATOM     23  H11 UNL     1      -4.930   7.488   5.405  1.00  0.00     0.169 HD
ENDBRANCH  18  21
ENDBRANCH  15  18
ENDBRANCH  11  12
ENDBRANCH   9  11
ENDBRANCH   1   9
BRANCH   8  24
HETATM   24  N6  UNL     1      -3.926   3.505  11.056  1.00  0.00    -0.108 N 
HETATM   25  O3  UNL     1      -3.624   2.488  10.412  1.00  0.00    -0.531 OA
HETATM   26  O4  UNL     1      -5.043   4.233  10.739  1.00  0.00    -0.531 OA
ENDBRANCH   8  24
BRANCH   7  27
HETATM   27  N5  UNL     1      -4.874   3.433  13.671  1.00  0.00    -0.370 N 
ATOM     28  H5  UNL     1      -5.329   2.832  12.984  1.00  0.00     0.161 HD
BRANCH  27  29
HETATM   29  C9  UNL     1      -5.579   3.822  14.874  1.00  0.00     0.160 C 
BRANCH  29  30
HETATM   30  C10 UNL     1      -5.750   2.657  15.775  1.00  0.00    -0.041 A 
HETATM   31  C11 UNL     1      -4.923   1.563  15.683  1.00  0.00     0.009 A 
HETATM   32  C12 UNL     1      -5.073   0.461  16.531  1.00  0.00     0.001 A 
HETATM   33  C13 UNL     1      -6.066   0.457  17.485  1.00  0.00     0.000 A 
HETATM   34  C14 UNL     1      -6.894   1.548  17.582  1.00  0.00     0.001 A 
HETATM   35  C15 UNL     1      -6.742   2.630  16.744  1.00  0.00     0.009 A 
ENDBRANCH  29  30
ENDBRANCH  27  29
ENDBRANCH   7  27
TORSDOF 9
ENDMDL
