MODEL 1
REMARK VINA RESULT: -8.182464946      0.000      0.000
REMARK  9 active torsions:
REMARK  status: ('A' for Active; 'I' for Inactive)
REMARK    1  A    between atoms: N1_1  and  S1_4 
REMARK    2  A    between atoms: S1_4  and  C1_7 
REMARK    3  A    between atoms: C4_10  and  C5_11 
REMARK    4  A    between atoms: C5_11  and  N2_12 
REMARK    5  A    between atoms: N2_12  and  C6_14 
REMARK    6  A    between atoms: C8_20  and  N5_21 
REMARK    7  A    between atoms: N5_21  and  C9_23 
REMARK    8  A    between atoms: C9_23  and  C10_24 
REMARK    9  A    between atoms: C16_30  and  N6_31 
ROOT
HETATM    1  C6  UNL     1      -2.715   5.397  12.227  1.00  0.00     0.139 A 
HETATM    2  N3  UNL     1      -1.528   5.826  12.648  1.00  0.00    -0.337 N 
ATOM      3  H3  UNL     1      -1.500   6.608  13.304  1.00  0.00     0.168 HD
HETATM    4  C7  UNL     1      -0.367   5.281  12.255  1.00  0.00     0.183 A 
HETATM    5  N4  UNL     1      -0.408   4.253  11.393  1.00  0.00    -0.337 N 
ATOM      6  H4  UNL     1       0.469   3.832  11.089  1.00  0.00     0.168 HD
HETATM    7  C8  UNL     1      -1.557   3.762  10.920  1.00  0.00     0.139 A 
HETATM    8  C16 UNL     1      -2.735   4.343  11.343  1.00  0.00     0.190 A 
ENDROOT
BRANCH   1   9
HETATM    9  N2  UNL     1      -3.947   5.964  12.635  1.00  0.00    -0.370 N 
ATOM     10  H2  UNL     1      -4.641   6.193  11.924  1.00  0.00     0.161 HD
BRANCH   9  11
HETATM   11  C5  UNL     1      -4.256   6.229  14.028  1.00  0.00     0.160 C 
BRANCH  11  12
HETATM   12  C4  UNL     1      -4.561   4.929  14.675  1.00  0.00    -0.041 A 
HETATM   13  C3  UNL     1      -3.609   3.960  14.916  1.00  0.00     0.010 A 
HETATM   14  C2  UNL     1      -3.962   2.770  15.517  1.00  0.00     0.026 A 
HETATM   15  C1  UNL     1      -5.261   2.544  15.879  1.00  0.00     0.079 A 
HETATM   16  C18 UNL     1      -6.199   3.528  15.629  1.00  0.00     0.026 A 
HETATM   17  C17 UNL     1      -5.886   4.720  15.035  1.00  0.00     0.010 A 
BRANCH  15  18
HETATM   18  S1  UNL     1      -5.732   1.042  16.643  1.00  0.00     0.256 S 
HETATM   19  O1  UNL     1      -5.192   1.016  18.049  1.00  0.00    -0.201 OA
HETATM   20  O2  UNL     1      -5.174  -0.120  15.913  1.00  0.00    -0.201 OA
BRANCH  18  21
HETATM   21  N1  UNL     1      -7.456   0.981  16.740  1.00  0.00    -0.324 N 
ATOM     22  H12 UNL     1      -8.007   1.153  17.582  1.00  0.00     0.169 HD
ATOM     23  H11 UNL     1      -7.812   0.745  15.814  1.00  0.00     0.169 HD
ENDBRANCH  18  21
ENDBRANCH  15  18
ENDBRANCH  11  12
ENDBRANCH   9  11
ENDBRANCH   1   9
BRANCH   8  24
HETATM   24  N6  UNL     1      -4.007   3.860  10.870  1.00  0.00    -0.108 N 
HETATM   25  O3  UNL     1      -4.207   3.765   9.649  1.00  0.00    -0.531 OA
HETATM   26  O4  UNL     1      -4.980   3.511  11.771  1.00  0.00    -0.531 OA
ENDBRANCH   8  24
BRANCH   7  27
HETATM   27  N5  UNL     1      -1.638   2.679  10.010  1.00  0.00    -0.370 N 
ATOM     28  H5  UNL     1      -2.090   2.806   9.104  1.00  0.00     0.161 HD
BRANCH  27  29
HETATM   29  C9  UNL     1      -1.080   1.393  10.368  1.00  0.00     0.160 C 
BRANCH  29  30
HETATM   30  C10 UNL     1      -2.122   0.520  10.960  1.00  0.00    -0.041 A 
HETATM   31  C11 UNL     1      -2.237  -0.798  10.589  1.00  0.00     0.009 A 
HETATM   32  C12 UNL     1      -3.214  -1.630  11.145  1.00  0.00     0.001 A 
HETATM   33  C13 UNL     1      -4.088  -1.132  12.084  1.00  0.00     0.000 A 
HETATM   34  C14 UNL     1      -3.979   0.184  12.459  1.00  0.00     0.001 A 
HETATM   35  C15 UNL     1      -3.014   0.998  11.909  1.00  0.00     0.009 A 
ENDBRANCH  29  30
ENDBRANCH  27  29
ENDBRANCH   7  27
TORSDOF 9
ENDMDL
