MODEL 3
REMARK VINA RESULT: -7.763054016      3.772      6.798
REMARK  9 active torsions:
REMARK  status: ('A' for Active; 'I' for Inactive)
REMARK    1  A    between atoms: N1_1  and  S1_4 
REMARK    2  A    between atoms: S1_4  and  C1_7 
REMARK    3  A    between atoms: C4_10  and  C5_11 
REMARK    4  A    between atoms: C5_11  and  N2_12 
REMARK    5  A    between atoms: N2_12  and  C6_14 
REMARK    6  A    between atoms: C8_20  and  N5_21 
REMARK    7  A    between atoms: N5_21  and  C9_23 
REMARK    8  A    between atoms: C9_23  and  C10_24 
REMARK    9  A    between atoms: C16_30  and  N6_31 
ROOT
HETATM    1  C6  UNL     1      -1.846   4.202  11.849  1.00  0.00     0.139 A 
HETATM    2  N3  UNL     1      -1.077   4.597  12.860  1.00  0.00    -0.337 N 
ATOM      3  H3  UNL     1      -0.120   4.887  12.657  1.00  0.00     0.168 HD
HETATM    4  C7  UNL     1      -1.498   4.632  14.133  1.00  0.00     0.183 A 
HETATM    5  N4  UNL     1      -2.757   4.249  14.397  1.00  0.00    -0.337 N 
ATOM      6  H4  UNL     1      -3.086   4.273  15.362  1.00  0.00     0.168 HD
HETATM    7  C8  UNL     1      -3.594   3.837  13.441  1.00  0.00     0.139 A 
HETATM    8  C16 UNL     1      -3.133   3.812  12.140  1.00  0.00     0.190 A 
ENDROOT
BRANCH   1   9
HETATM    9  N2  UNL     1      -1.414   4.160  10.501  1.00  0.00    -0.370 N 
ATOM     10  H2  UNL     1      -1.328   3.254  10.041  1.00  0.00     0.161 HD
BRANCH   9  11
HETATM   11  C5  UNL     1      -1.090   5.361   9.752  1.00  0.00     0.160 C 
BRANCH  11  12
HETATM   12  C4  UNL     1      -2.351   5.874   9.161  1.00  0.00    -0.041 A 
HETATM   13  C3  UNL     1      -3.093   6.892   9.725  1.00  0.00     0.010 A 
HETATM   14  C2  UNL     1      -4.259   7.318   9.126  1.00  0.00     0.026 A 
HETATM   15  C1  UNL     1      -4.688   6.733   7.966  1.00  0.00     0.079 A 
HETATM   16  C18 UNL     1      -3.930   5.716   7.418  1.00  0.00     0.026 A 
HETATM   17  C17 UNL     1      -2.768   5.267   7.984  1.00  0.00     0.010 A 
BRANCH  15  18
HETATM   18  S1  UNL     1      -6.165   7.258   7.189  1.00  0.00     0.256 S 
HETATM   19  O1  UNL     1      -6.634   8.534   7.835  1.00  0.00    -0.201 OA
HETATM   20  O2  UNL     1      -7.234   6.243   7.344  1.00  0.00    -0.201 OA
BRANCH  18  21
HETATM   21  N1  UNL     1      -5.831   7.600   5.528  1.00  0.00    -0.324 N 
ATOM     22  H12 UNL     1      -6.375   7.261   4.735  1.00  0.00     0.169 HD
ATOM     23  H11 UNL     1      -5.002   8.192   5.493  1.00  0.00     0.169 HD
ENDBRANCH  18  21
ENDBRANCH  15  18
ENDBRANCH  11  12
ENDBRANCH   9  11
ENDBRANCH   1   9
BRANCH   8  24
HETATM   24  N6  UNL     1      -3.987   3.379  11.064  1.00  0.00    -0.108 N 
HETATM   25  O3  UNL     1      -4.988   4.051  10.772  1.00  0.00    -0.531 OA
HETATM   26  O4  UNL     1      -3.684   2.233  10.375  1.00  0.00    -0.531 OA
ENDBRANCH   8  24
BRANCH   7  27
HETATM   27  N5  UNL     1      -4.928   3.426  13.682  1.00  0.00    -0.370 N 
ATOM     28  H5  UNL     1      -5.418   2.853  12.995  1.00  0.00     0.161 HD
BRANCH  27  29
HETATM   29  C9  UNL     1      -5.595   3.821  14.904  1.00  0.00     0.160 C 
BRANCH  29  30
HETATM   30  C10 UNL     1      -5.745   2.658  15.813  1.00  0.00    -0.041 A 
HETATM   31  C11 UNL     1      -6.723   2.635  16.778  1.00  0.00     0.009 A 
HETATM   32  C12 UNL     1      -6.876   1.541  17.636  1.00  0.00     0.001 A 
HETATM   33  C13 UNL     1      -6.036   0.457  17.525  1.00  0.00     0.000 A 
HETATM   34  C14 UNL     1      -5.057   0.474  16.562  1.00  0.00     0.001 A 
HETATM   35  C15 UNL     1      -4.911   1.554  15.720  1.00  0.00     0.009 A 
ENDBRANCH  29  30
ENDBRANCH  27  29
ENDBRANCH   7  27
TORSDOF 9
ENDMDL
