MODEL 19
REMARK VINA RESULT: -6.426872475      4.052      6.623
REMARK  6 active torsions:
REMARK  status: ('A' for Active; 'I' for Inactive)
REMARK    1  A    between atoms: S1_2  and  C2_3 
REMARK    2  A    between atoms: C4_8  and  C5_9 
REMARK    3  A    between atoms: C6_11  and  N2_12 
REMARK    4  A    between atoms: N2_12  and  C7_14 
REMARK    5  A    between atoms: C10_17  and  S2_18 
REMARK    6  A    between atoms: S2_18  and  N3_19 
ROOT
HETATM    1  N2  UNL     1      -4.859   4.502  13.116  1.00  0.00    -0.342 N 
ATOM      2  H2  UNL     1      -5.694   4.765  12.592  1.00  0.00     0.167 HD
ENDROOT
BRANCH   1   3
HETATM    3  C6  UNL     1      -4.712   3.134  13.440  1.00  0.00     0.124 A 
HETATM    4  C4  UNL     1      -4.301   2.159  12.573  1.00  0.00     0.084 A 
HETATM    5  C3  UNL     1      -4.156   0.822  13.008  1.00  0.00     0.122 A 
HETATM    6  N1  UNL     1      -4.431   0.541  14.280  1.00  0.00    -0.326 N 
HETATM    7 CL1  UNL     1      -3.629  -0.425  11.897  1.00  0.00    -0.063 Cl
HETATM    8  C2  UNL     1      -4.841   1.487  15.158  1.00  0.00     0.146 A 
ATOM      9  H1  UNL     1      -4.330  -0.421  14.604  1.00  0.00     0.169 HD
HETATM   10  N4  UNL     1      -4.964   2.729  14.713  1.00  0.00    -0.322 N 
ATOM     11  H4  UNL     1      -5.272   3.438  15.379  1.00  0.00     0.169 HD
BRANCH   4  12
HETATM   12  C5  UNL     1      -4.013   2.442  11.196  1.00  0.00     0.277 C 
HETATM   13  O1  UNL     1      -4.806   2.871  10.369  1.00  0.00    -0.301 OA
ENDBRANCH   4  12
BRANCH   8  14
HETATM   14  S1  UNL     1      -5.178   0.989  16.831  1.00  0.00    -0.098 SA
HETATM   15  C1  UNL     1      -6.985   1.112  17.093  1.00  0.00     0.099 C 
ENDBRANCH   8  14
ENDBRANCH   1   3
BRANCH   1  16
HETATM   16  C7  UNL     1      -3.959   5.541  13.447  1.00  0.00     0.033 A 
HETATM   17  C8  UNL     1      -3.420   6.302  12.398  1.00  0.00     0.031 A 
HETATM   18  C9  UNL     1      -2.548   7.352  12.629  1.00  0.00     0.027 A 
HETATM   19  C10 UNL     1      -2.193   7.670  13.901  1.00  0.00     0.079 A 
HETATM   20  C11 UNL     1      -2.700   6.948  14.947  1.00  0.00     0.027 A 
HETATM   21  C12 UNL     1      -3.584   5.887  14.696  1.00  0.00     0.031 A 
BRANCH  19  22
HETATM   22  S2  UNL     1      -1.088   9.004  14.142  1.00  0.00     0.256 S 
HETATM   23  O2  UNL     1      -0.976   9.280  15.613  1.00  0.00    -0.201 OA
HETATM   24  O3  UNL     1       0.269   8.666  13.588  1.00  0.00    -0.201 OA
BRANCH  22  25
HETATM   25  N3  UNL     1      -1.649  10.401  13.293  1.00  0.00    -0.324 N 
ATOM     26  H32 UNL     1      -2.548  10.457  12.814  1.00  0.00     0.169 HD
ATOM     27  H31 UNL     1      -0.954  11.146  13.345  1.00  0.00     0.169 HD
ENDBRANCH  22  25
ENDBRANCH  19  22
ENDBRANCH   1  16
TORSDOF 6
ENDMDL
