MODEL 12
REMARK VINA RESULT: -6.654350743      2.566      3.166
REMARK  6 active torsions:
REMARK  status: ('A' for Active; 'I' for Inactive)
REMARK    1  A    between atoms: S1_2  and  C2_3 
REMARK    2  A    between atoms: C4_8  and  C5_9 
REMARK    3  A    between atoms: C6_11  and  N2_12 
REMARK    4  A    between atoms: N2_12  and  C7_14 
REMARK    5  A    between atoms: C10_17  and  S2_18 
REMARK    6  A    between atoms: S2_18  and  N3_19 
ROOT
HETATM    1  N2  UNL     1      -4.193   5.999  14.079  1.00  0.00    -0.342 N 
ATOM      2  H2  UNL     1      -4.772   6.806  14.309  1.00  0.00     0.167 HD
ENDROOT
BRANCH   1   3
HETATM    3  C6  UNL     1      -3.170   6.197  13.124  1.00  0.00     0.124 A 
HETATM    4  C4  UNL     1      -1.991   6.852  13.356  1.00  0.00     0.084 A 
HETATM    5  C3  UNL     1      -1.017   6.967  12.338  1.00  0.00     0.122 A 
HETATM    6  N1  UNL     1      -1.281   6.424  11.152  1.00  0.00    -0.326 N 
HETATM    7 CL1  UNL     1       0.491   7.805  12.637  1.00  0.00    -0.063 Cl
HETATM    8  C2  UNL     1      -2.440   5.772  10.895  1.00  0.00     0.146 A 
ATOM      9  H1  UNL     1      -0.585   6.502  10.410  1.00  0.00     0.169 HD
HETATM   10  N4  UNL     1      -3.328   5.683  11.875  1.00  0.00    -0.322 N 
ATOM     11  H4  UNL     1      -4.198   5.190  11.677  1.00  0.00     0.169 HD
BRANCH   4  12
HETATM   12  C5  UNL     1      -1.698   7.454  14.625  1.00  0.00     0.277 C 
HETATM   13  O1  UNL     1      -2.500   8.016  15.358  1.00  0.00    -0.301 OA
ENDBRANCH   4  12
BRANCH   8  14
HETATM   14  S1  UNL     1      -2.676   5.088   9.271  1.00  0.00    -0.098 SA
HETATM   15  C1  UNL     1      -3.503   6.360   8.249  1.00  0.00     0.099 C 
ENDBRANCH   8  14
ENDBRANCH   1   3
BRANCH   1  16
HETATM   16  C7  UNL     1      -4.490   4.788  14.747  1.00  0.00     0.033 A 
HETATM   17  C8  UNL     1      -5.816   4.572  15.155  1.00  0.00     0.031 A 
HETATM   18  C9  UNL     1      -6.203   3.408  15.796  1.00  0.00     0.027 A 
HETATM   19  C10 UNL     1      -5.287   2.436  16.046  1.00  0.00     0.079 A 
HETATM   20  C11 UNL     1      -3.986   2.615  15.662  1.00  0.00     0.027 A 
HETATM   21  C12 UNL     1      -3.610   3.800  15.012  1.00  0.00     0.031 A 
BRANCH  19  22
HETATM   22  S2  UNL     1      -5.824   0.984  16.860  1.00  0.00     0.256 S 
HETATM   23  O2  UNL     1      -5.288  -0.210  16.123  1.00  0.00    -0.201 OA
HETATM   24  O3  UNL     1      -5.328   0.965  18.279  1.00  0.00    -0.201 OA
BRANCH  22  25
HETATM   25  N3  UNL     1      -7.551   0.944  16.925  1.00  0.00    -0.324 N 
ATOM     26  H32 UNL     1      -8.110   0.104  16.780  1.00  0.00     0.169 HD
ATOM     27  H31 UNL     1      -7.915   1.875  17.129  1.00  0.00     0.169 HD
ENDBRANCH  22  25
ENDBRANCH  19  22
ENDBRANCH   1  16
TORSDOF 6
ENDMDL
