MODEL 4
REMARK VINA RESULT: -6.971959969      2.167      2.582
REMARK  6 active torsions:
REMARK  status: ('A' for Active; 'I' for Inactive)
REMARK    1  A    between atoms: S1_2  and  C2_3 
REMARK    2  A    between atoms: C4_8  and  C5_9 
REMARK    3  A    between atoms: C6_11  and  N2_12 
REMARK    4  A    between atoms: N2_12  and  C7_14 
REMARK    5  A    between atoms: C10_17  and  S2_18 
REMARK    6  A    between atoms: S2_18  and  N3_19 
ROOT
HETATM    1  N2  UNL     1      -4.069   5.240  13.536  1.00  0.00    -0.342 N 
ATOM      2  H2  UNL     1      -4.755   5.945  13.266  1.00  0.00     0.167 HD
ENDROOT
BRANCH   1   3
HETATM    3  C6  UNL     1      -2.795   5.322  12.927  1.00  0.00     0.124 A 
HETATM    4  C4  UNL     1      -1.901   6.342  13.105  1.00  0.00     0.084 A 
HETATM    5  C3  UNL     1      -0.637   6.311  12.472  1.00  0.00     0.122 A 
HETATM    6  N1  UNL     1      -0.345   5.266  11.702  1.00  0.00    -0.326 N 
HETATM    7 CL1  UNL     1       0.506   7.618  12.701  1.00  0.00    -0.063 Cl
HETATM    8  C2  UNL     1      -1.212   4.244  11.509  1.00  0.00     0.146 A 
ATOM      9  H1  UNL     1       0.565   5.234  11.241  1.00  0.00     0.169 HD
HETATM   10  N4  UNL     1      -2.387   4.308  12.119  1.00  0.00    -0.322 N 
ATOM     11  H4  UNL     1      -3.036   3.535  11.971  1.00  0.00     0.169 HD
BRANCH   4  12
HETATM   12  C5  UNL     1      -2.206   7.482  13.921  1.00  0.00     0.277 C 
HETATM   13  O1  UNL     1      -2.609   7.453  15.076  1.00  0.00    -0.301 OA
ENDBRANCH   4  12
BRANCH   8  14
HETATM   14  S1  UNL     1      -0.707   2.903  10.458  1.00  0.00    -0.098 SA
HETATM   15  C1  UNL     1      -1.490   1.375  11.092  1.00  0.00     0.099 C 
ENDBRANCH   8  14
ENDBRANCH   1   3
BRANCH   1  16
HETATM   16  C7  UNL     1      -4.482   4.276  14.485  1.00  0.00     0.033 A 
HETATM   17  C8  UNL     1      -5.822   4.298  14.902  1.00  0.00     0.031 A 
HETATM   18  C9  UNL     1      -6.320   3.380  15.810  1.00  0.00     0.027 A 
HETATM   19  C10 UNL     1      -5.503   2.423  16.323  1.00  0.00     0.079 A 
HETATM   20  C11 UNL     1      -4.191   2.373  15.937  1.00  0.00     0.027 A 
HETATM   21  C12 UNL     1      -3.702   3.311  15.015  1.00  0.00     0.031 A 
BRANCH  19  22
HETATM   22  S2  UNL     1      -6.179   1.286  17.468  1.00  0.00     0.256 S 
HETATM   23  O2  UNL     1      -7.522   0.838  16.968  1.00  0.00    -0.201 OA
HETATM   24  O3  UNL     1      -5.274   0.095  17.619  1.00  0.00    -0.201 OA
BRANCH  22  25
HETATM   25  N3  UNL     1      -6.313   2.022  19.026  1.00  0.00    -0.324 N 
ATOM     26  H32 UNL     1      -5.720   1.789  19.822  1.00  0.00     0.169 HD
ATOM     27  H31 UNL     1      -7.064   2.712  19.024  1.00  0.00     0.169 HD
ENDBRANCH  22  25
ENDBRANCH  19  22
ENDBRANCH   1  16
TORSDOF 6
ENDMDL
