MODEL 3
REMARK VINA RESULT: -5.347988630      3.138      4.468
REMARK  0 active torsions:
REMARK  status: ('A' for Active; 'I' for Inactive)
ROOT
HETATM    1  N1  UNL     1     -32.091 -20.150  10.730  1.00  0.00    -0.074 NA
HETATM    2  C1  UNL     1     -30.920 -19.331  10.879  1.00  0.00     0.159 A 
HETATM    3  N2  UNL     1     -30.225 -19.027  11.945  1.00  0.00    -0.338 N 
ATOM      4  H2  UNL     1     -30.507 -19.400  12.852  1.00  0.00     0.167 HD
HETATM    5  C2  UNL     1     -29.177 -18.254  11.866  1.00  0.00     0.051 A 
HETATM    6  C3  UNL     1     -28.363 -17.865  12.928  1.00  0.00     0.031 A 
HETATM    7  C4  UNL     1     -27.287 -17.045  12.703  1.00  0.00     0.002 A 
HETATM    8  C5  UNL     1     -26.936 -16.560  11.465  1.00  0.00     0.002 A 
HETATM    9  C6  UNL     1     -27.740 -16.945  10.411  1.00  0.00     0.021 A 
HETATM   10  C7  UNL     1     -28.843 -17.783  10.626  1.00  0.00     0.034 A 
HETATM   11  S1  UNL     1     -30.071 -18.489   9.656  1.00  0.00    -0.055 SA
ENDROOT
TORSDOF 0
ENDMDL
