MODEL 5
REMARK VINA RESULT: -5.192046183      2.041      2.054
REMARK  0 active torsions:
REMARK  status: ('A' for Active; 'I' for Inactive)
ROOT
HETATM    1  N1  UNL     1     -25.245 -15.908   9.605  1.00  0.00    -0.074 NA
HETATM    2  C1  UNL     1     -26.462 -16.543  10.028  1.00  0.00     0.159 A 
HETATM    3  N2  UNL     1     -27.290 -17.316   9.371  1.00  0.00    -0.338 N 
ATOM      4  H2  UNL     1     -27.099 -17.543   8.396  1.00  0.00     0.167 HD
HETATM    5  C2  UNL     1     -28.357 -17.798   9.947  1.00  0.00     0.051 A 
HETATM    6  C3  UNL     1     -29.306 -18.627   9.351  1.00  0.00     0.031 A 
HETATM    7  C4  UNL     1     -30.385 -19.065  10.075  1.00  0.00     0.002 A 
HETATM    8  C5  UNL     1     -30.612 -18.737  11.391  1.00  0.00     0.002 A 
HETATM    9  C6  UNL     1     -29.674 -17.916  11.983  1.00  0.00     0.021 A 
HETATM   10  C7  UNL     1     -28.565 -17.461  11.256  1.00  0.00     0.034 A 
HETATM   11  S1  UNL     1     -27.202 -16.465  11.568  1.00  0.00    -0.055 SA
ENDROOT
TORSDOF 0
ENDMDL
