MODEL 4
REMARK VINA RESULT: -5.195947400      1.238      1.238
REMARK  0 active torsions:
REMARK  status: ('A' for Active; 'I' for Inactive)
ROOT
HETATM    1  N1  UNL     1     -26.516 -14.231   9.976  1.00  0.00    -0.074 NA
HETATM    2  C1  UNL     1     -27.344 -15.373  10.250  1.00  0.00     0.159 A 
HETATM    3  N2  UNL     1     -28.323 -15.899   9.558  1.00  0.00    -0.338 N 
ATOM      4  H2  UNL     1     -28.592 -15.479   8.669  1.00  0.00     0.167 HD
HETATM    5  C2  UNL     1     -28.959 -16.954   9.989  1.00  0.00     0.051 A 
HETATM    6  C3  UNL     1     -30.011 -17.598   9.342  1.00  0.00     0.031 A 
HETATM    7  C4  UNL     1     -30.592 -18.703   9.910  1.00  0.00     0.002 A 
HETATM    8  C5  UNL     1     -30.203 -19.243  11.112  1.00  0.00     0.002 A 
HETATM    9  C6  UNL     1     -29.161 -18.607  11.756  1.00  0.00     0.021 A 
HETATM   10  C7  UNL     1     -28.556 -17.477  11.188  1.00  0.00     0.034 A 
HETATM   11  S1  UNL     1     -27.283 -16.406  11.612  1.00  0.00    -0.055 SA
ENDROOT
TORSDOF 0
ENDMDL
