MODEL 1
REMARK VINA RESULT: -5.718534765      0.000      0.000
REMARK  0 active torsions:
REMARK  status: ('A' for Active; 'I' for Inactive)
ROOT
HETATM    1  N1  UNL     1     -28.103 -13.057  10.334  1.00  0.00    -0.074 NA
HETATM    2  C1  UNL     1     -28.528 -14.420  10.490  1.00  0.00     0.159 A 
HETATM    3  N2  UNL     1     -28.639 -15.382   9.609  1.00  0.00    -0.338 N 
ATOM      4  H2  UNL     1     -28.399 -15.200   8.634  1.00  0.00     0.167 HD
HETATM    5  C2  UNL     1     -29.051 -16.569   9.959  1.00  0.00     0.051 A 
HETATM    6  C3  UNL     1     -29.206 -17.665   9.113  1.00  0.00     0.031 A 
HETATM    7  C4  UNL     1     -29.650 -18.862   9.616  1.00  0.00     0.002 A 
HETATM    8  C5  UNL     1     -29.964 -19.072  10.937  1.00  0.00     0.002 A 
HETATM    9  C6  UNL     1     -29.810 -17.988  11.778  1.00  0.00     0.021 A 
HETATM   10  C7  UNL     1     -29.358 -16.758  11.279  1.00  0.00     0.034 A 
HETATM   11  S1  UNL     1     -29.031 -15.201  11.926  1.00  0.00    -0.055 SA
ENDROOT
TORSDOF 0
ENDMDL
