MODEL 6
REMARK VINA RESULT: -8.910716762      3.891      6.842
REMARK  8 active torsions:
REMARK  status: ('A' for Active; 'I' for Inactive)
REMARK    1  A    between atoms: C1_2  and  C2_4 
REMARK    2  A    between atoms: C3_9  and  C4_10 
REMARK    3  A    between atoms: C5_12  and  C6_13 
REMARK    4  A    between atoms: C6_13  and  O3_14 
REMARK    5  A    between atoms: O3_14  and  P1_15 
REMARK    6  A    between atoms: C7_19  and  O7_20 
REMARK    7  A    between atoms: C8_22  and  O8_23 
REMARK    8  A    between atoms: C9_25  and  O9_26 
ROOT
HETATM    1  C4  UNL     1      24.039 -10.291  16.731  1.00  0.00     0.207 C 
HETATM    2  O2  UNL     1      23.351  -9.828  15.576  1.00  0.00    -0.367 OA
HETATM    3  C5  UNL     1      22.725  -8.662  15.875  1.00  0.00     0.178 C 
HETATM    4  C7  UNL     1      23.449  -8.172  17.217  1.00  0.00     0.180 C 
HETATM    5  C8  UNL     1      24.771  -8.914  16.932  1.00  0.00     0.184 C 
ENDROOT
BRANCH   1   6
HETATM    6  C3  UNL     1      24.933 -11.375  16.475  1.00  0.00     0.092 A 
HETATM    7  N3  UNL     1      25.507 -12.293  17.254  1.00  0.00    -0.299 N 
HETATM    8  N2  UNL     1      26.384 -13.036  16.563  1.00  0.00    -0.293 N 
ATOM      9  H3  UNL     1      25.304 -12.414  18.247  1.00  0.00     0.186 HD
HETATM   10  C2  UNL     1      26.404 -12.616  15.254  1.00  0.00     0.148 A 
ATOM     11  H2  UNL     1      26.948 -13.794  16.949  1.00  0.00     0.187 HD
HETATM   12  C9  UNL     1      25.513 -11.590  15.196  1.00  0.00     0.126 A 
BRANCH  10  13
HETATM   13  C1  UNL     1      27.189 -13.272  14.228  1.00  0.00     0.285 C 
HETATM   14  N1  UNL     1      27.586 -12.653  13.026  1.00  0.00    -0.056 NA
HETATM   15  O1  UNL     1      27.520 -14.512  14.409  1.00  0.00    -0.269 OA
ENDBRANCH  10  13
BRANCH  12  16
HETATM   16  O9  UNL     1      25.199 -10.855  14.082  1.00  0.00    -0.356 OA
ATOM     17  H9  UNL     1      24.445 -10.287  13.981  1.00  0.00     0.218 HD
ENDBRANCH  12  16
ENDBRANCH   1   6
BRANCH   5  18
HETATM   18  O8  UNL     1      25.552  -9.026  18.093  1.00  0.00    -0.390 OA
ATOM     19  H8  UNL     1      26.248  -8.382  18.027  1.00  0.00     0.210 HD
ENDBRANCH   5  18
BRANCH   3  20
HETATM   20  C6  UNL     1      22.911  -7.466  15.016  1.00  0.00     0.217 C 
BRANCH  20  21
HETATM   21  O3  UNL     1      22.755  -6.199  15.484  1.00  0.00    -0.280 OA
BRANCH  21  22
HETATM   22  P1  UNL     1      22.813  -5.133  14.375  1.00  0.00     0.422 P 
HETATM   23  O4  UNL     1      24.469  -5.452  14.219  1.00  0.00    -0.617 OA
HETATM   24  O5  UNL     1      21.701  -5.921  13.468  1.00  0.00    -0.617 OA
HETATM   25  O6  UNL     1      22.404  -3.874  15.325  1.00  0.00    -0.617 OA
ENDBRANCH  21  22
ENDBRANCH  20  21
ENDBRANCH   3  20
BRANCH   4  26
HETATM   26  O7  UNL     1      22.790  -8.806  18.223  1.00  0.00    -0.390 OA
ATOM     27  H7  UNL     1      23.053  -8.350  19.014  1.00  0.00     0.210 HD
ENDBRANCH   4  26
TORSDOF 8
ENDMDL
