MODEL 3
REMARK VINA RESULT: -9.041584463      3.947      6.807
REMARK  8 active torsions:
REMARK  status: ('A' for Active; 'I' for Inactive)
REMARK    1  A    between atoms: C1_2  and  C2_4 
REMARK    2  A    between atoms: C3_9  and  C4_10 
REMARK    3  A    between atoms: C5_12  and  C6_13 
REMARK    4  A    between atoms: C6_13  and  O3_14 
REMARK    5  A    between atoms: O3_14  and  P1_15 
REMARK    6  A    between atoms: C7_19  and  O7_20 
REMARK    7  A    between atoms: C8_22  and  O8_23 
REMARK    8  A    between atoms: C9_25  and  O9_26 
ROOT
HETATM    1  C4  UNL     1      24.203 -10.533  16.285  1.00  0.00     0.207 C 
HETATM    2  O2  UNL     1      23.306 -10.143  15.253  1.00  0.00    -0.367 OA
HETATM    3  C5  UNL     1      22.605  -9.058  15.667  1.00  0.00     0.178 C 
HETATM    4  C7  UNL     1      23.459  -8.498  16.900  1.00  0.00     0.180 C 
HETATM    5  C8  UNL     1      24.799  -9.084  16.410  1.00  0.00     0.184 C 
ENDROOT
BRANCH   1   6
HETATM    6  C3  UNL     1      25.165 -11.507  15.877  1.00  0.00     0.092 A 
HETATM    7  N3  UNL     1      25.829 -12.466  16.524  1.00  0.00    -0.299 N 
HETATM    8  N2  UNL     1      26.736 -13.051  15.726  1.00  0.00    -0.293 N 
ATOM      9  H3  UNL     1      25.669 -12.721  17.499  1.00  0.00     0.186 HD
HETATM   10  C2  UNL     1      26.683 -12.476  14.479  1.00  0.00     0.148 A 
ATOM     11  H2  UNL     1      27.366 -13.805  16.003  1.00  0.00     0.187 HD
HETATM   12  C9  UNL     1      25.718 -11.521  14.568  1.00  0.00     0.126 A 
BRANCH  10  13
HETATM   13  C1  UNL     1      27.480 -12.941  13.362  1.00  0.00     0.285 C 
HETATM   14  N1  UNL     1      28.402 -14.003  13.443  1.00  0.00    -0.056 NA
HETATM   15  O1  UNL     1      27.365 -12.324  12.227  1.00  0.00    -0.269 OA
ENDBRANCH  10  13
BRANCH  12  16
HETATM   16  O9  UNL     1      25.316 -10.682  13.560  1.00  0.00    -0.356 OA
ATOM     17  H9  UNL     1      25.675  -9.823  13.372  1.00  0.00     0.218 HD
ENDBRANCH  12  16
ENDBRANCH   1   6
BRANCH   5  18
HETATM   18  O8  UNL     1      25.750  -9.113  17.442  1.00  0.00    -0.390 OA
ATOM     19  H8  UNL     1      25.351  -8.709  18.203  1.00  0.00     0.210 HD
ENDBRANCH   5  18
BRANCH   3  20
HETATM   20  C6  UNL     1      22.529  -7.843  14.818  1.00  0.00     0.217 C 
BRANCH  20  21
HETATM   21  O3  UNL     1      21.656  -7.729  13.782  1.00  0.00    -0.280 OA
BRANCH  21  22
HETATM   22  P1  UNL     1      20.690  -6.540  13.931  1.00  0.00     0.422 P 
HETATM   23  O4  UNL     1      19.869  -7.416  15.125  1.00  0.00    -0.617 OA
HETATM   24  O5  UNL     1      21.909  -5.514  14.311  1.00  0.00    -0.617 OA
HETATM   25  O6  UNL     1      20.081  -6.622  12.423  1.00  0.00    -0.617 OA
ENDBRANCH  21  22
ENDBRANCH  20  21
ENDBRANCH   3  20
BRANCH   4  26
HETATM   26  O7  UNL     1      23.030  -9.209  17.977  1.00  0.00    -0.390 OA
ATOM     27  H7  UNL     1      22.999  -8.582  18.689  1.00  0.00     0.210 HD
ENDBRANCH   4  26
TORSDOF 8
ENDMDL
