MODEL 1
REMARK VINA RESULT: -9.698742400      0.000      0.000
REMARK  8 active torsions:
REMARK  status: ('A' for Active; 'I' for Inactive)
REMARK    1  A    between atoms: C1_2  and  C2_4 
REMARK    2  A    between atoms: C3_9  and  C4_10 
REMARK    3  A    between atoms: C5_12  and  C6_13 
REMARK    4  A    between atoms: C6_13  and  O3_14 
REMARK    5  A    between atoms: O3_14  and  P1_15 
REMARK    6  A    between atoms: C7_19  and  O7_20 
REMARK    7  A    between atoms: C8_22  and  O8_23 
REMARK    8  A    between atoms: C9_25  and  O9_26 
ROOT
HETATM    1  C4  UNL     1      24.284  -8.246  16.041  1.00  0.00     0.207 C 
HETATM    2  O2  UNL     1      25.121  -9.047  15.217  1.00  0.00    -0.367 OA
HETATM    3  C5  UNL     1      25.746  -9.971  15.989  1.00  0.00     0.178 C 
HETATM    4  C7  UNL     1      24.882  -9.988  17.338  1.00  0.00     0.180 C 
HETATM    5  C8  UNL     1      23.580  -9.504  16.667  1.00  0.00     0.184 C 
ENDROOT
BRANCH   1   6
HETATM    6  C3  UNL     1      23.392  -7.402  15.311  1.00  0.00     0.092 A 
HETATM    7  N3  UNL     1      23.269  -6.079  15.199  1.00  0.00    -0.299 N 
HETATM    8  N2  UNL     1      22.179  -5.752  14.486  1.00  0.00    -0.293 N 
ATOM      9  H3  UNL     1      23.918  -5.403  15.601  1.00  0.00     0.186 HD
HETATM   10  C2  UNL     1      21.536  -6.900  14.087  1.00  0.00     0.148 A 
ATOM     11  H2  UNL     1      21.876  -4.801  14.275  1.00  0.00     0.187 HD
HETATM   12  C9  UNL     1      22.279  -7.920  14.596  1.00  0.00     0.126 A 
BRANCH  10  13
HETATM   13  C1  UNL     1      20.369  -6.891  13.228  1.00  0.00     0.285 C 
HETATM   14  N1  UNL     1      19.888  -8.024  12.544  1.00  0.00    -0.056 NA
HETATM   15  O1  UNL     1      19.746  -5.768  13.052  1.00  0.00    -0.269 OA
ENDBRANCH  10  13
BRANCH  12  16
HETATM   16  O9  UNL     1      22.017  -9.258  14.454  1.00  0.00    -0.356 OA
ATOM     17  H9  UNL     1      22.596  -9.970  14.700  1.00  0.00     0.218 HD
ENDBRANCH  12  16
ENDBRANCH   1   6
BRANCH   5  18
HETATM   18  O8  UNL     1      22.661  -9.034  17.619  1.00  0.00    -0.390 OA
ATOM     19  H8  UNL     1      21.791  -9.210  17.281  1.00  0.00     0.210 HD
ENDBRANCH   5  18
BRANCH   3  20
HETATM   20  C6  UNL     1      25.704 -11.409  15.625  1.00  0.00     0.217 C 
BRANCH  20  21
HETATM   21  O3  UNL     1      26.699 -12.013  14.924  1.00  0.00    -0.280 OA
BRANCH  21  22
HETATM   22  P1  UNL     1      26.718 -13.543  15.095  1.00  0.00     0.422 P 
HETATM   23  O4  UNL     1      25.080 -13.564  14.669  1.00  0.00    -0.617 OA
HETATM   24  O5  UNL     1      27.896 -13.720  13.971  1.00  0.00    -0.617 OA
HETATM   25  O6  UNL     1      27.053 -13.535  16.689  1.00  0.00    -0.617 OA
ENDBRANCH  21  22
ENDBRANCH  20  21
ENDBRANCH   3  20
BRANCH   4  26
HETATM   26  O7  UNL     1      25.393  -8.981  18.096  1.00  0.00    -0.390 OA
ATOM     27  H7  UNL     1      24.679  -8.363  18.197  1.00  0.00     0.210 HD
ENDBRANCH   4  26
TORSDOF 8
ENDMDL
