MODEL 5
REMARK VINA RESULT: -8.919666021      3.826      6.785
REMARK  8 active torsions:
REMARK  status: ('A' for Active; 'I' for Inactive)
REMARK    1  A    between atoms: C1_2  and  C2_4 
REMARK    2  A    between atoms: C3_9  and  C4_10 
REMARK    3  A    between atoms: C5_12  and  C6_13 
REMARK    4  A    between atoms: C6_13  and  O3_14 
REMARK    5  A    between atoms: O3_14  and  P1_15 
REMARK    6  A    between atoms: C7_19  and  O7_20 
REMARK    7  A    between atoms: C8_22  and  O8_23 
REMARK    8  A    between atoms: C9_25  and  O9_26 
ROOT
HETATM    1  C4  UNL     1      24.152 -10.517  16.679  1.00  0.00     0.207 C 
HETATM    2  O2  UNL     1      23.249 -10.212  15.624  1.00  0.00    -0.367 OA
HETATM    3  C5  UNL     1      22.579  -9.074  15.933  1.00  0.00     0.178 C 
HETATM    4  C7  UNL     1      23.462  -8.412  17.094  1.00  0.00     0.180 C 
HETATM    5  C8  UNL     1      24.782  -9.077  16.650  1.00  0.00     0.184 C 
ENDROOT
BRANCH   1   6
HETATM    6  C3  UNL     1      25.086 -11.550  16.361  1.00  0.00     0.092 A 
HETATM    7  N3  UNL     1      25.727 -12.462  17.093  1.00  0.00    -0.299 N 
HETATM    8  N2  UNL     1      26.614 -13.143  16.351  1.00  0.00    -0.293 N 
ATOM      9  H3  UNL     1      25.563 -12.622  18.087  1.00  0.00     0.186 HD
HETATM   10  C2  UNL     1      26.571 -12.683  15.056  1.00  0.00     0.148 A 
ATOM     11  H2  UNL     1      27.225 -13.884  16.695  1.00  0.00     0.187 HD
HETATM   12  C9  UNL     1      25.632 -11.698  15.059  1.00  0.00     0.126 A 
BRANCH  10  13
HETATM   13  C1  UNL     1      27.351 -13.270  13.985  1.00  0.00     0.285 C 
HETATM   14  N1  UNL     1      27.667 -12.603  12.786  1.00  0.00    -0.056 NA
HETATM   15  O1  UNL     1      27.757 -14.493  14.122  1.00  0.00    -0.269 OA
ENDBRANCH  10  13
BRANCH  12  16
HETATM   16  O9  UNL     1      25.248 -10.945  13.978  1.00  0.00    -0.356 OA
ATOM     17  H9  UNL     1      25.596 -10.094  13.739  1.00  0.00     0.218 HD
ENDBRANCH  12  16
ENDBRANCH   1   6
BRANCH   5  18
HETATM   18  O8  UNL     1      25.746  -9.024  17.669  1.00  0.00    -0.390 OA
ATOM     19  H8  UNL     1      25.660  -8.179  18.095  1.00  0.00     0.210 HD
ENDBRANCH   5  18
BRANCH   3  20
HETATM   20  C6  UNL     1      22.518  -7.949  14.966  1.00  0.00     0.217 C 
BRANCH  20  21
HETATM   21  O3  UNL     1      21.783  -8.006  13.825  1.00  0.00    -0.280 OA
BRANCH  21  22
HETATM   22  P1  UNL     1      20.585  -7.039  13.827  1.00  0.00     0.422 P 
HETATM   23  O4  UNL     1      21.678  -5.761  14.028  1.00  0.00    -0.617 OA
HETATM   24  O5  UNL     1      20.105  -7.527  12.339  1.00  0.00    -0.617 OA
HETATM   25  O6  UNL     1      19.894  -7.622  15.182  1.00  0.00    -0.617 OA
ENDBRANCH  21  22
ENDBRANCH  20  21
ENDBRANCH   3  20
BRANCH   4  26
HETATM   26  O7  UNL     1      23.032  -9.001  18.242  1.00  0.00    -0.390 OA
ATOM     27  H7  UNL     1      22.088  -8.895  18.233  1.00  0.00     0.210 HD
ENDBRANCH   4  26
TORSDOF 8
ENDMDL
