MODEL 2
REMARK VINA RESULT: -9.413535849      1.462      1.972
REMARK  8 active torsions:
REMARK  status: ('A' for Active; 'I' for Inactive)
REMARK    1  A    between atoms: C1_2  and  C2_4 
REMARK    2  A    between atoms: C3_9  and  C4_10 
REMARK    3  A    between atoms: C5_12  and  C6_13 
REMARK    4  A    between atoms: C6_13  and  O3_14 
REMARK    5  A    between atoms: O3_14  and  P1_15 
REMARK    6  A    between atoms: C7_19  and  O7_20 
REMARK    7  A    between atoms: C8_22  and  O8_23 
REMARK    8  A    between atoms: C9_25  and  O9_26 
ROOT
HETATM    1  C4  UNL     1      23.903  -8.748  15.904  1.00  0.00     0.207 C 
HETATM    2  O2  UNL     1      24.857  -9.461  15.128  1.00  0.00    -0.367 OA
HETATM    3  C5  UNL     1      25.763 -10.032  15.960  1.00  0.00     0.178 C 
HETATM    4  C7  UNL     1      25.042 -10.000  17.390  1.00  0.00     0.180 C 
HETATM    5  C8  UNL     1      23.611  -9.994  16.816  1.00  0.00     0.184 C 
ENDROOT
BRANCH   1   6
HETATM    6  C3  UNL     1      22.764  -8.310  15.161  1.00  0.00     0.092 A 
HETATM    7  N3  UNL     1      21.831  -8.950  14.454  1.00  0.00    -0.299 N 
HETATM    8  N2  UNL     1      21.024  -8.084  13.821  1.00  0.00    -0.293 N 
ATOM      9  H3  UNL     1      21.741  -9.965  14.402  1.00  0.00     0.186 HD
HETATM   10  C2  UNL     1      21.416  -6.800  14.115  1.00  0.00     0.148 A 
ATOM     11  H2  UNL     1      20.243  -8.340  13.216  1.00  0.00     0.187 HD
HETATM   12  C9  UNL     1      22.491  -6.935  14.938  1.00  0.00     0.126 A 
BRANCH  10  13
HETATM   13  C1  UNL     1      20.695  -5.631  13.651  1.00  0.00     0.285 C 
HETATM   14  N1  UNL     1      19.781  -5.645  12.580  1.00  0.00    -0.056 NA
HETATM   15  O1  UNL     1      20.927  -4.497  14.234  1.00  0.00    -0.269 OA
ENDBRANCH  10  13
BRANCH  12  16
HETATM   16  O9  UNL     1      23.220  -5.911  15.488  1.00  0.00    -0.356 OA
ATOM     17  H9  UNL     1      24.133  -5.719  15.311  1.00  0.00     0.218 HD
ENDBRANCH  12  16
ENDBRANCH   1   6
BRANCH   5  18
HETATM   18  O8  UNL     1      22.676  -9.590  17.783  1.00  0.00    -0.390 OA
ATOM     19  H8  UNL     1      22.533  -8.659  17.664  1.00  0.00     0.210 HD
ENDBRANCH   5  18
BRANCH   3  20
HETATM   20  C6  UNL     1      26.079 -11.478  15.851  1.00  0.00     0.217 C 
BRANCH  20  21
HETATM   21  O3  UNL     1      27.041 -11.954  15.018  1.00  0.00    -0.280 OA
BRANCH  21  22
HETATM   22  P1  UNL     1      26.489 -12.881  13.920  1.00  0.00     0.422 P 
HETATM   23  O4  UNL     1      28.028 -13.578  13.799  1.00  0.00    -0.617 OA
HETATM   24  O5  UNL     1      25.349 -13.496  14.922  1.00  0.00    -0.617 OA
HETATM   25  O6  UNL     1      26.142 -11.699  12.854  1.00  0.00    -0.617 OA
ENDBRANCH  21  22
ENDBRANCH  20  21
ENDBRANCH   3  20
BRANCH   4  26
HETATM   26  O7  UNL     1      25.323  -8.769  17.898  1.00  0.00    -0.390 OA
ATOM     27  H7  UNL     1      24.480  -8.340  17.983  1.00  0.00     0.210 HD
ENDBRANCH   4  26
TORSDOF 8
ENDMDL
