MODEL 2
REMARK VINA RESULT: -8.733623403      4.151      6.698
REMARK  7 active torsions:
REMARK  status: ('A' for Active; 'I' for Inactive)
REMARK    1  A    between atoms: C2_2  and  N1_3 
REMARK    2  A    between atoms: N1_3  and  C3_4 
REMARK    3  A    between atoms: N1_3  and  C5_6 
REMARK    4  A    between atoms: C5_6  and  C6_7 
REMARK    5  A    between atoms: C6_7  and  N2_8 
REMARK       I    between atoms: N2_8  and  C7_10 
REMARK    6  A    between atoms: C7_10  and  C8_12 
REMARK    7  A    between atoms: C11_17  and  C12_18 
ROOT
HETATM    1  C8  UNL     1       3.624 -11.411  -2.016  1.00  0.00     0.062 A 
HETATM    2  C9  UNL     1       2.357 -11.392  -2.513  1.00  0.00     0.022 A 
HETATM    3  C10 UNL     1       1.981 -11.388  -3.948  1.00  0.00     0.069 C 
HETATM    4  N3  UNL     1       1.451 -11.373  -1.484  1.00  0.00    -0.359 N 
ATOM      5  H3  UNL     1       0.437 -11.356  -1.585  1.00  0.00     0.166 HD
HETATM    6  C11 UNL     1       2.112 -11.381  -0.336  1.00  0.00     0.040 A 
HETATM    7  C21 UNL     1       3.451 -11.406  -0.622  1.00  0.00    -0.018 A 
HETATM    8  C22 UNL     1       4.567 -11.464   0.363  1.00  0.00     0.052 C 
ENDROOT
BRANCH   6   9
HETATM    9  C12 UNL     1       1.513 -11.423   0.982  1.00  0.00     0.048 C 
HETATM   10  C13 UNL     1       1.257 -10.372   1.740  1.00  0.00     0.047 A 
HETATM   11  C14 UNL     1       1.519  -9.002   1.390  1.00  0.00     0.257 A 
HETATM   12  C20 UNL     1       0.684 -10.387   3.103  1.00  0.00     0.009 A 
HETATM   13  O2  UNL     1       1.996  -8.532   0.339  1.00  0.00    -0.267 OA
HETATM   14  N4  UNL     1       1.116  -8.210   2.515  1.00  0.00    -0.322 N 
HETATM   15  C15 UNL     1       0.616  -9.079   3.531  1.00  0.00     0.046 A 
ATOM     16  H4  UNL     1       1.177  -7.193   2.578  1.00  0.00     0.169 HD
HETATM   17  C16 UNL     1       0.106  -8.825   4.799  1.00  0.00     0.033 A 
HETATM   18  C17 UNL     1      -0.327  -9.839   5.627  1.00  0.00     0.044 A 
HETATM   19  C18 UNL     1      -0.262 -11.155   5.204  1.00  0.00     0.117 A 
HETATM   20  F1  UNL     1      -0.689 -12.168   6.015  1.00  0.00    -0.206 F 
HETATM   21  C19 UNL     1       0.246 -11.382   3.945  1.00  0.00     0.057 A 
ENDBRANCH   6   9
BRANCH   1  22
HETATM   22  C7  UNL     1       4.921 -11.436  -2.653  1.00  0.00     0.254 C 
HETATM   23  N2  UNL     1       6.013 -12.212  -2.238  1.00  0.00    -0.355 N 
ATOM     24  H2  UNL     1       5.943 -12.828  -1.428  1.00  0.00     0.162 HD
HETATM   25  O1  UNL     1       5.133 -10.697  -3.692  1.00  0.00    -0.268 OA
BRANCH  23  26
HETATM   26  C6  UNL     1       7.262 -12.112  -3.007  1.00  0.00     0.153 C 
BRANCH  26  27
HETATM   27  C5  UNL     1       8.314 -11.336  -2.288  1.00  0.00     0.292 C 
BRANCH  27  28
HETATM   28  N1  UNL     1       9.253 -12.116  -1.530  1.00  0.00     0.089 N 
BRANCH  28  29
HETATM   29  C2  UNL     1      10.430 -12.345  -2.287  1.00  0.00     0.268 C 
HETATM   30  C1  UNL     1      11.253 -13.526  -1.940  1.00  0.00     0.037 C 
ENDBRANCH  28  29
BRANCH  28  31
HETATM   31  C3  UNL     1       9.433 -11.558  -0.219  1.00  0.00     0.268 C 
HETATM   32  C4  UNL     1       8.223 -11.782   0.667  1.00  0.00     0.037 C 
ENDBRANCH  28  31
ENDBRANCH  27  28
ENDBRANCH  26  27
ENDBRANCH  23  26
ENDBRANCH   1  22
TORSDOF 7
ENDMDL
