MODEL 8
REMARK VINA RESULT: -8.293805387      1.974      2.518
REMARK  7 active torsions:
REMARK  status: ('A' for Active; 'I' for Inactive)
REMARK    1  A    between atoms: C2_2  and  N1_3 
REMARK    2  A    between atoms: N1_3  and  C3_4 
REMARK    3  A    between atoms: N1_3  and  C5_6 
REMARK    4  A    between atoms: C5_6  and  C6_7 
REMARK    5  A    between atoms: C6_7  and  N2_8 
REMARK       I    between atoms: N2_8  and  C7_10 
REMARK    6  A    between atoms: C7_10  and  C8_12 
REMARK    7  A    between atoms: C11_17  and  C12_18 
ROOT
HETATM    1  C8  UNL     1       9.276 -11.589  -0.309  1.00  0.00     0.062 A 
HETATM    2  C9  UNL     1       9.275 -11.733  -1.663  1.00  0.00     0.022 A 
HETATM    3  C10 UNL     1      10.470 -11.914  -2.523  1.00  0.00     0.069 C 
HETATM    4  N3  UNL     1       7.990 -11.684  -2.138  1.00  0.00    -0.359 N 
ATOM      5  H3  UNL     1       7.714 -11.766  -3.116  1.00  0.00     0.166 HD
HETATM    6  C11 UNL     1       7.166 -11.513  -1.116  1.00  0.00     0.040 A 
HETATM    7  C21 UNL     1       7.919 -11.451   0.026  1.00  0.00    -0.018 A 
HETATM    8  C22 UNL     1       7.408 -11.307   1.419  1.00  0.00     0.052 C 
ENDROOT
BRANCH   6   9
HETATM    9  C12 UNL     1       5.720 -11.467  -1.196  1.00  0.00     0.048 C 
HETATM   10  C13 UNL     1       5.017 -11.416  -2.314  1.00  0.00     0.047 A 
HETATM   11  C14 UNL     1       5.559 -11.402  -3.645  1.00  0.00     0.257 A 
HETATM   12  C20 UNL     1       3.545 -11.328  -2.425  1.00  0.00     0.009 A 
HETATM   13  O2  UNL     1       6.747 -11.461  -4.015  1.00  0.00    -0.267 OA
HETATM   14  N4  UNL     1       4.442 -11.308  -4.538  1.00  0.00    -0.322 N 
HETATM   15  C15 UNL     1       3.240 -11.266  -3.767  1.00  0.00     0.046 A 
ATOM     16  H4  UNL     1       4.496 -11.276  -5.557  1.00  0.00     0.169 HD
HETATM   17  C16 UNL     1       1.904 -11.178  -4.138  1.00  0.00     0.033 A 
HETATM   18  C17 UNL     1       0.889 -11.152  -3.205  1.00  0.00     0.044 A 
HETATM   19  C18 UNL     1       1.186 -11.214  -1.855  1.00  0.00     0.117 A 
HETATM   20  F1  UNL     1       0.190 -11.189  -0.921  1.00  0.00    -0.206 F 
HETATM   21  C19 UNL     1       2.517 -11.301  -1.512  1.00  0.00     0.057 A 
ENDBRANCH   6   9
BRANCH   1  22
HETATM   22  C7  UNL     1      10.339 -11.569   0.669  1.00  0.00     0.254 C 
HETATM   23  N2  UNL     1      10.723 -12.652   1.471  1.00  0.00    -0.355 N 
ATOM     24  H2  UNL     1      10.249 -13.553   1.401  1.00  0.00     0.162 HD
HETATM   25  O1  UNL     1      11.015 -10.481   0.849  1.00  0.00    -0.268 OA
BRANCH  23  26
HETATM   26  C6  UNL     1      11.831 -12.451   2.417  1.00  0.00     0.153 C 
BRANCH  26  27
HETATM   27  C5  UNL     1      12.943 -13.424   2.209  1.00  0.00     0.292 C 
BRANCH  27  28
HETATM   28  N1  UNL     1      13.350 -13.622   0.846  1.00  0.00     0.089 N 
BRANCH  28  29
HETATM   29  C2  UNL     1      14.202 -12.569   0.426  1.00  0.00     0.268 C 
HETATM   30  C1  UNL     1      13.811 -11.806  -0.782  1.00  0.00     0.037 C 
ENDBRANCH  28  29
BRANCH  28  31
HETATM   31  C3  UNL     1      13.840 -14.959   0.652  1.00  0.00     0.268 C 
HETATM   32  C4  UNL     1      13.580 -15.463  -0.754  1.00  0.00     0.037 C 
ENDBRANCH  28  31
ENDBRANCH  27  28
ENDBRANCH  26  27
ENDBRANCH  23  26
ENDBRANCH   1  22
TORSDOF 7
ENDMDL
