MODEL 1
REMARK VINA RESULT: -8.798400901      0.000      0.000
REMARK  7 active torsions:
REMARK  status: ('A' for Active; 'I' for Inactive)
REMARK    1  A    between atoms: C2_2  and  N1_3 
REMARK    2  A    between atoms: N1_3  and  C3_4 
REMARK    3  A    between atoms: N1_3  and  C5_6 
REMARK    4  A    between atoms: C5_6  and  C6_7 
REMARK    5  A    between atoms: C6_7  and  N2_8 
REMARK       I    between atoms: N2_8  and  C7_10 
REMARK    6  A    between atoms: C7_10  and  C8_12 
REMARK    7  A    between atoms: C11_17  and  C12_18 
ROOT
HETATM    1  C8  UNL     1       9.263 -11.548  -0.410  1.00  0.00     0.062 A 
HETATM    2  C9  UNL     1       9.235 -11.715  -1.761  1.00  0.00     0.022 A 
HETATM    3  C10 UNL     1      10.412 -11.910  -2.643  1.00  0.00     0.069 C 
HETATM    4  N3  UNL     1       7.940 -11.675  -2.210  1.00  0.00    -0.359 N 
ATOM      5  H3  UNL     1       7.645 -11.773  -3.181  1.00  0.00     0.166 HD
HETATM    6  C11 UNL     1       7.137 -11.486  -1.175  1.00  0.00     0.040 A 
HETATM    7  C21 UNL     1       7.913 -11.405  -0.050  1.00  0.00    -0.018 A 
HETATM    8  C22 UNL     1       7.431 -11.238   1.350  1.00  0.00     0.052 C 
ENDROOT
BRANCH   6   9
HETATM    9  C12 UNL     1       5.690 -11.442  -1.226  1.00  0.00     0.048 C 
HETATM   10  C13 UNL     1       4.964 -11.397  -2.329  1.00  0.00     0.047 A 
HETATM   11  C14 UNL     1       5.480 -11.389  -3.671  1.00  0.00     0.257 A 
HETATM   12  C20 UNL     1       3.491 -11.311  -2.411  1.00  0.00     0.009 A 
HETATM   13  O2  UNL     1       6.660 -11.449  -4.065  1.00  0.00    -0.267 OA
HETATM   14  N4  UNL     1       4.344 -11.300  -4.543  1.00  0.00    -0.322 N 
HETATM   15  C15 UNL     1       3.159 -11.255  -3.747  1.00  0.00     0.046 A 
ATOM     16  H4  UNL     1       4.378 -11.273  -5.562  1.00  0.00     0.169 HD
HETATM   17  C16 UNL     1       1.815 -11.170  -4.092  1.00  0.00     0.033 A 
HETATM   18  C17 UNL     1       0.820 -11.141  -3.138  1.00  0.00     0.044 A 
HETATM   19  C18 UNL     1       1.144 -11.196  -1.795  1.00  0.00     0.117 A 
HETATM   20  F1  UNL     1       0.166 -11.168  -0.841  1.00  0.00    -0.206 F 
HETATM   21  C19 UNL     1       2.481 -11.281  -1.478  1.00  0.00     0.057 A 
ENDBRANCH   6   9
BRANCH   1  22
HETATM   22  C7  UNL     1      10.347 -11.511   0.545  1.00  0.00     0.254 C 
HETATM   23  N2  UNL     1      10.814 -10.360   1.196  1.00  0.00    -0.355 N 
ATOM     24  H2  UNL     1      10.392  -9.449   1.020  1.00  0.00     0.162 HD
HETATM   25  O1  UNL     1      10.962 -12.606   0.850  1.00  0.00    -0.268 OA
BRANCH  23  26
HETATM   26  C6  UNL     1      11.931 -10.508   2.140  1.00  0.00     0.153 C 
BRANCH  26  27
HETATM   27  C5  UNL     1      13.051  -9.565   1.851  1.00  0.00     0.292 C 
BRANCH  27  28
HETATM   28  N1  UNL     1      12.867  -8.709   0.712  1.00  0.00     0.089 N 
BRANCH  28  29
HETATM   29  C2  UNL     1      12.815  -7.351   1.117  1.00  0.00     0.268 C 
HETATM   30  C1  UNL     1      13.655  -6.379   0.380  1.00  0.00     0.037 C 
ENDBRANCH  28  29
BRANCH  28  31
HETATM   31  C3  UNL     1      13.808  -9.034  -0.323  1.00  0.00     0.268 C 
HETATM   32  C4  UNL     1      13.141  -9.691  -1.516  1.00  0.00     0.037 C 
ENDBRANCH  28  31
ENDBRANCH  27  28
ENDBRANCH  26  27
ENDBRANCH  23  26
ENDBRANCH   1  22
TORSDOF 7
ENDMDL
