MODEL 4
REMARK VINA RESULT: -8.568048603      0.897      1.035
REMARK  7 active torsions:
REMARK  status: ('A' for Active; 'I' for Inactive)
REMARK    1  A    between atoms: C2_2  and  N1_3 
REMARK    2  A    between atoms: N1_3  and  C3_4 
REMARK    3  A    between atoms: N1_3  and  C5_6 
REMARK    4  A    between atoms: C5_6  and  C6_7 
REMARK    5  A    between atoms: C6_7  and  N2_8 
REMARK       I    between atoms: N2_8  and  C7_10 
REMARK    6  A    between atoms: C7_10  and  C8_12 
REMARK    7  A    between atoms: C11_17  and  C12_18 
ROOT
HETATM    1  C8  UNL     1       9.370 -11.501  -0.409  1.00  0.00     0.062 A 
HETATM    2  C9  UNL     1       9.336 -11.746  -1.747  1.00  0.00     0.022 A 
HETATM    3  C10 UNL     1      10.510 -11.985  -2.622  1.00  0.00     0.069 C 
HETATM    4  N3  UNL     1       8.039 -11.739  -2.192  1.00  0.00    -0.359 N 
ATOM      5  H3  UNL     1       7.740 -11.896  -3.154  1.00  0.00     0.166 HD
HETATM    6  C11 UNL     1       7.240 -11.496  -1.165  1.00  0.00     0.040 A 
HETATM    7  C21 UNL     1       8.020 -11.345  -0.051  1.00  0.00    -0.018 A 
HETATM    8  C22 UNL     1       7.543 -11.099   1.340  1.00  0.00     0.052 C 
ENDROOT
BRANCH   6   9
HETATM    9  C12 UNL     1       5.792 -11.464  -1.212  1.00  0.00     0.048 C 
HETATM   10  C13 UNL     1       5.063 -11.421  -2.313  1.00  0.00     0.047 A 
HETATM   11  C14 UNL     1       5.574 -11.405  -3.656  1.00  0.00     0.257 A 
HETATM   12  C20 UNL     1       3.588 -11.347  -2.390  1.00  0.00     0.009 A 
HETATM   13  O2  UNL     1       6.753 -11.454  -4.054  1.00  0.00    -0.267 OA
HETATM   14  N4  UNL     1       4.435 -11.322  -4.524  1.00  0.00    -0.322 N 
HETATM   15  C15 UNL     1       3.252 -11.290  -3.725  1.00  0.00     0.046 A 
ATOM     16  H4  UNL     1       4.465 -11.292  -5.543  1.00  0.00     0.169 HD
HETATM   17  C16 UNL     1       1.906 -11.214  -4.065  1.00  0.00     0.033 A 
HETATM   18  C17 UNL     1       0.913 -11.196  -3.108  1.00  0.00     0.044 A 
HETATM   19  C18 UNL     1       1.242 -11.253  -1.766  1.00  0.00     0.117 A 
HETATM   20  F1  UNL     1       0.267 -11.236  -0.809  1.00  0.00    -0.206 F 
HETATM   21  C19 UNL     1       2.581 -11.328  -1.453  1.00  0.00     0.057 A 
ENDBRANCH   6   9
BRANCH   1  22
HETATM   22  C7  UNL     1      10.457 -11.401   0.537  1.00  0.00     0.254 C 
HETATM   23  N2  UNL     1      11.182 -10.235   0.819  1.00  0.00    -0.355 N 
ATOM     24  H2  UNL     1      10.966  -9.355   0.349  1.00  0.00     0.162 HD
HETATM   25  O1  UNL     1      10.823 -12.452   1.197  1.00  0.00    -0.268 OA
BRANCH  23  26
HETATM   26  C6  UNL     1      12.261 -10.317   1.814  1.00  0.00     0.153 C 
BRANCH  26  27
HETATM   27  C5  UNL     1      12.633  -8.981   2.365  1.00  0.00     0.292 C 
BRANCH  27  28
HETATM   28  N1  UNL     1      13.673  -8.285   1.662  1.00  0.00     0.089 N 
BRANCH  28  29
HETATM   29  C2  UNL     1      13.238  -6.986   1.294  1.00  0.00     0.268 C 
HETATM   30  C1  UNL     1      13.843  -6.371   0.090  1.00  0.00     0.037 C 
ENDBRANCH  28  29
BRANCH  28  31
HETATM   31  C3  UNL     1      14.914  -8.366   2.381  1.00  0.00     0.268 C 
HETATM   32  C4  UNL     1      15.994  -9.065   1.579  1.00  0.00     0.037 C 
ENDBRANCH  28  31
ENDBRANCH  27  28
ENDBRANCH  26  27
ENDBRANCH  23  26
ENDBRANCH   1  22
TORSDOF 7
ENDMDL
