MODEL 14
REMARK VINA RESULT: -8.209635580      1.606      2.263
REMARK  7 active torsions:
REMARK  status: ('A' for Active; 'I' for Inactive)
REMARK    1  A    between atoms: C2_2  and  N1_3 
REMARK    2  A    between atoms: N1_3  and  C3_4 
REMARK    3  A    between atoms: N1_3  and  C5_6 
REMARK    4  A    between atoms: C5_6  and  C6_7 
REMARK    5  A    between atoms: C6_7  and  N2_8 
REMARK       I    between atoms: N2_8  and  C7_10 
REMARK    6  A    between atoms: C7_10  and  C8_12 
REMARK    7  A    between atoms: C11_17  and  C12_18 
ROOT
HETATM    1  C8  UNL     1       9.254 -11.534  -0.279  1.00  0.00     0.062 A 
HETATM    2  C9  UNL     1       9.256 -11.751  -1.622  1.00  0.00     0.022 A 
HETATM    3  C10 UNL     1      10.451 -11.986  -2.469  1.00  0.00     0.069 C 
HETATM    4  N3  UNL     1       7.972 -11.720  -2.103  1.00  0.00    -0.359 N 
ATOM      5  H3  UNL     1       7.698 -11.853  -3.076  1.00  0.00     0.166 HD
HETATM    6  C11 UNL     1       7.147 -11.488  -1.094  1.00  0.00     0.040 A 
HETATM    7  C21 UNL     1       7.897 -11.369   0.045  1.00  0.00    -0.018 A 
HETATM    8  C22 UNL     1       7.384 -11.147   1.426  1.00  0.00     0.052 C 
ENDROOT
BRANCH   6   9
HETATM    9  C12 UNL     1       5.701 -11.438  -1.180  1.00  0.00     0.048 C 
HETATM   10  C13 UNL     1       5.003 -11.402  -2.301  1.00  0.00     0.047 A 
HETATM   11  C14 UNL     1       5.550 -11.412  -3.630  1.00  0.00     0.257 A 
HETATM   12  C20 UNL     1       3.532 -11.310  -2.419  1.00  0.00     0.009 A 
HETATM   13  O2  UNL     1       6.739 -11.482  -3.995  1.00  0.00    -0.267 OA
HETATM   14  N4  UNL     1       4.436 -11.327  -4.530  1.00  0.00    -0.322 N 
HETATM   15  C15 UNL     1       3.232 -11.268  -3.764  1.00  0.00     0.046 A 
ATOM     16  H4  UNL     1       4.494 -11.312  -5.548  1.00  0.00     0.169 HD
HETATM   17  C16 UNL     1       1.898 -11.180  -4.141  1.00  0.00     0.033 A 
HETATM   18  C17 UNL     1       0.880 -11.135  -3.212  1.00  0.00     0.044 A 
HETATM   19  C18 UNL     1       1.171 -11.177  -1.860  1.00  0.00     0.117 A 
HETATM   20  F1  UNL     1       0.171 -11.133  -0.931  1.00  0.00    -0.206 F 
HETATM   21  C19 UNL     1       2.500 -11.264  -1.511  1.00  0.00     0.057 A 
ENDBRANCH   6   9
BRANCH   1  22
HETATM   22  C7  UNL     1      10.316 -11.467   0.699  1.00  0.00     0.254 C 
HETATM   23  N2  UNL     1      10.606 -12.456   1.649  1.00  0.00    -0.355 N 
ATOM     24  H2  UNL     1      10.057 -13.314   1.699  1.00  0.00     0.162 HD
HETATM   25  O1  UNL     1      11.082 -10.426   0.735  1.00  0.00    -0.268 OA
BRANCH  23  26
HETATM   26  C6  UNL     1      11.726 -12.220   2.571  1.00  0.00     0.153 C 
BRANCH  26  27
HETATM   27  C5  UNL     1      12.895 -13.103   2.288  1.00  0.00     0.292 C 
BRANCH  27  28
HETATM   28  N1  UNL     1      13.998 -12.480   1.612  1.00  0.00     0.089 N 
BRANCH  28  29
HETATM   29  C2  UNL     1      13.857 -12.614   0.207  1.00  0.00     0.268 C 
HETATM   30  C1  UNL     1      13.346 -13.903  -0.314  1.00  0.00     0.037 C 
ENDBRANCH  28  29
BRANCH  28  31
HETATM   31  C3  UNL     1      14.212 -11.150   2.111  1.00  0.00     0.268 C 
HETATM   32  C4  UNL     1      14.740 -10.217   1.039  1.00  0.00     0.037 C 
ENDBRANCH  28  31
ENDBRANCH  27  28
ENDBRANCH  26  27
ENDBRANCH  23  26
ENDBRANCH   1  22
TORSDOF 7
ENDMDL
