MODEL 3
REMARK VINA RESULT: -8.593535468      0.870      1.264
REMARK  7 active torsions:
REMARK  status: ('A' for Active; 'I' for Inactive)
REMARK    1  A    between atoms: C2_2  and  N1_3 
REMARK    2  A    between atoms: N1_3  and  C3_4 
REMARK    3  A    between atoms: N1_3  and  C5_6 
REMARK    4  A    between atoms: C5_6  and  C6_7 
REMARK    5  A    between atoms: C6_7  and  N2_8 
REMARK       I    between atoms: N2_8  and  C7_10 
REMARK    6  A    between atoms: C7_10  and  C8_12 
REMARK    7  A    between atoms: C11_17  and  C12_18 
ROOT
HETATM    1  C8  UNL     1       9.490 -11.448  -0.395  1.00  0.00     0.062 A 
HETATM    2  C9  UNL     1       9.458 -11.834  -1.700  1.00  0.00     0.022 A 
HETATM    3  C10 UNL     1      10.634 -12.137  -2.552  1.00  0.00     0.069 C 
HETATM    4  N3  UNL     1       8.159 -11.904  -2.135  1.00  0.00    -0.359 N 
ATOM      5  H3  UNL     1       7.861 -12.168  -3.073  1.00  0.00     0.166 HD
HETATM    6  C11 UNL     1       7.358 -11.573  -1.135  1.00  0.00     0.040 A 
HETATM    7  C21 UNL     1       8.139 -11.287  -0.047  1.00  0.00    -0.018 A 
HETATM    8  C22 UNL     1       7.661 -10.907   1.313  1.00  0.00     0.052 C 
ENDROOT
BRANCH   6   9
HETATM    9  C12 UNL     1       5.910 -11.579  -1.176  1.00  0.00     0.048 C 
HETATM   10  C13 UNL     1       5.175 -11.484  -2.270  1.00  0.00     0.047 A 
HETATM   11  C14 UNL     1       5.679 -11.364  -3.610  1.00  0.00     0.257 A 
HETATM   12  C20 UNL     1       3.699 -11.447  -2.338  1.00  0.00     0.009 A 
HETATM   13  O2  UNL     1       6.858 -11.352  -4.013  1.00  0.00    -0.267 OA
HETATM   14  N4  UNL     1       4.535 -11.256  -4.468  1.00  0.00    -0.322 N 
HETATM   15  C15 UNL     1       3.355 -11.311  -3.666  1.00  0.00     0.046 A 
ATOM     16  H4  UNL     1       4.560 -11.158  -5.483  1.00  0.00     0.169 HD
HETATM   17  C16 UNL     1       2.007 -11.252  -3.997  1.00  0.00     0.033 A 
HETATM   18  C17 UNL     1       1.018 -11.326  -3.039  1.00  0.00     0.044 A 
HETATM   19  C18 UNL     1       1.354 -11.463  -1.704  1.00  0.00     0.117 A 
HETATM   20  F1  UNL     1       0.383 -11.537  -0.746  1.00  0.00    -0.206 F 
HETATM   21  C19 UNL     1       2.695 -11.519  -1.400  1.00  0.00     0.057 A 
ENDBRANCH   6   9
BRANCH   1  22
HETATM   22  C7  UNL     1      10.579 -11.225   0.529  1.00  0.00     0.254 C 
HETATM   23  N2  UNL     1      11.323 -10.041   0.633  1.00  0.00    -0.355 N 
ATOM     24  H2  UNL     1      11.124  -9.240   0.033  1.00  0.00     0.162 HD
HETATM   25  O1  UNL     1      10.926 -12.168   1.342  1.00  0.00    -0.268 OA
BRANCH  23  26
HETATM   26  C6  UNL     1      12.400  -9.990   1.632  1.00  0.00     0.153 C 
BRANCH  26  27
HETATM   27  C5  UNL     1      12.486  -8.664   2.310  1.00  0.00     0.292 C 
BRANCH  27  28
HETATM   28  N1  UNL     1      13.552  -7.807   1.870  1.00  0.00     0.089 N 
BRANCH  28  29
HETATM   29  C2  UNL     1      14.637  -8.579   1.381  1.00  0.00     0.268 C 
HETATM   30  C1  UNL     1      15.862  -8.647   2.209  1.00  0.00     0.037 C 
ENDBRANCH  28  29
BRANCH  28  31
HETATM   31  C3  UNL     1      13.050  -6.781   0.999  1.00  0.00     0.268 C 
HETATM   32  C4  UNL     1      14.018  -6.463  -0.124  1.00  0.00     0.037 C 
ENDBRANCH  28  31
ENDBRANCH  27  28
ENDBRANCH  26  27
ENDBRANCH  23  26
ENDBRANCH   1  22
TORSDOF 7
ENDMDL
