MODEL 20
REMARK VINA RESULT: -8.020132480      3.845      9.453
REMARK  7 active torsions:
REMARK  status: ('A' for Active; 'I' for Inactive)
REMARK    1  A    between atoms: C2_2  and  N1_3 
REMARK    2  A    between atoms: N1_3  and  C3_4 
REMARK    3  A    between atoms: N1_3  and  C5_6 
REMARK    4  A    between atoms: C5_6  and  C6_7 
REMARK    5  A    between atoms: C6_7  and  N2_8 
REMARK       I    between atoms: N2_8  and  C7_10 
REMARK    6  A    between atoms: C7_10  and  C8_12 
REMARK    7  A    between atoms: C11_17  and  C12_18 
ROOT
HETATM    1  C8  UNL     1       7.829 -11.300  -0.242  1.00  0.00     0.062 A 
HETATM    2  C9  UNL     1       8.648 -11.288   0.845  1.00  0.00     0.022 A 
HETATM    3  C10 UNL     1       8.280 -10.842   2.211  1.00  0.00     0.069 C 
HETATM    4  N3  UNL     1       9.891 -11.751   0.500  1.00  0.00    -0.359 N 
ATOM      5  H3  UNL     1      10.688 -11.842   1.130  1.00  0.00     0.166 HD
HETATM    6  C11 UNL     1       9.886 -12.062  -0.787  1.00  0.00     0.040 A 
HETATM    7  C21 UNL     1       8.636 -11.799  -1.278  1.00  0.00    -0.018 A 
HETATM    8  C22 UNL     1       8.162 -12.037  -2.671  1.00  0.00     0.052 C 
ENDROOT
BRANCH   6   9
HETATM    9  C12 UNL     1      10.994 -12.640  -1.520  1.00  0.00     0.048 C 
HETATM   10  C13 UNL     1      12.095 -11.999  -1.873  1.00  0.00     0.047 A 
HETATM   11  C14 UNL     1      12.391 -10.622  -1.587  1.00  0.00     0.257 A 
HETATM   12  C20 UNL     1      13.222 -12.551  -2.654  1.00  0.00     0.009 A 
HETATM   13  O2  UNL     1      11.721  -9.784  -0.953  1.00  0.00    -0.267 OA
HETATM   14  N4  UNL     1      13.667 -10.348  -2.182  1.00  0.00    -0.322 N 
HETATM   15  C15 UNL     1      14.140 -11.536  -2.818  1.00  0.00     0.046 A 
ATOM     16  H4  UNL     1      14.155  -9.453  -2.156  1.00  0.00     0.169 HD
HETATM   17  C16 UNL     1      15.304 -11.806  -3.528  1.00  0.00     0.033 A 
HETATM   18  C17 UNL     1      15.558 -13.050  -4.065  1.00  0.00     0.044 A 
HETATM   19  C18 UNL     1      14.642 -14.075  -3.905  1.00  0.00     0.117 A 
HETATM   20  F1  UNL     1      14.883 -15.312  -4.432  1.00  0.00    -0.206 F 
HETATM   21  C19 UNL     1      13.497 -13.784  -3.198  1.00  0.00     0.057 A 
ENDBRANCH   6   9
BRANCH   1  22
HETATM   22  C7  UNL     1       6.447 -10.922  -0.426  1.00  0.00     0.254 C 
HETATM   23  N2  UNL     1       5.345 -11.772  -0.254  1.00  0.00    -0.355 N 
ATOM     24  H2  UNL     1       5.470 -12.745   0.024  1.00  0.00     0.162 HD
HETATM   25  O1  UNL     1       6.160  -9.712  -0.779  1.00  0.00    -0.268 OA
BRANCH  23  26
HETATM   26  C6  UNL     1       4.004 -11.217  -0.485  1.00  0.00     0.153 C 
BRANCH  26  27
HETATM   27  C5  UNL     1       3.398 -11.700  -1.761  1.00  0.00     0.292 C 
BRANCH  27  28
HETATM   28  N1  UNL     1       1.979 -11.517  -1.886  1.00  0.00     0.089 N 
BRANCH  28  29
HETATM   29  C2  UNL     1       1.614 -11.396  -3.251  1.00  0.00     0.268 C 
HETATM   30  C1  UNL     1       2.703 -11.339  -4.253  1.00  0.00     0.037 C 
ENDBRANCH  28  29
BRANCH  28  31
HETATM   31  C3  UNL     1       1.272 -12.504  -1.118  1.00  0.00     0.268 C 
HETATM   32  C4  UNL     1       1.243 -13.853  -1.810  1.00  0.00     0.037 C 
ENDBRANCH  28  31
ENDBRANCH  27  28
ENDBRANCH  26  27
ENDBRANCH  23  26
ENDBRANCH   1  22
TORSDOF 7
ENDMDL
