MODEL 8
REMARK VINA RESULT: -3.819740210      6.366      7.391
REMARK  0 active torsions:
REMARK  status: ('A' for Active; 'I' for Inactive)
ROOT
HETATM    1  N1  UNL     1      -5.746 -28.951  -5.506  1.00  0.00    -0.063 NA
HETATM    2  C1  UNL     1      -6.033 -27.567  -5.701  1.00  0.00     0.192 A 
HETATM    3  N2  UNL     1      -7.193 -27.049  -6.182  1.00  0.00    -0.339 N 
ATOM      4  H2  UNL     1      -8.010 -27.591  -6.466  1.00  0.00     0.167 HD
HETATM    5  C2  UNL     1      -7.095 -25.720  -6.225  1.00  0.00     0.107 A 
HETATM    6  C3  UNL     1      -5.849 -25.360  -5.763  1.00  0.00     0.107 A 
HETATM    7  N3  UNL     1      -5.243 -26.514  -5.458  1.00  0.00    -0.339 N 
ATOM      8  H3  UNL     1      -4.295 -26.582  -5.086  1.00  0.00     0.167 HD
ENDROOT
TORSDOF 0
ENDMDL
