MODEL 20
REMARK VINA RESULT: -3.433765632      1.937      3.262
REMARK  0 active torsions:
REMARK  status: ('A' for Active; 'I' for Inactive)
ROOT
HETATM    1  N1  UNL     1      -3.434 -22.281  -7.374  1.00  0.00    -0.063 NA
HETATM    2  C1  UNL     1      -2.465 -23.012  -6.624  1.00  0.00     0.192 A 
HETATM    3  N2  UNL     1      -1.130 -22.765  -6.583  1.00  0.00    -0.339 N 
ATOM      4  H2  UNL     1      -0.651 -22.020  -7.088  1.00  0.00     0.167 HD
HETATM    5  C2  UNL     1      -0.545 -23.653  -5.777  1.00  0.00     0.107 A 
HETATM    6  C3  UNL     1      -1.515 -24.496  -5.281  1.00  0.00     0.107 A 
HETATM    7  N3  UNL     1      -2.661 -24.067  -5.823  1.00  0.00    -0.339 N 
ATOM      8  H3  UNL     1      -3.572 -24.492  -5.648  1.00  0.00     0.167 HD
ENDROOT
TORSDOF 0
ENDMDL
