MODEL 4
REMARK VINA RESULT: -4.317125098      1.019      1.721
REMARK  0 active torsions:
REMARK  status: ('A' for Active; 'I' for Inactive)
ROOT
HETATM    1  N1  UNL     1       0.985 -22.085  -6.175  1.00  0.00    -0.063 NA
HETATM    2  C1  UNL     1      -0.111 -22.994  -6.081  1.00  0.00     0.192 A 
HETATM    3  N2  UNL     1      -1.347 -22.816  -6.616  1.00  0.00    -0.339 N 
ATOM      4  H2  UNL     1      -1.647 -22.003  -7.155  1.00  0.00     0.167 HD
HETATM    5  C2  UNL     1      -2.106 -23.873  -6.324  1.00  0.00     0.107 A 
HETATM    6  C3  UNL     1      -1.354 -24.759  -5.585  1.00  0.00     0.107 A 
HETATM    7  N3  UNL     1      -0.152 -24.182  -5.465  1.00  0.00    -0.339 N 
ATOM      8  H3  UNL     1       0.635 -24.596  -4.965  1.00  0.00     0.167 HD
ENDROOT
TORSDOF 0
ENDMDL
