MODEL 3
REMARK VINA RESULT: -4.384340008      1.033      1.033
REMARK  0 active torsions:
REMARK  status: ('A' for Active; 'I' for Inactive)
ROOT
HETATM    1  N1  UNL     1       0.944 -22.058  -6.051  1.00  0.00    -0.063 NA
HETATM    2  C1  UNL     1      -0.161 -22.960  -6.033  1.00  0.00     0.192 A 
HETATM    3  N2  UNL     1      -0.197 -24.171  -5.417  1.00  0.00    -0.339 N 
ATOM      4  H2  UNL     1       0.569 -24.588  -4.887  1.00  0.00     0.167 HD
HETATM    5  C2  UNL     1      -1.393 -24.727  -5.615  1.00  0.00     0.107 A 
HETATM    6  C3  UNL     1      -2.154 -23.866  -6.374  1.00  0.00     0.107 A 
HETATM    7  N3  UNL     1      -1.364 -22.809  -6.601  1.00  0.00    -0.339 N 
ATOM      8  H3  UNL     1      -1.643 -21.991  -7.142  1.00  0.00     0.167 HD
ENDROOT
TORSDOF 0
ENDMDL
