MODEL 19
REMARK VINA RESULT: -3.466558315      2.598      3.504
REMARK  0 active torsions:
REMARK  status: ('A' for Active; 'I' for Inactive)
ROOT
HETATM    1  N1  UNL     1      -1.285 -24.029  -6.368  1.00  0.00    -0.063 NA
HETATM    2  C1  UNL     1      -2.093 -24.630  -5.356  1.00  0.00     0.192 A 
HETATM    3  N2  UNL     1      -3.093 -25.527  -5.557  1.00  0.00    -0.339 N 
ATOM      4  H2  UNL     1      -3.393 -25.886  -6.464  1.00  0.00     0.167 HD
HETATM    5  C2  UNL     1      -3.620 -25.864  -4.379  1.00  0.00     0.107 A 
HETATM    6  C3  UNL     1      -2.954 -25.176  -3.390  1.00  0.00     0.107 A 
HETATM    7  N3  UNL     1      -2.038 -24.441  -4.032  1.00  0.00    -0.339 N 
ATOM      8  H3  UNL     1      -1.379 -23.815  -3.569  1.00  0.00     0.167 HD
ENDROOT
TORSDOF 0
ENDMDL
