MODEL 11
REMARK VINA RESULT: -3.664242429      1.322      1.986
REMARK  0 active torsions:
REMARK  status: ('A' for Active; 'I' for Inactive)
ROOT
HETATM    1  N1  UNL     1       0.857 -23.537  -5.843  1.00  0.00    -0.063 NA
HETATM    2  C1  UNL     1      -0.565 -23.639  -5.780  1.00  0.00     0.192 A 
HETATM    3  N2  UNL     1      -1.445 -23.136  -6.685  1.00  0.00    -0.339 N 
ATOM      4  H2  UNL     1      -1.196 -22.619  -7.528  1.00  0.00     0.167 HD
HETATM    5  C2  UNL     1      -2.687 -23.426  -6.295  1.00  0.00     0.107 A 
HETATM    6  C3  UNL     1      -2.620 -24.132  -5.114  1.00  0.00     0.107 A 
HETATM    7  N3  UNL     1      -1.313 -24.235  -4.843  1.00  0.00    -0.339 N 
ATOM      8  H3  UNL     1      -0.933 -24.710  -4.024  1.00  0.00     0.167 HD
ENDROOT
TORSDOF 0
ENDMDL
