MODEL 5
REMARK VINA RESULT: -3.959118192      5.482      6.553
REMARK  0 active torsions:
REMARK  status: ('A' for Active; 'I' for Inactive)
ROOT
HETATM    1  N1  UNL     1      -6.111 -28.819  -5.682  1.00  0.00    -0.063 NA
HETATM    2  C1  UNL     1      -5.258 -27.682  -5.560  1.00  0.00     0.192 A 
HETATM    3  N2  UNL     1      -3.905 -27.679  -5.682  1.00  0.00    -0.339 N 
ATOM      4  H2  UNL     1      -3.327 -28.497  -5.878  1.00  0.00     0.167 HD
HETATM    5  C2  UNL     1      -3.452 -26.437  -5.506  1.00  0.00     0.107 A 
HETATM    6  C3  UNL     1      -4.528 -25.611  -5.264  1.00  0.00     0.107 A 
HETATM    7  N3  UNL     1      -5.600 -26.413  -5.307  1.00  0.00    -0.339 N 
ATOM      8  H3  UNL     1      -6.558 -26.095  -5.165  1.00  0.00     0.167 HD
ENDROOT
TORSDOF 0
ENDMDL
