MODEL 6
REMARK VINA RESULT: -3.953970599      5.470      6.643
REMARK  0 active torsions:
REMARK  status: ('A' for Active; 'I' for Inactive)
ROOT
HETATM    1  N1  UNL     1      -6.129 -28.822  -5.659  1.00  0.00    -0.063 NA
HETATM    2  C1  UNL     1      -5.271 -27.684  -5.587  1.00  0.00     0.192 A 
HETATM    3  N2  UNL     1      -5.655 -26.404  -5.343  1.00  0.00    -0.339 N 
ATOM      4  H2  UNL     1      -6.614 -26.095  -5.181  1.00  0.00     0.167 HD
HETATM    5  C2  UNL     1      -4.580 -25.615  -5.351  1.00  0.00     0.107 A 
HETATM    6  C3  UNL     1      -3.471 -26.392  -5.603  1.00  0.00     0.107 A 
HETATM    7  N3  UNL     1      -3.941 -27.638  -5.738  1.00  0.00    -0.339 N 
ATOM      8  H3  UNL     1      -3.358 -28.452  -5.934  1.00  0.00     0.167 HD
ENDROOT
TORSDOF 0
ENDMDL
