MODEL 19
REMARK VINA RESULT: -6.414209653      4.467      6.225
REMARK  5 active torsions:
REMARK  status: ('A' for Active; 'I' for Inactive)
REMARK    1  A    between atoms: C4_5  and  C5_6 
REMARK    2  A    between atoms: C6_10  and  C7_11 
REMARK    3  A    between atoms: C7_11  and  O1_12 
REMARK    4  A    between atoms: C8_14  and  O2_15 
REMARK    5  A    between atoms: C9_17  and  O3_18 
ROOT
HETATM    1  C5  UNL     1      25.296   7.298  35.003  1.00  0.00     0.250 C 
HETATM    2  N2  UNL     1      24.005   7.879  35.310  1.00  0.00    -0.056 N 
ATOM      3  H21 UNL     1      23.393   7.259  35.841  1.00  0.00     0.278 HD
ATOM      4  H22 UNL     1      23.398   7.981  34.496  1.00  0.00     0.278 HD
HETATM    5  C6  UNL     1      24.288   9.119  35.975  1.00  0.00     0.241 C 
HETATM    6  C8  UNL     1      25.726   9.469  35.716  1.00  0.00     0.182 C 
HETATM    7  C9  UNL     1      26.069   8.516  34.569  1.00  0.00     0.184 C 
ENDROOT
BRANCH   1   8
HETATM    8  C4  UNL     1      25.228   6.256  33.971  1.00  0.00    -0.023 A 
HETATM    9  C3  UNL     1      24.236   6.334  33.015  1.00  0.00     0.011 A 
HETATM   10  C2  UNL     1      24.118   5.387  32.019  1.00  0.00     0.029 A 
HETATM   11  C1  UNL     1      24.996   4.316  31.941  1.00  0.00     0.070 A 
HETATM   12  N1  UNL     1      24.847   3.365  30.910  1.00  0.00    -0.100 NA
HETATM   13  C11 UNL     1      26.006   4.219  32.898  1.00  0.00     0.071 A 
HETATM   14  C10 UNL     1      26.091   5.192  33.884  1.00  0.00     0.037 A 
HETATM   15  N3  UNL     1      26.900   3.130  32.819  1.00  0.00    -0.100 NA
ENDBRANCH   1   8
BRANCH   7  16
HETATM   16  O3  UNL     1      27.437   8.286  34.502  1.00  0.00    -0.390 OA
ATOM     17  H3  UNL     1      27.702   7.884  33.683  1.00  0.00     0.210 HD
ENDBRANCH   7  16
BRANCH   5  18
HETATM   18  C7  UNL     1      23.441  10.262  35.462  1.00  0.00     0.199 C 
BRANCH  18  19
HETATM   19  O1  UNL     1      23.301  11.273  36.418  1.00  0.00    -0.399 OA
ATOM     20  H1  UNL     1      23.350  10.930  37.303  1.00  0.00     0.209 HD
ENDBRANCH  18  19
ENDBRANCH   5  18
BRANCH   6  21
HETATM   21  O2  UNL     1      26.484   9.033  36.817  1.00  0.00    -0.391 OA
ATOM     22  H2  UNL     1      26.080   9.377  37.606  1.00  0.00     0.210 HD
ENDBRANCH   6  21
TORSDOF 5
ENDMDL
