MODEL 18
REMARK VINA RESULT: -6.447831831      4.176      5.699
REMARK  5 active torsions:
REMARK  status: ('A' for Active; 'I' for Inactive)
REMARK    1  A    between atoms: C4_5  and  C5_6 
REMARK    2  A    between atoms: C6_10  and  C7_11 
REMARK    3  A    between atoms: C7_11  and  O1_12 
REMARK    4  A    between atoms: C8_14  and  O2_15 
REMARK    5  A    between atoms: C9_17  and  O3_18 
ROOT
HETATM    1  C5  UNL     1      25.234   6.016  33.038  1.00  0.00     0.250 C 
HETATM    2  N2  UNL     1      24.179   5.725  32.089  1.00  0.00    -0.056 N 
ATOM      3  H21 UNL     1      24.067   6.440  31.370  1.00  0.00     0.278 HD
ATOM      4  H22 UNL     1      23.241   5.800  32.483  1.00  0.00     0.278 HD
HETATM    5  C6  UNL     1      24.481   4.422  31.565  1.00  0.00     0.241 C 
HETATM    6  C8  UNL     1      25.481   3.773  32.480  1.00  0.00     0.182 C 
HETATM    7  C9  UNL     1      25.400   4.679  33.711  1.00  0.00     0.184 C 
ENDROOT
BRANCH   1   8
HETATM    8  C4  UNL     1      24.886   7.095  33.972  1.00  0.00    -0.023 A 
HETATM    9  C3  UNL     1      23.562   7.271  34.316  1.00  0.00     0.011 A 
HETATM   10  C2  UNL     1      23.169   8.267  35.188  1.00  0.00     0.029 A 
HETATM   11  C1  UNL     1      24.096   9.131  35.752  1.00  0.00     0.070 A 
HETATM   12  N1  UNL     1      23.661  10.137  36.640  1.00  0.00    -0.100 NA
HETATM   13  C11 UNL     1      25.441   8.969  35.416  1.00  0.00     0.071 A 
HETATM   14  C10 UNL     1      25.794   7.956  34.536  1.00  0.00     0.037 A 
HETATM   15  N3  UNL     1      26.383   9.848  35.991  1.00  0.00    -0.100 NA
ENDBRANCH   1   8
BRANCH   7  16
HETATM   16  O3  UNL     1      26.562   4.599  34.466  1.00  0.00    -0.390 OA
ATOM     17  H3  UNL     1      26.390   4.532  35.398  1.00  0.00     0.210 HD
ENDBRANCH   7  16
BRANCH   5  18
HETATM   18  C7  UNL     1      23.266   3.524  31.504  1.00  0.00     0.199 C 
BRANCH  18  19
HETATM   19  O1  UNL     1      22.092   4.219  31.811  1.00  0.00    -0.399 OA
ATOM     20  H1  UNL     1      21.427   3.644  32.172  1.00  0.00     0.209 HD
ENDBRANCH  18  19
ENDBRANCH   5  18
BRANCH   6  21
HETATM   21  O2  UNL     1      26.761   3.975  31.937  1.00  0.00    -0.391 OA
ATOM     22  H2  UNL     1      27.195   3.131  31.886  1.00  0.00     0.210 HD
ENDBRANCH   6  21
TORSDOF 5
ENDMDL
