MODEL 15
REMARK VINA RESULT: -6.637886633      3.772      5.093
REMARK  5 active torsions:
REMARK  status: ('A' for Active; 'I' for Inactive)
REMARK    1  A    between atoms: C4_5  and  C5_6 
REMARK    2  A    between atoms: C6_10  and  C7_11 
REMARK    3  A    between atoms: C7_11  and  O1_12 
REMARK    4  A    between atoms: C8_14  and  O2_15 
REMARK    5  A    between atoms: C9_17  and  O3_18 
ROOT
HETATM    1  C5  UNL     1      24.245   4.736  33.234  1.00  0.00     0.250 C 
HETATM    2  N2  UNL     1      24.945   3.674  33.928  1.00  0.00    -0.056 N 
ATOM      3  H21 UNL     1      24.512   3.410  34.813  1.00  0.00     0.278 HD
ATOM      4  H22 UNL     1      25.845   3.961  34.314  1.00  0.00     0.278 HD
HETATM    5  C6  UNL     1      25.039   2.594  32.987  1.00  0.00     0.241 C 
HETATM    6  C8  UNL     1      24.755   3.144  31.618  1.00  0.00     0.182 C 
HETATM    7  C9  UNL     1      24.868   4.650  31.865  1.00  0.00     0.184 C 
ENDROOT
BRANCH   1   8
HETATM    8  C4  UNL     1      24.418   6.050  33.868  1.00  0.00    -0.023 A 
HETATM    9  C3  UNL     1      23.294   6.783  34.188  1.00  0.00     0.011 A 
HETATM   10  C2  UNL     1      23.389   8.024  34.784  1.00  0.00     0.029 A 
HETATM   11  C1  UNL     1      24.622   8.581  35.087  1.00  0.00     0.070 A 
HETATM   12  N1  UNL     1      24.683   9.851  35.697  1.00  0.00    -0.100 NA
HETATM   13  C11 UNL     1      25.770   7.854  34.772  1.00  0.00     0.071 A 
HETATM   14  C10 UNL     1      25.633   6.610  34.172  1.00  0.00     0.037 A 
HETATM   15  N3  UNL     1      27.026   8.421  35.079  1.00  0.00    -0.100 NA
ENDBRANCH   1   8
BRANCH   7  16
HETATM   16  O3  UNL     1      24.162   5.368  30.909  1.00  0.00    -0.390 OA
ATOM     17  H3  UNL     1      23.663   4.808  30.325  1.00  0.00     0.210 HD
ENDBRANCH   7  16
BRANCH   5  18
HETATM   18  C7  UNL     1      26.417   1.971  32.952  1.00  0.00     0.199 C 
BRANCH  18  19
HETATM   19  O1  UNL     1      26.495   0.842  33.774  1.00  0.00    -0.399 OA
ATOM     20  H1  UNL     1      27.386   0.676  34.060  1.00  0.00     0.209 HD
ENDBRANCH  18  19
ENDBRANCH   5  18
BRANCH   6  21
HETATM   21  O2  UNL     1      23.401   2.904  31.326  1.00  0.00    -0.391 OA
ATOM     22  H2  UNL     1      23.069   3.648  30.838  1.00  0.00     0.210 HD
ENDBRANCH   6  21
TORSDOF 5
ENDMDL
