MODEL 3
REMARK VINA RESULT: -8.078781032      4.386      6.437
REMARK  6 active torsions:
REMARK  status: ('A' for Active; 'I' for Inactive)
REMARK    1  A    between atoms: O1_2  and  C2_3 
REMARK    2  A    between atoms: C6_7  and  C7_8 
REMARK    3  A    between atoms: C7_8  and  C8_9 
REMARK       I    between atoms: C8_9  and  N1_11 
REMARK    4  A    between atoms: N1_11  and  C9_13 
REMARK    5  A    between atoms: C12_16  and  S1_17 
REMARK    6  A    between atoms: S1_17  and  N2_18 
ROOT
HETATM    1  C8  UNL     1      -1.936   5.257  13.346  1.00  0.00     0.226 C 
HETATM    2  O2  UNL     1      -1.253   4.730  14.240  1.00  0.00    -0.273 OA
HETATM    3  N1  UNL     1      -3.339   5.083  13.357  1.00  0.00    -0.327 N 
ATOM      4  H1  UNL     1      -3.858   5.528  12.600  1.00  0.00     0.169 HD
ENDROOT
BRANCH   1   5
HETATM    5  C7  UNL     1      -1.271   6.072  12.257  1.00  0.00     0.142 C 
BRANCH   5   6
HETATM    6  C6  UNL     1      -0.590   5.153  11.329  1.00  0.00    -0.031 A 
HETATM    7  C5  UNL     1       0.752   5.248  11.037  1.00  0.00     0.005 A 
HETATM    8  C4  UNL     1       1.494   6.262  11.648  1.00  0.00     0.017 A 
HETATM    9  C17 UNL     1       1.332   4.361  10.165  1.00  0.00     0.092 A 
HETATM   10  C3  UNL     1       2.829   6.337  11.341  1.00  0.00     0.038 A 
HETATM   11  C2  UNL     1       3.462   5.461  10.465  1.00  0.00     0.070 A 
HETATM   12  C18 UNL     1       2.681   4.475   9.887  1.00  0.00     0.075 A 
HETATM   13  O6  UNL     1       0.610   3.430   9.614  1.00  0.00    -0.275 OA
HETATM   14  C16 UNL     1      -0.663   3.303   9.862  1.00  0.00     0.288 A 
HETATM   15  C15 UNL     1      -1.326   4.148  10.724  1.00  0.00     0.091 A 
HETATM   16  O5  UNL     1      -1.344   2.377   9.307  1.00  0.00    -0.260 OA
BRANCH  11  17
HETATM   17  O1  UNL     1       4.818   5.590  10.196  1.00  0.00    -0.356 OA
HETATM   18  C1  UNL     1       5.695   5.754  11.293  1.00  0.00     0.210 C 
ENDBRANCH  11  17
ENDBRANCH   5   6
ENDBRANCH   1   5
BRANCH   3  19
HETATM   19  C9  UNL     1      -4.101   4.358  14.306  1.00  0.00     0.034 A 
HETATM   20  C10 UNL     1      -3.469   3.286  14.927  1.00  0.00     0.031 A 
HETATM   21  C11 UNL     1      -4.134   2.524  15.847  1.00  0.00     0.027 A 
HETATM   22  C12 UNL     1      -5.445   2.756  16.218  1.00  0.00     0.079 A 
HETATM   23  C13 UNL     1      -6.068   3.814  15.605  1.00  0.00     0.027 A 
HETATM   24  C14 UNL     1      -5.392   4.603  14.658  1.00  0.00     0.031 A 
BRANCH  22  25
HETATM   25  S1  UNL     1      -6.220   1.739  17.397  1.00  0.00     0.256 S 
HETATM   26  O3  UNL     1      -5.276   0.577  17.665  1.00  0.00    -0.201 OA
HETATM   27  O4  UNL     1      -7.495   1.159  16.883  1.00  0.00    -0.201 OA
BRANCH  25  28
HETATM   28  N2  UNL     1      -6.450   2.530  18.911  1.00  0.00    -0.324 N 
ATOM     29  H22 UNL     1      -7.301   3.044  19.142  1.00  0.00     0.169 HD
ATOM     30  H21 UNL     1      -5.651   2.425  19.536  1.00  0.00     0.169 HD
ENDBRANCH  25  28
ENDBRANCH  22  25
ENDBRANCH   3  19
TORSDOF 6
ENDMDL
