MODEL 1
REMARK VINA RESULT: -8.423644277      0.000      0.000
REMARK  6 active torsions:
REMARK  status: ('A' for Active; 'I' for Inactive)
REMARK    1  A    between atoms: O1_2  and  C2_3 
REMARK    2  A    between atoms: C6_7  and  C7_8 
REMARK    3  A    between atoms: C7_8  and  C8_9 
REMARK       I    between atoms: C8_9  and  N1_11 
REMARK    4  A    between atoms: N1_11  and  C9_13 
REMARK    5  A    between atoms: C12_16  and  S1_17 
REMARK    6  A    between atoms: S1_17  and  N2_18 
ROOT
HETATM    1  C8  UNL     1      -3.833   6.749  12.943  1.00  0.00     0.226 C 
HETATM    2  O2  UNL     1      -2.904   6.598  13.754  1.00  0.00    -0.273 OA
HETATM    3  N1  UNL     1      -4.953   5.889  13.009  1.00  0.00    -0.327 N 
ATOM      4  H1  UNL     1      -5.688   6.046  12.320  1.00  0.00     0.169 HD
ENDROOT
BRANCH   1   5
HETATM    5  C7  UNL     1      -3.764   7.841  11.897  1.00  0.00     0.142 C 
BRANCH   5   6
HETATM    6  C6  UNL     1      -4.158   7.273  10.595  1.00  0.00    -0.031 A 
HETATM    7  C5  UNL     1      -5.367   7.550   9.997  1.00  0.00     0.005 A 
HETATM    8  C4  UNL     1      -6.253   8.403  10.656  1.00  0.00     0.017 A 
HETATM    9  C17 UNL     1      -5.677   6.992   8.782  1.00  0.00     0.092 A 
HETATM   10  C3  UNL     1      -7.451   8.664  10.041  1.00  0.00     0.038 A 
HETATM   11  C2  UNL     1      -7.811   8.124   8.810  1.00  0.00     0.070 A 
HETATM   12  C18 UNL     1      -6.896   7.284   8.200  1.00  0.00     0.075 A 
HETATM   13  O6  UNL     1      -4.826   6.201   8.197  1.00  0.00    -0.275 OA
HETATM   14  C16 UNL     1      -3.671   5.913   8.726  1.00  0.00     0.288 A 
HETATM   15  C15 UNL     1      -3.277   6.428   9.942  1.00  0.00     0.091 A 
HETATM   16  O5  UNL     1      -2.857   5.134   8.126  1.00  0.00    -0.260 OA
BRANCH  11  17
HETATM   17  O1  UNL     1      -9.040   8.427   8.239  1.00  0.00    -0.356 OA
HETATM   18  C1  UNL     1      -9.136   9.610   7.470  1.00  0.00     0.210 C 
ENDBRANCH  11  17
ENDBRANCH   5   6
ENDBRANCH   1   5
BRANCH   3  19
HETATM   19  C9  UNL     1      -5.164   4.832  13.930  1.00  0.00     0.034 A 
HETATM   20  C10 UNL     1      -6.080   5.066  14.951  1.00  0.00     0.031 A 
HETATM   21  C11 UNL     1      -6.334   4.106  15.890  1.00  0.00     0.027 A 
HETATM   22  C12 UNL     1      -5.720   2.868  15.894  1.00  0.00     0.079 A 
HETATM   23  C13 UNL     1      -4.818   2.638  14.886  1.00  0.00     0.027 A 
HETATM   24  C14 UNL     1      -4.549   3.620  13.916  1.00  0.00     0.031 A 
BRANCH  22  25
HETATM   25  S1  UNL     1      -6.100   1.700  17.125  1.00  0.00     0.256 S 
HETATM   26  O3  UNL     1      -4.928   0.732  17.191  1.00  0.00    -0.201 OA
HETATM   27  O4  UNL     1      -7.311   0.899  16.782  1.00  0.00    -0.201 OA
BRANCH  25  28
HETATM   28  N2  UNL     1      -6.230   2.403  18.694  1.00  0.00    -0.324 N 
ATOM     29  H22 UNL     1      -6.245   3.411  18.847  1.00  0.00     0.169 HD
ATOM     30  H21 UNL     1      -6.290   1.705  19.435  1.00  0.00     0.169 HD
ENDBRANCH  25  28
ENDBRANCH  22  25
ENDBRANCH   3  19
TORSDOF 6
ENDMDL
