MODEL 2
REMARK VINA RESULT: -8.082598758      4.952      8.835
REMARK  6 active torsions:
REMARK  status: ('A' for Active; 'I' for Inactive)
REMARK    1  A    between atoms: O1_2  and  C2_3 
REMARK    2  A    between atoms: C6_7  and  C7_8 
REMARK    3  A    between atoms: C7_8  and  C8_9 
REMARK       I    between atoms: C8_9  and  N1_11 
REMARK    4  A    between atoms: N1_11  and  C9_13 
REMARK    5  A    between atoms: C12_16  and  S1_17 
REMARK    6  A    between atoms: S1_17  and  N2_18 
ROOT
HETATM    1  C8  UNL     1      -2.881   4.081  10.619  1.00  0.00     0.226 C 
HETATM    2  O2  UNL     1      -2.771   4.337   9.408  1.00  0.00    -0.273 OA
HETATM    3  N1  UNL     1      -1.730   4.115  11.439  1.00  0.00    -0.327 N 
ATOM      4  H1  UNL     1      -1.867   3.892  12.425  1.00  0.00     0.169 HD
ENDROOT
BRANCH   1   5
HETATM    5  C7  UNL     1      -4.233   3.735  11.206  1.00  0.00     0.142 C 
BRANCH   5   6
HETATM    6  C6  UNL     1      -4.132   2.432  11.887  1.00  0.00    -0.031 A 
HETATM    7  C5  UNL     1      -4.348   2.278  13.238  1.00  0.00     0.005 A 
HETATM    8  C4  UNL     1      -4.674   3.408  13.990  1.00  0.00     0.017 A 
HETATM    9  C17 UNL     1      -4.242   1.038  13.815  1.00  0.00     0.092 A 
HETATM   10  C3  UNL     1      -4.884   3.230  15.334  1.00  0.00     0.038 A 
HETATM   11  C2  UNL     1      -4.789   1.994  15.965  1.00  0.00     0.070 A 
HETATM   12  C18 UNL     1      -4.464   0.907  15.173  1.00  0.00     0.075 A 
HETATM   13  O6  UNL     1      -3.937   0.007  13.083  1.00  0.00    -0.275 OA
HETATM   14  C16 UNL     1      -3.725   0.106  11.801  1.00  0.00     0.288 A 
HETATM   15  C15 UNL     1      -3.811   1.312  11.139  1.00  0.00     0.091 A 
HETATM   16  O5  UNL     1      -3.428  -0.924  11.109  1.00  0.00    -0.260 OA
BRANCH  11  17
HETATM   17  O1  UNL     1      -5.013   1.880  17.331  1.00  0.00    -0.356 OA
HETATM   18  C1  UNL     1      -6.240   2.366  17.840  1.00  0.00     0.210 C 
ENDBRANCH  11  17
ENDBRANCH   5   6
ENDBRANCH   1   5
BRANCH   3  19
HETATM   19  C9  UNL     1      -0.407   4.426  11.039  1.00  0.00     0.034 A 
HETATM   20  C10 UNL     1       0.197   5.512  11.665  1.00  0.00     0.031 A 
HETATM   21  C11 UNL     1       1.467   5.889  11.331  1.00  0.00     0.027 A 
HETATM   22  C12 UNL     1       2.225   5.239  10.376  1.00  0.00     0.079 A 
HETATM   23  C13 UNL     1       1.629   4.167   9.759  1.00  0.00     0.027 A 
HETATM   24  C14 UNL     1       0.323   3.772  10.096  1.00  0.00     0.031 A 
BRANCH  22  25
HETATM   25  S1  UNL     1       3.836   5.782  10.008  1.00  0.00     0.256 S 
HETATM   26  O3  UNL     1       4.083   5.466   8.541  1.00  0.00    -0.201 OA
HETATM   27  O4  UNL     1       4.867   5.045  10.795  1.00  0.00    -0.201 OA
BRANCH  25  28
HETATM   28  N2  UNL     1       4.017   7.488  10.168  1.00  0.00    -0.324 N 
ATOM     29  H22 UNL     1       4.008   7.962  11.072  1.00  0.00     0.169 HD
ATOM     30  H21 UNL     1       4.133   7.959   9.271  1.00  0.00     0.169 HD
ENDBRANCH  25  28
ENDBRANCH  22  25
ENDBRANCH   3  19
TORSDOF 6
ENDMDL
