MODEL 1
REMARK VINA RESULT: -6.514763489      0.000      0.000
REMARK  3 active torsions:
REMARK  status: ('A' for Active; 'I' for Inactive)
REMARK       I    between atoms: C2_2  and  N1_4 
REMARK    1  A    between atoms: N1_4  and  C3_6 
REMARK    2  A    between atoms: C4_11  and  S1_12 
REMARK    3  A    between atoms: S1_12  and  N4_13 
ROOT
HETATM    1  C3  UNL     1      -2.307  -1.865  20.593  1.00  0.00     0.168 A 
HETATM    2  N2  UNL     1      -1.186  -1.654  21.278  1.00  0.00    -0.278 N 
ATOM      3  H2  UNL     1      -0.342  -2.180  21.054  1.00  0.00     0.189 HD
HETATM    4  N3  UNL     1      -1.173  -0.799  22.204  1.00  0.00    -0.281 N 
ATOM      5  H3  UNL     1      -0.316  -0.632  22.732  1.00  0.00     0.188 HD
HETATM    6  C4  UNL     1      -2.275  -0.115  22.493  1.00  0.00     0.208 A 
HETATM    7  S2  UNL     1      -3.371  -0.761  21.350  1.00  0.00    -0.020 SA
ENDROOT
BRANCH   6   8
HETATM    8  S1  UNL     1      -2.491   1.125  23.740  1.00  0.00     0.280 S 
HETATM    9  O2  UNL     1      -3.875   1.664  23.677  1.00  0.00    -0.199 OA
HETATM   10  O3  UNL     1      -2.249   0.442  25.055  1.00  0.00    -0.199 OA
BRANCH   8  11
HETATM   11  N4  UNL     1      -1.301   2.345  23.507  1.00  0.00    -0.323 N 
ATOM     12  H42 UNL     1      -0.715   2.439  22.678  1.00  0.00     0.169 HD
ATOM     13  H41 UNL     1      -1.288   2.945  24.331  1.00  0.00     0.169 HD
ENDBRANCH   8  11
ENDBRANCH   6   8
BRANCH   1  14
HETATM   14  N1  UNL     1      -2.539  -2.784  19.509  1.00  0.00    -0.306 N 
HETATM   15  C2  UNL     1      -1.535  -2.956  18.529  1.00  0.00     0.219 C 
HETATM   16  C1  UNL     1      -1.694  -3.881  17.381  1.00  0.00     0.117 C 
HETATM   17  O1  UNL     1      -0.473  -2.292  18.650  1.00  0.00    -0.274 OA
ATOM     18  H1  UNL     1      -3.415  -3.303  19.449  1.00  0.00     0.171 HD
ENDBRANCH   1  14
TORSDOF 3
ENDMDL
