MODEL 7
REMARK VINA RESULT: -6.017034247      3.384      5.928
REMARK  3 active torsions:
REMARK  status: ('A' for Active; 'I' for Inactive)
REMARK       I    between atoms: C2_2  and  N1_4 
REMARK    1  A    between atoms: N1_4  and  C3_6 
REMARK    2  A    between atoms: C4_11  and  S1_12 
REMARK    3  A    between atoms: S1_12  and  N4_13 
ROOT
HETATM    1  C3  UNL     1      -4.458  -2.440  20.956  1.00  0.00     0.168 A 
HETATM    2  N2  UNL     1      -3.599  -3.389  21.316  1.00  0.00    -0.278 N 
ATOM      3  H2  UNL     1      -3.771  -3.945  22.154  1.00  0.00     0.189 HD
HETATM    4  N3  UNL     1      -2.570  -3.597  20.618  1.00  0.00    -0.281 N 
ATOM      5  H3  UNL     1      -1.908  -4.324  20.890  1.00  0.00     0.188 HD
HETATM    6  C4  UNL     1      -2.348  -2.871  19.528  1.00  0.00     0.208 A 
HETATM    7  S2  UNL     1      -3.713  -1.841  19.537  1.00  0.00    -0.020 SA
ENDROOT
BRANCH   6   8
HETATM    8  S1  UNL     1      -0.983  -2.984  18.403  1.00  0.00     0.280 S 
HETATM    9  O2  UNL     1       0.271  -2.585  19.095  1.00  0.00    -0.199 OA
HETATM   10  O3  UNL     1      -0.915  -4.421  17.973  1.00  0.00    -0.199 OA
BRANCH   8  11
HETATM   11  N4  UNL     1      -1.321  -1.998  17.036  1.00  0.00    -0.323 N 
ATOM     12  H42 UNL     1      -1.947  -2.252  16.272  1.00  0.00     0.169 HD
ATOM     13  H41 UNL     1      -0.794  -1.130  17.126  1.00  0.00     0.169 HD
ENDBRANCH   8  11
ENDBRANCH   6   8
BRANCH   1  14
HETATM   14  N1  UNL     1      -5.681  -2.041  21.602  1.00  0.00    -0.306 N 
HETATM   15  C2  UNL     1      -5.716  -1.953  23.011  1.00  0.00     0.219 C 
HETATM   16  C1  UNL     1      -6.934  -1.551  23.755  1.00  0.00     0.117 C 
HETATM   17  O1  UNL     1      -4.664  -2.231  23.646  1.00  0.00    -0.274 OA
ATOM     18  H1  UNL     1      -6.511  -1.824  21.049  1.00  0.00     0.171 HD
ENDBRANCH   1  14
TORSDOF 3
ENDMDL
