MODEL 4
REMARK VINA RESULT: -6.049858371      3.467      3.817
REMARK  3 active torsions:
REMARK  status: ('A' for Active; 'I' for Inactive)
REMARK       I    between atoms: C2_2  and  N1_4 
REMARK    1  A    between atoms: N1_4  and  C3_6 
REMARK    2  A    between atoms: C4_11  and  S1_12 
REMARK    3  A    between atoms: S1_12  and  N4_13 
ROOT
HETATM    1  C3  UNL     1      -3.996  -2.509  21.285  1.00  0.00     0.168 A 
HETATM    2  N2  UNL     1      -4.369  -3.569  21.997  1.00  0.00    -0.278 N 
ATOM      3  H2  UNL     1      -4.211  -4.510  21.637  1.00  0.00     0.189 HD
HETATM    4  N3  UNL     1      -4.921  -3.404  23.118  1.00  0.00    -0.281 N 
ATOM      5  H3  UNL     1      -5.209  -4.213  23.668  1.00  0.00     0.188 HD
HETATM    6  C4  UNL     1      -5.127  -2.177  23.584  1.00  0.00     0.208 A 
HETATM    7  S2  UNL     1      -4.479  -1.231  22.314  1.00  0.00    -0.020 SA
ENDROOT
BRANCH   6   8
HETATM    8  S1  UNL     1      -5.877  -1.706  25.119  1.00  0.00     0.280 S 
HETATM    9  O2  UNL     1      -4.966  -0.798  25.864  1.00  0.00    -0.199 OA
HETATM   10  O3  UNL     1      -7.152  -0.999  24.762  1.00  0.00    -0.199 OA
BRANCH   8  11
HETATM   11  N4  UNL     1      -6.247  -3.134  26.003  1.00  0.00    -0.323 N 
ATOM     12  H42 UNL     1      -7.080  -3.706  25.867  1.00  0.00     0.169 HD
ATOM     13  H41 UNL     1      -5.499  -3.301  26.675  1.00  0.00     0.169 HD
ENDBRANCH   8  11
ENDBRANCH   6   8
BRANCH   1  14
HETATM   14  N1  UNL     1      -3.357  -2.471  19.995  1.00  0.00    -0.306 N 
HETATM   15  C2  UNL     1      -2.171  -3.214  19.795  1.00  0.00     0.219 C 
HETATM   16  C1  UNL     1      -1.451  -3.230  18.499  1.00  0.00     0.117 C 
HETATM   17  O1  UNL     1      -1.723  -3.882  20.763  1.00  0.00    -0.274 OA
ATOM     18  H1  UNL     1      -3.754  -1.916  19.237  1.00  0.00     0.171 HD
ENDBRANCH   1  14
TORSDOF 3
ENDMDL
