MODEL 13
REMARK VINA RESULT: -5.898844755      3.143      6.006
REMARK  3 active torsions:
REMARK  status: ('A' for Active; 'I' for Inactive)
REMARK       I    between atoms: C2_2  and  N1_4 
REMARK    1  A    between atoms: N1_4  and  C3_6 
REMARK    2  A    between atoms: C4_11  and  S1_12 
REMARK    3  A    between atoms: S1_12  and  N4_13 
ROOT
HETATM    1  C3  UNL     1      -4.285  -2.202  20.942  1.00  0.00     0.168 A 
HETATM    2  N2  UNL     1      -3.406  -3.162  21.214  1.00  0.00    -0.278 N 
ATOM      3  H2  UNL     1      -3.462  -3.675  22.093  1.00  0.00     0.189 HD
HETATM    4  N3  UNL     1      -2.503  -3.436  20.378  1.00  0.00    -0.281 N 
ATOM      5  H3  UNL     1      -1.826  -4.172  20.581  1.00  0.00     0.188 HD
HETATM    6  C4  UNL     1      -2.431  -2.766  19.232  1.00  0.00     0.208 A 
HETATM    7  S2  UNL     1      -3.752  -1.691  19.399  1.00  0.00    -0.020 SA
ENDROOT
BRANCH   6   8
HETATM    8  S1  UNL     1      -1.259  -2.975  17.920  1.00  0.00     0.280 S 
HETATM    9  O2  UNL     1      -1.153  -1.716  17.138  1.00  0.00    -0.199 OA
HETATM   10  O3  UNL     1       0.051  -3.302  18.577  1.00  0.00    -0.199 OA
BRANCH   8  11
HETATM   11  N4  UNL     1      -1.757  -4.307  16.953  1.00  0.00    -0.323 N 
ATOM     12  H42 UNL     1      -1.536  -4.427  15.965  1.00  0.00     0.169 HD
ATOM     13  H41 UNL     1      -2.302  -4.942  17.535  1.00  0.00     0.169 HD
ENDBRANCH   8  11
ENDBRANCH   6   8
BRANCH   1  14
HETATM   14  N1  UNL     1      -5.384  -1.733  21.746  1.00  0.00    -0.306 N 
HETATM   15  C2  UNL     1      -5.151  -1.408  23.101  1.00  0.00     0.219 C 
HETATM   16  C1  UNL     1      -6.226  -0.919  23.998  1.00  0.00     0.117 C 
HETATM   17  O1  UNL     1      -3.982  -1.543  23.549  1.00  0.00    -0.274 OA
ATOM     18  H1  UNL     1      -6.316  -1.638  21.344  1.00  0.00     0.171 HD
ENDBRANCH   1  14
TORSDOF 3
ENDMDL
