MODEL 2
REMARK VINA RESULT: -6.351741932      1.051      1.232
REMARK  3 active torsions:
REMARK  status: ('A' for Active; 'I' for Inactive)
REMARK       I    between atoms: C2_2  and  N1_4 
REMARK    1  A    between atoms: N1_4  and  C3_6 
REMARK    2  A    between atoms: C4_11  and  S1_12 
REMARK    3  A    between atoms: S1_12  and  N4_13 
ROOT
HETATM    1  C3  UNL     1      -2.227  -2.081  20.446  1.00  0.00     0.168 A 
HETATM    2  N2  UNL     1      -1.133  -1.824  21.157  1.00  0.00    -0.278 N 
ATOM      3  H2  UNL     1      -0.281  -2.363  20.999  1.00  0.00     0.189 HD
HETATM    4  N3  UNL     1      -1.154  -0.912  22.026  1.00  0.00    -0.281 N 
ATOM      5  H3  UNL     1      -0.318  -0.710  22.574  1.00  0.00     0.188 HD
HETATM    6  C4  UNL     1      -2.266  -0.213  22.229  1.00  0.00     0.208 A 
HETATM    7  S2  UNL     1      -3.318  -0.933  21.089  1.00  0.00    -0.020 SA
ENDROOT
BRANCH   6   8
HETATM    8  S1  UNL     1      -2.527   1.104  23.386  1.00  0.00     0.280 S 
HETATM    9  O2  UNL     1      -1.691   2.274  23.011  1.00  0.00    -0.199 OA
HETATM   10  O3  UNL     1      -3.986   1.449  23.303  1.00  0.00    -0.199 OA
BRANCH   8  11
HETATM   11  N4  UNL     1      -2.171   0.522  24.963  1.00  0.00    -0.323 N 
ATOM     12  H42 UNL     1      -2.244  -0.452  25.258  1.00  0.00     0.169 HD
ATOM     13  H41 UNL     1      -1.879   1.310  25.540  1.00  0.00     0.169 HD
ENDBRANCH   8  11
ENDBRANCH   6   8
BRANCH   1  14
HETATM   14  N1  UNL     1      -2.419  -3.068  19.414  1.00  0.00    -0.306 N 
HETATM   15  C2  UNL     1      -1.529  -3.094  18.316  1.00  0.00     0.219 C 
HETATM   16  C1  UNL     1      -1.656  -4.076  17.212  1.00  0.00     0.117 C 
HETATM   17  O1  UNL     1      -0.600  -2.245  18.289  1.00  0.00    -0.274 OA
ATOM     18  H1  UNL     1      -3.185  -3.738  19.475  1.00  0.00     0.171 HD
ENDBRANCH   1  14
TORSDOF 3
ENDMDL
