MODEL 3
REMARK VINA RESULT: -7.072285668      0.893      1.037
REMARK  8 active torsions:
REMARK  status: ('A' for Active; 'I' for Inactive)
REMARK    1  A    between atoms: N1_1  and  S1_4 
REMARK    2  A    between atoms: S1_4  and  C1_7 
REMARK    3  A    between atoms: C4_10  and  N2_11 
REMARK    4  A    between atoms: N2_11  and  C5_13 
REMARK    5  A    between atoms: C7_20  and  N5_21 
REMARK    6  A    between atoms: N5_21  and  C8_23 
REMARK    7  A    between atoms: C8_23  and  C9_24 
REMARK    8  A    between atoms: C9_24  and  O3_25 
ROOT
HETATM    1  C5  UNL     1      -2.248   3.855  12.550  1.00  0.00     0.699 A 
HETATM    2  N3  UNL     1      -1.223   4.489  11.969  1.00  0.00    -0.164 N 
ATOM      3  H3  UNL     1      -0.991   5.419  12.318  1.00  0.00     0.186 HD
HETATM    4  C6  UNL     1      -0.475   4.005  10.970  1.00  0.00     0.208 A 
HETATM    5 CL1  UNL     1       0.824   4.985  10.344  1.00  0.00    -0.044 Cl
HETATM    6  N4  UNL     1      -0.785   2.785  10.519  1.00  0.00    -0.165 N 
ATOM      7  H4  UNL     1      -0.240   2.381   9.757  1.00  0.00     0.186 HD
HETATM    8  C7  UNL     1      -1.818   2.068  11.056  1.00  0.00     0.695 A 
HETATM    9  N6  UNL     1      -2.519   2.612  12.046  1.00  0.00    -0.022 N 
ATOM     10  H6  UNL     1      -3.291   2.080  12.449  1.00  0.00     0.203 HD
ENDROOT
BRANCH   1  11
HETATM   11  N2  UNL     1      -3.030   4.368  13.598  1.00  0.00    -0.191 N 
ATOM     12  H2  UNL     1      -2.972   5.374  13.751  1.00  0.00     0.184 HD
BRANCH  11  13
HETATM   13  C4  UNL     1      -3.886   3.656  14.463  1.00  0.00     0.049 A 
HETATM   14  C3  UNL     1      -5.242   3.858  14.577  1.00  0.00     0.031 A 
HETATM   15  C2  UNL     1      -6.043   3.121  15.452  1.00  0.00     0.027 A 
HETATM   16  C1  UNL     1      -5.495   2.147  16.247  1.00  0.00     0.079 A 
HETATM   17  C11 UNL     1      -4.140   1.929  16.148  1.00  0.00     0.027 A 
HETATM   18  C10 UNL     1      -3.353   2.649  15.291  1.00  0.00     0.031 A 
BRANCH  16  19
HETATM   19  S1  UNL     1      -6.484   1.216  17.347  1.00  0.00     0.256 S 
HETATM   20  O1  UNL     1      -7.901   1.096  16.862  1.00  0.00    -0.201 OA
HETATM   21  O2  UNL     1      -6.431   1.937  18.684  1.00  0.00    -0.201 OA
BRANCH  19  22
HETATM   22  N1  UNL     1      -5.762  -0.335  17.575  1.00  0.00    -0.324 N 
ATOM     23  H12 UNL     1      -6.269  -1.143  17.935  1.00  0.00     0.169 HD
ATOM     24  H11 UNL     1      -4.778  -0.331  17.305  1.00  0.00     0.169 HD
ENDBRANCH  19  22
ENDBRANCH  16  19
ENDBRANCH  11  13
ENDBRANCH   1  11
BRANCH   8  25
HETATM   25  N5  UNL     1      -2.092   0.779  10.527  1.00  0.00    -0.223 N 
ATOM     26  H5  UNL     1      -1.560   0.434   9.728  1.00  0.00     0.177 HD
BRANCH  25  27
HETATM   27  C8  UNL     1      -3.113  -0.038  11.112  1.00  0.00     0.164 C 
BRANCH  27  28
HETATM   28  C9  UNL     1      -4.410  -0.004  10.380  1.00  0.00     0.184 C 
BRANCH  28  29
HETATM   29  O3  UNL     1      -4.954   1.250  10.255  1.00  0.00    -0.399 OA
ATOM     30  H3  UNL     1      -5.640   1.315   9.600  1.00  0.00     0.209 HD
ENDBRANCH  28  29
ENDBRANCH  27  28
ENDBRANCH  25  27
ENDBRANCH   8  25
TORSDOF 8
ENDMDL
