MODEL 2
REMARK VINA RESULT: -7.131821596      0.460      1.102
REMARK  8 active torsions:
REMARK  status: ('A' for Active; 'I' for Inactive)
REMARK    1  A    between atoms: N1_1  and  S1_4 
REMARK    2  A    between atoms: S1_4  and  C1_7 
REMARK    3  A    between atoms: C4_10  and  N2_11 
REMARK    4  A    between atoms: N2_11  and  C5_13 
REMARK    5  A    between atoms: C7_20  and  N5_21 
REMARK    6  A    between atoms: N5_21  and  C8_23 
REMARK    7  A    between atoms: C8_23  and  C9_24 
REMARK    8  A    between atoms: C9_24  and  O3_25 
ROOT
HETATM    1  C5  UNL     1      -2.231   3.817  12.522  1.00  0.00     0.699 A 
HETATM    2  N3  UNL     1      -1.230   4.499  11.955  1.00  0.00    -0.164 N 
ATOM      3  H3  UNL     1      -1.001   5.410  12.354  1.00  0.00     0.186 HD
HETATM    4  C6  UNL     1      -0.503   4.089  10.909  1.00  0.00     0.208 A 
HETATM    5 CL1  UNL     1       0.766   5.124  10.311  1.00  0.00    -0.044 Cl
HETATM    6  N4  UNL     1      -0.810   2.895  10.391  1.00  0.00    -0.165 N 
ATOM      7  H4  UNL     1      -0.280   2.546   9.592  1.00  0.00     0.186 HD
HETATM    8  C7  UNL     1      -1.819   2.132  10.909  1.00  0.00     0.695 A 
HETATM    9  N6  UNL     1      -2.500   2.603  11.949  1.00  0.00    -0.022 N 
ATOM     10  H6  UNL     1      -3.254   2.037  12.338  1.00  0.00     0.203 HD
ENDROOT
BRANCH   1  11
HETATM   11  N2  UNL     1      -2.992   4.253  13.619  1.00  0.00    -0.191 N 
ATOM     12  H2  UNL     1      -2.996   5.258  13.792  1.00  0.00     0.184 HD
BRANCH  11  13
HETATM   13  C4  UNL     1      -3.750   3.466  14.510  1.00  0.00     0.049 A 
HETATM   14  C3  UNL     1      -3.239   2.492  15.336  1.00  0.00     0.031 A 
HETATM   15  C2  UNL     1      -4.040   1.742  16.201  1.00  0.00     0.027 A 
HETATM   16  C1  UNL     1      -5.393   1.954  16.260  1.00  0.00     0.079 A 
HETATM   17  C11 UNL     1      -5.924   2.924  15.441  1.00  0.00     0.027 A 
HETATM   18  C10 UNL     1      -5.142   3.661  14.593  1.00  0.00     0.031 A 
BRANCH  16  19
HETATM   19  S1  UNL     1      -6.407   1.024  17.336  1.00  0.00     0.256 S 
HETATM   20  O1  UNL     1      -5.990  -0.419  17.394  1.00  0.00    -0.201 OA
HETATM   21  O2  UNL     1      -7.826   1.153  16.807  1.00  0.00    -0.201 OA
BRANCH  19  22
HETATM   22  N1  UNL     1      -6.380   1.751  18.901  1.00  0.00    -0.324 N 
ATOM     23  H12 UNL     1      -5.668   1.549  19.603  1.00  0.00     0.169 HD
ATOM     24  H11 UNL     1      -7.159   2.398  19.025  1.00  0.00     0.169 HD
ENDBRANCH  19  22
ENDBRANCH  16  19
ENDBRANCH  11  13
ENDBRANCH   1  11
BRANCH   8  25
HETATM   25  N5  UNL     1      -2.091   0.873  10.309  1.00  0.00    -0.223 N 
ATOM     26  H5  UNL     1      -1.625   0.614   9.440  1.00  0.00     0.177 HD
BRANCH  25  27
HETATM   27  C8  UNL     1      -3.016  -0.032  10.921  1.00  0.00     0.164 C 
BRANCH  27  28
HETATM   28  C9  UNL     1      -4.389   0.022  10.343  1.00  0.00     0.184 C 
BRANCH  28  29
HETATM   29  O3  UNL     1      -4.915   1.287  10.258  1.00  0.00    -0.399 OA
ATOM     30  H3  UNL     1      -5.536   1.405   9.548  1.00  0.00     0.209 HD
ENDBRANCH  28  29
ENDBRANCH  27  28
ENDBRANCH  25  27
ENDBRANCH   8  25
TORSDOF 8
ENDMDL
