MODEL 1
REMARK VINA RESULT: -7.391928872      0.000      0.000
REMARK  8 active torsions:
REMARK  status: ('A' for Active; 'I' for Inactive)
REMARK    1  A    between atoms: N1_1  and  S1_4 
REMARK    2  A    between atoms: S1_4  and  C1_7 
REMARK    3  A    between atoms: C4_10  and  N2_11 
REMARK    4  A    between atoms: N2_11  and  C5_13 
REMARK    5  A    between atoms: C7_20  and  N5_21 
REMARK    6  A    between atoms: N5_21  and  C8_23 
REMARK    7  A    between atoms: C8_23  and  C9_24 
REMARK    8  A    between atoms: C9_24  and  O3_25 
ROOT
HETATM    1  C5  UNL     1      -2.026   3.545  12.706  1.00  0.00     0.699 A 
HETATM    2  N3  UNL     1      -0.803   3.985  12.390  1.00  0.00    -0.164 N 
ATOM      3  H3  UNL     1      -0.441   4.778  12.920  1.00  0.00     0.186 HD
HETATM    4  C6  UNL     1      -0.014   3.474  11.438  1.00  0.00     0.208 A 
HETATM    5 CL1  UNL     1       1.554   4.189  11.175  1.00  0.00    -0.044 Cl
HETATM    6  N4  UNL     1      -0.497   2.435  10.747  1.00  0.00    -0.165 N 
ATOM      7  H4  UNL     1       0.073   2.017  10.011  1.00  0.00     0.186 HD
HETATM    8  C7  UNL     1      -1.737   1.922  11.005  1.00  0.00     0.695 A 
HETATM    9  N6  UNL     1      -2.466   2.481  11.966  1.00  0.00    -0.022 N 
ATOM     10  H6  UNL     1      -3.393   2.101  12.160  1.00  0.00     0.203 HD
ENDROOT
BRANCH   1  11
HETATM   11  N2  UNL     1      -2.850   4.086  13.706  1.00  0.00    -0.191 N 
ATOM     12  H2  UNL     1      -2.800   5.096  13.832  1.00  0.00     0.184 HD
BRANCH  11  13
HETATM   13  C4  UNL     1      -3.739   3.397  14.558  1.00  0.00     0.049 A 
HETATM   14  C3  UNL     1      -5.082   3.667  14.684  1.00  0.00     0.031 A 
HETATM   15  C2  UNL     1      -5.917   2.950  15.544  1.00  0.00     0.027 A 
HETATM   16  C1  UNL     1      -5.418   1.928  16.310  1.00  0.00     0.079 A 
HETATM   17  C11 UNL     1      -4.076   1.642  16.198  1.00  0.00     0.027 A 
HETATM   18  C10 UNL     1      -3.257   2.342  15.356  1.00  0.00     0.031 A 
BRANCH  16  19
HETATM   19  S1  UNL     1      -6.449   1.022  17.391  1.00  0.00     0.256 S 
HETATM   20  O1  UNL     1      -6.033  -0.419  17.488  1.00  0.00    -0.201 OA
HETATM   21  O2  UNL     1      -7.859   1.139  16.836  1.00  0.00    -0.201 OA
BRANCH  19  22
HETATM   22  N1  UNL     1      -6.447   1.784  18.939  1.00  0.00    -0.324 N 
ATOM     23  H12 UNL     1      -5.679   1.702  19.605  1.00  0.00     0.169 HD
ATOM     24  H11 UNL     1      -7.303   2.318  19.093  1.00  0.00     0.169 HD
ENDBRANCH  19  22
ENDBRANCH  16  19
ENDBRANCH  11  13
ENDBRANCH   1  11
BRANCH   8  25
HETATM   25  N5  UNL     1      -2.185   0.818  10.232  1.00  0.00    -0.223 N 
ATOM     26  H5  UNL     1      -1.856   0.702   9.274  1.00  0.00     0.177 HD
BRANCH  25  27
HETATM   27  C8  UNL     1      -3.098  -0.132  10.794  1.00  0.00     0.164 C 
BRANCH  27  28
HETATM   28  C9  UNL     1      -4.512   0.060  10.367  1.00  0.00     0.184 C 
BRANCH  28  29
HETATM   29  O3  UNL     1      -4.878   1.373  10.199  1.00  0.00    -0.399 OA
ATOM     30  H3  UNL     1      -4.380   1.835   9.535  1.00  0.00     0.209 HD
ENDBRANCH  28  29
ENDBRANCH  27  28
ENDBRANCH  25  27
ENDBRANCH   8  25
TORSDOF 8
ENDMDL
