MODEL 1
REMARK VINA RESULT: -7.776370965      0.000      0.000
REMARK  8 active torsions:
REMARK  status: ('A' for Active; 'I' for Inactive)
REMARK    1  A    between atoms: O1_2  and  C2_3 
REMARK    2  A    between atoms: C2_3  and  C3_5 
REMARK    3  A    between atoms: C3_5  and  N1_6 
REMARK    4  A    between atoms: N1_6  and  C4_8 
REMARK    5  A    between atoms: C6_15  and  N4_16 
REMARK    6  A    between atoms: N4_16  and  C7_18 
REMARK    7  A    between atoms: C10_21  and  S1_22 
REMARK    8  A    between atoms: S1_22  and  N5_23 
ROOT
HETATM    1  C4  UNL     1      -1.802   2.432  11.157  1.00  0.00     0.695 A 
HETATM    2  N2  UNL     1      -0.620   2.950  10.778  1.00  0.00    -0.165 N 
ATOM      3  H2  UNL     1      -0.082   2.479  10.050  1.00  0.00     0.186 HD
HETATM    4  C5  UNL     1      -0.132   4.070  11.332  1.00  0.00     0.208 A 
HETATM    5 CL1  UNL     1       1.406   4.671  10.781  1.00  0.00    -0.044 Cl
HETATM    6  N3  UNL     1      -0.885   4.638  12.280  1.00  0.00    -0.164 N 
ATOM      7  H3  UNL     1      -0.529   5.490  12.712  1.00  0.00     0.186 HD
HETATM    8  C6  UNL     1      -2.068   4.181  12.708  1.00  0.00     0.699 A 
HETATM    9  N6  UNL     1      -2.508   3.040  12.105  1.00  0.00    -0.022 N 
ATOM     10  H6  UNL     1      -3.404   2.643  12.389  1.00  0.00     0.203 HD
ENDROOT
BRANCH   8  11
HETATM   11  N4  UNL     1      -2.871   4.764  13.701  1.00  0.00    -0.191 N 
ATOM     12  H4  UNL     1      -2.809   5.775  13.820  1.00  0.00     0.184 HD
BRANCH  11  13
HETATM   13  C7  UNL     1      -3.744   4.073  14.536  1.00  0.00     0.049 A 
HETATM   14  C8  UNL     1      -5.095   4.300  14.593  1.00  0.00     0.031 A 
HETATM   15  C9  UNL     1      -5.921   3.557  15.452  1.00  0.00     0.027 A 
HETATM   16  C10 UNL     1      -5.436   2.572  16.277  1.00  0.00     0.079 A 
HETATM   17  C11 UNL     1      -4.078   2.346  16.218  1.00  0.00     0.027 A 
HETATM   18  C12 UNL     1      -3.258   3.059  15.387  1.00  0.00     0.031 A 
BRANCH  16  19
HETATM   19  S1  UNL     1      -6.452   1.643  17.348  1.00  0.00     0.256 S 
HETATM   20  O3  UNL     1      -6.008   0.205  17.419  1.00  0.00    -0.201 OA
HETATM   21  O4  UNL     1      -7.858   1.729  16.822  1.00  0.00    -0.201 OA
BRANCH  19  22
HETATM   22  N5  UNL     1      -6.410   2.358  18.915  1.00  0.00    -0.324 N 
ATOM     23  H52 UNL     1      -5.706   2.160  19.626  1.00  0.00     0.169 HD
ATOM     24  H51 UNL     1      -7.197   3.000  19.005  1.00  0.00     0.169 HD
ENDBRANCH  19  22
ENDBRANCH  16  19
ENDBRANCH  11  13
ENDBRANCH   8  11
BRANCH   1  25
HETATM   25  N1  UNL     1      -2.296   1.241  10.552  1.00  0.00    -0.216 N 
ATOM     26  H1  UNL     1      -1.654   0.555  10.154  1.00  0.00     0.178 HD
BRANCH  25  27
HETATM   27  C3  UNL     1      -3.719   1.025  10.514  1.00  0.00     0.249 C 
BRANCH  27  28
HETATM   28  C2  UNL     1      -4.110   0.229  11.695  1.00  0.00     0.276 C 
HETATM   29  O2  UNL     1      -4.478   0.793  12.754  1.00  0.00    -0.263 OA
BRANCH  28  30
HETATM   30  O1  UNL     1      -4.092  -1.160  11.699  1.00  0.00    -0.325 OA
HETATM   31  C1  UNL     1      -2.907  -1.858  11.460  1.00  0.00     0.213 C 
ENDBRANCH  28  30
ENDBRANCH  27  28
ENDBRANCH  25  27
ENDBRANCH   1  25
TORSDOF 8
ENDMDL
