MODEL 3
REMARK VINA RESULT: -7.679707062      1.524      1.948
REMARK  8 active torsions:
REMARK  status: ('A' for Active; 'I' for Inactive)
REMARK    1  A    between atoms: O1_2  and  C2_3 
REMARK    2  A    between atoms: C2_3  and  C3_5 
REMARK    3  A    between atoms: C3_5  and  N1_6 
REMARK    4  A    between atoms: N1_6  and  C4_8 
REMARK    5  A    between atoms: C6_15  and  N4_16 
REMARK    6  A    between atoms: N4_16  and  C7_18 
REMARK    7  A    between atoms: C10_21  and  S1_22 
REMARK    8  A    between atoms: S1_22  and  N5_23 
ROOT
HETATM    1  C4  UNL     1      -1.319   3.968  11.293  1.00  0.00     0.695 A 
HETATM    2  N2  UNL     1      -0.219   4.741  11.318  1.00  0.00    -0.165 N 
ATOM      3  H2  UNL     1       0.565   4.511  10.707  1.00  0.00     0.186 HD
HETATM    4  C5  UNL     1      -0.127   5.808  12.126  1.00  0.00     0.208 A 
HETATM    5 CL1  UNL     1       1.334   6.755  12.096  1.00  0.00    -0.044 Cl
HETATM    6  N3  UNL     1      -1.188   6.056  12.902  1.00  0.00    -0.164 N 
ATOM      7  H3  UNL     1      -1.135   6.863  13.523  1.00  0.00     0.186 HD
HETATM    8  C6  UNL     1      -2.313   5.332  12.931  1.00  0.00     0.699 A 
HETATM    9  N6  UNL     1      -2.344   4.262  12.086  1.00  0.00    -0.022 N 
ATOM     10  H6  UNL     1      -3.175   3.672  12.063  1.00  0.00     0.203 HD
ENDROOT
BRANCH   8  11
HETATM   11  N4  UNL     1      -3.435   5.578  13.738  1.00  0.00    -0.191 N 
ATOM     12  H4  UNL     1      -3.809   6.526  13.746  1.00  0.00     0.184 HD
BRANCH  11  13
HETATM   13  C7  UNL     1      -4.078   4.629  14.529  1.00  0.00     0.049 A 
HETATM   14  C8  UNL     1      -5.432   4.599  14.745  1.00  0.00     0.031 A 
HETATM   15  C9  UNL     1      -6.016   3.604  15.547  1.00  0.00     0.027 A 
HETATM   16  C10 UNL     1      -5.282   2.618  16.157  1.00  0.00     0.079 A 
HETATM   17  C11 UNL     1      -3.922   2.651  15.939  1.00  0.00     0.027 A 
HETATM   18  C12 UNL     1      -3.334   3.610  15.160  1.00  0.00     0.031 A 
BRANCH  16  19
HETATM   19  S1  UNL     1      -5.997   1.379  17.155  1.00  0.00     0.256 S 
HETATM   20  O3  UNL     1      -5.605   1.540  18.600  1.00  0.00    -0.201 OA
HETATM   21  O4  UNL     1      -5.525   0.050  16.631  1.00  0.00    -0.201 OA
BRANCH  19  22
HETATM   22  N5  UNL     1      -7.711   1.452  16.991  1.00  0.00    -0.324 N 
ATOM     23  H52 UNL     1      -8.263   0.852  16.379  1.00  0.00     0.169 HD
ATOM     24  H51 UNL     1      -8.069   2.186  17.602  1.00  0.00     0.169 HD
ENDBRANCH  19  22
ENDBRANCH  16  19
ENDBRANCH  11  13
ENDBRANCH   8  11
BRANCH   1  25
HETATM   25  N1  UNL     1      -1.388   2.840  10.425  1.00  0.00    -0.216 N 
ATOM     26  H1  UNL     1      -1.302   2.955   9.415  1.00  0.00     0.178 HD
BRANCH  25  27
HETATM   27  C3  UNL     1      -1.580   1.535  11.003  1.00  0.00     0.249 C 
BRANCH  27  28
HETATM   28  C2  UNL     1      -3.007   1.170  10.886  1.00  0.00     0.276 C 
HETATM   29  O2  UNL     1      -3.411   0.469   9.927  1.00  0.00    -0.263 OA
BRANCH  28  30
HETATM   30  O1  UNL     1      -3.960   1.575  11.811  1.00  0.00    -0.325 OA
HETATM   31  C1  UNL     1      -5.154   2.164  11.393  1.00  0.00     0.213 C 
ENDBRANCH  28  30
ENDBRANCH  27  28
ENDBRANCH  25  27
ENDBRANCH   1  25
TORSDOF 8
ENDMDL
