MODEL 2
REMARK VINA RESULT: -7.713156053      0.916      1.225
REMARK  8 active torsions:
REMARK  status: ('A' for Active; 'I' for Inactive)
REMARK    1  A    between atoms: O1_2  and  C2_3 
REMARK    2  A    between atoms: C2_3  and  C3_5 
REMARK    3  A    between atoms: C3_5  and  N1_6 
REMARK    4  A    between atoms: N1_6  and  C4_8 
REMARK    5  A    between atoms: C6_15  and  N4_16 
REMARK    6  A    between atoms: N4_16  and  C7_18 
REMARK    7  A    between atoms: C10_21  and  S1_22 
REMARK    8  A    between atoms: S1_22  and  N5_23 
ROOT
HETATM    1  C4  UNL     1      -1.460   3.196  11.233  1.00  0.00     0.695 A 
HETATM    2  N2  UNL     1      -0.258   3.783  11.095  1.00  0.00    -0.165 N 
ATOM      3  H2  UNL     1       0.407   3.401  10.423  1.00  0.00     0.186 HD
HETATM    4  C5  UNL     1       0.087   4.859  11.818  1.00  0.00     0.208 A 
HETATM    5 CL1  UNL     1       1.664   5.557  11.577  1.00  0.00    -0.044 Cl
HETATM    6  N3  UNL     1      -0.830   5.311  12.682  1.00  0.00    -0.164 N 
ATOM      7  H3  UNL     1      -0.583   6.127  13.240  1.00  0.00     0.186 HD
HETATM    8  C6  UNL     1      -2.043   4.779  12.873  1.00  0.00     0.699 A 
HETATM    9  N6  UNL     1      -2.332   3.689  12.107  1.00  0.00    -0.022 N 
ATOM     10  H6  UNL     1      -3.242   3.239  12.208  1.00  0.00     0.203 HD
ENDROOT
BRANCH   8  11
HETATM   11  N4  UNL     1      -3.016   5.239  13.774  1.00  0.00    -0.191 N 
ATOM     12  H4  UNL     1      -3.135   6.248  13.861  1.00  0.00     0.184 HD
BRANCH  11  13
HETATM   13  C7  UNL     1      -3.831   4.429  14.558  1.00  0.00     0.049 A 
HETATM   14  C8  UNL     1      -5.197   4.539  14.617  1.00  0.00     0.031 A 
HETATM   15  C9  UNL     1      -5.961   3.679  15.422  1.00  0.00     0.027 A 
HETATM   16  C10 UNL     1      -5.400   2.689  16.191  1.00  0.00     0.079 A 
HETATM   17  C11 UNL     1      -4.027   2.581  16.130  1.00  0.00     0.027 A 
HETATM   18  C12 UNL     1      -3.266   3.408  15.351  1.00  0.00     0.031 A 
BRANCH  16  19
HETATM   19  S1  UNL     1      -6.338   1.616  17.195  1.00  0.00     0.256 S 
HETATM   20  O3  UNL     1      -5.826   0.202  17.118  1.00  0.00    -0.201 OA
HETATM   21  O4  UNL     1      -7.762   1.681  16.715  1.00  0.00    -0.201 OA
BRANCH  19  22
HETATM   22  N5  UNL     1      -6.283   2.183  18.820  1.00  0.00    -0.324 N 
ATOM     23  H52 UNL     1      -6.669   1.687  19.623  1.00  0.00     0.169 HD
ATOM     24  H51 UNL     1      -5.805   3.084  18.839  1.00  0.00     0.169 HD
ENDBRANCH  19  22
ENDBRANCH  16  19
ENDBRANCH  11  13
ENDBRANCH   8  11
BRANCH   1  25
HETATM   25  N1  UNL     1      -1.799   2.054  10.451  1.00  0.00    -0.216 N 
ATOM     26  H1  UNL     1      -1.919   2.133   9.441  1.00  0.00     0.178 HD
BRANCH  25  27
HETATM   27  C3  UNL     1      -1.969   0.789  11.116  1.00  0.00     0.249 C 
BRANCH  27  28
HETATM   28  C2  UNL     1      -3.318   0.270  10.813  1.00  0.00     0.276 C 
HETATM   29  O2  UNL     1      -3.667   0.050   9.627  1.00  0.00    -0.263 OA
BRANCH  28  30
HETATM   30  O1  UNL     1      -4.256   0.002  11.802  1.00  0.00    -0.325 OA
HETATM   31  C1  UNL     1      -4.352   0.818  12.930  1.00  0.00     0.213 C 
ENDBRANCH  28  30
ENDBRANCH  27  28
ENDBRANCH  25  27
ENDBRANCH   1  25
TORSDOF 8
ENDMDL
