MODEL 3
REMARK VINA RESULT: -5.191661797      0.083      1.303
REMARK  1 active torsions:
REMARK  status: ('A' for Active; 'I' for Inactive)
REMARK    1  A    between atoms: C1_2  and  C2_4 
ROOT
HETATM    1  O1  UNL     1       6.008  -0.110  51.202  1.00  0.00    -0.639 OA
HETATM    2  C1  UNL     1       6.896   0.768  51.326  1.00  0.00     0.279 C 
HETATM    3  O2  UNL     1       7.313   1.083  52.603  1.00  0.00    -0.639 OA
ENDROOT
BRANCH   2   4
HETATM    4  C2  UNL     1       7.468   1.432  50.165  1.00  0.00     0.279 C 
HETATM    5  O3  UNL     1       7.808   0.796  49.134  1.00  0.00    -0.639 OA
HETATM    6  O4  UNL     1       7.677   2.805  50.115  1.00  0.00    -0.639 OA
ENDBRANCH   2   4
TORSDOF 1
ENDMDL
