MODEL 2
REMARK VINA RESULT: -5.214403746      0.078      3.006
REMARK  1 active torsions:
REMARK  status: ('A' for Active; 'I' for Inactive)
REMARK    1  A    between atoms: C1_2  and  C2_4 
ROOT
HETATM    1  O1  UNL     1       7.856   0.826  49.135  1.00  0.00    -0.639 OA
HETATM    2  C1  UNL     1       7.482   1.453  50.156  1.00  0.00     0.279 C 
HETATM    3  O2  UNL     1       7.576   2.829  50.134  1.00  0.00    -0.639 OA
ENDROOT
BRANCH   2   4
HETATM    4  C2  UNL     1       6.966   0.755  51.324  1.00  0.00     0.279 C 
HETATM    5  O3  UNL     1       7.309   1.069  52.493  1.00  0.00    -0.639 OA
HETATM    6  O4  UNL     1       6.066  -0.299  51.229  1.00  0.00    -0.639 OA
ENDBRANCH   2   4
TORSDOF 1
ENDMDL
