MODEL 1
REMARK VINA RESULT: -5.228723717      0.000      0.000
REMARK  1 active torsions:
REMARK  status: ('A' for Active; 'I' for Inactive)
REMARK    1  A    between atoms: C1_2  and  C2_4 
ROOT
HETATM    1  O1  UNL     1       7.347   1.084  52.513  1.00  0.00    -0.639 OA
HETATM    2  C1  UNL     1       6.974   0.769  51.356  1.00  0.00     0.279 C 
HETATM    3  O2  UNL     1       6.041  -0.239  51.235  1.00  0.00    -0.639 OA
ENDROOT
BRANCH   2   4
HETATM    4  C2  UNL     1       7.506   1.444  50.182  1.00  0.00     0.279 C 
HETATM    5  O3  UNL     1       7.796   0.819  49.129  1.00  0.00    -0.639 OA
HETATM    6  O4  UNL     1       7.728   2.815  50.143  1.00  0.00    -0.639 OA
ENDBRANCH   2   4
TORSDOF 1
ENDMDL
