MODEL 10
REMARK VINA RESULT: -5.286917598      3.571      4.729
REMARK  2 active torsions:
REMARK  status: ('A' for Active; 'I' for Inactive)
REMARK    1  A    between atoms: O1_2  and  C2_3 
REMARK    2  A    between atoms: C2_3  and  C3_5 
ROOT
HETATM    1  C3  UNL     1      -3.103  60.430  30.885  1.00  0.00     0.063 A 
HETATM    2  C4  UNL     1      -4.261  61.207  30.884  1.00  0.00     0.021 A 
HETATM    3  C5  UNL     1      -5.492  60.612  30.687  1.00  0.00     0.025 A 
HETATM    4  C6  UNL     1      -5.619  59.255  30.487  1.00  0.00     0.035 A 
HETATM    5 CL1  UNL     1      -7.164  58.477  30.236  1.00  0.00    -0.084 Cl
HETATM    6  C7  UNL     1      -4.466  58.502  30.491  1.00  0.00     0.051 A 
HETATM    7  C8  UNL     1      -3.240  59.081  30.686  1.00  0.00     0.064 A 
HETATM    8  N1  UNL     1      -2.036  58.304  30.690  1.00  0.00    -0.101 NA
ENDROOT
BRANCH   1   9
HETATM    9  C2  UNL     1      -1.810  61.068  31.093  1.00  0.00     0.294 C 
HETATM   10  O2  UNL     1      -0.877  60.855  30.282  1.00  0.00    -0.259 OA
BRANCH   9  11
HETATM   11  O1  UNL     1      -1.586  61.905  32.166  1.00  0.00    -0.322 OA
HETATM   12  C1  UNL     1      -1.973  63.265  32.195  1.00  0.00     0.213 C 
ENDBRANCH   9  11
ENDBRANCH   1   9
TORSDOF 2
ENDMDL
