MODEL 1
REMARK VINA RESULT: -6.009285567      0.000      0.000
REMARK  2 active torsions:
REMARK  status: ('A' for Active; 'I' for Inactive)
REMARK    1  A    between atoms: O1_2  and  C2_3 
REMARK    2  A    between atoms: C2_3  and  C3_5 
ROOT
HETATM    1  C3  UNL     1      -3.609  58.867  30.524  1.00  0.00     0.063 A 
HETATM    2  C4  UNL     1      -2.911  57.691  30.253  1.00  0.00     0.021 A 
HETATM    3  C5  UNL     1      -1.535  57.716  30.134  1.00  0.00     0.025 A 
HETATM    4  C6  UNL     1      -0.814  58.881  30.277  1.00  0.00     0.035 A 
HETATM    5 CL1  UNL     1       0.927  58.940  30.133  1.00  0.00    -0.084 Cl
HETATM    6  C7  UNL     1      -1.519  60.033  30.545  1.00  0.00     0.051 A 
HETATM    7  C8  UNL     1      -2.884  60.021  30.665  1.00  0.00     0.064 A 
HETATM    8  N1  UNL     1      -3.622  61.217  30.944  1.00  0.00    -0.101 NA
ENDROOT
BRANCH   1   9
HETATM    9  C2  UNL     1      -5.060  58.830  30.646  1.00  0.00     0.294 C 
HETATM   10  O2  UNL     1      -5.630  57.748  30.930  1.00  0.00    -0.259 OA
BRANCH   9  11
HETATM   11  O1  UNL     1      -5.827  59.960  30.455  1.00  0.00    -0.322 OA
HETATM   12  C1  UNL     1      -7.239  59.971  30.522  1.00  0.00     0.213 C 
ENDBRANCH   9  11
ENDBRANCH   1   9
TORSDOF 2
ENDMDL
