MODEL 2
REMARK VINA RESULT: -5.994721611      0.664      1.135
REMARK  2 active torsions:
REMARK  status: ('A' for Active; 'I' for Inactive)
REMARK    1  A    between atoms: O1_2  and  C2_3 
REMARK    2  A    between atoms: C2_3  and  C3_5 
ROOT
HETATM    1  C3  UNL     1      -3.440  58.974  30.523  1.00  0.00     0.063 A 
HETATM    2  C4  UNL     1      -2.814  57.765  30.219  1.00  0.00     0.021 A 
HETATM    3  C5  UNL     1      -1.440  57.709  30.100  1.00  0.00     0.025 A 
HETATM    4  C6  UNL     1      -0.649  58.824  30.275  1.00  0.00     0.035 A 
HETATM    5 CL1  UNL     1       1.093  58.781  30.131  1.00  0.00    -0.084 Cl
HETATM    6  C7  UNL     1      -1.282  60.009  30.574  1.00  0.00     0.051 A 
HETATM    7  C8  UNL     1      -2.646  60.077  30.695  1.00  0.00     0.064 A 
HETATM    8  N1  UNL     1      -3.310  61.307  31.006  1.00  0.00    -0.101 NA
ENDROOT
BRANCH   1   9
HETATM    9  C2  UNL     1      -4.891  59.021  30.644  1.00  0.00     0.294 C 
HETATM   10  O2  UNL     1      -5.485  60.121  30.536  1.00  0.00    -0.259 OA
BRANCH   9  11
HETATM   11  O1  UNL     1      -5.630  57.880  30.877  1.00  0.00    -0.322 OA
HETATM   12  C1  UNL     1      -7.043  57.848  30.884  1.00  0.00     0.213 C 
ENDBRANCH   9  11
ENDBRANCH   1   9
TORSDOF 2
ENDMDL
