MODEL 9
REMARK VINA RESULT: -5.307632067      1.491      1.861
REMARK  2 active torsions:
REMARK  status: ('A' for Active; 'I' for Inactive)
REMARK    1  A    between atoms: O1_2  and  C2_3 
REMARK    2  A    between atoms: C2_3  and  C3_5 
ROOT
HETATM    1  C3  UNL     1      -4.759  58.993  30.558  1.00  0.00     0.063 A 
HETATM    2  C4  UNL     1      -3.734  58.067  30.366  1.00  0.00     0.021 A 
HETATM    3  C5  UNL     1      -2.417  58.485  30.360  1.00  0.00     0.025 A 
HETATM    4  C6  UNL     1      -2.074  59.808  30.540  1.00  0.00     0.035 A 
HETATM    5 CL1  UNL     1      -0.417  60.364  30.537  1.00  0.00    -0.084 Cl
HETATM    6  C7  UNL     1      -3.099  60.709  30.728  1.00  0.00     0.051 A 
HETATM    7  C8  UNL     1      -4.408  60.305  30.736  1.00  0.00     0.064 A 
HETATM    8  N1  UNL     1      -5.478  61.237  30.932  1.00  0.00    -0.101 NA
ENDROOT
BRANCH   1   9
HETATM    9  C2  UNL     1      -6.144  58.540  30.562  1.00  0.00     0.294 C 
HETATM   10  O2  UNL     1      -6.965  59.056  29.766  1.00  0.00    -0.259 OA
BRANCH   9  11
HETATM   11  O1  UNL     1      -6.574  57.553  31.424  1.00  0.00    -0.322 OA
HETATM   12  C1  UNL     1      -7.936  57.229  31.628  1.00  0.00     0.213 C 
ENDBRANCH   9  11
ENDBRANCH   1   9
TORSDOF 2
ENDMDL
