MODEL 6
REMARK VINA RESULT: -5.763773734      3.578      4.984
REMARK  2 active torsions:
REMARK  status: ('A' for Active; 'I' for Inactive)
REMARK    1  A    between atoms: O1_2  and  C2_3 
REMARK    2  A    between atoms: C2_3  and  C3_5 
ROOT
HETATM    1  C3  UNL     1      -2.689  59.915  30.742  1.00  0.00     0.063 A 
HETATM    2  C4  UNL     1      -3.398  61.111  30.852  1.00  0.00     0.021 A 
HETATM    3  C5  UNL     1      -4.775  61.111  30.751  1.00  0.00     0.025 A 
HETATM    4  C6  UNL     1      -5.488  59.950  30.542  1.00  0.00     0.035 A 
HETATM    5 CL1  UNL     1      -7.231  59.920  30.411  1.00  0.00    -0.084 Cl
HETATM    6  C7  UNL     1      -4.773  58.778  30.436  1.00  0.00     0.051 A 
HETATM    7  C8  UNL     1      -3.406  58.766  30.534  1.00  0.00     0.064 A 
HETATM    8  N1  UNL     1      -2.657  57.550  30.424  1.00  0.00    -0.101 NA
ENDROOT
BRANCH   1   9
HETATM    9  C2  UNL     1      -1.236  59.929  30.849  1.00  0.00     0.294 C 
HETATM   10  O2  UNL     1      -0.698  60.292  31.923  1.00  0.00    -0.259 OA
BRANCH   9  11
HETATM   11  O1  UNL     1      -0.435  59.551  29.792  1.00  0.00    -0.322 OA
HETATM   12  C1  UNL     1       0.685  58.697  29.922  1.00  0.00     0.213 C 
ENDBRANCH   9  11
ENDBRANCH   1   9
TORSDOF 2
ENDMDL
