MODEL 8
REMARK VINA RESULT: -5.443966578      3.603      5.040
REMARK  2 active torsions:
REMARK  status: ('A' for Active; 'I' for Inactive)
REMARK    1  A    between atoms: O1_2  and  C2_3 
REMARK    2  A    between atoms: C2_3  and  C3_5 
ROOT
HETATM    1  C3  UNL     1      -2.378  60.100  30.670  1.00  0.00     0.063 A 
HETATM    2  C4  UNL     1      -3.168  61.234  30.853  1.00  0.00     0.021 A 
HETATM    3  C5  UNL     1      -4.545  61.133  30.801  1.00  0.00     0.025 A 
HETATM    4  C6  UNL     1      -5.177  59.930  30.573  1.00  0.00     0.035 A 
HETATM    5 CL1  UNL     1      -6.916  59.773  30.504  1.00  0.00    -0.084 Cl
HETATM    6  C7  UNL     1      -4.381  58.820  30.395  1.00  0.00     0.051 A 
HETATM    7  C8  UNL     1      -3.015  58.908  30.444  1.00  0.00     0.064 A 
HETATM    8  N1  UNL     1      -2.182  57.758  30.260  1.00  0.00    -0.101 NA
ENDROOT
BRANCH   1   9
HETATM    9  C2  UNL     1      -0.927  60.220  30.725  1.00  0.00     0.294 C 
HETATM   10  O2  UNL     1      -0.310  60.719  29.753  1.00  0.00    -0.259 OA
BRANCH   9  11
HETATM   11  O1  UNL     1      -0.212  59.795  31.826  1.00  0.00    -0.322 OA
HETATM   12  C1  UNL     1       0.877  58.896  31.754  1.00  0.00     0.213 C 
ENDBRANCH   9  11
ENDBRANCH   1   9
TORSDOF 2
ENDMDL
