MODEL 19
REMARK VINA RESULT: -6.581192844      2.028      3.107
REMARK  7 active torsions:
REMARK  status: ('A' for Active; 'I' for Inactive)
REMARK       I    between atoms: N1_2  and  C2_4 
REMARK    1  A    between atoms: C2_4  and  C3_6 
REMARK    2  A    between atoms: C3_6  and  N2_7 
REMARK    3  A    between atoms: C3_6  and  C4_11 
REMARK    4  A    between atoms: C4_11  and  C5_12 
REMARK    5  A    between atoms: C8_15  and  O2_16 
REMARK    6  A    between atoms: O2_16  and  C9_17 
REMARK    7  A    between atoms: C9_17  and  C10_18 
ROOT
HETATM    1  C5  UNL     1      -9.055  -2.644 -30.481  1.00  0.00    -0.056 A 
HETATM    2  C6  UNL     1      -8.494  -3.787 -29.919  1.00  0.00     0.010 A 
HETATM    3  C7  UNL     1      -7.155  -4.068 -30.101  1.00  0.00     0.037 A 
HETATM    4  C8  UNL     1      -6.328  -3.224 -30.849  1.00  0.00     0.069 A 
HETATM    5  C16 UNL     1      -6.900  -2.109 -31.392  1.00  0.00     0.037 A 
HETATM    6  C17 UNL     1      -8.233  -1.809 -31.222  1.00  0.00     0.010 A 
ENDROOT
BRANCH   1   7
HETATM    7  C4  UNL     1     -10.491  -2.314 -30.303  1.00  0.00     0.081 C 
BRANCH   7   8
HETATM    8  C3  UNL     1     -11.213  -2.237 -31.632  1.00  0.00     0.278 C 
BRANCH   8   9
HETATM    9  C2  UNL     1     -11.307  -3.562 -32.286  1.00  0.00     0.248 C 
HETATM   10  N1  UNL     1     -11.972  -4.671 -31.657  1.00  0.00    -0.364 N 
HETATM   11  C1  UNL     1     -12.062  -5.974 -32.306  1.00  0.00     0.149 C 
ATOM     12  H1  UNL     1     -12.390  -4.543 -30.736  1.00  0.00     0.161 HD
HETATM   13  O1  UNL     1     -10.814  -3.792 -33.419  1.00  0.00    -0.271 OA
ENDBRANCH   8   9
BRANCH   8  14
HETATM   14  N2  UNL     1     -12.504  -1.642 -31.409  1.00  0.00    -0.066 N 
ATOM     15  H23 UNL     1     -12.421  -0.640 -31.234  1.00  0.00     0.275 HD
ATOM     16  H22 UNL     1     -13.050  -1.613 -32.270  1.00  0.00     0.275 HD
ATOM     17  H21 UNL     1     -13.022  -2.104 -30.661  1.00  0.00     0.275 HD
ENDBRANCH   8  14
ENDBRANCH   7   8
ENDBRANCH   1   7
BRANCH   4  18
HETATM   18  O2  UNL     1      -5.020  -3.599 -30.966  1.00  0.00    -0.347 OA
BRANCH  18  19
HETATM   19  C9  UNL     1      -4.377  -4.672 -30.357  1.00  0.00     0.214 C 
BRANCH  19  20
HETATM   20  C10 UNL     1      -2.897  -4.552 -30.337  1.00  0.00    -0.034 A 
HETATM   21  C11 UNL     1      -2.078  -5.630 -30.595  1.00  0.00     0.009 A 
HETATM   22  C12 UNL     1      -0.703  -5.535 -30.576  1.00  0.00     0.001 A 
HETATM   23  C13 UNL     1      -0.093  -4.348 -30.297  1.00  0.00     0.000 A 
HETATM   24  C14 UNL     1      -0.865  -3.255 -30.035  1.00  0.00     0.001 A 
HETATM   25  C15 UNL     1      -2.259  -3.356 -30.055  1.00  0.00     0.009 A 
ENDBRANCH  19  20
ENDBRANCH  18  19
ENDBRANCH   4  18
TORSDOF 7
ENDMDL
