MODEL 12
REMARK VINA RESULT: -7.005899719      4.945      8.975
REMARK  7 active torsions:
REMARK  status: ('A' for Active; 'I' for Inactive)
REMARK       I    between atoms: N1_2  and  C2_4 
REMARK    1  A    between atoms: C2_4  and  C3_6 
REMARK    2  A    between atoms: C3_6  and  N2_7 
REMARK    3  A    between atoms: C3_6  and  C4_11 
REMARK    4  A    between atoms: C4_11  and  C5_12 
REMARK    5  A    between atoms: C8_15  and  O2_16 
REMARK    6  A    between atoms: O2_16  and  C9_17 
REMARK    7  A    between atoms: C9_17  and  C10_18 
ROOT
HETATM    1  C5  UNL     1      -2.821  -8.245 -31.751  1.00  0.00    -0.056 A 
HETATM    2  C6  UNL     1      -4.076  -7.983 -31.209  1.00  0.00     0.010 A 
HETATM    3  C7  UNL     1      -4.342  -6.762 -30.624  1.00  0.00     0.037 A 
HETATM    4  C8  UNL     1      -3.369  -5.759 -30.555  1.00  0.00     0.069 A 
HETATM    5  C16 UNL     1      -2.144  -6.038 -31.093  1.00  0.00     0.037 A 
HETATM    6  C17 UNL     1      -1.858  -7.249 -31.682  1.00  0.00     0.010 A 
ENDROOT
BRANCH   1   7
HETATM    7  C4  UNL     1      -2.505  -9.548 -32.388  1.00  0.00     0.081 C 
BRANCH   7   8
HETATM    8  C3  UNL     1      -2.554 -10.682 -31.386  1.00  0.00     0.278 C 
BRANCH   8   9
HETATM    9  C2  UNL     1      -3.943 -11.020 -31.003  1.00  0.00     0.248 C 
HETATM   10  N1  UNL     1      -4.984 -11.173 -31.983  1.00  0.00    -0.364 N 
HETATM   11  C1  UNL     1      -6.350 -11.505 -31.600  1.00  0.00     0.149 C 
ATOM     12  H1  UNL     1      -4.760 -11.046 -32.970  1.00  0.00     0.161 HD
HETATM   13  O1  UNL     1      -4.291 -11.189 -29.807  1.00  0.00    -0.271 OA
ENDBRANCH   8   9
BRANCH   8  14
HETATM   14  N2  UNL     1      -1.850 -11.806 -31.945  1.00  0.00    -0.066 N 
ATOM     15  H23 UNL     1      -0.841 -11.674 -31.885  1.00  0.00     0.275 HD
ATOM     16  H22 UNL     1      -1.942 -12.630 -31.351  1.00  0.00     0.275 HD
ATOM     17  H21 UNL     1      -2.138 -12.009 -32.903  1.00  0.00     0.275 HD
ENDBRANCH   8  14
ENDBRANCH   7   8
ENDBRANCH   1   7
BRANCH   4  18
HETATM   18  O2  UNL     1      -3.739  -4.590 -29.953  1.00  0.00    -0.347 OA
BRANCH  18  19
HETATM   19  C9  UNL     1      -4.139  -3.403 -30.559  1.00  0.00     0.214 C 
BRANCH  19  20
HETATM   20  C10 UNL     1      -5.613  -3.256 -30.673  1.00  0.00    -0.034 A 
HETATM   21  C11 UNL     1      -6.477  -4.219 -30.197  1.00  0.00     0.009 A 
HETATM   22  C12 UNL     1      -7.845  -4.099 -30.300  1.00  0.00     0.001 A 
HETATM   23  C13 UNL     1      -8.404  -3.003 -30.888  1.00  0.00     0.000 A 
HETATM   24  C14 UNL     1      -7.587  -2.026 -31.374  1.00  0.00     0.001 A 
HETATM   25  C15 UNL     1      -6.199  -2.152 -31.267  1.00  0.00     0.009 A 
ENDBRANCH  19  20
ENDBRANCH  18  19
ENDBRANCH   4  18
TORSDOF 7
ENDMDL
