MODEL 6
REMARK VINA RESULT: -5.593595521      1.741      3.219
REMARK  7 active torsions:
REMARK  status: ('A' for Active; 'I' for Inactive)
REMARK    1  A    between atoms: C2_2  and  S1_4 
REMARK    2  A    between atoms: S1_4  and  C4_5 
REMARK    3  A    between atoms: C5_7  and  C6_8 
REMARK    4  A    between atoms: C6_8  and  O2_9 
REMARK    5  A    between atoms: C7_11  and  O3_12 
REMARK    6  A    between atoms: C8_14  and  O4_15 
REMARK    7  A    between atoms: C9_17  and  O5_18 
ROOT
HETATM    1  C4  UNL     1      14.480  27.914  75.866  1.00  0.00     0.215 C 
HETATM    2  O1  UNL     1      14.044  28.818  74.920  1.00  0.00    -0.363 OA
HETATM    3  C5  UNL     1      13.134  28.181  74.098  1.00  0.00     0.178 C 
HETATM    4  C7  UNL     1      11.836  28.188  74.899  1.00  0.00     0.180 C 
HETATM    5  C8  UNL     1      12.050  27.184  75.993  1.00  0.00     0.181 C 
HETATM    6  C9  UNL     1      13.446  27.049  76.476  1.00  0.00     0.188 C 
ENDROOT
BRANCH   1   7
HETATM    7  S1  UNL     1      15.386  28.822  77.164  1.00  0.00    -0.131 SA
BRANCH   7   8
HETATM    8  C2  UNL     1      17.148  28.476  77.125  1.00  0.00     0.041 C 
HETATM    9  C1  UNL     1      17.511  27.292  76.274  1.00  0.00     0.021 C 
HETATM   10  C3  UNL     1      17.768  28.324  78.486  1.00  0.00     0.021 C 
ENDBRANCH   7   8
ENDBRANCH   1   7
BRANCH   6  11
HETATM   11  O5  UNL     1      13.857  25.710  76.358  1.00  0.00    -0.389 OA
ATOM     12  H5  UNL     1      13.475  25.213  77.071  1.00  0.00     0.210 HD
ENDBRANCH   6  11
BRANCH   3  13
HETATM   13  C6  UNL     1      12.983  28.785  72.742  1.00  0.00     0.198 C 
BRANCH  13  14
HETATM   14  O2  UNL     1      11.629  28.980  72.488  1.00  0.00    -0.398 OA
ATOM     15  H2  UNL     1      11.128  28.381  73.030  1.00  0.00     0.209 HD
ENDBRANCH  13  14
ENDBRANCH   3  13
BRANCH   5  16
HETATM   16  O4  UNL     1      11.136  27.496  77.012  1.00  0.00    -0.390 OA
ATOM     17  H4  UNL     1      11.640  27.870  77.726  1.00  0.00     0.210 HD
ENDBRANCH   5  16
BRANCH   4  18
HETATM   18  O3  UNL     1      11.655  29.478  75.379  1.00  0.00    -0.390 OA
ATOM     19  H3  UNL     1      11.151  29.412  76.182  1.00  0.00     0.210 HD
ENDBRANCH   4  18
TORSDOF 7
ENDMDL
