MODEL 14
REMARK VINA RESULT: -5.051442913      3.316      5.509
REMARK  7 active torsions:
REMARK  status: ('A' for Active; 'I' for Inactive)
REMARK    1  A    between atoms: C2_2  and  S1_4 
REMARK    2  A    between atoms: S1_4  and  C4_5 
REMARK    3  A    between atoms: C5_7  and  C6_8 
REMARK    4  A    between atoms: C6_8  and  O2_9 
REMARK    5  A    between atoms: C7_11  and  O3_12 
REMARK    6  A    between atoms: C8_14  and  O4_15 
REMARK    7  A    between atoms: C9_17  and  O5_18 
ROOT
HETATM    1  C4  UNL     1      15.103  26.959  76.560  1.00  0.00     0.215 C 
HETATM    2  O1  UNL     1      14.560  25.997  77.384  1.00  0.00    -0.363 OA
HETATM    3  C5  UNL     1      15.572  25.143  77.781  1.00  0.00     0.178 C 
HETATM    4  C7  UNL     1      16.280  25.897  78.902  1.00  0.00     0.180 C 
HETATM    5  C8  UNL     1      17.031  26.999  78.214  1.00  0.00     0.181 C 
HETATM    6  C9  UNL     1      16.400  27.533  76.982  1.00  0.00     0.188 C 
ENDROOT
BRANCH   1   7
HETATM    7  S1  UNL     1      13.874  28.288  76.327  1.00  0.00    -0.131 SA
BRANCH   7   8
HETATM    8  C2  UNL     1      13.332  28.414  74.620  1.00  0.00     0.041 C 
HETATM    9  C1  UNL     1      12.415  27.302  74.195  1.00  0.00     0.021 C 
HETATM   10  C3  UNL     1      14.458  28.540  73.632  1.00  0.00     0.021 C 
ENDBRANCH   7   8
ENDBRANCH   1   7
BRANCH   6  11
HETATM   11  O5  UNL     1      17.305  27.431  75.910  1.00  0.00    -0.389 OA
ATOM     12  H5  UNL     1      18.140  27.131  76.247  1.00  0.00     0.210 HD
ENDBRANCH   6  11
BRANCH   3  13
HETATM   13  C6  UNL     1      15.120  23.782  78.192  1.00  0.00     0.198 C 
BRANCH  13  14
HETATM   14  O2  UNL     1      15.482  23.573  79.519  1.00  0.00    -0.398 OA
ATOM     15  H2  UNL     1      14.698  23.591  80.056  1.00  0.00     0.209 HD
ENDBRANCH  13  14
ENDBRANCH   3  13
BRANCH   5  16
HETATM   16  O4  UNL     1      17.280  27.985  79.183  1.00  0.00    -0.390 OA
ATOM     17  H4  UNL     1      17.662  28.725  78.728  1.00  0.00     0.210 HD
ENDBRANCH   5  16
BRANCH   4  18
HETATM   18  O3  UNL     1      15.301  26.369  79.765  1.00  0.00    -0.390 OA
ATOM     19  H3  UNL     1      15.697  26.447  80.625  1.00  0.00     0.210 HD
ENDBRANCH   4  18
TORSDOF 7
ENDMDL
