MODEL 7
REMARK VINA RESULT: -5.469538554      2.044      4.766
REMARK  7 active torsions:
REMARK  status: ('A' for Active; 'I' for Inactive)
REMARK    1  A    between atoms: C2_2  and  S1_4 
REMARK    2  A    between atoms: S1_4  and  C4_5 
REMARK    3  A    between atoms: C5_7  and  C6_8 
REMARK    4  A    between atoms: C6_8  and  O2_9 
REMARK    5  A    between atoms: C7_11  and  O3_12 
REMARK    6  A    between atoms: C8_14  and  O4_15 
REMARK    7  A    between atoms: C9_17  and  O5_18 
ROOT
HETATM    1  C4  UNL     1      12.851  28.496  75.696  1.00  0.00     0.215 C 
HETATM    2  O1  UNL     1      14.103  29.005  75.423  1.00  0.00    -0.363 OA
HETATM    3  C5  UNL     1      14.687  28.219  74.447  1.00  0.00     0.178 C 
HETATM    4  C7  UNL     1      14.057  28.707  73.147  1.00  0.00     0.180 C 
HETATM    5  C8  UNL     1      12.648  28.193  73.183  1.00  0.00     0.181 C 
HETATM    6  C9  UNL     1      12.040  28.080  74.531  1.00  0.00     0.188 C 
ENDROOT
BRANCH   1   7
HETATM    7  S1  UNL     1      11.933  29.715  76.698  1.00  0.00    -0.131 SA
BRANCH   7   8
HETATM    8  C2  UNL     1      10.156  29.547  76.502  1.00  0.00     0.041 C 
HETATM    9  C1  UNL     1       9.372  30.669  77.121  1.00  0.00     0.021 C 
HETATM   10  C3  UNL     1       9.613  28.230  76.985  1.00  0.00     0.021 C 
ENDBRANCH   7   8
ENDBRANCH   1   7
BRANCH   6  11
HETATM   11  O5  UNL     1      11.602  26.761  74.739  1.00  0.00    -0.389 OA
ATOM     12  H5  UNL     1      12.264  26.166  74.408  1.00  0.00     0.210 HD
ENDBRANCH   6  11
BRANCH   3  13
HETATM   13  C6  UNL     1      16.178  28.258  74.420  1.00  0.00     0.198 C 
BRANCH  13  14
HETATM   14  O2  UNL     1      16.584  29.122  73.408  1.00  0.00    -0.398 OA
ATOM     15  H2  UNL     1      17.249  28.688  72.885  1.00  0.00     0.209 HD
ENDBRANCH  13  14
ENDBRANCH   3  13
BRANCH   5  16
HETATM   16  O4  UNL     1      11.903  28.994  72.302  1.00  0.00    -0.390 OA
ATOM     17  H4  UNL     1      11.506  28.408  71.669  1.00  0.00     0.210 HD
ENDBRANCH   5  16
BRANCH   4  18
HETATM   18  O3  UNL     1      14.125  30.094  73.150  1.00  0.00    -0.390 OA
ATOM     19  H3  UNL     1      13.965  30.382  74.041  1.00  0.00     0.210 HD
ENDBRANCH   4  18
TORSDOF 7
ENDMDL
