MODEL 5
REMARK VINA RESULT: -5.694542391      1.892      3.690
REMARK  7 active torsions:
REMARK  status: ('A' for Active; 'I' for Inactive)
REMARK    1  A    between atoms: C2_2  and  S1_4 
REMARK    2  A    between atoms: S1_4  and  C4_5 
REMARK    3  A    between atoms: C5_7  and  C6_8 
REMARK    4  A    between atoms: C6_8  and  O2_9 
REMARK    5  A    between atoms: C7_11  and  O3_12 
REMARK    6  A    between atoms: C8_14  and  O4_15 
REMARK    7  A    between atoms: C9_17  and  O5_18 
ROOT
HETATM    1  C4  UNL     1      15.226  27.561  76.054  1.00  0.00     0.215 C 
HETATM    2  O1  UNL     1      15.152  28.544  75.090  1.00  0.00    -0.363 OA
HETATM    3  C5  UNL     1      14.142  28.212  74.208  1.00  0.00     0.178 C 
HETATM    4  C7  UNL     1      12.864  28.631  74.927  1.00  0.00     0.180 C 
HETATM    5  C8  UNL     1      12.687  27.623  76.023  1.00  0.00     0.181 C 
HETATM    6  C9  UNL     1      13.940  27.067  76.591  1.00  0.00     0.188 C 
ENDROOT
BRANCH   1   7
HETATM    7  S1  UNL     1      16.287  28.158  77.414  1.00  0.00    -0.131 SA
BRANCH   7   8
HETATM    8  C2  UNL     1      16.704  26.847  78.569  1.00  0.00     0.041 C 
HETATM    9  C1  UNL     1      17.699  27.258  79.615  1.00  0.00     0.021 C 
HETATM   10  C3  UNL     1      17.167  25.579  77.908  1.00  0.00     0.021 C 
ENDBRANCH   7   8
ENDBRANCH   1   7
BRANCH   6  11
HETATM   11  O5  UNL     1      13.920  25.665  76.488  1.00  0.00    -0.389 OA
ATOM     12  H5  UNL     1      13.253  25.417  75.860  1.00  0.00     0.210 HD
ENDBRANCH   6  11
BRANCH   3  13
HETATM   13  C6  UNL     1      14.270  28.818  72.851  1.00  0.00     0.198 C 
BRANCH  13  14
HETATM   14  O2  UNL     1      13.012  29.239  72.429  1.00  0.00    -0.398 OA
ATOM     15  H2  UNL     1      12.727  29.954  72.986  1.00  0.00     0.209 HD
ENDBRANCH  13  14
ENDBRANCH   3  13
BRANCH   5  16
HETATM   16  O4  UNL     1      11.854  28.215  76.986  1.00  0.00    -0.390 OA
ATOM     17  H4  UNL     1      11.798  27.604  77.711  1.00  0.00     0.210 HD
ENDBRANCH   5  16
BRANCH   4  18
HETATM   18  O3  UNL     1      13.063  29.919  75.405  1.00  0.00    -0.390 OA
ATOM     19  H3  UNL     1      13.155  29.858  76.349  1.00  0.00     0.210 HD
ENDBRANCH   4  18
TORSDOF 7
ENDMDL
