MODEL 4
REMARK VINA RESULT: -5.696481998      1.907      3.745
REMARK  7 active torsions:
REMARK  status: ('A' for Active; 'I' for Inactive)
REMARK    1  A    between atoms: C2_2  and  S1_4 
REMARK    2  A    between atoms: S1_4  and  C4_5 
REMARK    3  A    between atoms: C5_7  and  C6_8 
REMARK    4  A    between atoms: C6_8  and  O2_9 
REMARK    5  A    between atoms: C7_11  and  O3_12 
REMARK    6  A    between atoms: C8_14  and  O4_15 
REMARK    7  A    between atoms: C9_17  and  O5_18 
ROOT
HETATM    1  C4  UNL     1      15.246  27.580  76.022  1.00  0.00     0.215 C 
HETATM    2  O1  UNL     1      15.162  28.555  75.051  1.00  0.00    -0.363 OA
HETATM    3  C5  UNL     1      14.140  28.218  74.184  1.00  0.00     0.178 C 
HETATM    4  C7  UNL     1      12.871  28.644  74.916  1.00  0.00     0.180 C 
HETATM    5  C8  UNL     1      12.707  27.644  76.022  1.00  0.00     0.181 C 
HETATM    6  C9  UNL     1      13.966  27.091  76.579  1.00  0.00     0.188 C 
ENDROOT
BRANCH   1   7
HETATM    7  S1  UNL     1      16.325  28.185  77.364  1.00  0.00    -0.131 SA
BRANCH   7   8
HETATM    8  C2  UNL     1      18.007  27.574  77.205  1.00  0.00     0.041 C 
HETATM    9  C1  UNL     1      18.572  27.717  75.820  1.00  0.00     0.021 C 
HETATM   10  C3  UNL     1      18.185  26.157  77.675  1.00  0.00     0.021 C 
ENDBRANCH   7   8
ENDBRANCH   1   7
BRANCH   6  11
HETATM   11  O5  UNL     1      13.943  25.689  76.487  1.00  0.00    -0.389 OA
ATOM     12  H5  UNL     1      14.831  25.365  76.575  1.00  0.00     0.210 HD
ENDBRANCH   6  11
BRANCH   3  13
HETATM   13  C6  UNL     1      14.252  28.812  72.821  1.00  0.00     0.198 C 
BRANCH  13  14
HETATM   14  O2  UNL     1      12.992  29.243  72.416  1.00  0.00    -0.398 OA
ATOM     15  H2  UNL     1      12.651  29.844  73.068  1.00  0.00     0.209 HD
ENDBRANCH  13  14
ENDBRANCH   3  13
BRANCH   5  16
HETATM   16  O4  UNL     1      11.887  28.245  76.991  1.00  0.00    -0.390 OA
ATOM     17  H4  UNL     1      11.782  27.612  77.691  1.00  0.00     0.210 HD
ENDBRANCH   5  16
BRANCH   4  18
HETATM   18  O3  UNL     1      13.078  29.935  75.382  1.00  0.00    -0.390 OA
ATOM     19  H3  UNL     1      12.978  29.913  76.327  1.00  0.00     0.210 HD
ENDBRANCH   4  18
TORSDOF 7
ENDMDL
