MODEL 8
REMARK VINA RESULT: -5.376839205      2.205      3.637
REMARK  7 active torsions:
REMARK  status: ('A' for Active; 'I' for Inactive)
REMARK    1  A    between atoms: C2_2  and  S1_4 
REMARK    2  A    between atoms: S1_4  and  C4_5 
REMARK    3  A    between atoms: C5_7  and  C6_8 
REMARK    4  A    between atoms: C6_8  and  O2_9 
REMARK    5  A    between atoms: C7_11  and  O3_12 
REMARK    6  A    between atoms: C8_14  and  O4_15 
REMARK    7  A    between atoms: C9_17  and  O5_18 
ROOT
HETATM    1  C4  UNL     1      14.874  27.510  75.445  1.00  0.00     0.215 C 
HETATM    2  O1  UNL     1      14.024  27.869  74.420  1.00  0.00    -0.363 OA
HETATM    3  C5  UNL     1      12.724  27.701  74.856  1.00  0.00     0.178 C 
HETATM    4  C7  UNL     1      12.448  28.940  75.701  1.00  0.00     0.180 C 
HETATM    5  C8  UNL     1      13.244  28.739  76.956  1.00  0.00     0.181 C 
HETATM    6  C9  UNL     1      14.507  27.976  76.800  1.00  0.00     0.188 C 
ENDROOT
BRANCH   1   7
HETATM    7  S1  UNL     1      16.561  28.067  75.025  1.00  0.00    -0.131 SA
BRANCH   7   8
HETATM    8  C2  UNL     1      17.590  28.261  76.484  1.00  0.00     0.041 C 
HETATM    9  C1  UNL     1      18.431  29.505  76.467  1.00  0.00     0.021 C 
HETATM   10  C3  UNL     1      18.461  27.071  76.776  1.00  0.00     0.021 C 
ENDBRANCH   7   8
ENDBRANCH   1   7
BRANCH   6  11
HETATM   11  O5  UNL     1      14.497  26.869  77.667  1.00  0.00    -0.389 OA
ATOM     12  H5  UNL     1      14.281  27.172  78.541  1.00  0.00     0.210 HD
ENDBRANCH   6  11
BRANCH   3  13
HETATM   13  C6  UNL     1      11.719  27.502  73.772  1.00  0.00     0.198 C 
BRANCH  13  14
HETATM   14  O2  UNL     1      11.750  28.608  72.927  1.00  0.00    -0.398 OA
ATOM     15  H2  UNL     1      11.814  28.304  72.029  1.00  0.00     0.209 HD
ENDBRANCH  13  14
ENDBRANCH   3  13
BRANCH   5  16
HETATM   16  O4  UNL     1      13.428  30.009  77.526  1.00  0.00    -0.390 OA
ATOM     17  H4  UNL     1      13.316  29.907  78.464  1.00  0.00     0.210 HD
ENDBRANCH   5  16
BRANCH   4  18
HETATM   18  O3  UNL     1      12.868  30.041  74.967  1.00  0.00    -0.390 OA
ATOM     19  H3  UNL     1      12.300  30.767  75.196  1.00  0.00     0.210 HD
ENDBRANCH   4  18
TORSDOF 7
ENDMDL
