MODEL 9
REMARK VINA RESULT: -5.313486135      2.224      4.872
REMARK  7 active torsions:
REMARK  status: ('A' for Active; 'I' for Inactive)
REMARK    1  A    between atoms: C2_2  and  S1_4 
REMARK    2  A    between atoms: S1_4  and  C4_5 
REMARK    3  A    between atoms: C5_7  and  C6_8 
REMARK    4  A    between atoms: C6_8  and  O2_9 
REMARK    5  A    between atoms: C7_11  and  O3_12 
REMARK    6  A    between atoms: C8_14  and  O4_15 
REMARK    7  A    between atoms: C9_17  and  O5_18 
ROOT
HETATM    1  C4  UNL     1      13.226  28.064  75.891  1.00  0.00     0.215 C 
HETATM    2  O1  UNL     1      14.281  27.913  76.766  1.00  0.00    -0.363 OA
HETATM    3  C5  UNL     1      15.183  27.027  76.208  1.00  0.00     0.178 C 
HETATM    4  C7  UNL     1      15.962  27.869  75.202  1.00  0.00     0.180 C 
HETATM    5  C8  UNL     1      15.001  28.113  74.076  1.00  0.00     0.181 C 
HETATM    6  C9  UNL     1      13.571  28.200  74.459  1.00  0.00     0.188 C 
ENDROOT
BRANCH   1   7
HETATM    7  S1  UNL     1      12.220  29.488  76.434  1.00  0.00    -0.131 SA
BRANCH   7   8
HETATM    8  C2  UNL     1      10.519  29.365  75.870  1.00  0.00     0.041 C 
HETATM    9  C1  UNL     1       9.529  30.015  76.794  1.00  0.00     0.021 C 
HETATM   10  C3  UNL     1      10.078  27.959  75.572  1.00  0.00     0.021 C 
ENDBRANCH   7   8
ENDBRANCH   1   7
BRANCH   6  11
HETATM   11  O5  UNL     1      12.831  27.255  73.728  1.00  0.00    -0.389 OA
ATOM     12  H5  UNL     1      11.945  27.580  73.623  1.00  0.00     0.210 HD
ENDBRANCH   6  11
BRANCH   3  13
HETATM   13  C6  UNL     1      16.066  26.330  77.188  1.00  0.00     0.198 C 
BRANCH  13  14
HETATM   14  O2  UNL     1      17.379  26.396  76.731  1.00  0.00    -0.398 OA
ATOM     15  H2  UNL     1      17.373  26.372  75.781  1.00  0.00     0.209 HD
ENDBRANCH  13  14
ENDBRANCH   3  13
BRANCH   5  16
HETATM   16  O4  UNL     1      15.463  29.248  73.389  1.00  0.00    -0.390 OA
ATOM     17  H4  UNL     1      14.912  29.973  73.658  1.00  0.00     0.210 HD
ENDBRANCH   5  16
BRANCH   4  18
HETATM   18  O3  UNL     1      16.342  29.037  75.849  1.00  0.00    -0.390 OA
ATOM     19  H3  UNL     1      15.624  29.654  75.763  1.00  0.00     0.210 HD
ENDBRANCH   4  18
TORSDOF 7
ENDMDL
