MODEL 18
REMARK VINA RESULT: -4.970611718      1.754      3.865
REMARK  5 active torsions:
REMARK  status: ('A' for Active; 'I' for Inactive)
REMARK    1  A    between atoms: C2_4  and  C3_5 
REMARK    2  A    between atoms: C3_5  and  O3_6 
REMARK    3  A    between atoms: C4_8  and  O4_9 
REMARK    4  A    between atoms: C5_11  and  O5_12 
REMARK    5  A    between atoms: C6_14  and  O6_15 
ROOT
HETATM    1  O1  UNL     1     -12.370 -26.702 -26.172  1.00  0.00    -0.262 OA
HETATM    2  C1  UNL     1     -11.680 -27.617 -26.737  1.00  0.00     0.291 C 
HETATM    3  O2  UNL     1     -11.932 -28.029 -28.030  1.00  0.00    -0.309 OA
HETATM    4  C2  UNL     1     -10.899 -28.435 -28.894  1.00  0.00     0.186 C 
HETATM    5  C4  UNL     1      -9.896 -29.273 -28.168  1.00  0.00     0.181 C 
HETATM    6  C5  UNL     1      -9.425 -28.462 -26.962  1.00  0.00     0.188 C 
HETATM    7  C6  UNL     1     -10.568 -28.271 -26.001  1.00  0.00     0.248 C 
ENDROOT
BRANCH   4   8
HETATM    8  C3  UNL     1     -11.470 -29.118 -30.111  1.00  0.00     0.199 C 
BRANCH   8   9
HETATM    9  O3  UNL     1     -10.617 -30.066 -30.640  1.00  0.00    -0.398 OA
ATOM     10  H3  UNL     1     -10.328 -30.701 -29.996  1.00  0.00     0.209 HD
ENDBRANCH   8   9
ENDBRANCH   4   8
BRANCH   5  11
HETATM   11  O4  UNL     1     -10.406 -30.506 -27.771  1.00  0.00    -0.390 OA
ATOM     12  H4  UNL     1     -10.182 -31.209 -28.370  1.00  0.00     0.210 HD
ENDBRANCH   5  11
BRANCH   6  13
HETATM   13  O5  UNL     1      -8.317 -29.036 -26.381  1.00  0.00    -0.390 OA
ATOM     14  H5  UNL     1      -7.516 -28.702 -26.768  1.00  0.00     0.210 HD
ENDBRANCH   6  13
BRANCH   7  15
HETATM   15  O6  UNL     1     -10.128 -27.442 -24.971  1.00  0.00    -0.383 OA
ATOM     16  H6  UNL     1      -9.762 -26.643 -25.333  1.00  0.00     0.210 HD
ENDBRANCH   7  15
TORSDOF 5
ENDMDL
