MODEL 12
REMARK VINA RESULT: -5.139008979      3.467      5.005
REMARK  5 active torsions:
REMARK  status: ('A' for Active; 'I' for Inactive)
REMARK    1  A    between atoms: C2_4  and  C3_5 
REMARK    2  A    between atoms: C3_5  and  O3_6 
REMARK    3  A    between atoms: C4_8  and  O4_9 
REMARK    4  A    between atoms: C5_11  and  O5_12 
REMARK    5  A    between atoms: C6_14  and  O6_15 
ROOT
HETATM    1  O1  UNL     1     -17.093 -30.458 -26.457  1.00  0.00    -0.262 OA
HETATM    2  C1  UNL     1     -16.146 -29.608 -26.344  1.00  0.00     0.291 C 
HETATM    3  O2  UNL     1     -14.906 -29.813 -26.916  1.00  0.00    -0.309 OA
HETATM    4  C2  UNL     1     -14.139 -28.750 -27.424  1.00  0.00     0.186 C 
HETATM    5  C4  UNL     1     -14.206 -27.563 -26.517  1.00  0.00     0.181 C 
HETATM    6  C5  UNL     1     -15.685 -27.233 -26.322  1.00  0.00     0.188 C 
HETATM    7  C6  UNL     1     -16.360 -28.354 -25.577  1.00  0.00     0.248 C 
ENDROOT
BRANCH   4   8
HETATM    8  C3  UNL     1     -12.727 -29.204 -27.698  1.00  0.00     0.199 C 
BRANCH   8   9
HETATM    9  O3  UNL     1     -12.469 -30.469 -27.208  1.00  0.00    -0.398 OA
ATOM     10  H3  UNL     1     -11.562 -30.584 -26.949  1.00  0.00     0.209 HD
ENDBRANCH   8   9
ENDBRANCH   4   8
BRANCH   5  11
HETATM   11  O4  UNL     1     -13.578 -27.779 -25.295  1.00  0.00    -0.390 OA
ATOM     12  H4  UNL     1     -12.814 -27.228 -25.168  1.00  0.00     0.210 HD
ENDBRANCH   5  11
BRANCH   6  13
HETATM   13  O5  UNL     1     -15.844 -26.006 -25.718  1.00  0.00    -0.390 OA
ATOM     14  H5  UNL     1     -15.031 -25.513 -25.726  1.00  0.00     0.210 HD
ENDBRANCH   6  13
BRANCH   7  15
HETATM   15  O6  UNL     1     -17.722 -28.065 -25.511  1.00  0.00    -0.383 OA
ATOM     16  H6  UNL     1     -17.848 -27.151 -25.285  1.00  0.00     0.210 HD
ENDBRANCH   7  15
TORSDOF 5
ENDMDL
