MODEL 3
REMARK VINA RESULT: -5.961494841      1.931      3.013
REMARK  5 active torsions:
REMARK  status: ('A' for Active; 'I' for Inactive)
REMARK    1  A    between atoms: N5_14  and  C6_15 
REMARK    2  A    between atoms: C7_17  and  C8_18 
REMARK    3  A    between atoms: C8_18  and  O3_19 
REMARK    4  A    between atoms: C9_21  and  O4_22 
REMARK    5  A    between atoms: C10_24  and  O5_25 
ROOT
HETATM    1  N1  UNL     1      13.702   9.952  27.026  1.00  0.00    -0.080 NA
HETATM    2  C1  UNL     1      15.009  10.011  27.566  1.00  0.00     0.148 A 
HETATM    3  N2  UNL     1      15.524   8.937  28.206  1.00  0.00    -0.339 N 
ATOM      4  H2  UNL     1      14.981   8.079  28.307  1.00  0.00     0.167 HD
HETATM    5  C2  UNL     1      16.768   9.029  28.707  1.00  0.00     0.183 A 
HETATM    6  N3  UNL     1      17.523  10.147  28.595  1.00  0.00    -0.336 N 
ATOM      7  H3  UNL     1      18.462  10.162  28.994  1.00  0.00     0.168 HD
HETATM    8  C3  UNL     1      17.050  11.248  27.961  1.00  0.00     0.145 A 
HETATM    9  C4  UNL     1      15.771  11.147  27.450  1.00  0.00     0.122 A 
HETATM   10  N4  UNL     1      15.509  12.324  26.877  1.00  0.00    -0.302 N 
ATOM     11  H4  UNL     1      14.642  12.580  26.404  1.00  0.00     0.171 HD
HETATM   12  C5  UNL     1      16.585  13.114  27.033  1.00  0.00     0.331 A 
HETATM   13  O1  UNL     1      16.642  14.291  26.598  1.00  0.00    -0.246 OA
HETATM   14  N5  UNL     1      17.553  12.475  27.698  1.00  0.00    -0.253 N 
ENDROOT
BRANCH  14  15
HETATM   15  C6  UNL     1      18.834  12.943  28.067  1.00  0.00     0.266 C 
HETATM   16  O2  UNL     1      19.645  11.978  28.668  1.00  0.00    -0.353 OA
HETATM   17  C7  UNL     1      20.818  12.717  28.865  1.00  0.00     0.179 C 
HETATM   18  C9  UNL     1      20.300  13.948  29.600  1.00  0.00     0.182 C 
HETATM   19  C10 UNL     1      18.875  14.063  29.043  1.00  0.00     0.198 C 
BRANCH  17  20
HETATM   20  C8  UNL     1      21.778  12.012  29.790  1.00  0.00     0.198 C 
BRANCH  20  21
HETATM   21  O3  UNL     1      22.668  12.974  30.267  1.00  0.00    -0.398 OA
ATOM     22  H3  UNL     1      23.313  13.119  29.584  1.00  0.00     0.209 HD
ENDBRANCH  20  21
ENDBRANCH  17  20
BRANCH  18  23
HETATM   23  O4  UNL     1      21.047  15.078  29.295  1.00  0.00    -0.390 OA
ATOM     24  H4  UNL     1      20.499  15.850  29.220  1.00  0.00     0.210 HD
ENDBRANCH  18  23
BRANCH  19  25
HETATM   25  O5  UNL     1      18.739  15.314  28.443  1.00  0.00    -0.388 OA
ATOM     26  H5  UNL     1      17.867  15.679  28.538  1.00  0.00     0.210 HD
ENDBRANCH  19  25
ENDBRANCH  14  15
TORSDOF 5
ENDMDL
