MODEL 20
REMARK VINA RESULT: -5.571383052      3.234      5.217
REMARK  5 active torsions:
REMARK  status: ('A' for Active; 'I' for Inactive)
REMARK    1  A    between atoms: N5_14  and  C6_15 
REMARK    2  A    between atoms: C7_17  and  C8_18 
REMARK    3  A    between atoms: C8_18  and  O3_19 
REMARK    4  A    between atoms: C9_21  and  O4_22 
REMARK    5  A    between atoms: C10_24  and  O5_25 
ROOT
HETATM    1  N1  UNL     1       9.179  11.692  27.421  1.00  0.00    -0.080 NA
HETATM    2  C1  UNL     1      10.161  10.766  27.850  1.00  0.00     0.148 A 
HETATM    3  N2  UNL     1       9.799   9.687  28.578  1.00  0.00    -0.339 N 
ATOM      4  H2  UNL     1       8.822   9.527  28.825  1.00  0.00     0.167 HD
HETATM    5  C2  UNL     1      10.759   8.829  28.967  1.00  0.00     0.183 A 
HETATM    6  N3  UNL     1      12.066   9.002  28.661  1.00  0.00    -0.336 N 
ATOM      7  H3  UNL     1      12.752   8.319  28.982  1.00  0.00     0.168 HD
HETATM    8  C3  UNL     1      12.476  10.068  27.932  1.00  0.00     0.145 A 
HETATM    9  C4  UNL     1      11.486  10.946  27.536  1.00  0.00     0.122 A 
HETATM   10  N4  UNL     1      12.101  11.907  26.843  1.00  0.00    -0.302 N 
ATOM     11  H4  UNL     1      11.650  12.713  26.408  1.00  0.00     0.171 HD
HETATM   12  C5  UNL     1      13.415  11.629  26.816  1.00  0.00     0.331 A 
HETATM   13  O1  UNL     1      14.260  12.354  26.235  1.00  0.00    -0.246 OA
HETATM   14  N5  UNL     1      13.676  10.499  27.481  1.00  0.00    -0.253 N 
ENDROOT
BRANCH  14  15
HETATM   15  C6  UNL     1      14.918   9.859  27.691  1.00  0.00     0.266 C 
HETATM   16  O2  UNL     1      14.969   9.069  28.842  1.00  0.00    -0.353 OA
HETATM   17  C7  UNL     1      16.268   8.556  28.742  1.00  0.00     0.179 C 
HETATM   18  C9  UNL     1      17.098   9.822  28.561  1.00  0.00     0.182 C 
HETATM   19  C10 UNL     1      16.101  10.744  27.845  1.00  0.00     0.198 C 
BRANCH  17  20
HETATM   20  C8  UNL     1      16.716   7.906  30.028  1.00  0.00     0.198 C 
BRANCH  20  21
HETATM   21  O3  UNL     1      18.015   7.443  29.821  1.00  0.00    -0.398 OA
ATOM     22  H3  UNL     1      18.468   8.104  29.311  1.00  0.00     0.209 HD
ENDBRANCH  20  21
ENDBRANCH  17  20
BRANCH  18  23
HETATM   23  O4  UNL     1      18.218   9.591  27.772  1.00  0.00    -0.390 OA
ATOM     24  H4  UNL     1      18.132   9.995  26.917  1.00  0.00     0.210 HD
ENDBRANCH  18  23
BRANCH  19  25
HETATM   25  O5  UNL     1      16.658  11.129  26.627  1.00  0.00    -0.388 OA
ATOM     26  H5  UNL     1      17.357  11.765  26.721  1.00  0.00     0.210 HD
ENDBRANCH  19  25
ENDBRANCH  14  15
TORSDOF 5
ENDMDL
