MODEL 2
REMARK VINA RESULT: -6.207028228      3.473      6.461
REMARK  5 active torsions:
REMARK  status: ('A' for Active; 'I' for Inactive)
REMARK    1  A    between atoms: N5_14  and  C6_15 
REMARK    2  A    between atoms: C7_17  and  C8_18 
REMARK    3  A    between atoms: C8_18  and  O3_19 
REMARK    4  A    between atoms: C9_21  and  O4_22 
REMARK    5  A    between atoms: C10_24  and  O5_25 
ROOT
HETATM    1  N1  UNL     1      23.354  14.307  30.220  1.00  0.00    -0.080 NA
HETATM    2  C1  UNL     1      22.269  13.412  30.063  1.00  0.00     0.148 A 
HETATM    3  N2  UNL     1      22.413  12.110  30.396  1.00  0.00    -0.339 N 
ATOM      4  H2  UNL     1      23.298  11.759  30.762  1.00  0.00     0.167 HD
HETATM    5  C2  UNL     1      21.360  11.289  30.233  1.00  0.00     0.183 A 
HETATM    6  N3  UNL     1      20.168  11.712  29.752  1.00  0.00    -0.336 N 
ATOM      7  H3  UNL     1      19.402  11.045  29.649  1.00  0.00     0.168 HD
HETATM    8  C3  UNL     1      19.976  13.008  29.405  1.00  0.00     0.145 A 
HETATM    9  C4  UNL     1      21.061  13.845  29.575  1.00  0.00     0.122 A 
HETATM   10  N4  UNL     1      20.658  15.055  29.178  1.00  0.00    -0.302 N 
ATOM     11  H4  UNL     1      21.225  15.903  29.176  1.00  0.00     0.171 HD
HETATM   12  C5  UNL     1      19.378  14.961  28.781  1.00  0.00     0.331 A 
HETATM   13  O1  UNL     1      18.718  15.939  28.351  1.00  0.00    -0.246 OA
HETATM   14  N5  UNL     1      18.930  13.708  28.911  1.00  0.00    -0.253 N 
ENDROOT
BRANCH  14  15
HETATM   15  C6  UNL     1      17.652  13.187  28.609  1.00  0.00     0.266 C 
HETATM   16  O2  UNL     1      17.446  11.879  29.056  1.00  0.00    -0.353 OA
HETATM   17  C7  UNL     1      16.119  11.679  28.656  1.00  0.00     0.179 C 
HETATM   18  C9  UNL     1      16.169  12.060  27.181  1.00  0.00     0.182 C 
HETATM   19  C10 UNL     1      17.293  13.104  27.170  1.00  0.00     0.198 C 
BRANCH  17  20
HETATM   20  C8  UNL     1      15.722  10.226  28.733  1.00  0.00     0.198 C 
BRANCH  20  21
HETATM   21  O3  UNL     1      15.661   9.749  27.424  1.00  0.00    -0.398 OA
ATOM     22  H3  UNL     1      15.790   8.809  27.464  1.00  0.00     0.209 HD
ENDBRANCH  20  21
ENDBRANCH  17  20
BRANCH  18  23
HETATM   23  O4  UNL     1      14.969  12.614  26.755  1.00  0.00    -0.390 OA
ATOM     24  H4  UNL     1      14.898  12.610  25.808  1.00  0.00     0.210 HD
ENDBRANCH  18  23
BRANCH  19  25
HETATM   25  O5  UNL     1      16.776  14.297  26.667  1.00  0.00    -0.388 OA
ATOM     26  H5  UNL     1      17.445  14.873  26.315  1.00  0.00     0.210 HD
ENDBRANCH  19  25
ENDBRANCH  14  15
TORSDOF 5
ENDMDL
