MODEL 1
REMARK VINA RESULT: -6.286577651      0.000      0.000
REMARK  5 active torsions:
REMARK  status: ('A' for Active; 'I' for Inactive)
REMARK    1  A    between atoms: N5_14  and  C6_15 
REMARK    2  A    between atoms: C7_17  and  C8_18 
REMARK    3  A    between atoms: C8_18  and  O3_19 
REMARK    4  A    between atoms: C9_21  and  O4_22 
REMARK    5  A    between atoms: C10_24  and  O5_25 
ROOT
HETATM    1  N1  UNL     1      13.866   7.834  28.009  1.00  0.00    -0.080 NA
HETATM    2  C1  UNL     1      14.176   9.156  27.610  1.00  0.00     0.148 A 
HETATM    3  N2  UNL     1      13.211   9.950  27.094  1.00  0.00    -0.339 N 
ATOM      4  H2  UNL     1      12.256   9.608  26.988  1.00  0.00     0.167 HD
HETATM    5  C2  UNL     1      13.542  11.200  26.725  1.00  0.00     0.183 A 
HETATM    6  N3  UNL     1      14.797  11.693  26.849  1.00  0.00    -0.336 N 
ATOM      7  H3  UNL     1      14.993  12.650  26.553  1.00  0.00     0.168 HD
HETATM    8  C3  UNL     1      15.797  10.936  27.361  1.00  0.00     0.145 A 
HETATM    9  C4  UNL     1      15.450   9.653  27.738  1.00  0.00     0.122 A 
HETATM   10  N4  UNL     1      16.567   9.091  28.207  1.00  0.00    -0.302 N 
ATOM     11  H4  UNL     1      16.653   8.141  28.568  1.00  0.00     0.171 HD
HETATM   12  C5  UNL     1      17.558   9.995  28.121  1.00  0.00     0.331 A 
HETATM   13  O1  UNL     1      18.736   9.761  28.487  1.00  0.00    -0.246 OA
HETATM   14  N5  UNL     1      17.111  11.144  27.602  1.00  0.00    -0.253 N 
ENDROOT
BRANCH  14  15
HETATM   15  C6  UNL     1      17.822  12.337  27.345  1.00  0.00     0.266 C 
HETATM   16  O2  UNL     1      18.861  12.198  26.422  1.00  0.00    -0.353 OA
HETATM   17  C7  UNL     1      19.320  13.519  26.354  1.00  0.00     0.179 C 
HETATM   18  C9  UNL     1      19.548  13.854  27.823  1.00  0.00     0.182 C 
HETATM   19  C10 UNL     1      18.495  12.971  28.507  1.00  0.00     0.198 C 
BRANCH  17  20
HETATM   20  C8  UNL     1      20.656  13.614  25.659  1.00  0.00     0.198 C 
BRANCH  20  21
HETATM   21  O3  UNL     1      21.229  14.827  26.039  1.00  0.00    -0.398 OA
ATOM     22  H3  UNL     1      22.163  14.676  26.134  1.00  0.00     0.209 HD
ENDBRANCH  20  21
ENDBRANCH  17  20
BRANCH  18  23
HETATM   23  O4  UNL     1      19.316  15.198  28.083  1.00  0.00    -0.390 OA
ATOM     24  H4  UNL     1      19.860  15.516  28.795  1.00  0.00     0.210 HD
ENDBRANCH  18  23
BRANCH  19  25
HETATM   25  O5  UNL     1      17.648  13.795  29.247  1.00  0.00    -0.388 OA
ATOM     26  H5  UNL     1      18.115  14.367  29.846  1.00  0.00     0.210 HD
ENDBRANCH  19  25
ENDBRANCH  14  15
TORSDOF 5
ENDMDL
