MODEL 1
REMARK VINA RESULT: -9.485906788      0.000      0.000
REMARK  14 active torsions:
REMARK  status: ('A' for Active; 'I' for Inactive)
REMARK    1  A    between atoms: C2_2  and  C4_4 
REMARK    2  A    between atoms: C4_4  and  N1_5 
REMARK    3  A    between atoms: N1_5  and  C5_6 
REMARK    4  A    between atoms: N1_5  and  S1_36 
REMARK    5  A    between atoms: C5_6  and  C6_7 
REMARK    6  A    between atoms: C6_7  and  O1_8 
REMARK    7  A    between atoms: C6_7  and  C7_10 
REMARK    8  A    between atoms: C7_10  and  C8_11 
REMARK    9  A    between atoms: C7_10  and  N2_18 
REMARK   10  A    between atoms: C8_11  and  C9_12 
REMARK       I    between atoms: N2_18  and  C15_20 
REMARK   11  A    between atoms: C15_20  and  C16_22 
REMARK   12  A    between atoms: N3_24  and  C18_25 
REMARK   13  A    between atoms: C23_30  and  O3_31 
REMARK   14  A    between atoms: S1_36  and  C25_39 
ROOT
HETATM    1  C7  UNL     1      17.902  31.502  14.912  1.00  0.00     0.119 C 
ENDROOT
BRANCH   1   2
HETATM    2  C6  UNL     1      19.073  31.322  15.894  1.00  0.00     0.160 C 
BRANCH   2   3
HETATM    3  C5  UNL     1      19.815  32.599  16.117  1.00  0.00     0.174 C 
BRANCH   3   4
HETATM    4  N1  UNL     1      21.221  32.368  16.087  1.00  0.00    -0.283 N 
BRANCH   4   5
HETATM    5  C4  UNL     1      22.009  33.037  17.045  1.00  0.00     0.080 C 
BRANCH   5   6
HETATM    6  C2  UNL     1      21.392  34.326  17.547  1.00  0.00     0.017 C 
HETATM    7  C1  UNL     1      21.781  35.464  16.598  1.00  0.00     0.015 C 
HETATM    8  C3  UNL     1      21.885  34.702  18.909  1.00  0.00     0.015 C 
ENDBRANCH   5   6
ENDBRANCH   4   5
BRANCH   4   9
HETATM    9  S1  UNL     1      21.919  32.199  14.553  1.00  0.00     0.264 S 
HETATM   10  O6  UNL     1      21.234  33.178  13.613  1.00  0.00    -0.200 OA
HETATM   11  O7  UNL     1      23.373  32.610  14.557  1.00  0.00    -0.200 OA
BRANCH   9  12
HETATM   12  C25 UNL     1      21.834  30.582  13.914  1.00  0.00     0.082 A 
HETATM   13  C26 UNL     1      21.710  29.512  14.804  1.00  0.00     0.028 A 
HETATM   14  C27 UNL     1      21.634  28.202  14.383  1.00  0.00     0.041 A 
HETATM   15  C28 UNL     1      21.685  27.955  13.022  1.00  0.00     0.105 A 
HETATM   16  C29 UNL     1      21.808  28.996  12.108  1.00  0.00     0.106 A 
HETATM   17  O9  UNL     1      21.635  26.779  12.277  1.00  0.00    -0.323 OA
HETATM   18  C30 UNL     1      21.882  30.305  12.571  1.00  0.00     0.065 A 
HETATM   19  O8  UNL     1      21.829  28.419  10.835  1.00  0.00    -0.323 OA
HETATM   20  C31 UNL     1      21.234  27.140  10.951  1.00  0.00     0.352 C 
ENDBRANCH   9  12
ENDBRANCH   4   9
ENDBRANCH   3   4
ENDBRANCH   2   3
BRANCH   2  21
HETATM   21  O1  UNL     1      18.494  30.851  17.089  1.00  0.00    -0.392 OA
ATOM     22  H1  UNL     1      17.579  30.630  16.964  1.00  0.00     0.210 HD
ENDBRANCH   2  21
ENDBRANCH   1   2
BRANCH   1  23
HETATM   23  C8  UNL     1      18.376  31.164  13.557  1.00  0.00     0.066 C 
BRANCH  23  24
HETATM   24  C9  UNL     1      18.180  29.751  13.173  1.00  0.00    -0.056 A 
HETATM   25  C10 UNL     1      18.063  28.782  14.138  1.00  0.00     0.007 A 
HETATM   26  C11 UNL     1      17.883  27.439  13.824  1.00  0.00     0.001 A 
HETATM   27  C12 UNL     1      17.819  27.078  12.503  1.00  0.00     0.000 A 
HETATM   28  C13 UNL     1      17.931  28.018  11.507  1.00  0.00     0.001 A 
HETATM   29  C14 UNL     1      18.112  29.354  11.859  1.00  0.00     0.007 A 
ENDBRANCH  23  24
ENDBRANCH   1  23
BRANCH   1  30
HETATM   30  N2  UNL     1      17.245  32.745  15.096  1.00  0.00    -0.351 N 
HETATM   31  C15 UNL     1      16.069  32.976  15.826  1.00  0.00     0.249 C 
HETATM   32  O2  UNL     1      15.515  32.017  16.386  1.00  0.00    -0.271 OA
ATOM     33  H2  UNL     1      17.673  33.556  14.651  1.00  0.00     0.163 HD
BRANCH  31  34
HETATM   34  C16 UNL     1      15.468  34.327  15.953  1.00  0.00     0.243 C 
HETATM   35  C17 UNL     1      16.420  35.455  15.799  1.00  0.00     0.177 C 
HETATM   36  N3  UNL     1      16.502  36.045  17.114  1.00  0.00    -0.288 N 
HETATM   37  C24 UNL     1      15.700  35.244  17.971  1.00  0.00     0.368 C 
HETATM   38  O4  UNL     1      15.736  35.173  19.219  1.00  0.00    -0.238 OA
HETATM   39  O5  UNL     1      14.808  34.499  17.191  1.00  0.00    -0.287 OA
BRANCH  36  40
HETATM   40  C18 UNL     1      17.222  37.196  17.539  1.00  0.00     0.072 A 
HETATM   41  C19 UNL     1      16.862  38.423  17.027  1.00  0.00     0.033 A 
HETATM   42  C20 UNL     1      17.523  39.596  17.396  1.00  0.00     0.002 A 
HETATM   43  C21 UNL     1      18.566  39.529  18.297  1.00  0.00     0.003 A 
HETATM   44  C22 UNL     1      18.941  38.317  18.819  1.00  0.00     0.039 A 
HETATM   45  C23 UNL     1      18.266  37.165  18.437  1.00  0.00     0.092 A 
BRANCH  45  46
HETATM   46  O3  UNL     1      18.666  35.967  18.978  1.00  0.00    -0.358 OA
ATOM     47  H3  UNL     1      19.187  35.959  19.772  1.00  0.00     0.217 HD
ENDBRANCH  45  46
ENDBRANCH  36  40
ENDBRANCH  31  34
ENDBRANCH   1  30
TORSDOF 14
ENDMDL
