MODEL 9
REMARK VINA RESULT: -8.713493247      2.817      9.908
REMARK  14 active torsions:
REMARK  status: ('A' for Active; 'I' for Inactive)
REMARK    1  A    between atoms: C2_2  and  C4_4 
REMARK    2  A    between atoms: C4_4  and  N1_5 
REMARK    3  A    between atoms: N1_5  and  C5_6 
REMARK    4  A    between atoms: N1_5  and  S1_36 
REMARK    5  A    between atoms: C5_6  and  C6_7 
REMARK    6  A    between atoms: C6_7  and  O1_8 
REMARK    7  A    between atoms: C6_7  and  C7_10 
REMARK    8  A    between atoms: C7_10  and  C8_11 
REMARK    9  A    between atoms: C7_10  and  N2_18 
REMARK   10  A    between atoms: C8_11  and  C9_12 
REMARK       I    between atoms: N2_18  and  C15_20 
REMARK   11  A    between atoms: C15_20  and  C16_22 
REMARK   12  A    between atoms: N3_24  and  C18_25 
REMARK   13  A    between atoms: C23_30  and  O3_31 
REMARK   14  A    between atoms: S1_36  and  C25_39 
ROOT
HETATM    1  C7  UNL     1      19.876  29.294  13.836  1.00  0.00     0.119 C 
ENDROOT
BRANCH   1   2
HETATM    2  C6  UNL     1      20.480  29.302  15.252  1.00  0.00     0.160 C 
BRANCH   2   3
HETATM    3  C5  UNL     1      20.039  30.492  16.040  1.00  0.00     0.174 C 
BRANCH   3   4
HETATM    4  N1  UNL     1      19.552  31.510  15.170  1.00  0.00    -0.283 N 
BRANCH   4   5
HETATM    5  C4  UNL     1      20.346  32.664  15.015  1.00  0.00     0.080 C 
BRANCH   5   6
HETATM    6  C2  UNL     1      21.769  32.494  15.506  1.00  0.00     0.017 C 
HETATM    7  C1  UNL     1      22.126  33.678  16.410  1.00  0.00     0.015 C 
HETATM    8  C3  UNL     1      22.761  32.480  14.387  1.00  0.00     0.015 C 
ENDBRANCH   5   6
ENDBRANCH   4   5
BRANCH   4   9
HETATM    9  S1  UNL     1      17.878  31.770  15.183  1.00  0.00     0.264 S 
HETATM   10  O6  UNL     1      17.368  31.623  13.759  1.00  0.00    -0.200 OA
HETATM   11  O7  UNL     1      17.157  30.701  15.971  1.00  0.00    -0.200 OA
BRANCH   9  12
HETATM   12  C25 UNL     1      17.408  33.311  15.841  1.00  0.00     0.082 A 
HETATM   13  C26 UNL     1      16.799  34.245  14.999  1.00  0.00     0.028 A 
HETATM   14  C27 UNL     1      16.394  35.486  15.437  1.00  0.00     0.041 A 
HETATM   15  C28 UNL     1      16.608  35.805  16.768  1.00  0.00     0.105 A 
HETATM   16  C29 UNL     1      17.211  34.900  17.633  1.00  0.00     0.106 A 
HETATM   17  O9  UNL     1      16.327  36.944  17.518  1.00  0.00    -0.323 OA
HETATM   18  C30 UNL     1      17.606  33.656  17.154  1.00  0.00     0.065 A 
HETATM   19  O8  UNL     1      17.277  35.518  18.886  1.00  0.00    -0.323 OA
HETATM   20  C31 UNL     1      16.301  36.544  18.893  1.00  0.00     0.352 C 
ENDBRANCH   9  12
ENDBRANCH   4   9
ENDBRANCH   3   4
ENDBRANCH   2   3
BRANCH   2  21
HETATM   21  O1  UNL     1      20.050  28.102  15.851  1.00  0.00    -0.392 OA
ATOM     22  H1  UNL     1      20.169  27.363  15.267  1.00  0.00     0.210 HD
ENDBRANCH   2  21
ENDBRANCH   1   2
BRANCH   1  23
HETATM   23  C8  UNL     1      18.755  28.336  13.814  1.00  0.00     0.066 C 
BRANCH  23  24
HETATM   24  C9  UNL     1      18.326  27.925  12.462  1.00  0.00    -0.056 A 
HETATM   25  C10 UNL     1      18.494  26.627  12.047  1.00  0.00     0.007 A 
HETATM   26  C11 UNL     1      18.110  26.195  10.782  1.00  0.00     0.001 A 
HETATM   27  C12 UNL     1      17.541  27.102   9.927  1.00  0.00     0.000 A 
HETATM   28  C13 UNL     1      17.354  28.410  10.303  1.00  0.00     0.001 A 
HETATM   29  C14 UNL     1      17.752  28.807  11.578  1.00  0.00     0.007 A 
ENDBRANCH  23  24
ENDBRANCH   1  23
BRANCH   1  30
HETATM   30  N2  UNL     1      20.874  29.171  12.837  1.00  0.00    -0.351 N 
HETATM   31  C15 UNL     1      22.073  28.446  12.929  1.00  0.00     0.249 C 
HETATM   32  O2  UNL     1      22.322  27.834  13.980  1.00  0.00    -0.271 OA
ATOM     33  H2  UNL     1      20.703  29.660  11.959  1.00  0.00     0.163 HD
BRANCH  31  34
HETATM   34  C16 UNL     1      23.050  28.385  11.814  1.00  0.00     0.243 C 
HETATM   35  C17 UNL     1      22.533  27.789  10.558  1.00  0.00     0.177 C 
HETATM   36  N3  UNL     1      23.244  26.539  10.428  1.00  0.00    -0.288 N 
HETATM   37  C24 UNL     1      24.056  26.411  11.587  1.00  0.00     0.368 C 
HETATM   38  O4  UNL     1      24.571  25.372  12.058  1.00  0.00    -0.238 OA
HETATM   39  O5  UNL     1      24.217  27.673  12.170  1.00  0.00    -0.287 OA
BRANCH  36  40
HETATM   40  C18 UNL     1      23.191  25.580   9.379  1.00  0.00     0.072 A 
HETATM   41  C19 UNL     1      24.254  25.500   8.506  1.00  0.00     0.033 A 
HETATM   42  C20 UNL     1      24.272  24.585   7.452  1.00  0.00     0.002 A 
HETATM   43  C21 UNL     1      23.199  23.735   7.277  1.00  0.00     0.003 A 
HETATM   44  C22 UNL     1      22.130  23.798   8.134  1.00  0.00     0.039 A 
HETATM   45  C23 UNL     1      22.137  24.716   9.175  1.00  0.00     0.092 A 
BRANCH  45  46
HETATM   46  O3  UNL     1      21.052  24.753  10.017  1.00  0.00    -0.358 OA
ATOM     47  H3  UNL     1      20.776  23.963  10.467  1.00  0.00     0.217 HD
ENDBRANCH  45  46
ENDBRANCH  36  40
ENDBRANCH  31  34
ENDBRANCH   1  30
TORSDOF 14
ENDMDL
