MODEL 2
REMARK VINA RESULT: -9.360306864      3.058     10.142
REMARK  14 active torsions:
REMARK  status: ('A' for Active; 'I' for Inactive)
REMARK    1  A    between atoms: C2_2  and  C4_4 
REMARK    2  A    between atoms: C4_4  and  N1_5 
REMARK    3  A    between atoms: N1_5  and  C5_6 
REMARK    4  A    between atoms: N1_5  and  S1_36 
REMARK    5  A    between atoms: C5_6  and  C6_7 
REMARK    6  A    between atoms: C6_7  and  O1_8 
REMARK    7  A    between atoms: C6_7  and  C7_10 
REMARK    8  A    between atoms: C7_10  and  C8_11 
REMARK    9  A    between atoms: C7_10  and  N2_18 
REMARK   10  A    between atoms: C8_11  and  C9_12 
REMARK       I    between atoms: N2_18  and  C15_20 
REMARK   11  A    between atoms: C15_20  and  C16_22 
REMARK   12  A    between atoms: N3_24  and  C18_25 
REMARK   13  A    between atoms: C23_30  and  O3_31 
REMARK   14  A    between atoms: S1_36  and  C25_39 
ROOT
HETATM    1  C7  UNL     1      20.174  28.650  13.718  1.00  0.00     0.119 C 
ENDROOT
BRANCH   1   2
HETATM    2  C6  UNL     1      20.427  29.060  15.179  1.00  0.00     0.160 C 
BRANCH   2   3
HETATM    3  C5  UNL     1      19.441  30.077  15.653  1.00  0.00     0.174 C 
BRANCH   3   4
HETATM    4  N1  UNL     1      19.748  31.357  15.108  1.00  0.00    -0.283 N 
BRANCH   4   5
HETATM    5  C4  UNL     1      20.660  32.163  15.818  1.00  0.00     0.080 C 
BRANCH   5   6
HETATM    6  C2  UNL     1      22.099  31.980  15.384  1.00  0.00     0.017 C 
HETATM    7  C1  UNL     1      22.933  33.147  15.923  1.00  0.00     0.015 C 
HETATM    8  C3  UNL     1      22.250  31.983  13.895  1.00  0.00     0.015 C 
ENDBRANCH   5   6
ENDBRANCH   4   5
BRANCH   4   9
HETATM    9  S1  UNL     1      18.468  32.181  14.365  1.00  0.00     0.264 S 
HETATM   10  O6  UNL     1      19.059  33.217  13.421  1.00  0.00    -0.200 OA
HETATM   11  O7  UNL     1      17.656  31.263  13.481  1.00  0.00    -0.200 OA
BRANCH   9  12
HETATM   12  C25 UNL     1      17.370  32.936  15.485  1.00  0.00     0.082 A 
HETATM   13  C26 UNL     1      16.257  32.216  15.925  1.00  0.00     0.028 A 
HETATM   14  C27 UNL     1      15.340  32.736  16.812  1.00  0.00     0.041 A 
HETATM   15  C28 UNL     1      15.545  34.025  17.274  1.00  0.00     0.105 A 
HETATM   16  C29 UNL     1      16.642  34.770  16.857  1.00  0.00     0.106 A 
HETATM   17  O9  UNL     1      14.830  34.833  18.155  1.00  0.00    -0.323 OA
HETATM   18  C30 UNL     1      17.546  34.210  15.960  1.00  0.00     0.065 A 
HETATM   19  O8  UNL     1      16.559  36.009  17.498  1.00  0.00    -0.323 OA
HETATM   20  C31 UNL     1      15.735  35.832  18.636  1.00  0.00     0.352 C 
ENDBRANCH   9  12
ENDBRANCH   4   9
ENDBRANCH   3   4
ENDBRANCH   2   3
BRANCH   2  21
HETATM   21  O1  UNL     1      20.333  27.869  15.926  1.00  0.00    -0.392 OA
ATOM     22  H1  UNL     1      21.178  27.443  16.004  1.00  0.00     0.210 HD
ENDBRANCH   2  21
ENDBRANCH   1   2
BRANCH   1  23
HETATM   23  C8  UNL     1      18.777  28.192  13.599  1.00  0.00     0.066 C 
BRANCH  23  24
HETATM   24  C9  UNL     1      18.407  27.690  12.260  1.00  0.00    -0.056 A 
HETATM   25  C10 UNL     1      18.084  28.569  11.257  1.00  0.00     0.007 A 
HETATM   26  C11 UNL     1      17.725  28.144   9.982  1.00  0.00     0.001 A 
HETATM   27  C12 UNL     1      17.698  26.798   9.726  1.00  0.00     0.000 A 
HETATM   28  C13 UNL     1      18.016  25.885  10.702  1.00  0.00     0.001 A 
HETATM   29  C14 UNL     1      18.370  26.348  11.967  1.00  0.00     0.007 A 
ENDBRANCH  23  24
ENDBRANCH   1  23
BRANCH   1  30
HETATM   30  N2  UNL     1      21.195  27.801  13.223  1.00  0.00    -0.351 N 
HETATM   31  C15 UNL     1      21.989  28.013  12.084  1.00  0.00     0.249 C 
HETATM   32  O2  UNL     1      21.808  29.041  11.413  1.00  0.00    -0.271 OA
ATOM     33  H2  UNL     1      21.373  26.947  13.751  1.00  0.00     0.163 HD
BRANCH  31  34
HETATM   34  C16 UNL     1      23.036  27.052  11.659  1.00  0.00     0.243 C 
HETATM   35  C17 UNL     1      23.295  27.010  10.198  1.00  0.00     0.177 C 
HETATM   36  N3  UNL     1      22.812  25.716   9.779  1.00  0.00    -0.288 N 
HETATM   37  C24 UNL     1      22.246  25.101  10.929  1.00  0.00     0.368 C 
HETATM   38  O4  UNL     1      21.433  24.152  10.975  1.00  0.00    -0.238 OA
HETATM   39  O5  UNL     1      22.745  25.732  12.074  1.00  0.00    -0.287 OA
BRANCH  36  40
HETATM   40  C18 UNL     1      22.859  25.113   8.492  1.00  0.00     0.072 A 
HETATM   41  C19 UNL     1      24.090  24.804   7.955  1.00  0.00     0.033 A 
HETATM   42  C20 UNL     1      24.215  24.213   6.697  1.00  0.00     0.002 A 
HETATM   43  C21 UNL     1      23.078  23.928   5.968  1.00  0.00     0.003 A 
HETATM   44  C22 UNL     1      21.843  24.228   6.484  1.00  0.00     0.039 A 
HETATM   45  C23 UNL     1      21.745  24.814   7.738  1.00  0.00     0.092 A 
BRANCH  45  46
HETATM   46  O3  UNL     1      20.494  25.101   8.227  1.00  0.00    -0.358 OA
ATOM     47  H3  UNL     1      19.731  24.971   7.675  1.00  0.00     0.217 HD
ENDBRANCH  45  46
ENDBRANCH  36  40
ENDBRANCH  31  34
ENDBRANCH   1  30
TORSDOF 14
ENDMDL
