MODEL 7
REMARK VINA RESULT: -8.772116181      3.727      7.170
REMARK  14 active torsions:
REMARK  status: ('A' for Active; 'I' for Inactive)
REMARK    1  A    between atoms: C2_2  and  C4_4 
REMARK    2  A    between atoms: C4_4  and  N1_5 
REMARK    3  A    between atoms: N1_5  and  C5_6 
REMARK    4  A    between atoms: N1_5  and  S1_36 
REMARK    5  A    between atoms: C5_6  and  C6_7 
REMARK    6  A    between atoms: C6_7  and  O1_8 
REMARK    7  A    between atoms: C6_7  and  C7_10 
REMARK    8  A    between atoms: C7_10  and  C8_11 
REMARK    9  A    between atoms: C7_10  and  N2_18 
REMARK   10  A    between atoms: C8_11  and  C9_12 
REMARK       I    between atoms: N2_18  and  C15_20 
REMARK   11  A    between atoms: C15_20  and  C16_22 
REMARK   12  A    between atoms: N3_24  and  C18_25 
REMARK   13  A    between atoms: C23_30  and  O3_31 
REMARK   14  A    between atoms: S1_36  and  C25_39 
ROOT
HETATM    1  C7  UNL     1      21.992  28.834  12.449  1.00  0.00     0.119 C 
ENDROOT
BRANCH   1   2
HETATM    2  C6  UNL     1      20.702  28.014  12.267  1.00  0.00     0.160 C 
BRANCH   2   3
HETATM    3  C5  UNL     1      20.290  27.933  10.833  1.00  0.00     0.174 C 
BRANCH   3   4
HETATM    4  N1  UNL     1      18.933  27.510  10.731  1.00  0.00    -0.283 N 
BRANCH   4   5
HETATM    5  C4  UNL     1      18.047  27.916  11.749  1.00  0.00     0.080 C 
BRANCH   5   6
HETATM    6  C2  UNL     1      17.519  29.324  11.569  1.00  0.00     0.017 C 
HETATM    7  C1  UNL     1      17.670  30.084  12.890  1.00  0.00     0.015 C 
HETATM    8  C3  UNL     1      16.066  29.347  11.213  1.00  0.00     0.015 C 
ENDBRANCH   5   6
ENDBRANCH   4   5
BRANCH   4   9
HETATM    9  S1  UNL     1      18.679  25.950  10.120  1.00  0.00     0.264 S 
HETATM   10  O6  UNL     1      19.974  25.168  10.272  1.00  0.00    -0.200 OA
HETATM   11  O7  UNL     1      17.663  25.191  10.941  1.00  0.00    -0.200 OA
BRANCH   9  12
HETATM   12  C25 UNL     1      18.143  25.920   8.464  1.00  0.00     0.082 A 
HETATM   13  C26 UNL     1      17.423  24.812   8.010  1.00  0.00     0.028 A 
HETATM   14  C27 UNL     1      16.959  24.708   6.717  1.00  0.00     0.041 A 
HETATM   15  C28 UNL     1      17.226  25.751   5.847  1.00  0.00     0.105 A 
HETATM   16  C29 UNL     1      17.939  26.868   6.265  1.00  0.00     0.106 A 
HETATM   17  O9  UNL     1      16.911  25.961   4.507  1.00  0.00    -0.323 OA
HETATM   18  C30 UNL     1      18.391  26.938   7.579  1.00  0.00     0.065 A 
HETATM   19  O8  UNL     1      18.035  27.725   5.165  1.00  0.00    -0.323 OA
HETATM   20  C31 UNL     1      16.993  27.372   4.274  1.00  0.00     0.352 C 
ENDBRANCH   9  12
ENDBRANCH   4   9
ENDBRANCH   3   4
ENDBRANCH   2   3
BRANCH   2  21
HETATM   21  O1  UNL     1      20.991  26.738  12.789  1.00  0.00    -0.392 OA
ATOM     22  H1  UNL     1      21.831  26.729  13.232  1.00  0.00     0.210 HD
ENDBRANCH   2  21
ENDBRANCH   1   2
BRANCH   1  23
HETATM   23  C8  UNL     1      23.105  27.900  12.701  1.00  0.00     0.066 C 
BRANCH  23  24
HETATM   24  C9  UNL     1      23.582  27.178  11.504  1.00  0.00    -0.056 A 
HETATM   25  C10 UNL     1      24.042  25.888  11.611  1.00  0.00     0.007 A 
HETATM   26  C11 UNL     1      24.505  25.171  10.513  1.00  0.00     0.001 A 
HETATM   27  C12 UNL     1      24.499  25.778   9.285  1.00  0.00     0.000 A 
HETATM   28  C13 UNL     1      24.047  27.067   9.135  1.00  0.00     0.001 A 
HETATM   29  C14 UNL     1      23.590  27.755  10.257  1.00  0.00     0.007 A 
ENDBRANCH  23  24
ENDBRANCH   1  23
BRANCH   1  30
HETATM   30  N2  UNL     1      21.810  29.910  13.354  1.00  0.00    -0.351 N 
HETATM   31  C15 UNL     1      21.155  29.865  14.595  1.00  0.00     0.249 C 
HETATM   32  O2  UNL     1      20.672  28.787  14.977  1.00  0.00    -0.271 OA
ATOM     33  H2  UNL     1      22.195  30.812  13.074  1.00  0.00     0.163 HD
BRANCH  31  34
HETATM   34  C16 UNL     1      21.025  31.059  15.465  1.00  0.00     0.243 C 
HETATM   35  C17 UNL     1      19.838  31.061  16.357  1.00  0.00     0.177 C 
HETATM   36  N3  UNL     1      18.995  32.112  15.839  1.00  0.00    -0.288 N 
HETATM   37  C24 UNL     1      19.640  32.617  14.678  1.00  0.00     0.368 C 
HETATM   38  O4  UNL     1      19.139  33.279  13.742  1.00  0.00    -0.238 OA
HETATM   39  O5  UNL     1      20.993  32.259  14.718  1.00  0.00    -0.287 OA
BRANCH  36  40
HETATM   40  C18 UNL     1      17.755  32.597  16.339  1.00  0.00     0.072 A 
HETATM   41  C19 UNL     1      16.590  32.033  15.867  1.00  0.00     0.033 A 
HETATM   42  C20 UNL     1      15.336  32.459  16.309  1.00  0.00     0.002 A 
HETATM   43  C21 UNL     1      15.256  33.471  17.243  1.00  0.00     0.003 A 
HETATM   44  C22 UNL     1      16.404  34.046  17.726  1.00  0.00     0.039 A 
HETATM   45  C23 UNL     1      17.639  33.605  17.271  1.00  0.00     0.092 A 
BRANCH  45  46
HETATM   46  O3  UNL     1      18.770  34.201  17.775  1.00  0.00    -0.358 OA
ATOM     47  H3  UNL     1      19.501  34.387  17.198  1.00  0.00     0.217 HD
ENDBRANCH  45  46
ENDBRANCH  36  40
ENDBRANCH  31  34
ENDBRANCH   1  30
TORSDOF 14
ENDMDL
