MODEL 6
REMARK VINA RESULT: -8.810851256      4.107     10.606
REMARK  14 active torsions:
REMARK  status: ('A' for Active; 'I' for Inactive)
REMARK    1  A    between atoms: C2_2  and  C4_4 
REMARK    2  A    between atoms: C4_4  and  N1_5 
REMARK    3  A    between atoms: N1_5  and  C5_6 
REMARK    4  A    between atoms: N1_5  and  S1_36 
REMARK    5  A    between atoms: C5_6  and  C6_7 
REMARK    6  A    between atoms: C6_7  and  O1_8 
REMARK    7  A    between atoms: C6_7  and  C7_10 
REMARK    8  A    between atoms: C7_10  and  C8_11 
REMARK    9  A    between atoms: C7_10  and  N2_18 
REMARK   10  A    between atoms: C8_11  and  C9_12 
REMARK       I    between atoms: N2_18  and  C15_20 
REMARK   11  A    between atoms: C15_20  and  C16_22 
REMARK   12  A    between atoms: N3_24  and  C18_25 
REMARK   13  A    between atoms: C23_30  and  O3_31 
REMARK   14  A    between atoms: S1_36  and  C25_39 
ROOT
HETATM    1  C7  UNL     1      20.866  28.185  11.877  1.00  0.00     0.119 C 
ENDROOT
BRANCH   1   2
HETATM    2  C6  UNL     1      20.645  28.899  13.223  1.00  0.00     0.160 C 
BRANCH   2   3
HETATM    3  C5  UNL     1      19.917  30.192  13.055  1.00  0.00     0.174 C 
BRANCH   3   4
HETATM    4  N1  UNL     1      20.093  31.014  14.206  1.00  0.00    -0.283 N 
BRANCH   4   5
HETATM    5  C4  UNL     1      21.409  31.201  14.674  1.00  0.00     0.080 C 
BRANCH   5   6
HETATM    6  C2  UNL     1      21.984  32.562  14.343  1.00  0.00     0.017 C 
HETATM    7  C1  UNL     1      23.504  32.517  14.533  1.00  0.00     0.015 C 
HETATM    8  C3  UNL     1      21.461  33.637  15.242  1.00  0.00     0.015 C 
ENDBRANCH   5   6
ENDBRANCH   4   5
BRANCH   4   9
HETATM    9  S1  UNL     1      18.900  30.892  15.402  1.00  0.00     0.264 S 
HETATM   10  O6  UNL     1      17.904  29.828  14.968  1.00  0.00    -0.200 OA
HETATM   11  O7  UNL     1      19.472  30.386  16.706  1.00  0.00    -0.200 OA
BRANCH   9  12
HETATM   12  C25 UNL     1      18.080  32.391  15.737  1.00  0.00     0.082 A 
HETATM   13  C26 UNL     1      17.584  33.140  14.667  1.00  0.00     0.028 A 
HETATM   14  C27 UNL     1      16.921  34.335  14.843  1.00  0.00     0.041 A 
HETATM   15  C28 UNL     1      16.751  34.797  16.137  1.00  0.00     0.105 A 
HETATM   16  C29 UNL     1      17.232  34.077  17.224  1.00  0.00     0.106 A 
HETATM   17  O9  UNL     1      16.142  35.938  16.655  1.00  0.00    -0.323 OA
HETATM   18  C30 UNL     1      17.895  32.874  17.007  1.00  0.00     0.065 A 
HETATM   19  O8  UNL     1      16.900  34.804  18.372  1.00  0.00    -0.323 OA
HETATM   20  C31 UNL     1      15.827  35.659  18.024  1.00  0.00     0.352 C 
ENDBRANCH   9  12
ENDBRANCH   4   9
ENDBRANCH   3   4
ENDBRANCH   2   3
BRANCH   2  21
HETATM   21  O1  UNL     1      19.907  27.995  14.012  1.00  0.00    -0.392 OA
ATOM     22  H1  UNL     1      20.419  27.224  14.223  1.00  0.00     0.210 HD
ENDBRANCH   2  21
ENDBRANCH   1   2
BRANCH   1  23
HETATM   23  C8  UNL     1      22.056  28.768  11.232  1.00  0.00     0.066 C 
BRANCH  23  24
HETATM   24  C9  UNL     1      23.181  27.827  11.054  1.00  0.00    -0.056 A 
HETATM   25  C10 UNL     1      23.408  27.242   9.833  1.00  0.00     0.007 A 
HETATM   26  C11 UNL     1      24.451  26.347   9.620  1.00  0.00     0.001 A 
HETATM   27  C12 UNL     1      25.279  26.045  10.670  1.00  0.00     0.000 A 
HETATM   28  C13 UNL     1      25.086  26.609  11.908  1.00  0.00     0.001 A 
HETATM   29  C14 UNL     1      24.030  27.501  12.085  1.00  0.00     0.007 A 
ENDBRANCH  23  24
ENDBRANCH   1  23
BRANCH   1  30
HETATM   30  N2  UNL     1      19.670  28.106  11.119  1.00  0.00    -0.351 N 
HETATM   31  C15 UNL     1      19.247  27.030  10.323  1.00  0.00     0.249 C 
HETATM   32  O2  UNL     1      19.967  26.021  10.250  1.00  0.00    -0.271 OA
ATOM     33  H2  UNL     1      19.053  28.917  11.157  1.00  0.00     0.163 HD
BRANCH  31  34
HETATM   34  C16 UNL     1      17.968  27.057   9.571  1.00  0.00     0.243 C 
HETATM   35  C17 UNL     1      17.279  25.748   9.457  1.00  0.00     0.177 C 
HETATM   36  N3  UNL     1      17.379  25.403   8.058  1.00  0.00    -0.288 N 
HETATM   37  C24 UNL     1      18.148  26.427   7.441  1.00  0.00     0.368 C 
HETATM   38  O4  UNL     1      18.758  26.383   6.350  1.00  0.00    -0.238 OA
HETATM   39  O5  UNL     1      18.135  27.562   8.261  1.00  0.00    -0.287 OA
BRANCH  36  40
HETATM   40  C18 UNL     1      16.842  24.282   7.368  1.00  0.00     0.072 A 
HETATM   41  C19 UNL     1      15.475  24.195   7.217  1.00  0.00     0.033 A 
HETATM   42  C20 UNL     1      14.876  23.123   6.554  1.00  0.00     0.002 A 
HETATM   43  C21 UNL     1      15.670  22.122   6.033  1.00  0.00     0.003 A 
HETATM   44  C22 UNL     1      17.033  22.189   6.172  1.00  0.00     0.039 A 
HETATM   45  C23 UNL     1      17.604  23.266   6.835  1.00  0.00     0.092 A 
BRANCH  45  46
HETATM   46  O3  UNL     1      18.973  23.304   6.957  1.00  0.00    -0.358 OA
ATOM     47  H3  UNL     1      19.484  22.525   6.769  1.00  0.00     0.217 HD
ENDBRANCH  45  46
ENDBRANCH  36  40
ENDBRANCH  31  34
ENDBRANCH   1  30
TORSDOF 14
ENDMDL
