MODEL 3
REMARK VINA RESULT: -8.439026491      1.398      1.749
REMARK  9 active torsions:
REMARK  status: ('A' for Active; 'I' for Inactive)
REMARK    1  A    between atoms: C2_2  and  N1_3 
REMARK    2  A    between atoms: N1_3  and  C3_4 
REMARK    3  A    between atoms: N1_3  and  C17_32 
REMARK    4  A    between atoms: C3_4  and  C4_5 
REMARK    5  A    between atoms: C6_7  and  N2_8 
REMARK    6  A    between atoms: N2_8  and  C7_10 
REMARK    7  A    between atoms: C11_17  and  C12_18 
REMARK    8  A    between atoms: C17_32  and  C20_35 
REMARK    9  A    between atoms: C20_35  and  O1_36 
ROOT
HETATM    1  C7  UNL     1      -8.244  27.669  79.303  1.00  0.00     0.152 A 
HETATM    2  N3  UNL     1      -8.224  27.223  78.043  1.00  0.00    -0.342 N 
ATOM      3  H3  UNL     1      -8.892  26.502  77.771  1.00  0.00     0.167 HD
HETATM    4  C8  UNL     1      -7.365  27.682  77.117  1.00  0.00     0.023 A 
HETATM    5  C9  UNL     1      -7.350  27.183  75.719  1.00  0.00     0.069 C 
HETATM    6  C10 UNL     1      -6.465  28.665  77.516  1.00  0.00     0.123 A 
HETATM    7  N4  UNL     1      -6.429  29.157  78.768  1.00  0.00    -0.301 N 
HETATM    8  C11 UNL     1      -5.662  30.084  79.347  1.00  0.00     0.069 A 
HETATM    9  C15 UNL     1      -6.121  30.144  80.677  1.00  0.00     0.121 A 
HETATM   10  N7  UNL     1      -7.116  29.272  80.816  1.00  0.00    -0.347 N 
ATOM     11  H7  UNL     1      -7.640  29.100  81.675  1.00  0.00     0.167 HD
HETATM   12  C16 UNL     1      -7.315  28.656  79.645  1.00  0.00     0.157 A 
ENDROOT
BRANCH   1  13
HETATM   13  N2  UNL     1      -9.152  27.180  80.271  1.00  0.00    -0.333 N 
ATOM     14  H2  UNL     1     -10.057  27.625  80.424  1.00  0.00     0.168 HD
BRANCH  13  15
HETATM   15  C6  UNL     1      -8.744  26.028  81.027  1.00  0.00     0.094 A 
HETATM   16  C5  UNL     1      -9.332  24.799  81.090  1.00  0.00     0.066 A 
HETATM   17  C4  UNL     1      -8.761  23.870  81.876  1.00  0.00     0.036 A 
HETATM   18  N8  UNL     1      -7.677  24.255  82.512  1.00  0.00    -0.327 N 
HETATM   19  S1  UNL     1      -7.412  25.841  82.072  1.00  0.00     0.004 SA
ATOM     20  H8  UNL     1      -7.110  23.694  83.149  1.00  0.00     0.174 HD
BRANCH  17  21
HETATM   21  C3  UNL     1      -9.304  22.470  82.050  1.00  0.00     0.175 C 
BRANCH  21  22
HETATM   22  N1  UNL     1     -10.569  22.226  81.467  1.00  0.00    -0.397 N 
BRANCH  22  23
HETATM   23  C2  UNL     1     -10.630  21.280  80.405  1.00  0.00     0.113 C 
HETATM   24  C1  UNL     1     -10.240  21.645  79.051  1.00  0.00     0.026 C 
ENDBRANCH  22  23
BRANCH  22  25
HETATM   25  C17 UNL     1     -11.673  22.203  82.402  1.00  0.00     0.042 C 
HETATM   26  C18 UNL     1     -12.686  21.136  82.101  1.00  0.00     0.040 C 
HETATM   27  C19 UNL     1     -12.467  23.526  82.342  1.00  0.00     0.040 C 
BRANCH  25  28
HETATM   28  C20 UNL     1     -11.290  22.078  83.849  1.00  0.00     0.194 C 
BRANCH  28  29
HETATM   29  O1  UNL     1     -11.725  20.780  84.227  1.00  0.00    -0.398 OA
ATOM     30  H1  UNL     1     -12.607  20.907  84.557  1.00  0.00     0.209 HD
ENDBRANCH  28  29
ENDBRANCH  25  28
ENDBRANCH  22  25
ENDBRANCH  21  22
ENDBRANCH  17  21
ENDBRANCH  13  15
ENDBRANCH   1  13
BRANCH   8  31
HETATM   31  C12 UNL     1      -4.579  30.895  78.818  1.00  0.00     0.026 A 
HETATM   32  C13 UNL     1      -3.703  31.632  79.638  1.00  0.00     0.122 A 
HETATM   33  N5  UNL     1      -2.836  32.257  78.846  1.00  0.00    -0.311 N 
HETATM   34  N6  UNL     1      -3.057  32.005  77.592  1.00  0.00    -0.311 N 
ATOM     35  H5  UNL     1      -2.088  32.862  79.184  1.00  0.00     0.186 HD
HETATM   36  C14 UNL     1      -4.142  31.155  77.562  1.00  0.00     0.122 A 
ATOM     37  H6  UNL     1      -2.535  32.364  76.793  1.00  0.00     0.186 HD
ENDBRANCH   8  31
TORSDOF 9
ENDMDL
