MODEL 1
REMARK VINA RESULT: -8.540521717      0.000      0.000
REMARK  9 active torsions:
REMARK  status: ('A' for Active; 'I' for Inactive)
REMARK    1  A    between atoms: C2_2  and  N1_3 
REMARK    2  A    between atoms: N1_3  and  C3_4 
REMARK    3  A    between atoms: N1_3  and  C17_32 
REMARK    4  A    between atoms: C3_4  and  C4_5 
REMARK    5  A    between atoms: C6_7  and  N2_8 
REMARK    6  A    between atoms: N2_8  and  C7_10 
REMARK    7  A    between atoms: C11_17  and  C12_18 
REMARK    8  A    between atoms: C17_32  and  C20_35 
REMARK    9  A    between atoms: C20_35  and  O1_36 
ROOT
HETATM    1  C7  UNL     1      -8.383  27.913  79.522  1.00  0.00     0.152 A 
HETATM    2  N3  UNL     1      -8.387  27.399  78.287  1.00  0.00    -0.342 N 
ATOM      3  H3  UNL     1      -9.087  26.694  78.056  1.00  0.00     0.167 HD
HETATM    4  C8  UNL     1      -7.512  27.768  77.337  1.00  0.00     0.023 A 
HETATM    5  C9  UNL     1      -7.523  27.193  75.968  1.00  0.00     0.069 C 
HETATM    6  C10 UNL     1      -6.567  28.730  77.682  1.00  0.00     0.123 A 
HETATM    7  N4  UNL     1      -6.506  29.288  78.905  1.00  0.00    -0.301 N 
HETATM    8  C11 UNL     1      -5.697  30.211  79.432  1.00  0.00     0.069 A 
HETATM    9  C15 UNL     1      -6.149  30.363  80.757  1.00  0.00     0.121 A 
HETATM   10  N7  UNL     1      -7.181  29.544  80.945  1.00  0.00    -0.347 N 
ATOM     11  H7  UNL     1      -7.709  29.444  81.811  1.00  0.00     0.167 HD
HETATM   12  C16 UNL     1      -7.411  28.875  79.809  1.00  0.00     0.157 A 
ENDROOT
BRANCH   1  13
HETATM   13  N2  UNL     1      -9.309  27.518  80.515  1.00  0.00    -0.333 N 
ATOM     14  H2  UNL     1     -10.183  28.024  80.659  1.00  0.00     0.168 HD
BRANCH  13  15
HETATM   15  C6  UNL     1      -8.965  26.372  81.311  1.00  0.00     0.094 A 
HETATM   16  C5  UNL     1      -9.499  25.117  81.273  1.00  0.00     0.066 A 
HETATM   17  C4  UNL     1      -9.008  24.200  82.125  1.00  0.00     0.036 A 
HETATM   18  N8  UNL     1      -8.049  24.621  82.918  1.00  0.00    -0.327 N 
HETATM   19  S1  UNL     1      -7.794  26.225  82.540  1.00  0.00     0.004 SA
ATOM     20  H8  UNL     1      -7.557  24.075  83.626  1.00  0.00     0.174 HD
BRANCH  17  21
HETATM   21  C3  UNL     1      -9.506  22.775  82.200  1.00  0.00     0.175 C 
BRANCH  21  22
HETATM   22  N1  UNL     1      -9.667  22.115  80.959  1.00  0.00    -0.397 N 
BRANCH  22  23
HETATM   23  C2  UNL     1      -8.666  21.175  80.584  1.00  0.00     0.113 C 
HETATM   24  C1  UNL     1      -7.461  21.599  79.888  1.00  0.00     0.026 C 
ENDBRANCH  22  23
BRANCH  22  25
HETATM   25  C17 UNL     1     -11.030  21.755  80.637  1.00  0.00     0.042 C 
HETATM   26  C18 UNL     1     -11.867  21.447  81.845  1.00  0.00     0.040 C 
HETATM   27  C19 UNL     1     -11.068  20.461  79.794  1.00  0.00     0.040 C 
BRANCH  25  28
HETATM   28  C20 UNL     1     -11.780  22.751  79.800  1.00  0.00     0.194 C 
BRANCH  28  29
HETATM   29  O1  UNL     1     -10.900  23.057  78.727  1.00  0.00    -0.398 OA
ATOM     30  H1  UNL     1     -11.400  22.865  77.942  1.00  0.00     0.209 HD
ENDBRANCH  28  29
ENDBRANCH  25  28
ENDBRANCH  22  25
ENDBRANCH  21  22
ENDBRANCH  17  21
ENDBRANCH  13  15
ENDBRANCH   1  13
BRANCH   8  31
HETATM   31  C12 UNL     1      -4.581  30.943  78.859  1.00  0.00     0.026 A 
HETATM   32  C13 UNL     1      -3.673  31.688  79.636  1.00  0.00     0.122 A 
HETATM   33  N5  UNL     1      -2.782  32.229  78.811  1.00  0.00    -0.311 N 
HETATM   34  N6  UNL     1      -3.014  31.915  77.573  1.00  0.00    -0.311 N 
ATOM     35  H5  UNL     1      -2.008  32.820  79.115  1.00  0.00     0.186 HD
HETATM   36  C14 UNL     1      -4.134  31.111  77.590  1.00  0.00     0.122 A 
ATOM     37  H6  UNL     1      -2.478  32.204  76.755  1.00  0.00     0.186 HD
ENDBRANCH   8  31
TORSDOF 9
ENDMDL
