MODEL 2
REMARK VINA RESULT: -8.446181739      0.932      1.477
REMARK  9 active torsions:
REMARK  status: ('A' for Active; 'I' for Inactive)
REMARK    1  A    between atoms: C2_2  and  N1_3 
REMARK    2  A    between atoms: N1_3  and  C3_4 
REMARK    3  A    between atoms: N1_3  and  C17_32 
REMARK    4  A    between atoms: C3_4  and  C4_5 
REMARK    5  A    between atoms: C6_7  and  N2_8 
REMARK    6  A    between atoms: N2_8  and  C7_10 
REMARK    7  A    between atoms: C11_17  and  C12_18 
REMARK    8  A    between atoms: C17_32  and  C20_35 
REMARK    9  A    between atoms: C20_35  and  O1_36 
ROOT
HETATM    1  C7  UNL     1      -8.243  27.626  79.207  1.00  0.00     0.152 A 
HETATM    2  N3  UNL     1      -8.218  27.230  77.930  1.00  0.00    -0.342 N 
ATOM      3  H3  UNL     1      -8.882  26.518  77.629  1.00  0.00     0.167 HD
HETATM    4  C8  UNL     1      -7.359  27.727  77.025  1.00  0.00     0.023 A 
HETATM    5  C9  UNL     1      -7.338  27.283  75.609  1.00  0.00     0.069 C 
HETATM    6  C10 UNL     1      -6.463  28.698  77.465  1.00  0.00     0.123 A 
HETATM    7  N4  UNL     1      -6.433  29.141  78.735  1.00  0.00    -0.301 N 
HETATM    8  C11 UNL     1      -5.670  30.048  79.352  1.00  0.00     0.069 A 
HETATM    9  C15 UNL     1      -6.133  30.055  80.681  1.00  0.00     0.121 A 
HETATM   10  N7  UNL     1      -7.125  29.173  80.784  1.00  0.00    -0.347 N 
ATOM     11  H7  UNL     1      -7.650  28.967  81.634  1.00  0.00     0.167 HD
HETATM   12  C16 UNL     1      -7.319  28.603  79.590  1.00  0.00     0.157 A 
ENDROOT
BRANCH   1  13
HETATM   13  N2  UNL     1      -9.152  27.097  80.152  1.00  0.00    -0.333 N 
ATOM     14  H2  UNL     1      -9.968  27.625  80.459  1.00  0.00     0.168 HD
BRANCH  13  15
HETATM   15  C6  UNL     1      -8.874  25.781  80.660  1.00  0.00     0.094 A 
HETATM   16  C5  UNL     1      -9.397  24.586  80.259  1.00  0.00     0.066 A 
HETATM   17  C4  UNL     1      -8.979  23.475  80.891  1.00  0.00     0.036 A 
HETATM   18  N8  UNL     1      -8.096  23.665  81.846  1.00  0.00    -0.327 N 
HETATM   19  S1  UNL     1      -7.817  25.307  81.909  1.00  0.00     0.004 SA
ATOM     20  H8  UNL     1      -7.667  22.949  82.432  1.00  0.00     0.174 HD
BRANCH  17  21
HETATM   21  C3  UNL     1      -9.475  22.086  80.560  1.00  0.00     0.175 C 
BRANCH  21  22
HETATM   22  N1  UNL     1     -10.832  21.830  80.868  1.00  0.00    -0.397 N 
BRANCH  22  23
HETATM   23  C2  UNL     1     -11.403  22.547  81.957  1.00  0.00     0.113 C 
HETATM   24  C1  UNL     1     -11.601  21.912  83.252  1.00  0.00     0.026 C 
ENDBRANCH  22  23
BRANCH  22  25
HETATM   25  C17 UNL     1     -11.688  21.636  79.718  1.00  0.00     0.042 C 
HETATM   26  C18 UNL     1     -12.583  20.437  79.837  1.00  0.00     0.040 C 
HETATM   27  C19 UNL     1     -10.846  21.373  78.449  1.00  0.00     0.040 C 
BRANCH  25  28
HETATM   28  C20 UNL     1     -12.543  22.813  79.343  1.00  0.00     0.194 C 
BRANCH  28  29
HETATM   29  O1  UNL     1     -11.985  23.292  78.127  1.00  0.00    -0.398 OA
ATOM     30  H1  UNL     1     -12.426  24.118  77.968  1.00  0.00     0.209 HD
ENDBRANCH  28  29
ENDBRANCH  25  28
ENDBRANCH  22  25
ENDBRANCH  21  22
ENDBRANCH  17  21
ENDBRANCH  13  15
ENDBRANCH   1  13
BRANCH   8  31
HETATM   31  C12 UNL     1      -4.589  30.883  78.857  1.00  0.00     0.026 A 
HETATM   32  C13 UNL     1      -3.741  31.620  79.707  1.00  0.00     0.122 A 
HETATM   33  N5  UNL     1      -2.868  32.270  78.943  1.00  0.00    -0.311 N 
HETATM   34  N6  UNL     1      -3.060  32.035  77.680  1.00  0.00    -0.311 N 
ATOM     35  H5  UNL     1      -2.136  32.881  79.305  1.00  0.00     0.186 HD
HETATM   36  C14 UNL     1      -4.131  31.169  77.615  1.00  0.00     0.122 A 
ATOM     37  H6  UNL     1      -2.527  32.414  76.897  1.00  0.00     0.186 HD
ENDBRANCH   8  31
TORSDOF 9
ENDMDL
