MODEL 4
REMARK VINA RESULT: -8.635236278      3.626      6.593
REMARK  6 active torsions:
REMARK  status: ('A' for Active; 'I' for Inactive)
REMARK    1  A    between atoms: N1_1  and  S1_4 
REMARK    2  A    between atoms: S1_4  and  C1_7 
REMARK    3  A    between atoms: C3_9  and  C4_10 
REMARK    4  A    between atoms: C4_10  and  C5_12 
REMARK    5  A    between atoms: C5_12  and  S2_13 
REMARK    6  A    between atoms: S2_13  and  C6_14 
ROOT
HETATM    1  S2  UNL     1      -2.325   3.346  10.224  1.00  0.00    -0.086 SA
ENDROOT
BRANCH   1   2
HETATM    2  C5  UNL     1      -3.935   3.185  11.036  1.00  0.00     0.166 C 
BRANCH   2   3
HETATM    3  C4  UNL     1      -3.889   2.484  12.318  1.00  0.00     0.169 C 
HETATM    4  O3  UNL     1      -3.174   1.416  12.373  1.00  0.00    -0.291 OA
BRANCH   3   5
HETATM    5  C3  UNL     1      -4.581   2.902  13.521  1.00  0.00     0.012 A 
HETATM    6  C2  UNL     1      -4.932   1.959  14.478  1.00  0.00     0.042 A 
HETATM    7  C1  UNL     1      -5.572   2.306  15.638  1.00  0.00     0.101 A 
HETATM    8  C18 UNL     1      -5.872   3.635  15.848  1.00  0.00     0.057 A 
HETATM    9  C17 UNL     1      -5.534   4.594  14.908  1.00  0.00     0.026 A 
HETATM   10 CL1  UNL     1      -6.694   4.050  17.353  1.00  0.00    -0.083 Cl
HETATM   11  C16 UNL     1      -4.893   4.237  13.749  1.00  0.00     0.017 A 
BRANCH   7  12
HETATM   12  S1  UNL     1      -5.981   1.054  16.788  1.00  0.00     0.258 S 
HETATM   13  O1  UNL     1      -5.387   1.428  18.114  1.00  0.00    -0.201 OA
HETATM   14  O2  UNL     1      -5.460  -0.274  16.309  1.00  0.00    -0.201 OA
BRANCH  12  15
HETATM   15  N1  UNL     1      -7.688   0.991  16.939  1.00  0.00    -0.324 N 
ATOM     16  H12 UNL     1      -8.189   0.482  17.667  1.00  0.00     0.169 HD
ATOM     17  H11 UNL     1      -8.108   1.541  16.190  1.00  0.00     0.169 HD
ENDBRANCH  12  15
ENDBRANCH   7  12
ENDBRANCH   3   5
ENDBRANCH   2   3
ENDBRANCH   1   2
BRANCH   1  18
HETATM   18  C6  UNL     1      -1.510   4.775  10.919  1.00  0.00     0.145 A 
HETATM   19  N2  UNL     1      -0.424   5.438  10.510  1.00  0.00    -0.334 N 
HETATM   20  C7  UNL     1      -0.148   6.457  11.342  1.00  0.00     0.077 A 
ATOM     21  H2  UNL     1       0.120   5.204   9.680  1.00  0.00     0.168 HD
HETATM   22  C8  UNL     1       0.836   7.412  11.365  1.00  0.00     0.120 A 
HETATM   23  C15 UNL     1      -1.099   6.448  12.331  1.00  0.00     0.075 A 
HETATM   24  N3  UNL     1       0.890   8.357  12.353  1.00  0.00    -0.363 N 
HETATM   25  C9  UNL     1      -0.046   8.364  13.344  1.00  0.00     0.044 A 
ATOM     26  H3  UNL     1       1.631   9.057  12.349  1.00  0.00     0.165 HD
HETATM   27  C10 UNL     1       0.003   9.333  14.355  1.00  0.00     0.030 A 
HETATM   28  C14 UNL     1      -1.024   7.408  13.313  1.00  0.00     0.020 A 
HETATM   29  C11 UNL     1      -0.955   9.327  15.346  1.00  0.00     0.002 A 
HETATM   30  C12 UNL     1      -1.930   8.349  15.288  1.00  0.00     0.001 A 
HETATM   31  C13 UNL     1      -1.981   7.399  14.299  1.00  0.00     0.016 A 
HETATM   32  N4  UNL     1      -1.920   5.415  12.054  1.00  0.00    -0.334 N 
ATOM     33  H4  UNL     1      -2.732   5.150  12.611  1.00  0.00     0.168 HD
ENDBRANCH   1  18
TORSDOF 6
ENDMDL
