MODEL 2
REMARK VINA RESULT: -8.802039511      2.771      3.974
REMARK  6 active torsions:
REMARK  status: ('A' for Active; 'I' for Inactive)
REMARK    1  A    between atoms: N1_1  and  S1_4 
REMARK    2  A    between atoms: S1_4  and  C1_7 
REMARK    3  A    between atoms: C3_9  and  C4_10 
REMARK    4  A    between atoms: C4_10  and  C5_12 
REMARK    5  A    between atoms: C5_12  and  S2_13 
REMARK    6  A    between atoms: S2_13  and  C6_14 
ROOT
HETATM    1  S2  UNL     1      -3.409   0.587  10.998  1.00  0.00    -0.086 SA
ENDROOT
BRANCH   1   2
HETATM    2  C5  UNL     1      -1.621   0.865  11.000  1.00  0.00     0.166 C 
BRANCH   2   3
HETATM    3  C4  UNL     1      -1.236   2.275  11.022  1.00  0.00     0.169 C 
HETATM    4  O3  UNL     1      -0.641   2.701  12.080  1.00  0.00    -0.291 OA
BRANCH   3   5
HETATM    5  C3  UNL     1      -1.473   3.220   9.948  1.00  0.00     0.012 A 
HETATM    6  C2  UNL     1      -2.576   4.063  10.002  1.00  0.00     0.042 A 
HETATM    7  C1  UNL     1      -2.834   4.983   9.021  1.00  0.00     0.101 A 
HETATM    8  C18 UNL     1      -1.966   5.063   7.954  1.00  0.00     0.057 A 
HETATM    9  C17 UNL     1      -0.860   4.233   7.877  1.00  0.00     0.026 A 
HETATM   10 CL1  UNL     1      -2.324   6.260   6.708  1.00  0.00    -0.083 Cl
HETATM   11  C16 UNL     1      -0.609   3.314   8.864  1.00  0.00     0.017 A 
BRANCH   7  12
HETATM   12  S1  UNL     1      -4.247   6.002   9.165  1.00  0.00     0.258 S 
HETATM   13  O1  UNL     1      -5.112   5.446  10.258  1.00  0.00    -0.201 OA
HETATM   14  O2  UNL     1      -4.983   6.048   7.853  1.00  0.00    -0.201 OA
BRANCH  12  15
HETATM   15  N1  UNL     1      -3.737   7.580   9.605  1.00  0.00    -0.324 N 
ATOM     16  H12 UNL     1      -4.269   8.432   9.429  1.00  0.00     0.169 HD
ATOM     17  H11 UNL     1      -2.829   7.519  10.064  1.00  0.00     0.169 HD
ENDBRANCH  12  15
ENDBRANCH   7  12
ENDBRANCH   3   5
ENDBRANCH   2   3
ENDBRANCH   1   2
BRANCH   1  18
HETATM   18  C6  UNL     1      -4.109   1.556  12.325  1.00  0.00     0.145 A 
HETATM   19  N2  UNL     1      -4.451   2.847  12.368  1.00  0.00    -0.334 N 
HETATM   20  C7  UNL     1      -4.934   3.169  13.580  1.00  0.00     0.077 A 
ATOM     21  H2  UNL     1      -4.359   3.498  11.589  1.00  0.00     0.168 HD
HETATM   22  C8  UNL     1      -5.409   4.337  14.124  1.00  0.00     0.120 A 
HETATM   23  C15 UNL     1      -4.901   2.035  14.350  1.00  0.00     0.075 A 
HETATM   24  N3  UNL     1      -5.850   4.393  15.417  1.00  0.00    -0.363 N 
HETATM   25  C9  UNL     1      -5.824   3.276  16.198  1.00  0.00     0.044 A 
ATOM     26  H3  UNL     1      -6.198   5.273  15.798  1.00  0.00     0.165 HD
HETATM   27  C10 UNL     1      -6.279   3.330  17.522  1.00  0.00     0.030 A 
HETATM   28  C14 UNL     1      -5.351   2.117  15.648  1.00  0.00     0.020 A 
HETATM   29  C11 UNL     1      -6.250   2.189  18.295  1.00  0.00     0.002 A 
HETATM   30  C12 UNL     1      -5.766   1.033  17.712  1.00  0.00     0.001 A 
HETATM   31  C13 UNL     1      -5.320   0.978  16.416  1.00  0.00     0.016 A 
HETATM   32  N4  UNL     1      -4.395   1.062  13.566  1.00  0.00    -0.334 N 
ATOM     33  H4  UNL     1      -4.248   0.096  13.857  1.00  0.00     0.168 HD
ENDBRANCH   1  18
TORSDOF 6
ENDMDL
