MODEL 1
REMARK VINA RESULT: -9.161417580      0.000      0.000
REMARK  6 active torsions:
REMARK  status: ('A' for Active; 'I' for Inactive)
REMARK    1  A    between atoms: N1_1  and  S1_4 
REMARK    2  A    between atoms: S1_4  and  C1_7 
REMARK    3  A    between atoms: C3_9  and  C4_10 
REMARK    4  A    between atoms: C4_10  and  C5_12 
REMARK    5  A    between atoms: C5_12  and  S2_13 
REMARK    6  A    between atoms: S2_13  and  C6_14 
ROOT
HETATM    1  S2  UNL     1      -1.389   5.426  13.249  1.00  0.00    -0.086 SA
ENDROOT
BRANCH   1   2
HETATM    2  C5  UNL     1      -1.917   6.251  11.727  1.00  0.00     0.166 C 
BRANCH   2   3
HETATM    3  C4  UNL     1      -2.088   5.349  10.588  1.00  0.00     0.169 C 
HETATM    4  O3  UNL     1      -2.303   5.892   9.442  1.00  0.00    -0.291 OA
BRANCH   3   5
HETATM    5  C3  UNL     1      -2.033   3.902  10.656  1.00  0.00     0.012 A 
HETATM    6  C2  UNL     1      -3.163   3.185  11.026  1.00  0.00     0.042 A 
HETATM    7  C1  UNL     1      -3.166   1.817  11.088  1.00  0.00     0.101 A 
HETATM    8  C18 UNL     1      -2.004   1.145  10.774  1.00  0.00     0.057 A 
HETATM    9  C17 UNL     1      -0.864   1.838  10.404  1.00  0.00     0.026 A 
HETATM   10 CL1  UNL     1      -2.041  -0.617  10.862  1.00  0.00    -0.083 Cl
HETATM   11  C16 UNL     1      -0.870   3.208  10.344  1.00  0.00     0.017 A 
BRANCH   7  12
HETATM   12  S1  UNL     1      -4.631   0.993  11.567  1.00  0.00     0.258 S 
HETATM   13  O1  UNL     1      -5.654   2.032  11.925  1.00  0.00    -0.201 OA
HETATM   14  O2  UNL     1      -4.350   0.078  12.728  1.00  0.00    -0.201 OA
BRANCH  12  15
HETATM   15  N1  UNL     1      -5.205   0.083  10.231  1.00  0.00    -0.324 N 
ATOM     16  H12 UNL     1      -5.615   0.483   9.388  1.00  0.00     0.169 HD
ATOM     17  H11 UNL     1      -5.067  -0.909  10.422  1.00  0.00     0.169 HD
ENDBRANCH  12  15
ENDBRANCH   7  12
ENDBRANCH   3   5
ENDBRANCH   2   3
ENDBRANCH   1   2
BRANCH   1  18
HETATM   18  C6  UNL     1      -2.860   4.973  14.156  1.00  0.00     0.145 A 
HETATM   19  N2  UNL     1      -3.893   5.718  14.561  1.00  0.00    -0.334 N 
HETATM   20  C7  UNL     1      -4.786   4.968  15.228  1.00  0.00     0.077 A 
ATOM     21  H2  UNL     1      -3.990   6.718  14.388  1.00  0.00     0.168 HD
HETATM   22  C8  UNL     1      -5.985   5.250  15.834  1.00  0.00     0.120 A 
HETATM   23  C15 UNL     1      -4.307   3.684  15.253  1.00  0.00     0.075 A 
HETATM   24  N3  UNL     1      -6.713   4.277  16.462  1.00  0.00    -0.363 N 
HETATM   25  C9  UNL     1      -6.252   2.994  16.497  1.00  0.00     0.044 A 
ATOM     26  H3  UNL     1      -7.601   4.511  16.904  1.00  0.00     0.165 HD
HETATM   27  C10 UNL     1      -6.997   1.994  17.135  1.00  0.00     0.030 A 
HETATM   28  C14 UNL     1      -5.057   2.722  15.890  1.00  0.00     0.020 A 
HETATM   29  C11 UNL     1      -6.518   0.702  17.156  1.00  0.00     0.002 A 
HETATM   30  C12 UNL     1      -5.307   0.457  16.536  1.00  0.00     0.001 A 
HETATM   31  C13 UNL     1      -4.576   1.435  15.910  1.00  0.00     0.016 A 
HETATM   32  N4  UNL     1      -3.131   3.707  14.593  1.00  0.00    -0.334 N 
ATOM     33  H4  UNL     1      -2.531   2.897  14.441  1.00  0.00     0.168 HD
ENDBRANCH   1  18
TORSDOF 6
ENDMDL
