MODEL 3
REMARK VINA RESULT: -8.681933151      2.707      4.232
REMARK  6 active torsions:
REMARK  status: ('A' for Active; 'I' for Inactive)
REMARK    1  A    between atoms: N1_1  and  S1_4 
REMARK    2  A    between atoms: S1_4  and  C1_7 
REMARK    3  A    between atoms: C3_9  and  C4_10 
REMARK    4  A    between atoms: C4_10  and  C5_12 
REMARK    5  A    between atoms: C5_12  and  S2_13 
REMARK    6  A    between atoms: S2_13  and  C6_14 
ROOT
HETATM    1  S2  UNL     1      -3.221   1.109  11.004  1.00  0.00    -0.086 SA
ENDROOT
BRANCH   1   2
HETATM    2  C5  UNL     1      -1.438   1.400  11.108  1.00  0.00     0.166 C 
BRANCH   2   3
HETATM    3  C4  UNL     1      -0.970   2.531  10.309  1.00  0.00     0.169 C 
HETATM    4  O3  UNL     1      -0.927   2.367   9.034  1.00  0.00    -0.291 OA
BRANCH   3   5
HETATM    5  C3  UNL     1      -0.556   3.814  10.844  1.00  0.00     0.012 A 
HETATM    6  C2  UNL     1      -1.511   4.702  11.322  1.00  0.00     0.042 A 
HETATM    7  C1  UNL     1      -1.170   5.917  11.852  1.00  0.00     0.101 A 
HETATM    8  C18 UNL     1       0.164   6.257  11.906  1.00  0.00     0.057 A 
HETATM    9  C17 UNL     1       1.135   5.389  11.435  1.00  0.00     0.026 A 
HETATM   10 CL1  UNL     1       0.572   7.828  12.597  1.00  0.00    -0.083 Cl
HETATM   11  C16 UNL     1       0.784   4.174  10.905  1.00  0.00     0.017 A 
BRANCH   7  12
HETATM   12  S1  UNL     1      -2.436   6.977  12.427  1.00  0.00     0.258 S 
HETATM   13  O1  UNL     1      -3.756   6.393  12.015  1.00  0.00    -0.201 OA
HETATM   14  O2  UNL     1      -2.248   8.358  11.860  1.00  0.00    -0.201 OA
BRANCH  12  15
HETATM   15  N1  UNL     1      -2.362   7.034  14.140  1.00  0.00    -0.324 N 
ATOM     16  H12 UNL     1      -3.168   7.156  14.752  1.00  0.00     0.169 HD
ATOM     17  H11 UNL     1      -1.392   6.927  14.434  1.00  0.00     0.169 HD
ENDBRANCH  12  15
ENDBRANCH   7  12
ENDBRANCH   3   5
ENDBRANCH   2   3
ENDBRANCH   1   2
BRANCH   1  18
HETATM   18  C6  UNL     1      -3.990   1.971  12.367  1.00  0.00     0.145 A 
HETATM   19  N2  UNL     1      -4.370   3.247  12.482  1.00  0.00    -0.334 N 
HETATM   20  C7  UNL     1      -4.900   3.476  13.695  1.00  0.00     0.077 A 
ATOM     21  H2  UNL     1      -4.272   3.950  11.750  1.00  0.00     0.168 HD
HETATM   22  C8  UNL     1      -5.425   4.592  14.296  1.00  0.00     0.120 A 
HETATM   23  C15 UNL     1      -4.859   2.295  14.391  1.00  0.00     0.075 A 
HETATM   24  N3  UNL     1      -5.908   4.553  15.576  1.00  0.00    -0.363 N 
HETATM   25  C9  UNL     1      -5.875   3.388  16.283  1.00  0.00     0.044 A 
ATOM     26  H3  UNL     1      -6.293   5.396  16.001  1.00  0.00     0.165 HD
HETATM   27  C10 UNL     1      -6.373   3.343  17.592  1.00  0.00     0.030 A 
HETATM   28  C14 UNL     1      -5.351   2.280  15.676  1.00  0.00     0.020 A 
HETATM   29  C11 UNL     1      -6.336   2.155  18.290  1.00  0.00     0.002 A 
HETATM   30  C12 UNL     1      -5.801   1.052  17.651  1.00  0.00     0.001 A 
HETATM   31  C13 UNL     1      -5.312   1.094  16.369  1.00  0.00     0.016 A 
HETATM   32  N4  UNL     1      -4.301   1.389  13.563  1.00  0.00    -0.334 N 
ATOM     33  H4  UNL     1      -4.135   0.410  13.796  1.00  0.00     0.168 HD
ENDBRANCH   1  18
TORSDOF 6
ENDMDL
