MODEL 9
REMARK VINA RESULT: -8.495567096      3.517      6.611
REMARK  6 active torsions:
REMARK  status: ('A' for Active; 'I' for Inactive)
REMARK    1  A    between atoms: N1_1  and  S1_4 
REMARK    2  A    between atoms: S1_4  and  C1_7 
REMARK    3  A    between atoms: C3_9  and  C4_10 
REMARK    4  A    between atoms: C4_10  and  C5_12 
REMARK    5  A    between atoms: C5_12  and  S2_13 
REMARK    6  A    between atoms: S2_13  and  C6_14 
ROOT
HETATM    1  S2  UNL     1      -1.554   2.119  11.293  1.00  0.00    -0.086 SA
ENDROOT
BRANCH   1   2
HETATM    2  C5  UNL     1      -3.364   2.165  11.256  1.00  0.00     0.166 C 
BRANCH   2   3
HETATM    3  C4  UNL     1      -4.001   1.488  12.386  1.00  0.00     0.169 C 
HETATM    4  O3  UNL     1      -3.966   0.203  12.390  1.00  0.00    -0.291 OA
BRANCH   3   5
HETATM    5  C3  UNL     1      -4.661   2.155  13.490  1.00  0.00     0.012 A 
HETATM    6  C2  UNL     1      -5.109   1.413  14.576  1.00  0.00     0.042 A 
HETATM    7  C1  UNL     1      -5.722   1.999  15.651  1.00  0.00     0.101 A 
HETATM    8  C18 UNL     1      -5.896   3.366  15.642  1.00  0.00     0.057 A 
HETATM    9  C17 UNL     1      -5.460   4.127  14.570  1.00  0.00     0.026 A 
HETATM   10 CL1  UNL     1      -6.688   4.090  17.042  1.00  0.00    -0.083 Cl
HETATM   11  C16 UNL     1      -4.846   3.533  13.498  1.00  0.00     0.017 A 
BRANCH   7  12
HETATM   12  S1  UNL     1      -6.259   0.989  16.974  1.00  0.00     0.258 S 
HETATM   13  O1  UNL     1      -5.584  -0.345  16.846  1.00  0.00    -0.201 OA
HETATM   14  O2  UNL     1      -7.757   0.851  16.940  1.00  0.00    -0.201 OA
BRANCH  12  15
HETATM   15  N1  UNL     1      -5.774   1.721  18.448  1.00  0.00    -0.324 N 
ATOM     16  H12 UNL     1      -4.824   1.708  18.818  1.00  0.00     0.169 HD
ATOM     17  H11 UNL     1      -6.584   2.163  18.881  1.00  0.00     0.169 HD
ENDBRANCH  12  15
ENDBRANCH   7  12
ENDBRANCH   3   5
ENDBRANCH   2   3
ENDBRANCH   1   2
BRANCH   1  18
HETATM   18  C6  UNL     1      -0.979   3.772  11.650  1.00  0.00     0.145 A 
HETATM   19  N2  UNL     1       0.017   4.479  11.108  1.00  0.00    -0.334 N 
HETATM   20  C7  UNL     1       0.111   5.687  11.687  1.00  0.00     0.077 A 
ATOM     21  H2  UNL     1       0.623   4.147  10.357  1.00  0.00     0.168 HD
HETATM   22  C8  UNL     1       0.949   6.758  11.498  1.00  0.00     0.120 A 
HETATM   23  C15 UNL     1      -0.868   5.761  12.644  1.00  0.00     0.075 A 
HETATM   24  N3  UNL     1       0.827   7.898  12.245  1.00  0.00    -0.363 N 
HETATM   25  C9  UNL     1      -0.140   7.990  13.201  1.00  0.00     0.044 A 
ATOM     26  H3  UNL     1       1.461   8.681  12.086  1.00  0.00     0.165 HD
HETATM   27  C10 UNL     1      -0.270   9.158  13.964  1.00  0.00     0.030 A 
HETATM   28  C14 UNL     1      -0.971   6.918  13.382  1.00  0.00     0.020 A 
HETATM   29  C11 UNL     1      -1.257   9.234  14.923  1.00  0.00     0.002 A 
HETATM   30  C12 UNL     1      -2.081   8.135  15.083  1.00  0.00     0.001 A 
HETATM   31  C13 UNL     1      -1.956   6.990  14.337  1.00  0.00     0.016 A 
HETATM   32  N4  UNL     1      -1.523   4.583  12.605  1.00  0.00    -0.334 N 
ATOM     33  H4  UNL     1      -2.311   4.333  13.203  1.00  0.00     0.168 HD
ENDBRANCH   1  18
TORSDOF 6
ENDMDL
