MODEL 2
REMARK VINA RESULT: -7.476106304      0.078      1.259
REMARK  10 active torsions:
REMARK  status: ('A' for Active; 'I' for Inactive)
REMARK    1  A    between atoms: N1_2  and  C3_4 
REMARK    2  A    between atoms: C6_7  and  C7_8 
REMARK       I    between atoms: C7_8  and  N2_10 
REMARK    3  A    between atoms: N2_10  and  C8_12 
REMARK    4  A    between atoms: C8_12  and  C9_13 
REMARK    5  A    between atoms: C9_13  and  C10_14 
REMARK    6  A    between atoms: C10_14  and  C11_15 
REMARK    7  A    between atoms: C11_15  and  C12_16 
REMARK    8  A    between atoms: C12_16  and  C13_17 
REMARK    9  A    between atoms: C13_17  and  C14_18 
REMARK       I    between atoms: C14_18  and  N3_20 
REMARK   10  A    between atoms: N3_20  and  O3_22 
ROOT
HETATM    1  C7  UNL     1      -0.733  39.861   1.362  1.00  0.00     0.251 C 
HETATM    2  O1  UNL     1      -0.633  38.611   1.367  1.00  0.00    -0.268 OA
HETATM    3  N2  UNL     1       0.153  40.689   2.061  1.00  0.00    -0.357 N 
ATOM      4  H2  UNL     1       0.025  41.701   2.027  1.00  0.00     0.162 HD
ENDROOT
BRANCH   3   5
HETATM    5  C8  UNL     1       1.242  40.140   2.830  1.00  0.00     0.123 C 
BRANCH   5   6
HETATM    6  C9  UNL     1       2.341  39.682   1.907  1.00  0.00     0.020 C 
BRANCH   6   7
HETATM    7  C10 UNL     1       2.902  38.398   2.481  1.00  0.00     0.002 C 
BRANCH   7   8
HETATM    8  C11 UNL     1       2.548  37.189   1.657  1.00  0.00     0.001 C 
BRANCH   8   9
HETATM    9  C12 UNL     1       1.965  36.074   2.443  1.00  0.00     0.009 C 
BRANCH   9  10
HETATM   10  C13 UNL     1       2.934  35.133   3.066  1.00  0.00     0.105 C 
BRANCH  10  11
HETATM   11  C14 UNL     1       2.995  33.806   2.408  1.00  0.00     0.240 C 
HETATM   12  O2  UNL     1       2.516  33.679   1.252  1.00  0.00    -0.271 OA
HETATM   13  N3  UNL     1       3.558  32.667   3.002  1.00  0.00    -0.237 N 
ATOM     14  H3  UNL     1       4.240  32.812   3.746  1.00  0.00     0.197 HD
BRANCH  13  15
HETATM   15  O3  UNL     1       3.293  31.512   2.695  1.00  0.00    -0.287 OA
ATOM     16  H3  UNL     1       3.817  30.754   2.924  1.00  0.00     0.244 HD
ENDBRANCH  13  15
ENDBRANCH  10  11
ENDBRANCH   9  10
ENDBRANCH   8   9
ENDBRANCH   7   8
ENDBRANCH   6   7
ENDBRANCH   5   6
ENDBRANCH   3   5
BRANCH   1  17
HETATM   17  C6  UNL     1      -1.831  40.447   0.585  1.00  0.00     0.032 A 
HETATM   18  C5  UNL     1      -3.134  40.485   1.011  1.00  0.00     0.019 A 
HETATM   19  C4  UNL     1      -4.119  41.067   0.213  1.00  0.00     0.030 A 
HETATM   20  C3  UNL     1      -3.833  41.617  -1.005  1.00  0.00     0.029 A 
HETATM   21  C16 UNL     1      -2.530  41.587  -1.447  1.00  0.00     0.030 A 
HETATM   22  C15 UNL     1      -1.557  41.014  -0.665  1.00  0.00     0.019 A 
BRANCH  20  23
HETATM   23  N1  UNL     1      -4.855  42.201  -1.794  1.00  0.00    -0.390 N 
HETATM   24  C1  UNL     1      -6.228  42.320  -1.320  1.00  0.00     0.149 C 
HETATM   25  C2  UNL     1      -4.527  42.699  -3.116  1.00  0.00     0.149 C 
ENDBRANCH  20  23
ENDBRANCH   1  17
TORSDOF 10
ENDMDL
