MODEL 1
REMARK VINA RESULT: -7.527873059      0.000      0.000
REMARK  10 active torsions:
REMARK  status: ('A' for Active; 'I' for Inactive)
REMARK    1  A    between atoms: N1_2  and  C3_4 
REMARK    2  A    between atoms: C6_7  and  C7_8 
REMARK       I    between atoms: C7_8  and  N2_10 
REMARK    3  A    between atoms: N2_10  and  C8_12 
REMARK    4  A    between atoms: C8_12  and  C9_13 
REMARK    5  A    between atoms: C9_13  and  C10_14 
REMARK    6  A    between atoms: C10_14  and  C11_15 
REMARK    7  A    between atoms: C11_15  and  C12_16 
REMARK    8  A    between atoms: C12_16  and  C13_17 
REMARK    9  A    between atoms: C13_17  and  C14_18 
REMARK       I    between atoms: C14_18  and  N3_20 
REMARK   10  A    between atoms: N3_20  and  O3_22 
ROOT
HETATM    1  C7  UNL     1      -0.732  39.873   1.281  1.00  0.00     0.251 C 
HETATM    2  O1  UNL     1      -0.688  38.620   1.313  1.00  0.00    -0.268 OA
HETATM    3  N2  UNL     1       0.160  40.674   2.005  1.00  0.00    -0.357 N 
ATOM      4  H2  UNL     1       0.080  41.690   1.947  1.00  0.00     0.162 HD
ENDROOT
BRANCH   3   5
HETATM    5  C8  UNL     1       1.188  40.093   2.829  1.00  0.00     0.123 C 
BRANCH   5   6
HETATM    6  C9  UNL     1       2.365  39.695   1.977  1.00  0.00     0.020 C 
BRANCH   6   7
HETATM    7  C10 UNL     1       2.898  38.390   2.531  1.00  0.00     0.002 C 
BRANCH   7   8
HETATM    8  C11 UNL     1       2.533  37.204   1.679  1.00  0.00     0.001 C 
BRANCH   8   9
HETATM    9  C12 UNL     1       1.941  36.076   2.439  1.00  0.00     0.009 C 
BRANCH   9  10
HETATM   10  C13 UNL     1       2.903  35.133   3.069  1.00  0.00     0.105 C 
BRANCH  10  11
HETATM   11  C14 UNL     1       2.966  33.806   2.412  1.00  0.00     0.240 C 
HETATM   12  O2  UNL     1       2.499  33.681   1.251  1.00  0.00    -0.271 OA
HETATM   13  N3  UNL     1       3.520  32.665   3.010  1.00  0.00    -0.237 N 
ATOM     14  H3  UNL     1       4.196  32.808   3.761  1.00  0.00     0.197 HD
BRANCH  13  15
HETATM   15  O3  UNL     1       3.255  31.512   2.700  1.00  0.00    -0.287 OA
ATOM     16  H3  UNL     1       2.992  30.831   3.309  1.00  0.00     0.244 HD
ENDBRANCH  13  15
ENDBRANCH  10  11
ENDBRANCH   9  10
ENDBRANCH   8   9
ENDBRANCH   7   8
ENDBRANCH   6   7
ENDBRANCH   5   6
ENDBRANCH   3   5
BRANCH   1  17
HETATM   17  C6  UNL     1      -1.767  40.492   0.447  1.00  0.00     0.032 A 
HETATM   18  C5  UNL     1      -1.525  41.063  -0.776  1.00  0.00     0.019 A 
HETATM   19  C4  UNL     1      -2.569  41.626  -1.510  1.00  0.00     0.030 A 
HETATM   20  C3  UNL     1      -3.856  41.632  -1.052  1.00  0.00     0.029 A 
HETATM   21  C16 UNL     1      -4.116  41.062   0.174  1.00  0.00     0.030 A 
HETATM   22  C15 UNL     1      -3.092  40.507   0.900  1.00  0.00     0.019 A 
BRANCH  20  23
HETATM   23  N1  UNL     1      -4.896  42.212  -1.820  1.00  0.00    -0.390 N 
HETATM   24  C1  UNL     1      -4.665  42.755  -3.153  1.00  0.00     0.149 C 
HETATM   25  C2  UNL     1      -6.235  42.268  -1.265  1.00  0.00     0.149 C 
ENDBRANCH  20  23
ENDBRANCH   1  17
TORSDOF 10
ENDMDL
