MODEL 12
REMARK VINA RESULT: -6.623522019      3.604      8.323
REMARK  4 active torsions:
REMARK  status: ('A' for Active; 'I' for Inactive)
REMARK    1  A    between atoms: N1_1  and  S1_4 
REMARK    2  A    between atoms: S1_4  and  C1_7 
REMARK    3  A    between atoms: C4_10  and  N2_11 
REMARK       I    between atoms: N2_11  and  C5_13 
REMARK       I    between atoms: C5_13  and  N3_15 
REMARK    4  A    between atoms: N3_15  and  C6_17 
ROOT
HETATM    1  C1  UNL     1      -0.171   3.887  10.485  1.00  0.00     0.079 A 
HETATM    2  C2  UNL     1      -0.598   2.586  10.631  1.00  0.00     0.027 A 
HETATM    3  C3  UNL     1      -1.722   2.256  11.355  1.00  0.00     0.031 A 
HETATM    4  C4  UNL     1      -2.485   3.226  11.979  1.00  0.00     0.036 A 
HETATM    5  C11 UNL     1      -2.078   4.515  11.846  1.00  0.00     0.031 A 
HETATM    6  C12 UNL     1      -0.929   4.851  11.105  1.00  0.00     0.027 A 
ENDROOT
BRANCH   4   7
HETATM    7  N2  UNL     1      -3.605   2.841  12.705  1.00  0.00    -0.309 N 
HETATM    8  C5  UNL     1      -3.669   2.826  14.105  1.00  0.00     0.321 C 
HETATM    9  O3  UNL     1      -2.769   3.149  14.879  1.00  0.00    -0.247 OA
HETATM   10  N3  UNL     1      -4.904   2.393  14.694  1.00  0.00    -0.338 N 
ATOM     11  H3  UNL     1      -5.683   2.114  14.098  1.00  0.00     0.164 HD
ATOM     12  H2  UNL     1      -4.434   2.552  12.186  1.00  0.00     0.170 HD
BRANCH  10  13
HETATM   13  C6  UNL     1      -5.046   2.350  16.151  1.00  0.00     0.086 C 
HETATM   14  C7  UNL     1      -4.914   0.913  16.601  1.00  0.00     0.025 C 
HETATM   15  C8  UNL     1      -6.179   0.557  17.317  1.00  0.00     0.002 C 
HETATM   16  C9  UNL     1      -7.223   1.564  16.869  1.00  0.00     0.002 C 
HETATM   17  C10 UNL     1      -6.429   2.799  16.500  1.00  0.00     0.025 C 
ENDBRANCH  10  13
ENDBRANCH   4   7
BRANCH   1  18
HETATM   18  S1  UNL     1       1.262   4.270   9.558  1.00  0.00     0.256 S 
HETATM   19  O1  UNL     1       1.645   5.701   9.810  1.00  0.00    -0.201 OA
HETATM   20  O2  UNL     1       2.390   3.325   9.907  1.00  0.00    -0.201 OA
BRANCH  18  21
HETATM   21  N1  UNL     1       0.850   4.106   7.889  1.00  0.00    -0.324 N 
ATOM     22  H12 UNL     1       0.738   4.879   7.234  1.00  0.00     0.169 HD
ATOM     23  H11 UNL     1       0.743   3.113   7.682  1.00  0.00     0.169 HD
ENDBRANCH  18  21
ENDBRANCH   1  18
TORSDOF 4
ENDMDL
