MODEL 19
REMARK VINA RESULT: -6.302430867      4.112      4.415
REMARK  4 active torsions:
REMARK  status: ('A' for Active; 'I' for Inactive)
REMARK    1  A    between atoms: N1_1  and  S1_4 
REMARK    2  A    between atoms: S1_4  and  C1_7 
REMARK    3  A    between atoms: C4_10  and  N2_11 
REMARK       I    between atoms: N2_11  and  C5_13 
REMARK       I    between atoms: C5_13  and  N3_15 
REMARK    4  A    between atoms: N3_15  and  C6_17 
ROOT
HETATM    1  C1  UNL     1      -5.421   2.748  15.941  1.00  0.00     0.079 A 
HETATM    2  C2  UNL     1      -4.201   2.839  15.309  1.00  0.00     0.027 A 
HETATM    3  C3  UNL     1      -3.857   3.914  14.520  1.00  0.00     0.031 A 
HETATM    4  C4  UNL     1      -4.730   4.968  14.321  1.00  0.00     0.036 A 
HETATM    5  C11 UNL     1      -5.938   4.895  14.938  1.00  0.00     0.031 A 
HETATM    6  C12 UNL     1      -6.289   3.795  15.744  1.00  0.00     0.027 A 
ENDROOT
BRANCH   4   7
HETATM    7  N2  UNL     1      -4.340   6.025  13.510  1.00  0.00    -0.309 N 
HETATM    8  C5  UNL     1      -3.245   6.859  13.776  1.00  0.00     0.321 C 
HETATM    9  O3  UNL     1      -2.482   6.775  14.739  1.00  0.00    -0.247 OA
HETATM   10  N3  UNL     1      -2.985   7.911  12.836  1.00  0.00    -0.338 N 
ATOM     11  H3  UNL     1      -3.587   8.025  12.020  1.00  0.00     0.164 HD
ATOM     12  H2  UNL     1      -4.884   6.208  12.668  1.00  0.00     0.170 HD
BRANCH  10  13
HETATM   13  C6  UNL     1      -1.859   8.821  13.047  1.00  0.00     0.086 C 
HETATM   14  C7  UNL     1      -2.186   9.722  14.217  1.00  0.00     0.025 C 
HETATM   15  C8  UNL     1      -2.133  11.131  13.716  1.00  0.00     0.002 C 
HETATM   16  C9  UNL     1      -2.275  11.056  12.207  1.00  0.00     0.002 C 
HETATM   17  C10 UNL     1      -1.728   9.693  11.839  1.00  0.00     0.025 C 
ENDBRANCH  10  13
ENDBRANCH   4   7
BRANCH   1  18
HETATM   18  S1  UNL     1      -5.825   1.368  16.936  1.00  0.00     0.256 S 
HETATM   19  O1  UNL     1      -7.074   0.724  16.405  1.00  0.00    -0.201 OA
HETATM   20  O2  UNL     1      -4.673   0.388  16.979  1.00  0.00    -0.201 OA
BRANCH  18  21
HETATM   21  N1  UNL     1      -6.153   1.960  18.524  1.00  0.00    -0.324 N 
ATOM     22  H12 UNL     1      -6.858   2.660  18.755  1.00  0.00     0.169 HD
ATOM     23  H11 UNL     1      -5.527   1.490  19.177  1.00  0.00     0.169 HD
ENDBRANCH  18  21
ENDBRANCH   1  18
TORSDOF 4
ENDMDL
