MODEL 18
REMARK VINA RESULT: -6.315667992      2.114      2.860
REMARK  4 active torsions:
REMARK  status: ('A' for Active; 'I' for Inactive)
REMARK    1  A    between atoms: N1_1  and  S1_4 
REMARK    2  A    between atoms: S1_4  and  C1_7 
REMARK    3  A    between atoms: C4_10  and  N2_11 
REMARK       I    between atoms: N2_11  and  C5_13 
REMARK       I    between atoms: C5_13  and  N3_15 
REMARK    4  A    between atoms: N3_15  and  C6_17 
ROOT
HETATM    1  C1  UNL     1      -3.783   1.763  13.945  1.00  0.00     0.079 A 
HETATM    2  C2  UNL     1      -3.712   1.076  12.754  1.00  0.00     0.027 A 
HETATM    3  C3  UNL     1      -3.218   1.646  11.601  1.00  0.00     0.031 A 
HETATM    4  C4  UNL     1      -2.765   2.952  11.584  1.00  0.00     0.036 A 
HETATM    5  C11 UNL     1      -2.827   3.645  12.750  1.00  0.00     0.031 A 
HETATM    6  C12 UNL     1      -3.332   3.061  13.928  1.00  0.00     0.027 A 
ENDROOT
BRANCH   4   7
HETATM    7  N2  UNL     1      -2.284   3.484  10.394  1.00  0.00    -0.309 N 
HETATM    8  C5  UNL     1      -0.934   3.478  10.018  1.00  0.00     0.321 C 
HETATM    9  O3  UNL     1       0.001   3.007  10.666  1.00  0.00    -0.247 OA
HETATM   10  N3  UNL     1      -0.608   4.079   8.756  1.00  0.00    -0.338 N 
ATOM     11  H3  UNL     1      -1.345   4.484   8.179  1.00  0.00     0.164 HD
ATOM     12  H2  UNL     1      -2.955   3.906   9.754  1.00  0.00     0.170 HD
BRANCH  10  13
HETATM   13  C6  UNL     1       0.782   4.109   8.297  1.00  0.00     0.086 C 
HETATM   14  C7  UNL     1       1.368   5.460   8.641  1.00  0.00     0.025 C 
HETATM   15  C8  UNL     1       1.820   6.084   7.358  1.00  0.00     0.002 C 
HETATM   16  C9  UNL     1       1.074   5.369   6.246  1.00  0.00     0.002 C 
HETATM   17  C10 UNL     1       0.785   3.992   6.806  1.00  0.00     0.025 C 
ENDBRANCH  10  13
ENDBRANCH   4   7
BRANCH   1  18
HETATM   18  S1  UNL     1      -4.415   1.008  15.390  1.00  0.00     0.256 S 
HETATM   19  O1  UNL     1      -4.857  -0.391  15.064  1.00  0.00    -0.201 OA
HETATM   20  O2  UNL     1      -3.379   1.017  16.492  1.00  0.00    -0.201 OA
BRANCH  18  21
HETATM   21  N1  UNL     1      -5.802   1.914  15.877  1.00  0.00    -0.324 N 
ATOM     22  H12 UNL     1      -6.759   1.728  15.577  1.00  0.00     0.169 HD
ATOM     23  H11 UNL     1      -5.495   2.655  16.506  1.00  0.00     0.169 HD
ENDBRANCH  18  21
ENDBRANCH   1  18
TORSDOF 4
ENDMDL
