MODEL 9
REMARK VINA RESULT: -6.666714892      3.579      8.333
REMARK  4 active torsions:
REMARK  status: ('A' for Active; 'I' for Inactive)
REMARK    1  A    between atoms: N1_1  and  S1_4 
REMARK    2  A    between atoms: S1_4  and  C1_7 
REMARK    3  A    between atoms: C4_10  and  N2_11 
REMARK       I    between atoms: N2_11  and  C5_13 
REMARK       I    between atoms: C5_13  and  N3_15 
REMARK    4  A    between atoms: N3_15  and  C6_17 
ROOT
HETATM    1  C1  UNL     1      -0.231   3.764  10.491  1.00  0.00     0.079 A 
HETATM    2  C2  UNL     1      -1.029   4.700  11.109  1.00  0.00     0.027 A 
HETATM    3  C3  UNL     1      -2.147   4.352  11.834  1.00  0.00     0.031 A 
HETATM    4  C4  UNL     1      -2.527   3.030  11.978  1.00  0.00     0.036 A 
HETATM    5  C11 UNL     1      -1.750   2.093  11.375  1.00  0.00     0.031 A 
HETATM    6  C12 UNL     1      -0.607   2.450  10.633  1.00  0.00     0.027 A 
ENDROOT
BRANCH   4   7
HETATM    7  N2  UNL     1      -3.668   2.730  12.712  1.00  0.00    -0.309 N 
HETATM    8  C5  UNL     1      -3.717   2.699  14.112  1.00  0.00     0.321 C 
HETATM    9  O3  UNL     1      -2.783   2.933  14.880  1.00  0.00    -0.247 OA
HETATM   10  N3  UNL     1      -4.977   2.363  14.711  1.00  0.00    -0.338 N 
ATOM     11  H3  UNL     1      -5.784   2.160  14.121  1.00  0.00     0.164 HD
ATOM     12  H2  UNL     1      -4.524   2.519  12.200  1.00  0.00     0.170 HD
BRANCH  10  13
HETATM   13  C6  UNL     1      -5.104   2.311  16.168  1.00  0.00     0.086 C 
HETATM   14  C7  UNL     1      -4.956   0.872  16.609  1.00  0.00     0.025 C 
HETATM   15  C8  UNL     1      -6.212   0.502  17.335  1.00  0.00     0.002 C 
HETATM   16  C9  UNL     1      -7.268   1.502  16.902  1.00  0.00     0.002 C 
HETATM   17  C10 UNL     1      -6.488   2.746  16.533  1.00  0.00     0.025 C 
ENDBRANCH  10  13
ENDBRANCH   4   7
BRANCH   1  18
HETATM   18  S1  UNL     1       1.183   4.242   9.578  1.00  0.00     0.256 S 
HETATM   19  O1  UNL     1       1.518   5.671   9.897  1.00  0.00    -0.201 OA
HETATM   20  O2  UNL     1       2.345   3.322   9.877  1.00  0.00    -0.201 OA
BRANCH  18  21
HETATM   21  N1  UNL     1       0.769   4.143   7.904  1.00  0.00    -0.324 N 
ATOM     22  H12 UNL     1       0.805   4.920   7.245  1.00  0.00     0.169 HD
ATOM     23  H11 UNL     1       0.488   3.185   7.700  1.00  0.00     0.169 HD
ENDBRANCH  18  21
ENDBRANCH   1  18
TORSDOF 4
ENDMDL
