MODEL 2
REMARK VINA RESULT: -6.918386566      4.171      4.617
REMARK  4 active torsions:
REMARK  status: ('A' for Active; 'I' for Inactive)
REMARK    1  A    between atoms: N1_1  and  S1_4 
REMARK    2  A    between atoms: S1_4  and  C1_7 
REMARK    3  A    between atoms: C4_10  and  N2_11 
REMARK       I    between atoms: N2_11  and  C5_13 
REMARK       I    between atoms: C5_13  and  N3_15 
REMARK    4  A    between atoms: N3_15  and  C6_17 
ROOT
HETATM    1  C1  UNL     1      -5.097   2.241  16.048  1.00  0.00     0.079 A 
HETATM    2  C2  UNL     1      -3.737   2.320  15.848  1.00  0.00     0.027 A 
HETATM    3  C3  UNL     1      -3.146   3.386  15.207  1.00  0.00     0.031 A 
HETATM    4  C4  UNL     1      -3.898   4.443  14.728  1.00  0.00     0.036 A 
HETATM    5  C11 UNL     1      -5.242   4.382  14.917  1.00  0.00     0.031 A 
HETATM    6  C12 UNL     1      -5.845   3.291  15.572  1.00  0.00     0.027 A 
ENDROOT
BRANCH   4   7
HETATM    7  N2  UNL     1      -3.256   5.491  14.081  1.00  0.00    -0.309 N 
HETATM    8  C5  UNL     1      -3.157   6.790  14.596  1.00  0.00     0.321 C 
HETATM    9  O3  UNL     1      -3.605   7.184  15.673  1.00  0.00    -0.247 OA
HETATM   10  N3  UNL     1      -2.464   7.757  13.793  1.00  0.00    -0.338 N 
ATOM     11  H3  UNL     1      -2.072   7.484  12.891  1.00  0.00     0.164 HD
ATOM     12  H2  UNL     1      -2.830   5.303  13.174  1.00  0.00     0.170 HD
BRANCH  10  13
HETATM   13  C6  UNL     1      -2.320   9.134  14.266  1.00  0.00     0.086 C 
HETATM   14  C7  UNL     1      -1.944  10.006  13.088  1.00  0.00     0.025 C 
HETATM   15  C8  UNL     1      -0.636  10.653  13.418  1.00  0.00     0.002 C 
HETATM   16  C9  UNL     1      -0.006   9.814  14.514  1.00  0.00     0.002 C 
HETATM   17  C10 UNL     1      -1.179   9.181  15.232  1.00  0.00     0.025 C 
ENDBRANCH  10  13
ENDBRANCH   4   7
BRANCH   1  18
HETATM   18  S1  UNL     1      -5.814   0.872  16.866  1.00  0.00     0.256 S 
HETATM   19  O1  UNL     1      -5.488  -0.383  16.108  1.00  0.00    -0.201 OA
HETATM   20  O2  UNL     1      -5.330   0.794  18.298  1.00  0.00    -0.201 OA
BRANCH  18  21
HETATM   21  N1  UNL     1      -7.526   1.095  16.835  1.00  0.00    -0.324 N 
ATOM     22  H12 UNL     1      -8.111   1.026  16.002  1.00  0.00     0.169 HD
ATOM     23  H11 UNL     1      -7.839   1.304  17.782  1.00  0.00     0.169 HD
ENDBRANCH  18  21
ENDBRANCH   1  18
TORSDOF 4
ENDMDL
