MODEL 7
REMARK VINA RESULT: -6.761847133      4.151      4.705
REMARK  4 active torsions:
REMARK  status: ('A' for Active; 'I' for Inactive)
REMARK    1  A    between atoms: N1_1  and  S1_4 
REMARK    2  A    between atoms: S1_4  and  C1_7 
REMARK    3  A    between atoms: C4_10  and  N2_11 
REMARK       I    between atoms: N2_11  and  C5_13 
REMARK       I    between atoms: C5_13  and  N3_15 
REMARK    4  A    between atoms: N3_15  and  C6_17 
ROOT
HETATM    1  C1  UNL     1      -5.020   2.221  16.047  1.00  0.00     0.079 A 
HETATM    2  C2  UNL     1      -5.733   3.274  15.520  1.00  0.00     0.027 A 
HETATM    3  C3  UNL     1      -5.125   4.318  14.858  1.00  0.00     0.031 A 
HETATM    4  C4  UNL     1      -3.753   4.360  14.688  1.00  0.00     0.036 A 
HETATM    5  C11 UNL     1      -3.034   3.328  15.202  1.00  0.00     0.031 A 
HETATM    6  C12 UNL     1      -3.657   2.262  15.879  1.00  0.00     0.027 A 
ENDROOT
BRANCH   4   7
HETATM    7  N2  UNL     1      -3.187   5.438  14.020  1.00  0.00    -0.309 N 
HETATM    8  C5  UNL     1      -3.129   6.740  14.534  1.00  0.00     0.321 C 
HETATM    9  O3  UNL     1      -3.552   7.111  15.629  1.00  0.00    -0.247 OA
HETATM   10  N3  UNL     1      -2.515   7.739  13.707  1.00  0.00    -0.338 N 
ATOM     11  H3  UNL     1      -2.146   7.485  12.790  1.00  0.00     0.164 HD
ATOM     12  H2  UNL     1      -2.789   5.272  13.096  1.00  0.00     0.170 HD
BRANCH  10  13
HETATM   13  C6  UNL     1      -2.417   9.121  14.177  1.00  0.00     0.086 C 
HETATM   14  C7  UNL     1      -2.075  10.004  12.997  1.00  0.00     0.025 C 
HETATM   15  C8  UNL     1      -0.789  10.697  13.323  1.00  0.00     0.002 C 
HETATM   16  C9  UNL     1      -0.128   9.881  14.418  1.00  0.00     0.002 C 
HETATM   17  C10 UNL     1      -1.276   9.209  15.141  1.00  0.00     0.025 C 
ENDBRANCH  10  13
ENDBRANCH   4   7
BRANCH   1  18
HETATM   18  S1  UNL     1      -5.824   0.912  16.882  1.00  0.00     0.256 S 
HETATM   19  O1  UNL     1      -5.543  -0.378  16.166  1.00  0.00    -0.201 OA
HETATM   20  O2  UNL     1      -5.380   0.850  18.327  1.00  0.00    -0.201 OA
BRANCH  18  21
HETATM   21  N1  UNL     1      -7.522   1.218  16.801  1.00  0.00    -0.324 N 
ATOM     22  H12 UNL     1      -8.069   1.257  15.942  1.00  0.00     0.169 HD
ATOM     23  H11 UNL     1      -7.869   1.351  17.750  1.00  0.00     0.169 HD
ENDBRANCH  18  21
ENDBRANCH   1  18
TORSDOF 4
ENDMDL
