MODEL 16
REMARK VINA RESULT: -6.427916692      4.085      4.545
REMARK  4 active torsions:
REMARK  status: ('A' for Active; 'I' for Inactive)
REMARK    1  A    between atoms: N1_1  and  S1_4 
REMARK    2  A    between atoms: S1_4  and  C1_7 
REMARK    3  A    between atoms: C4_10  and  N2_11 
REMARK       I    between atoms: N2_11  and  C5_13 
REMARK       I    between atoms: C5_13  and  N3_15 
REMARK    4  A    between atoms: N3_15  and  C6_17 
ROOT
HETATM    1  C1  UNL     1      -5.425   2.471  15.934  1.00  0.00     0.079 A 
HETATM    2  C2  UNL     1      -6.253   3.561  15.787  1.00  0.00     0.027 A 
HETATM    3  C3  UNL     1      -5.894   4.665  15.046  1.00  0.00     0.031 A 
HETATM    4  C4  UNL     1      -4.670   4.734  14.406  1.00  0.00     0.036 A 
HETATM    5  C11 UNL     1      -3.841   3.667  14.540  1.00  0.00     0.031 A 
HETATM    6  C12 UNL     1      -4.208   2.539  15.298  1.00  0.00     0.027 A 
ENDROOT
BRANCH   4   7
HETATM    7  N2  UNL     1      -4.352   5.873  13.678  1.00  0.00    -0.309 N 
HETATM    8  C5  UNL     1      -3.212   6.658  13.901  1.00  0.00     0.321 C 
HETATM    9  O3  UNL     1      -2.343   6.456  14.749  1.00  0.00    -0.247 OA
HETATM   10  N3  UNL     1      -3.040   7.808  13.060  1.00  0.00    -0.338 N 
ATOM     11  H3  UNL     1      -3.731   8.022  12.341  1.00  0.00     0.164 HD
ATOM     12  H2  UNL     1      -4.988   6.157  12.933  1.00  0.00     0.170 HD
BRANCH  10  13
HETATM   13  C6  UNL     1      -1.873   8.674  13.234  1.00  0.00     0.086 C 
HETATM   14  C7  UNL     1      -2.087   9.520  14.470  1.00  0.00     0.025 C 
HETATM   15  C8  UNL     1      -2.027  10.952  14.039  1.00  0.00     0.002 C 
HETATM   16  C9  UNL     1      -2.280  10.961  12.543  1.00  0.00     0.002 C 
HETATM   17  C10 UNL     1      -1.803   9.606  12.066  1.00  0.00     0.025 C 
ENDBRANCH  10  13
ENDBRANCH   4   7
BRANCH   1  18
HETATM   18  S1  UNL     1      -5.912   1.084  16.882  1.00  0.00     0.256 S 
HETATM   19  O1  UNL     1      -5.477  -0.171  16.182  1.00  0.00    -0.201 OA
HETATM   20  O2  UNL     1      -5.338   1.166  18.279  1.00  0.00    -0.201 OA
BRANCH  18  21
HETATM   21  N1  UNL     1      -7.638   1.094  16.954  1.00  0.00    -0.324 N 
ATOM     22  H12 UNL     1      -8.200   0.556  17.613  1.00  0.00     0.169 HD
ATOM     23  H11 UNL     1      -7.984   1.724  16.231  1.00  0.00     0.169 HD
ENDBRANCH  18  21
ENDBRANCH   1  18
TORSDOF 4
ENDMDL
