MODEL 3
REMARK VINA RESULT: -8.076271727      1.013      2.379
REMARK  4 active torsions:
REMARK  status: ('A' for Active; 'I' for Inactive)
REMARK    1  A    between atoms: N1_1  and  S1_4 
REMARK    2  A    between atoms: S1_4  and  C1_7 
REMARK    3  A    between atoms: C4_10  and  N2_11 
REMARK       I    between atoms: N2_11  and  C5_13 
REMARK       I    between atoms: C5_13  and  N3_15 
REMARK    4  A    between atoms: N3_15  and  C6_17 
ROOT
HETATM    1  N2  UNL     1      -3.538   2.624  11.608  1.00  0.00    -0.309 N 
ATOM      2  H2  UNL     1      -4.252   2.179  11.031  1.00  0.00     0.170 HD
HETATM    3  C5  UNL     1      -3.798   2.779  13.013  1.00  0.00     0.325 C 
HETATM    4  O3  UNL     1      -2.961   3.308  13.772  1.00  0.00    -0.247 OA
HETATM    5  N3  UNL     1      -5.039   2.303  13.481  1.00  0.00    -0.303 N 
ATOM      6  H3  UNL     1      -5.665   1.871  12.802  1.00  0.00     0.171 HD
ENDROOT
BRANCH   1   7
HETATM    7  C4  UNL     1      -2.353   3.052  10.988  1.00  0.00     0.036 A 
HETATM    8  C3  UNL     1      -1.177   2.330  11.190  1.00  0.00     0.031 A 
HETATM    9  C2  UNL     1       0.000   2.690  10.596  1.00  0.00     0.027 A 
HETATM   10  C1  UNL     1       0.071   3.792   9.767  1.00  0.00     0.079 A 
HETATM   11  C13 UNL     1      -1.073   4.509   9.559  1.00  0.00     0.027 A 
HETATM   12  C12 UNL     1      -2.267   4.131  10.170  1.00  0.00     0.031 A 
BRANCH  10  13
HETATM   13  S1  UNL     1       1.609   4.177   9.054  1.00  0.00     0.256 S 
HETATM   14  O1  UNL     1       2.744   3.488   9.779  1.00  0.00    -0.201 OA
HETATM   15  O2  UNL     1       1.676   3.743   7.600  1.00  0.00    -0.201 OA
BRANCH  13  16
HETATM   16  N1  UNL     1       1.916   5.873   9.159  1.00  0.00    -0.324 N 
ATOM     17  H12 UNL     1       2.793   6.307   9.448  1.00  0.00     0.169 HD
ATOM     18  H11 UNL     1       1.056   6.343   8.876  1.00  0.00     0.169 HD
ENDBRANCH  13  16
ENDBRANCH  10  13
ENDBRANCH   1   7
BRANCH   5  19
HETATM   19  C6  UNL     1      -5.480   2.379  14.813  1.00  0.00     0.120 A 
HETATM   20  C7  UNL     1      -5.220   1.258  15.631  1.00  0.00     0.188 A 
HETATM   21  F1  UNL     1      -4.543   0.216  15.108  1.00  0.00    -0.200 F 
HETATM   22  C8  UNL     1      -5.633   1.199  16.936  1.00  0.00     0.199 A 
HETATM   23  F2  UNL     1      -5.372   0.113  17.706  1.00  0.00    -0.199 F 
HETATM   24  C9  UNL     1      -6.333   2.257  17.510  1.00  0.00     0.199 A 
HETATM   25  F3  UNL     1      -6.750   2.228  18.792  1.00  0.00    -0.199 F 
HETATM   26  C10 UNL     1      -6.593   3.341  16.742  1.00  0.00     0.199 A 
HETATM   27  F4  UNL     1      -7.274   4.386  17.278  1.00  0.00    -0.199 F 
HETATM   28  C11 UNL     1      -6.164   3.378  15.419  1.00  0.00     0.188 A 
HETATM   29  F5  UNL     1      -6.516   4.486  14.743  1.00  0.00    -0.200 F 
ENDBRANCH   5  19
TORSDOF 4
ENDMDL
