MODEL 2
REMARK VINA RESULT: -8.232050517      0.176      2.107
REMARK  4 active torsions:
REMARK  status: ('A' for Active; 'I' for Inactive)
REMARK    1  A    between atoms: N1_1  and  S1_4 
REMARK    2  A    between atoms: S1_4  and  C1_7 
REMARK    3  A    between atoms: C4_10  and  N2_11 
REMARK       I    between atoms: N2_11  and  C5_13 
REMARK       I    between atoms: C5_13  and  N3_15 
REMARK    4  A    between atoms: N3_15  and  C6_17 
ROOT
HETATM    1  N2  UNL     1      -2.890   3.374  11.924  1.00  0.00    -0.309 N 
ATOM      2  H2  UNL     1      -3.569   3.222  11.178  1.00  0.00     0.170 HD
HETATM    3  C5  UNL     1      -3.328   3.228  13.285  1.00  0.00     0.325 C 
HETATM    4  O3  UNL     1      -2.542   3.395  14.240  1.00  0.00    -0.247 OA
HETATM    5  N3  UNL     1      -4.682   2.890  13.479  1.00  0.00    -0.303 N 
ATOM      6  H3  UNL     1      -5.259   2.759  12.647  1.00  0.00     0.171 HD
ENDROOT
BRANCH   1   7
HETATM    7  C4  UNL     1      -1.574   3.714  11.567  1.00  0.00     0.036 A 
HETATM    8  C3  UNL     1      -0.789   2.785  10.885  1.00  0.00     0.031 A 
HETATM    9  C2  UNL     1       0.490   3.070  10.496  1.00  0.00     0.027 A 
HETATM   10  C1  UNL     1       1.058   4.300  10.766  1.00  0.00     0.079 A 
HETATM   11  C13 UNL     1       0.300   5.221  11.432  1.00  0.00     0.027 A 
HETATM   12  C12 UNL     1      -1.003   4.918  11.822  1.00  0.00     0.031 A 
BRANCH  10  13
HETATM   13  S1  UNL     1       2.690   4.576  10.234  1.00  0.00     0.256 S 
HETATM   14  O1  UNL     1       3.642   4.696  11.404  1.00  0.00    -0.201 OA
HETATM   15  O2  UNL     1       3.193   3.441   9.359  1.00  0.00    -0.201 OA
BRANCH  13  16
HETATM   16  N1  UNL     1       2.797   6.061   9.359  1.00  0.00    -0.324 N 
ATOM     17  H12 UNL     1       2.013   6.583   8.967  1.00  0.00     0.169 HD
ATOM     18  H11 UNL     1       3.787   6.304   9.317  1.00  0.00     0.169 HD
ENDBRANCH  13  16
ENDBRANCH  10  13
ENDBRANCH   1   7
BRANCH   5  19
HETATM   19  C6  UNL     1      -5.299   2.720  14.729  1.00  0.00     0.120 A 
HETATM   20  C7  UNL     1      -5.166   1.451  15.334  1.00  0.00     0.188 A 
HETATM   21  F1  UNL     1      -4.438   0.507  14.706  1.00  0.00    -0.200 F 
HETATM   22  C8  UNL     1      -5.753   1.153  16.536  1.00  0.00     0.199 A 
HETATM   23  F2  UNL     1      -5.613  -0.072  17.100  1.00  0.00    -0.199 F 
HETATM   24  C9  UNL     1      -6.512   2.105  17.213  1.00  0.00     0.199 A 
HETATM   25  F3  UNL     1      -7.099   1.840  18.397  1.00  0.00    -0.199 F 
HETATM   26  C10 UNL     1      -6.651   3.327  16.650  1.00  0.00     0.199 A 
HETATM   27  F4  UNL     1      -7.386   4.272  17.290  1.00  0.00    -0.199 F 
HETATM   28  C11 UNL     1      -6.046   3.607  15.428  1.00  0.00     0.188 A 
HETATM   29  F5  UNL     1      -6.289   4.839  14.947  1.00  0.00    -0.200 F 
ENDBRANCH   5  19
TORSDOF 4
ENDMDL
