MODEL 1
REMARK VINA RESULT: -8.349630573      0.000      0.000
REMARK  4 active torsions:
REMARK  status: ('A' for Active; 'I' for Inactive)
REMARK    1  A    between atoms: N1_1  and  S1_4 
REMARK    2  A    between atoms: S1_4  and  C1_7 
REMARK    3  A    between atoms: C4_10  and  N2_11 
REMARK       I    between atoms: N2_11  and  C5_13 
REMARK       I    between atoms: C5_13  and  N3_15 
REMARK    4  A    between atoms: N3_15  and  C6_17 
ROOT
HETATM    1  N2  UNL     1      -3.010   3.441  11.996  1.00  0.00    -0.309 N 
ATOM      2  H2  UNL     1      -3.726   3.436  11.271  1.00  0.00     0.170 HD
HETATM    3  C5  UNL     1      -3.398   3.115  13.341  1.00  0.00     0.325 C 
HETATM    4  O3  UNL     1      -2.565   3.098  14.270  1.00  0.00    -0.247 OA
HETATM    5  N3  UNL     1      -4.759   2.817  13.550  1.00  0.00    -0.303 N 
ATOM      6  H3  UNL     1      -5.376   2.840  12.737  1.00  0.00     0.171 HD
ENDROOT
BRANCH   1   7
HETATM    7  C4  UNL     1      -1.693   3.767  11.629  1.00  0.00     0.036 A 
HETATM    8  C3  UNL     1      -0.919   2.825  10.953  1.00  0.00     0.031 A 
HETATM    9  C2  UNL     1       0.360   3.095  10.554  1.00  0.00     0.027 A 
HETATM   10  C1  UNL     1       0.939   4.323  10.807  1.00  0.00     0.079 A 
HETATM   11  C13 UNL     1       0.192   5.257  11.468  1.00  0.00     0.027 A 
HETATM   12  C12 UNL     1      -1.111   4.969  11.868  1.00  0.00     0.031 A 
BRANCH  10  13
HETATM   13  S1  UNL     1       2.570   4.581  10.264  1.00  0.00     0.256 S 
HETATM   14  O1  UNL     1       3.530   4.697  11.427  1.00  0.00    -0.201 OA
HETATM   15  O2  UNL     1       3.057   3.435   9.393  1.00  0.00    -0.201 OA
BRANCH  13  16
HETATM   16  N1  UNL     1       2.686   6.060   9.380  1.00  0.00    -0.324 N 
ATOM     17  H12 UNL     1       3.114   6.177   8.461  1.00  0.00     0.169 HD
ATOM     18  H11 UNL     1       2.246   6.778   9.955  1.00  0.00     0.169 HD
ENDBRANCH  13  16
ENDBRANCH  10  13
ENDBRANCH   1   7
BRANCH   5  19
HETATM   19  C6  UNL     1      -5.332   2.491  14.791  1.00  0.00     0.120 A 
HETATM   20  C7  UNL     1      -6.068   3.508  15.435  1.00  0.00     0.188 A 
HETATM   21  F1  UNL     1      -6.209   4.698  14.817  1.00  0.00    -0.200 F 
HETATM   22  C8  UNL     1      -6.643   3.322  16.665  1.00  0.00     0.199 A 
HETATM   23  F2  UNL     1      -7.348   4.312  17.267  1.00  0.00    -0.199 F 
HETATM   24  C9  UNL     1      -6.519   2.106  17.332  1.00  0.00     0.199 A 
HETATM   25  F3  UNL     1      -7.075   1.893  18.541  1.00  0.00    -0.199 F 
HETATM   26  C10 UNL     1      -5.816   1.118  16.731  1.00  0.00     0.199 A 
HETATM   27  F4  UNL     1      -5.681  -0.077  17.359  1.00  0.00    -0.199 F 
HETATM   28  C11 UNL     1      -5.241   1.330  15.481  1.00  0.00     0.188 A 
HETATM   29  F5  UNL     1      -4.532   0.292  15.003  1.00  0.00    -0.200 F 
ENDBRANCH   5  19
TORSDOF 4
ENDMDL
