MODEL 5
REMARK VINA RESULT: -7.201174215      2.906      4.100
REMARK  8 active torsions:
REMARK  status: ('A' for Active; 'I' for Inactive)
REMARK    1  A    between atoms: O1_1  and  C1_3 
REMARK    2  A    between atoms: C1_3  and  C2_4 
REMARK    3  A    between atoms: C2_4  and  O2_5 
REMARK    4  A    between atoms: C3_8  and  C4_9 
REMARK    5  A    between atoms: C4_9  and  O4_10 
REMARK    6  A    between atoms: O4_10  and  P1_11 
REMARK    7  A    between atoms: C5_15  and  O8_16 
REMARK    8  A    between atoms: C6_18  and  O9_19 
ROOT
HETATM    1  C2  UNL     1      39.115 -25.058  40.028  1.00  0.00     0.213 C 
HETATM    2  O3  UNL     1      39.650 -24.289  39.034  1.00  0.00    -0.341 OA
HETATM    3  C3  UNL     1      40.833 -23.735  39.474  1.00  0.00     0.181 C 
HETATM    4  C5  UNL     1      40.925 -23.944  40.957  1.00  0.00     0.183 C 
HETATM    5  C6  UNL     1      39.493 -24.318  41.293  1.00  0.00     0.213 C 
ENDROOT
BRANCH   3   6
HETATM    6  C4  UNL     1      42.033 -24.204  38.730  1.00  0.00     0.217 C 
BRANCH   6   7
HETATM    7  O4  UNL     1      42.123 -25.600  38.694  1.00  0.00    -0.280 OA
BRANCH   7   8
HETATM    8  P1  UNL     1      42.121 -26.240  37.289  1.00  0.00     0.422 P 
HETATM    9  O5  UNL     1      42.213 -26.638  35.805  1.00  0.00    -0.617 OA
HETATM   10  O6  UNL     1      43.742 -26.556  37.465  1.00  0.00    -0.617 OA
HETATM   11  O7  UNL     1      41.047 -27.364  37.746  1.00  0.00    -0.617 OA
ENDBRANCH   7   8
ENDBRANCH   6   7
ENDBRANCH   3   6
BRANCH   4  12
HETATM   12  O8  UNL     1      41.346 -22.809  41.646  1.00  0.00    -0.390 OA
ATOM     13  H8  UNL     1      41.401 -22.036  41.096  1.00  0.00     0.210 HD
ENDBRANCH   4  12
BRANCH   1  14
HETATM   14  C1  UNL     1      37.611 -25.200  39.933  1.00  0.00     0.235 C 
BRANCH  14  15
HETATM   15  O1  UNL     1      37.006 -25.203  41.167  1.00  0.00    -0.395 OA
ATOM     16  H1  UNL     1      37.113 -26.031  41.619  1.00  0.00     0.209 HD
ENDBRANCH  14  15
ENDBRANCH   1  14
BRANCH   1  17
HETATM   17  O2  UNL     1      39.719 -26.315  40.070  1.00  0.00    -0.362 OA
ATOM     18  H2  UNL     1      39.277 -26.873  40.699  1.00  0.00     0.213 HD
ENDBRANCH   1  17
BRANCH   5  19
HETATM   19  O9  UNL     1      39.409 -25.129  42.417  1.00  0.00    -0.387 OA
ATOM     20  H9  UNL     1      40.046 -24.889  43.080  1.00  0.00     0.210 HD
ENDBRANCH   5  19
TORSDOF 8
ENDMDL
