MODEL 3
REMARK VINA RESULT: -7.264306337      2.851      3.874
REMARK  8 active torsions:
REMARK  status: ('A' for Active; 'I' for Inactive)
REMARK    1  A    between atoms: O1_1  and  C1_3 
REMARK    2  A    between atoms: C1_3  and  C2_4 
REMARK    3  A    between atoms: C2_4  and  O2_5 
REMARK    4  A    between atoms: C3_8  and  C4_9 
REMARK    5  A    between atoms: C4_9  and  O4_10 
REMARK    6  A    between atoms: O4_10  and  P1_11 
REMARK    7  A    between atoms: C5_15  and  O8_16 
REMARK    8  A    between atoms: C6_18  and  O9_19 
ROOT
HETATM    1  C2  UNL     1      38.917 -24.803  39.982  1.00  0.00     0.213 C 
HETATM    2  O3  UNL     1      39.463 -23.989  39.030  1.00  0.00    -0.341 OA
HETATM    3  C3  UNL     1      40.697 -23.553  39.458  1.00  0.00     0.181 C 
HETATM    4  C5  UNL     1      40.836 -23.892  40.913  1.00  0.00     0.183 C 
HETATM    5  C6  UNL     1      39.397 -24.200  41.284  1.00  0.00     0.213 C 
ENDROOT
BRANCH   3   6
HETATM    6  C4  UNL     1      41.830 -24.033  38.623  1.00  0.00     0.217 C 
BRANCH   6   7
HETATM    7  O4  UNL     1      41.497 -25.172  37.881  1.00  0.00    -0.280 OA
BRANCH   7   8
HETATM    8  P1  UNL     1      42.459 -26.372  38.018  1.00  0.00     0.422 P 
HETATM    9  O5  UNL     1      43.323 -27.585  38.408  1.00  0.00    -0.617 OA
HETATM   10  O6  UNL     1      41.183 -27.390  37.715  1.00  0.00    -0.617 OA
HETATM   11  O7  UNL     1      43.364 -25.855  36.778  1.00  0.00    -0.617 OA
ENDBRANCH   7   8
ENDBRANCH   6   7
ENDBRANCH   3   6
BRANCH   4  12
HETATM   12  O8  UNL     1      41.362 -22.849  41.672  1.00  0.00    -0.390 OA
ATOM     13  H8  UNL     1      42.132 -23.099  42.168  1.00  0.00     0.210 HD
ENDBRANCH   4  12
BRANCH   1  14
HETATM   14  C1  UNL     1      37.404 -24.839  39.945  1.00  0.00     0.235 C 
BRANCH  14  15
HETATM   15  O1  UNL     1      36.889 -25.913  40.631  1.00  0.00    -0.395 OA
ATOM     16  H1  UNL     1      36.096 -25.692  41.104  1.00  0.00     0.209 HD
ENDBRANCH  14  15
ENDBRANCH   1  14
BRANCH   1  17
HETATM   17  O2  UNL     1      39.435 -26.096  39.892  1.00  0.00    -0.362 OA
ATOM     18  H2  UNL     1      39.050 -26.652  40.558  1.00  0.00     0.213 HD
ENDBRANCH   1  17
BRANCH   5  19
HETATM   19  O9  UNL     1      39.304 -25.096  42.340  1.00  0.00    -0.387 OA
ATOM     20  H9  UNL     1      38.551 -24.920  42.893  1.00  0.00     0.210 HD
ENDBRANCH   5  19
TORSDOF 8
ENDMDL
