MODEL 10
REMARK VINA RESULT: -6.978147781      2.293      3.719
REMARK  8 active torsions:
REMARK  status: ('A' for Active; 'I' for Inactive)
REMARK    1  A    between atoms: O1_1  and  C1_3 
REMARK    2  A    between atoms: C1_3  and  C2_4 
REMARK    3  A    between atoms: C2_4  and  O2_5 
REMARK    4  A    between atoms: C3_8  and  C4_9 
REMARK    5  A    between atoms: C4_9  and  O4_10 
REMARK    6  A    between atoms: O4_10  and  P1_11 
REMARK    7  A    between atoms: C5_15  and  O8_16 
REMARK    8  A    between atoms: C6_18  and  O9_19 
ROOT
HETATM    1  C2  UNL     1      38.840 -24.409  40.796  1.00  0.00     0.213 C 
HETATM    2  O3  UNL     1      39.115 -25.094  39.647  1.00  0.00    -0.341 OA
HETATM    3  C3  UNL     1      40.343 -24.698  39.164  1.00  0.00     0.181 C 
HETATM    4  C5  UNL     1      40.766 -23.467  39.911  1.00  0.00     0.183 C 
HETATM    5  C6  UNL     1      39.457 -23.048  40.556  1.00  0.00     0.213 C 
ENDROOT
BRANCH   3   6
HETATM    6  C4  UNL     1      41.368 -25.776  39.163  1.00  0.00     0.217 C 
BRANCH   6   7
HETATM    7  O4  UNL     1      41.677 -26.213  37.870  1.00  0.00    -0.280 OA
BRANCH   7   8
HETATM    8  P1  UNL     1      42.728 -25.378  37.108  1.00  0.00     0.422 P 
HETATM    9  O5  UNL     1      43.852 -24.460  36.595  1.00  0.00    -0.617 OA
HETATM   10  O6  UNL     1      43.852 -26.558  37.429  1.00  0.00    -0.617 OA
HETATM   11  O7  UNL     1      41.874 -25.458  35.734  1.00  0.00    -0.617 OA
ENDBRANCH   7   8
ENDBRANCH   6   7
ENDBRANCH   3   6
BRANCH   4  12
HETATM   12  O8  UNL     1      41.283 -22.473  39.083  1.00  0.00    -0.390 OA
ATOM     13  H8  UNL     1      41.460 -21.660  39.540  1.00  0.00     0.210 HD
ENDBRANCH   4  12
BRANCH   1  14
HETATM   14  C1  UNL     1      37.358 -24.272  41.073  1.00  0.00     0.235 C 
BRANCH  14  15
HETATM   15  O1  UNL     1      36.894 -23.003  40.823  1.00  0.00    -0.395 OA
ATOM     16  H1  UNL     1      36.088 -23.005  40.322  1.00  0.00     0.209 HD
ENDBRANCH  14  15
ENDBRANCH   1  14
BRANCH   1  17
HETATM   17  O2  UNL     1      39.486 -24.986  41.890  1.00  0.00    -0.362 OA
ATOM     18  H2  UNL     1      40.299 -24.530  42.071  1.00  0.00     0.213 HD
ENDBRANCH   1  17
BRANCH   5  19
HETATM   19  O9  UNL     1      39.652 -22.347  41.739  1.00  0.00    -0.387 OA
ATOM     20  H9  UNL     1      40.358 -21.715  41.667  1.00  0.00     0.210 HD
ENDBRANCH   5  19
TORSDOF 8
ENDMDL
