MODEL 4
REMARK VINA RESULT: -7.225148264      1.273      1.746
REMARK  8 active torsions:
REMARK  status: ('A' for Active; 'I' for Inactive)
REMARK    1  A    between atoms: O1_1  and  C1_3 
REMARK    2  A    between atoms: C1_3  and  C2_4 
REMARK    3  A    between atoms: C2_4  and  O2_5 
REMARK    4  A    between atoms: C3_8  and  C4_9 
REMARK    5  A    between atoms: C4_9  and  O4_10 
REMARK    6  A    between atoms: O4_10  and  P1_11 
REMARK    7  A    between atoms: C5_15  and  O8_16 
REMARK    8  A    between atoms: C6_18  and  O9_19 
ROOT
HETATM    1  C2  UNL     1      38.757 -20.032  41.162  1.00  0.00     0.213 C 
HETATM    2  O3  UNL     1      39.659 -21.044  41.333  1.00  0.00    -0.341 OA
HETATM    3  C3  UNL     1      38.994 -22.250  41.337  1.00  0.00     0.181 C 
HETATM    4  C5  UNL     1      37.523 -21.974  41.452  1.00  0.00     0.183 C 
HETATM    5  C6  UNL     1      37.528 -20.523  41.896  1.00  0.00     0.213 C 
ENDROOT
BRANCH   3   6
HETATM    6  C4  UNL     1      39.346 -23.138  40.196  1.00  0.00     0.217 C 
BRANCH   6   7
HETATM    7  O4  UNL     1      40.691 -23.021  39.829  1.00  0.00    -0.280 OA
BRANCH   7   8
HETATM    8  P1  UNL     1      41.462 -24.348  39.658  1.00  0.00     0.422 P 
HETATM    9  O5  UNL     1      42.107 -25.683  39.245  1.00  0.00    -0.617 OA
HETATM   10  O6  UNL     1      42.607 -23.533  38.774  1.00  0.00    -0.617 OA
HETATM   11  O7  UNL     1      41.663 -24.498  41.258  1.00  0.00    -0.617 OA
ENDBRANCH   7   8
ENDBRANCH   6   7
ENDBRANCH   3   6
BRANCH   4  12
HETATM   12  O8  UNL     1      36.880 -22.801  42.370  1.00  0.00    -0.390 OA
ATOM     13  H8  UNL     1      37.411 -22.995  43.134  1.00  0.00     0.210 HD
ENDBRANCH   4  12
BRANCH   1  14
HETATM   14  C1  UNL     1      39.221 -18.712  41.739  1.00  0.00     0.235 C 
BRANCH  14  15
HETATM   15  O1  UNL     1      40.011 -18.006  40.863  1.00  0.00    -0.395 OA
ATOM     16  H1  UNL     1      40.790 -17.658  41.278  1.00  0.00     0.209 HD
ENDBRANCH  14  15
ENDBRANCH   1  14
BRANCH   1  17
HETATM   17  O2  UNL     1      38.422 -19.881  39.816  1.00  0.00    -0.362 OA
ATOM     18  H2  UNL     1      38.224 -20.726  39.429  1.00  0.00     0.213 HD
ENDBRANCH   1  17
BRANCH   5  19
HETATM   19  O9  UNL     1      36.381 -19.847  41.503  1.00  0.00    -0.387 OA
ATOM     20  H9  UNL     1      36.034 -20.178  40.683  1.00  0.00     0.210 HD
ENDBRANCH   5  19
TORSDOF 8
ENDMDL
