MODEL 2
REMARK VINA RESULT: -7.446615830      0.713      1.325
REMARK  8 active torsions:
REMARK  status: ('A' for Active; 'I' for Inactive)
REMARK    1  A    between atoms: O1_1  and  C1_3 
REMARK    2  A    between atoms: C1_3  and  C2_4 
REMARK    3  A    between atoms: C2_4  and  O2_5 
REMARK    4  A    between atoms: C3_8  and  C4_9 
REMARK    5  A    between atoms: C4_9  and  O4_10 
REMARK    6  A    between atoms: O4_10  and  P1_11 
REMARK    7  A    between atoms: C5_15  and  O8_16 
REMARK    8  A    between atoms: C6_18  and  O9_19 
ROOT
HETATM    1  C2  UNL     1      38.856 -20.270  40.668  1.00  0.00     0.213 C 
HETATM    2  O3  UNL     1      40.059 -20.907  40.779  1.00  0.00    -0.341 OA
HETATM    3  C3  UNL     1      39.856 -22.270  40.765  1.00  0.00     0.181 C 
HETATM    4  C5  UNL     1      38.388 -22.527  40.933  1.00  0.00     0.183 C 
HETATM    5  C6  UNL     1      37.904 -21.174  41.423  1.00  0.00     0.213 C 
ENDROOT
BRANCH   3   6
HETATM    6  C4  UNL     1      40.451 -22.957  39.587  1.00  0.00     0.217 C 
BRANCH   6   7
HETATM    7  O4  UNL     1      41.248 -24.046  39.955  1.00  0.00    -0.280 OA
BRANCH   7   8
HETATM    8  P1  UNL     1      40.746 -25.434  39.501  1.00  0.00     0.422 P 
HETATM    9  O5  UNL     1      40.280 -26.721  38.797  1.00  0.00    -0.617 OA
HETATM   10  O6  UNL     1      42.325 -25.900  39.285  1.00  0.00    -0.617 OA
HETATM   11  O7  UNL     1      40.036 -25.703  40.932  1.00  0.00    -0.617 OA
ENDBRANCH   7   8
ENDBRANCH   6   7
ENDBRANCH   3   6
BRANCH   4  12
HETATM   12  O8  UNL     1      38.109 -23.543  41.844  1.00  0.00    -0.390 OA
ATOM     13  H8  UNL     1      38.759 -24.236  41.842  1.00  0.00     0.210 HD
ENDBRANCH   4  12
BRANCH   1  14
HETATM   14  C1  UNL     1      38.853 -18.883  41.272  1.00  0.00     0.235 C 
BRANCH  14  15
HETATM   15  O1  UNL     1      39.891 -18.109  40.810  1.00  0.00    -0.395 OA
ATOM     16  H1  UNL     1      39.588 -17.328  40.364  1.00  0.00     0.209 HD
ENDBRANCH  14  15
ENDBRANCH   1  14
BRANCH   1  17
HETATM   17  O2  UNL     1      38.436 -20.221  39.338  1.00  0.00    -0.362 OA
ATOM     18  H2  UNL     1      39.173 -20.349  38.754  1.00  0.00     0.213 HD
ENDBRANCH   1  17
BRANCH   5  19
HETATM   19  O9  UNL     1      36.579 -20.933  41.086  1.00  0.00    -0.387 OA
ATOM     20  H9  UNL     1      36.236 -20.158  41.516  1.00  0.00     0.210 HD
ENDBRANCH   5  19
TORSDOF 8
ENDMDL
