MODEL 8
REMARK VINA RESULT: -7.103373451      2.762      4.741
REMARK  8 active torsions:
REMARK  status: ('A' for Active; 'I' for Inactive)
REMARK    1  A    between atoms: O1_1  and  C1_3 
REMARK    2  A    between atoms: C1_3  and  C2_4 
REMARK    3  A    between atoms: C2_4  and  O2_5 
REMARK    4  A    between atoms: C3_8  and  C4_9 
REMARK    5  A    between atoms: C4_9  and  O4_10 
REMARK    6  A    between atoms: O4_10  and  P1_11 
REMARK    7  A    between atoms: C5_15  and  O8_16 
REMARK    8  A    between atoms: C6_18  and  O9_19 
ROOT
HETATM    1  C2  UNL     1      36.435 -24.860  42.848  1.00  0.00     0.213 C 
HETATM    2  O3  UNL     1      36.409 -25.260  41.542  1.00  0.00    -0.341 OA
HETATM    3  C3  UNL     1      36.975 -24.282  40.754  1.00  0.00     0.181 C 
HETATM    4  C5  UNL     1      37.129 -23.042  41.585  1.00  0.00     0.183 C 
HETATM    5  C6  UNL     1      36.229 -23.363  42.765  1.00  0.00     0.213 C 
ENDROOT
BRANCH   3   6
HETATM    6  C4  UNL     1      38.230 -24.703  40.076  1.00  0.00     0.217 C 
BRANCH   6   7
HETATM    7  O4  UNL     1      39.160 -23.661  39.984  1.00  0.00    -0.280 OA
BRANCH   7   8
HETATM    8  P1  UNL     1      40.602 -24.004  40.416  1.00  0.00     0.422 P 
HETATM    9  O5  UNL     1      42.112 -24.233  40.609  1.00  0.00    -0.617 OA
HETATM   10  O6  UNL     1      40.783 -22.439  40.941  1.00  0.00    -0.617 OA
HETATM   11  O7  UNL     1      40.080 -25.128  41.458  1.00  0.00    -0.617 OA
ENDBRANCH   7   8
ENDBRANCH   6   7
ENDBRANCH   3   6
BRANCH   4  12
HETATM   12  O8  UNL     1      36.729 -21.884  40.922  1.00  0.00    -0.390 OA
ATOM     13  H8  UNL     1      37.190 -21.743  40.104  1.00  0.00     0.210 HD
ENDBRANCH   4  12
BRANCH   1  14
HETATM   14  C1  UNL     1      35.350 -25.494  43.691  1.00  0.00     0.235 C 
BRANCH  14  15
HETATM   15  O1  UNL     1      35.741 -25.678  44.996  1.00  0.00    -0.395 OA
ATOM     16  H1  UNL     1      36.682 -25.611  45.104  1.00  0.00     0.209 HD
ENDBRANCH  14  15
ENDBRANCH   1  14
BRANCH   1  17
HETATM   17  O2  UNL     1      37.688 -25.090  43.417  1.00  0.00    -0.362 OA
ATOM     18  H2  UNL     1      37.903 -26.014  43.380  1.00  0.00     0.213 HD
ENDBRANCH   1  17
BRANCH   5  19
HETATM   19  O9  UNL     1      36.630 -22.717  43.926  1.00  0.00    -0.387 OA
ATOM     20  H9  UNL     1      37.430 -23.085  44.283  1.00  0.00     0.210 HD
ENDBRANCH   5  19
TORSDOF 8
ENDMDL
