MODEL 2
REMARK VINA RESULT: -7.914940035      0.605      1.200
REMARK  5 active torsions:
REMARK  status: ('A' for Active; 'I' for Inactive)
REMARK    1  A    between atoms: N1_1  and  S1_4 
REMARK    2  A    between atoms: S1_4  and  C1_7 
REMARK    3  A    between atoms: C4_10  and  N2_11 
REMARK       I    between atoms: N2_11  and  C5_13 
REMARK       I    between atoms: C5_13  and  N3_15 
REMARK    4  A    between atoms: N3_15  and  C6_17 
REMARK    5  A    between atoms: C10_21  and  N4_22 
ROOT
HETATM    1  N2  UNL     1      -1.049   4.125  12.736  1.00  0.00    -0.309 N 
ATOM      2  H2  UNL     1      -0.350   4.218  13.474  1.00  0.00     0.170 HD
HETATM    3  C5  UNL     1      -2.400   3.930  13.143  1.00  0.00     0.325 C 
HETATM    4  O3  UNL     1      -3.272   3.818  12.280  1.00  0.00    -0.247 OA
HETATM    5  N3  UNL     1      -2.783   3.862  14.491  1.00  0.00    -0.309 N 
ATOM      6  H3  UNL     1      -2.034   3.958  15.176  1.00  0.00     0.170 HD
ENDROOT
BRANCH   1   7
HETATM    7  C4  UNL     1      -0.592   4.202  11.410  1.00  0.00     0.036 A 
HETATM    8  C3  UNL     1      -0.197   3.173  10.609  1.00  0.00     0.031 A 
HETATM    9  C2  UNL     1       0.239   3.367   9.286  1.00  0.00     0.027 A 
HETATM   10  C1  UNL     1       0.286   4.622   8.742  1.00  0.00     0.079 A 
HETATM   11  C13 UNL     1      -0.108   5.680   9.529  1.00  0.00     0.027 A 
HETATM   12  C12 UNL     1      -0.531   5.476  10.818  1.00  0.00     0.031 A 
BRANCH  10  13
HETATM   13  S1  UNL     1       0.832   4.838   7.098  1.00  0.00     0.256 S 
HETATM   14  O1  UNL     1       2.027   5.717   7.097  1.00  0.00    -0.201 OA
HETATM   15  O2  UNL     1      -0.245   5.425   6.232  1.00  0.00    -0.201 OA
BRANCH  13  16
HETATM   16  N1  UNL     1       1.217   3.281   6.429  1.00  0.00    -0.324 N 
ATOM     17  H12 UNL     1       2.031   2.731   6.702  1.00  0.00     0.169 HD
ATOM     18  H11 UNL     1       0.521   3.005   5.737  1.00  0.00     0.169 HD
ENDBRANCH  13  16
ENDBRANCH  10  13
ENDBRANCH   1   7
BRANCH   5  19
HETATM   19  C6  UNL     1      -4.080   3.677  15.014  1.00  0.00     0.038 A 
HETATM   20  C7  UNL     1      -5.068   4.612  14.916  1.00  0.00     0.030 A 
HETATM   21  C8  UNL     1      -6.353   4.384  15.441  1.00  0.00     0.005 A 
HETATM   22  C9  UNL     1      -6.600   3.191  16.063  1.00  0.00     0.036 A 
HETATM   23  C10 UNL     1      -5.635   2.208  16.191  1.00  0.00     0.105 A 
HETATM   24  C11 UNL     1      -4.413   2.480  15.667  1.00  0.00     0.065 A 
BRANCH  23  25
HETATM   25  N4  UNL     1      -5.970   1.000  16.849  1.00  0.00    -0.116 N 
HETATM   26  O4  UNL     1      -5.145   0.397  17.548  1.00  0.00    -0.532 OA
HETATM   27  O5  UNL     1      -7.226   0.482  16.716  1.00  0.00    -0.532 OA
ENDBRANCH  23  25
ENDBRANCH   5  19
TORSDOF 5
ENDMDL
