MODEL 10
REMARK VINA RESULT: -7.388466930      5.186      9.254
REMARK  5 active torsions:
REMARK  status: ('A' for Active; 'I' for Inactive)
REMARK    1  A    between atoms: N1_1  and  S1_4 
REMARK    2  A    between atoms: S1_4  and  C1_7 
REMARK    3  A    between atoms: C4_10  and  N2_11 
REMARK       I    between atoms: N2_11  and  C5_13 
REMARK       I    between atoms: C5_13  and  N3_15 
REMARK    4  A    between atoms: N3_15  and  C6_17 
REMARK    5  A    between atoms: C10_21  and  N4_22 
ROOT
HETATM    1  N2  UNL     1      -4.335   6.019  13.526  1.00  0.00    -0.309 N 
ATOM      2  H2  UNL     1      -3.433   6.436  13.755  1.00  0.00     0.170 HD
HETATM    3  C5  UNL     1      -5.028   6.547  12.398  1.00  0.00     0.325 C 
HETATM    4  O3  UNL     1      -6.119   6.066  12.090  1.00  0.00    -0.247 OA
HETATM    5  N3  UNL     1      -4.517   7.596  11.618  1.00  0.00    -0.309 N 
ATOM      6  H3  UNL     1      -3.612   7.969  11.906  1.00  0.00     0.170 HD
ENDROOT
BRANCH   1   7
HETATM    7  C4  UNL     1      -4.784   4.974  14.352  1.00  0.00     0.036 A 
HETATM    8  C3  UNL     1      -6.003   4.856  14.948  1.00  0.00     0.031 A 
HETATM    9  C2  UNL     1      -6.348   3.757  15.755  1.00  0.00     0.027 A 
HETATM   10  C1  UNL     1      -5.454   2.744  15.977  1.00  0.00     0.079 A 
HETATM   11  C13 UNL     1      -4.214   2.838  15.386  1.00  0.00     0.027 A 
HETATM   12  C12 UNL     1      -3.892   3.917  14.601  1.00  0.00     0.031 A 
BRANCH  10  13
HETATM   13  S1  UNL     1      -5.904   1.390  16.983  1.00  0.00     0.256 S 
HETATM   14  O1  UNL     1      -4.774   0.430  17.034  1.00  0.00    -0.201 OA
HETATM   15  O2  UNL     1      -7.140   0.710  16.471  1.00  0.00    -0.201 OA
BRANCH  13  16
HETATM   16  N1  UNL     1      -6.280   1.978  18.574  1.00  0.00    -0.324 N 
ATOM     17  H12 UNL     1      -5.698   1.810  19.395  1.00  0.00     0.169 HD
ATOM     18  H11 UNL     1      -7.152   2.506  18.565  1.00  0.00     0.169 HD
ENDBRANCH  13  16
ENDBRANCH  10  13
ENDBRANCH   1   7
BRANCH   5  19
HETATM   19  C6  UNL     1      -5.104   8.197  10.486  1.00  0.00     0.038 A 
HETATM   20  C7  UNL     1      -5.739   9.403  10.521  1.00  0.00     0.030 A 
HETATM   21  C8  UNL     1      -6.301   9.974   9.365  1.00  0.00     0.005 A 
HETATM   22  C9  UNL     1      -6.201   9.289   8.185  1.00  0.00     0.036 A 
HETATM   23  C10 UNL     1      -5.569   8.062   8.093  1.00  0.00     0.105 A 
HETATM   24  C11 UNL     1      -5.043   7.557   9.238  1.00  0.00     0.065 A 
BRANCH  23  25
HETATM   25  N4  UNL     1      -5.506   7.417   6.834  1.00  0.00    -0.116 N 
HETATM   26  O4  UNL     1      -5.162   8.027   5.813  1.00  0.00    -0.532 OA
HETATM   27  O5  UNL     1      -5.831   6.094   6.733  1.00  0.00    -0.532 OA
ENDBRANCH  23  25
ENDBRANCH   5  19
TORSDOF 5
ENDMDL
