MODEL 1
REMARK VINA RESULT: -8.034298776      0.000      0.000
REMARK  5 active torsions:
REMARK  status: ('A' for Active; 'I' for Inactive)
REMARK    1  A    between atoms: N1_1  and  S1_4 
REMARK    2  A    between atoms: S1_4  and  C1_7 
REMARK    3  A    between atoms: C4_10  and  N2_11 
REMARK       I    between atoms: N2_11  and  C5_13 
REMARK       I    between atoms: C5_13  and  N3_15 
REMARK    4  A    between atoms: N3_15  and  C6_17 
REMARK    5  A    between atoms: C10_21  and  N4_22 
ROOT
HETATM    1  N2  UNL     1      -0.998   4.446  13.057  1.00  0.00    -0.309 N 
ATOM      2  H2  UNL     1      -0.366   4.608  13.842  1.00  0.00     0.170 HD
HETATM    3  C5  UNL     1      -2.357   4.150  13.367  1.00  0.00     0.325 C 
HETATM    4  O3  UNL     1      -3.149   3.951  12.445  1.00  0.00    -0.247 OA
HETATM    5  N3  UNL     1      -2.835   4.078  14.685  1.00  0.00    -0.309 N 
ATOM      6  H3  UNL     1      -2.149   4.248  15.420  1.00  0.00     0.170 HD
ENDROOT
BRANCH   1   7
HETATM    7  C4  UNL     1      -0.449   4.533  11.767  1.00  0.00     0.036 A 
HETATM    8  C3  UNL     1      -0.236   5.661  11.032  1.00  0.00     0.031 A 
HETATM    9  C2  UNL     1       0.329   5.631   9.745  1.00  0.00     0.027 A 
HETATM   10  C1  UNL     1       0.693   4.444   9.168  1.00  0.00     0.079 A 
HETATM   11  C13 UNL     1       0.490   3.289   9.888  1.00  0.00     0.027 A 
HETATM   12  C12 UNL     1      -0.062   3.333  11.144  1.00  0.00     0.031 A 
BRANCH  10  13
HETATM   13  S1  UNL     1       1.392   4.431   7.568  1.00  0.00     0.256 S 
HETATM   14  O1  UNL     1       2.768   3.883   7.646  1.00  0.00    -0.201 OA
HETATM   15  O2  UNL     1       1.413   5.806   6.965  1.00  0.00    -0.201 OA
BRANCH  13  16
HETATM   16  N1  UNL     1       0.400   3.448   6.534  1.00  0.00    -0.324 N 
ATOM     17  H12 UNL     1      -0.399   2.906   6.862  1.00  0.00     0.169 HD
ATOM     18  H11 UNL     1       0.729   3.495   5.570  1.00  0.00     0.169 HD
ENDBRANCH  13  16
ENDBRANCH  10  13
ENDBRANCH   1   7
BRANCH   5  19
HETATM   19  C6  UNL     1      -4.148   3.800  15.114  1.00  0.00     0.038 A 
HETATM   20  C7  UNL     1      -5.196   4.652  14.923  1.00  0.00     0.030 A 
HETATM   21  C8  UNL     1      -6.495   4.332  15.357  1.00  0.00     0.005 A 
HETATM   22  C9  UNL     1      -6.695   3.132  15.985  1.00  0.00     0.036 A 
HETATM   23  C10 UNL     1      -5.669   2.231  16.205  1.00  0.00     0.105 A 
HETATM   24  C11 UNL     1      -4.436   2.590  15.766  1.00  0.00     0.065 A 
BRANCH  23  25
HETATM   25  N4  UNL     1      -5.958   1.010  16.861  1.00  0.00    -0.116 N 
HETATM   26  O4  UNL     1      -5.107   0.431  17.548  1.00  0.00    -0.532 OA
HETATM   27  O5  UNL     1      -7.199   0.453  16.741  1.00  0.00    -0.532 OA
ENDBRANCH  23  25
ENDBRANCH   5  19
TORSDOF 5
ENDMDL
