MODEL 3
REMARK VINA RESULT: -7.723536423      5.652      6.449
REMARK  5 active torsions:
REMARK  status: ('A' for Active; 'I' for Inactive)
REMARK    1  A    between atoms: N1_1  and  S1_4 
REMARK    2  A    between atoms: S1_4  and  C1_7 
REMARK    3  A    between atoms: C4_10  and  N2_11 
REMARK       I    between atoms: N2_11  and  C5_13 
REMARK       I    between atoms: C5_13  and  N3_15 
REMARK    4  A    between atoms: N3_15  and  C6_17 
REMARK    5  A    between atoms: C10_21  and  N4_22 
ROOT
HETATM    1  N2  UNL     1      -5.061   6.694  11.891  1.00  0.00    -0.309 N 
ATOM      2  H2  UNL     1      -4.047   6.622  11.806  1.00  0.00     0.170 HD
HETATM    3  C5  UNL     1      -5.682   5.938  12.927  1.00  0.00     0.325 C 
HETATM    4  O3  UNL     1      -6.905   6.002  13.061  1.00  0.00    -0.247 OA
HETATM    5  N3  UNL     1      -4.956   5.121  13.807  1.00  0.00    -0.309 N 
ATOM      6  H3  UNL     1      -3.947   5.092  13.664  1.00  0.00     0.170 HD
ENDROOT
BRANCH   1   7
HETATM    7  C4  UNL     1      -5.721   7.530  10.974  1.00  0.00     0.036 A 
HETATM    8  C3  UNL     1      -5.612   8.884  10.861  1.00  0.00     0.031 A 
HETATM    9  C2  UNL     1      -6.320   9.622   9.897  1.00  0.00     0.027 A 
HETATM   10  C1  UNL     1      -7.164   8.998   9.017  1.00  0.00     0.079 A 
HETATM   11  C13 UNL     1      -7.292   7.631   9.109  1.00  0.00     0.027 A 
HETATM   12  C12 UNL     1      -6.594   6.922  10.055  1.00  0.00     0.031 A 
BRANCH  10  13
HETATM   13  S1  UNL     1      -8.033   9.936   7.829  1.00  0.00     0.256 S 
HETATM   14  O1  UNL     1      -7.903  11.376   8.161  1.00  0.00    -0.201 OA
HETATM   15  O2  UNL     1      -9.480   9.545   7.770  1.00  0.00    -0.201 OA
BRANCH  13  16
HETATM   16  N1  UNL     1      -7.362   9.607   6.260  1.00  0.00    -0.324 N 
ATOM     17  H12 UNL     1      -6.526   9.044   6.106  1.00  0.00     0.169 HD
ATOM     18  H11 UNL     1      -7.919  10.052   5.531  1.00  0.00     0.169 HD
ENDBRANCH  13  16
ENDBRANCH  10  13
ENDBRANCH   1   7
BRANCH   5  19
HETATM   19  C6  UNL     1      -5.454   4.334  14.866  1.00  0.00     0.038 A 
HETATM   20  C7  UNL     1      -6.444   4.748  15.707  1.00  0.00     0.030 A 
HETATM   21  C8  UNL     1      -6.922   3.927  16.745  1.00  0.00     0.005 A 
HETATM   22  C9  UNL     1      -6.366   2.687  16.901  1.00  0.00     0.036 A 
HETATM   23  C10 UNL     1      -5.359   2.216  16.078  1.00  0.00     0.105 A 
HETATM   24  C11 UNL     1      -4.937   3.049  15.093  1.00  0.00     0.065 A 
BRANCH  23  25
HETATM   25  N4  UNL     1      -4.838   0.920  16.306  1.00  0.00    -0.116 N 
HETATM   26  O4  UNL     1      -3.624   0.690  16.225  1.00  0.00    -0.532 OA
HETATM   27  O5  UNL     1      -5.683  -0.105  16.621  1.00  0.00    -0.532 OA
ENDBRANCH  23  25
ENDBRANCH   5  19
TORSDOF 5
ENDMDL
