MODEL 16
REMARK VINA RESULT: -7.301138219      5.987      9.103
REMARK  5 active torsions:
REMARK  status: ('A' for Active; 'I' for Inactive)
REMARK    1  A    between atoms: N1_1  and  S1_4 
REMARK    2  A    between atoms: S1_4  and  C1_7 
REMARK    3  A    between atoms: C4_10  and  N2_11 
REMARK       I    between atoms: N2_11  and  C5_13 
REMARK       I    between atoms: C5_13  and  N3_15 
REMARK    4  A    between atoms: N3_15  and  C6_17 
REMARK    5  A    between atoms: C10_21  and  N4_22 
ROOT
HETATM    1  N2  UNL     1      -4.748   6.354  12.754  1.00  0.00    -0.309 N 
ATOM      2  H2  UNL     1      -4.304   7.143  13.223  1.00  0.00     0.170 HD
HETATM    3  C5  UNL     1      -5.251   6.579  11.440  1.00  0.00     0.325 C 
HETATM    4  O3  UNL     1      -5.791   5.648  10.841  1.00  0.00    -0.247 OA
HETATM    5  N3  UNL     1      -5.155   7.822  10.795  1.00  0.00    -0.309 N 
ATOM      6  H3  UNL     1      -4.704   8.568  11.323  1.00  0.00     0.170 HD
ENDROOT
BRANCH   1   7
HETATM    7  C4  UNL     1      -4.809   5.142  13.461  1.00  0.00     0.036 A 
HETATM    8  C3  UNL     1      -5.635   4.828  14.499  1.00  0.00     0.031 A 
HETATM    9  C2  UNL     1      -5.613   3.574  15.133  1.00  0.00     0.027 A 
HETATM   10  C1  UNL     1      -4.742   2.599  14.725  1.00  0.00     0.079 A 
HETATM   11  C13 UNL     1      -3.897   2.888  13.678  1.00  0.00     0.027 A 
HETATM   12  C12 UNL     1      -3.929   4.118  13.069  1.00  0.00     0.031 A 
BRANCH  10  13
HETATM   13  S1  UNL     1      -4.732   1.048  15.527  1.00  0.00     0.256 S 
HETATM   14  O1  UNL     1      -3.481   0.919  16.312  1.00  0.00    -0.201 OA
HETATM   15  O2  UNL     1      -4.850  -0.081  14.546  1.00  0.00    -0.201 OA
BRANCH  13  16
HETATM   16  N1  UNL     1      -6.121   0.951  16.568  1.00  0.00    -0.324 N 
ATOM     17  H12 UNL     1      -6.720   0.129  16.641  1.00  0.00     0.169 HD
ATOM     18  H11 UNL     1      -6.244   1.821  17.085  1.00  0.00     0.169 HD
ENDBRANCH  13  16
ENDBRANCH  10  13
ENDBRANCH   1   7
BRANCH   5  19
HETATM   19  C6  UNL     1      -5.609   8.163   9.504  1.00  0.00     0.038 A 
HETATM   20  C7  UNL     1      -4.917   7.872   8.365  1.00  0.00     0.030 A 
HETATM   21  C8  UNL     1      -5.410   8.220   7.094  1.00  0.00     0.005 A 
HETATM   22  C9  UNL     1      -6.613   8.867   7.017  1.00  0.00     0.036 A 
HETATM   23  C10 UNL     1      -7.356   9.187   8.140  1.00  0.00     0.105 A 
HETATM   24  C11 UNL     1      -6.834   8.828   9.340  1.00  0.00     0.065 A 
BRANCH  23  25
HETATM   25  N4  UNL     1      -8.592   9.857   7.975  1.00  0.00    -0.116 N 
HETATM   26  O4  UNL     1      -9.640   9.232   7.767  1.00  0.00    -0.532 OA
HETATM   27  O5  UNL     1      -8.640  11.219   8.045  1.00  0.00    -0.532 OA
ENDBRANCH  23  25
ENDBRANCH   5  19
TORSDOF 5
ENDMDL
