MODEL 7
REMARK VINA RESULT: -7.471560254      5.508      9.217
REMARK  5 active torsions:
REMARK  status: ('A' for Active; 'I' for Inactive)
REMARK    1  A    between atoms: N1_1  and  S1_4 
REMARK    2  A    between atoms: S1_4  and  C1_7 
REMARK    3  A    between atoms: C4_10  and  N2_11 
REMARK       I    between atoms: N2_11  and  C5_13 
REMARK       I    between atoms: C5_13  and  N3_15 
REMARK    4  A    between atoms: N3_15  and  C6_17 
REMARK    5  A    between atoms: C10_21  and  N4_22 
ROOT
HETATM    1  N2  UNL     1      -4.378   5.445  13.526  1.00  0.00    -0.309 N 
ATOM      2  H2  UNL     1      -3.364   5.536  13.464  1.00  0.00     0.170 HD
HETATM    3  C5  UNL     1      -5.158   6.273  12.668  1.00  0.00     0.325 C 
HETATM    4  O3  UNL     1      -6.386   6.188  12.713  1.00  0.00    -0.247 OA
HETATM    5  N3  UNL     1      -4.584   7.184  11.767  1.00  0.00    -0.309 N 
ATOM      6  H3  UNL     1      -3.565   7.227  11.760  1.00  0.00     0.170 HD
ENDROOT
BRANCH   1   7
HETATM    7  C4  UNL     1      -4.880   4.514  14.450  1.00  0.00     0.036 A 
HETATM    8  C3  UNL     1      -6.109   4.512  15.039  1.00  0.00     0.031 A 
HETATM    9  C2  UNL     1      -6.510   3.520  15.951  1.00  0.00     0.027 A 
HETATM   10  C1  UNL     1      -5.665   2.499  16.291  1.00  0.00     0.079 A 
HETATM   11  C13 UNL     1      -4.417   2.476  15.710  1.00  0.00     0.027 A 
HETATM   12  C12 UNL     1      -4.039   3.451  14.821  1.00  0.00     0.031 A 
BRANCH  10  13
HETATM   13  S1  UNL     1      -6.184   1.279  17.427  1.00  0.00     0.256 S 
HETATM   14  O1  UNL     1      -5.197   0.172  17.433  1.00  0.00    -0.201 OA
HETATM   15  O2  UNL     1      -7.549   0.756  17.087  1.00  0.00    -0.201 OA
BRANCH  13  16
HETATM   16  N1  UNL     1      -6.304   2.001  19.003  1.00  0.00    -0.324 N 
ATOM     17  H12 UNL     1      -6.433   1.468  19.864  1.00  0.00     0.169 HD
ATOM     18  H11 UNL     1      -6.228   3.015  18.941  1.00  0.00     0.169 HD
ENDBRANCH  13  16
ENDBRANCH  10  13
ENDBRANCH   1   7
BRANCH   5  19
HETATM   19  C6  UNL     1      -5.247   8.048  10.872  1.00  0.00     0.038 A 
HETATM   20  C7  UNL     1      -4.924   9.365  10.723  1.00  0.00     0.030 A 
HETATM   21  C8  UNL     1      -5.602  10.191   9.808  1.00  0.00     0.005 A 
HETATM   22  C9  UNL     1      -6.608   9.645   9.060  1.00  0.00     0.036 A 
HETATM   23  C10 UNL     1      -6.978   8.317   9.170  1.00  0.00     0.105 A 
HETATM   24  C11 UNL     1      -6.290   7.565  10.067  1.00  0.00     0.065 A 
BRANCH  23  25
HETATM   25  N4  UNL     1      -8.030   7.828   8.359  1.00  0.00    -0.116 N 
HETATM   26  O4  UNL     1      -8.869   8.592   7.864  1.00  0.00    -0.532 OA
HETATM   27  O5  UNL     1      -8.129   6.489   8.111  1.00  0.00    -0.532 OA
ENDBRANCH  23  25
ENDBRANCH   5  19
TORSDOF 5
ENDMDL
