MODEL 9
REMARK VINA RESULT: -7.418654577      5.390      9.265
REMARK  5 active torsions:
REMARK  status: ('A' for Active; 'I' for Inactive)
REMARK    1  A    between atoms: N1_1  and  S1_4 
REMARK    2  A    between atoms: S1_4  and  C1_7 
REMARK    3  A    between atoms: C4_10  and  N2_11 
REMARK       I    between atoms: N2_11  and  C5_13 
REMARK       I    between atoms: C5_13  and  N3_15 
REMARK    4  A    between atoms: N3_15  and  C6_17 
REMARK    5  A    between atoms: C10_21  and  N4_22 
ROOT
HETATM    1  N2  UNL     1      -4.540   6.096  13.463  1.00  0.00    -0.309 N 
ATOM      2  H2  UNL     1      -4.104   6.901  13.913  1.00  0.00     0.170 HD
HETATM    3  C5  UNL     1      -4.872   6.223  12.083  1.00  0.00     0.325 C 
HETATM    4  O3  UNL     1      -5.397   5.269  11.507  1.00  0.00    -0.247 OA
HETATM    5  N3  UNL     1      -4.625   7.393  11.349  1.00  0.00    -0.309 N 
ATOM      6  H3  UNL     1      -4.191   8.161  11.861  1.00  0.00     0.170 HD
ENDROOT
BRANCH   1   7
HETATM    7  C4  UNL     1      -4.758   4.960  14.261  1.00  0.00     0.036 A 
HETATM    8  C3  UNL     1      -3.876   3.958  14.533  1.00  0.00     0.031 A 
HETATM    9  C2  UNL     1      -4.202   2.864  15.355  1.00  0.00     0.027 A 
HETATM   10  C1  UNL     1      -5.444   2.762  15.923  1.00  0.00     0.079 A 
HETATM   11  C13 UNL     1      -6.354   3.761  15.665  1.00  0.00     0.027 A 
HETATM   12  C12 UNL     1      -6.022   4.822  14.861  1.00  0.00     0.031 A 
BRANCH  10  13
HETATM   13  S1  UNL     1      -5.827   1.395  16.939  1.00  0.00     0.256 S 
HETATM   14  O1  UNL     1      -4.650   0.493  16.999  1.00  0.00    -0.201 OA
HETATM   15  O2  UNL     1      -7.027   0.650  16.432  1.00  0.00    -0.201 OA
BRANCH  13  16
HETATM   16  N1  UNL     1      -6.233   1.976  18.526  1.00  0.00    -0.324 N 
ATOM     17  H12 UNL     1      -5.546   2.302  19.205  1.00  0.00     0.169 HD
ATOM     18  H11 UNL     1      -7.242   1.943  18.673  1.00  0.00     0.169 HD
ENDBRANCH  13  16
ENDBRANCH  10  13
ENDBRANCH   1   7
BRANCH   5  19
HETATM   19  C6  UNL     1      -4.903   7.635   9.988  1.00  0.00     0.038 A 
HETATM   20  C7  UNL     1      -3.964   7.547   9.004  1.00  0.00     0.030 A 
HETATM   21  C8  UNL     1      -4.285   7.785   7.655  1.00  0.00     0.005 A 
HETATM   22  C9  UNL     1      -5.576   8.114   7.341  1.00  0.00     0.036 A 
HETATM   23  C10 UNL     1      -6.568   8.218   8.300  1.00  0.00     0.105 A 
HETATM   24  C11 UNL     1      -6.203   7.978   9.585  1.00  0.00     0.065 A 
BRANCH  23  25
HETATM   25  N4  UNL     1      -7.879   8.563   7.894  1.00  0.00    -0.116 N 
HETATM   26  O4  UNL     1      -8.079   9.404   7.007  1.00  0.00    -0.532 OA
HETATM   27  O5  UNL     1      -8.953   7.961   8.486  1.00  0.00    -0.532 OA
ENDBRANCH  23  25
ENDBRANCH   5  19
TORSDOF 5
ENDMDL
