MODEL 5
REMARK VINA RESULT: -7.316872265      1.749      2.426
REMARK  15 active torsions:
REMARK  status: ('A' for Active; 'I' for Inactive)
REMARK    1  A    between atoms: O1_2  and  C2_3 
REMARK    2  A    between atoms: C5_6  and  S1_7 
REMARK    3  A    between atoms: S1_7  and  N1_10 
REMARK    4  A    between atoms: N1_10  and  C6_11 
REMARK    5  A    between atoms: N1_10  and  C14_29 
REMARK    6  A    between atoms: C6_11  and  C7_12 
REMARK    7  A    between atoms: C7_12  and  O4_13 
REMARK    8  A    between atoms: O4_13  and  C8_14 
REMARK    9  A    between atoms: C9_16  and  C10_17 
REMARK   10  A    between atoms: C10_17  and  O6_18 
REMARK   11  A    between atoms: C11_20  and  O7_21 
REMARK   12  A    between atoms: C12_23  and  O8_24 
REMARK   13  A    between atoms: C13_26  and  O9_27 
REMARK   14  A    between atoms: C14_29  and  C15_30 
REMARK       I    between atoms: C15_30  and  N2_32 
REMARK   15  A    between atoms: N2_32  and  O11_34 
ROOT
HETATM    1  N1  UNL     1       3.380  -6.036   6.063  1.00  0.00    -0.196 NA
ENDROOT
BRANCH   1   2
HETATM    2  S1  UNL     1       3.485  -5.984   7.770  1.00  0.00     0.244 S 
HETATM    3  O2  UNL     1       3.168  -4.650   8.334  1.00  0.00    -0.206 OA
HETATM    4  O3  UNL     1       2.532  -7.014   8.359  1.00  0.00    -0.206 OA
BRANCH   2   5
HETATM    5  C5  UNL     1       5.093  -6.497   8.240  1.00  0.00     0.074 A 
HETATM    6  C4  UNL     1       5.356  -6.786   9.555  1.00  0.00     0.027 A 
HETATM    7  C3  UNL     1       6.610  -7.189   9.933  1.00  0.00     0.038 A 
HETATM    8  C2  UNL     1       7.652  -7.321   9.016  1.00  0.00     0.068 A 
HETATM    9  C17 UNL     1       7.360  -7.023   7.693  1.00  0.00     0.038 A 
HETATM   10  C16 UNL     1       6.101  -6.617   7.306  1.00  0.00     0.027 A 
BRANCH   8  11
HETATM   11  O1  UNL     1       8.916  -7.727   9.400  1.00  0.00    -0.356 OA
HETATM   12  C1  UNL     1       9.828  -8.116   8.389  1.00  0.00     0.210 C 
ENDBRANCH   8  11
ENDBRANCH   2   5
ENDBRANCH   1   2
BRANCH   1  13
HETATM   13  C6  UNL     1       3.512  -7.359   5.527  1.00  0.00     0.134 C 
BRANCH  13  14
HETATM   14  C7  UNL     1       2.163  -7.865   5.138  1.00  0.00     0.186 C 
BRANCH  14  15
HETATM   15  O4  UNL     1       1.941  -8.021   3.798  1.00  0.00    -0.357 OA
BRANCH  15  16
HETATM   16  C8  UNL     1       2.587  -9.051   3.176  1.00  0.00     0.291 C 
HETATM   17  O5  UNL     1       2.451  -8.996   1.769  1.00  0.00    -0.348 OA
HETATM   18  C9  UNL     1       3.237 -10.045   1.289  1.00  0.00     0.179 C 
HETATM   19  C11 UNL     1       2.384 -11.290   1.353  1.00  0.00     0.180 C 
HETATM   20  C12 UNL     1       1.607 -11.305   2.646  1.00  0.00     0.183 C 
HETATM   21  C13 UNL     1       2.181 -10.413   3.693  1.00  0.00     0.204 C 
BRANCH  18  22
HETATM   22  C10 UNL     1       3.745  -9.780  -0.107  1.00  0.00     0.198 C 
BRANCH  22  23
HETATM   23  O6  UNL     1       4.784 -10.686  -0.338  1.00  0.00    -0.398 OA
ATOM     24  H6  UNL     1       4.915 -10.721  -1.278  1.00  0.00     0.209 HD
ENDBRANCH  22  23
ENDBRANCH  18  22
BRANCH  19  25
HETATM   25  O7  UNL     1       3.162 -12.427   1.175  1.00  0.00    -0.390 OA
ATOM     26  H7  UNL     1       3.859 -12.460   1.820  1.00  0.00     0.210 HD
ENDBRANCH  19  25
BRANCH  20  27
HETATM   27  O8  UNL     1       0.245 -10.997   2.424  1.00  0.00    -0.390 OA
ATOM     28  H8  UNL     1      -0.306 -11.757   2.570  1.00  0.00     0.210 HD
ENDBRANCH  20  27
BRANCH  21  29
HETATM   29  O9  UNL     1       3.206 -11.018   4.429  1.00  0.00    -0.388 OA
ATOM     30  H9  UNL     1       3.497 -11.830   4.031  1.00  0.00     0.210 HD
ENDBRANCH  21  29
ENDBRANCH  15  16
ENDBRANCH  14  15
ENDBRANCH  13  14
ENDBRANCH   1  13
BRANCH   1  31
HETATM   31  C14 UNL     1       2.328  -5.249   5.509  1.00  0.00     0.212 C 
BRANCH  31  32
HETATM   32  C15 UNL     1       2.721  -3.850   5.228  1.00  0.00     0.255 C 
HETATM   33  O10 UNL     1       3.593  -3.515   4.386  1.00  0.00    -0.270 OA
HETATM   34  N2  UNL     1       2.072  -2.816   5.954  1.00  0.00    -0.236 N 
ATOM     35  H2  UNL     1       1.360  -3.057   6.643  1.00  0.00     0.197 HD
BRANCH  34  36
HETATM   36  O11 UNL     1       2.386  -1.516   5.745  1.00  0.00    -0.287 OA
ATOM     37  H11 UNL     1       2.744  -0.982   6.444  1.00  0.00     0.244 HD
ENDBRANCH  34  36
ENDBRANCH  31  32
ENDBRANCH   1  31
TORSDOF 15
ENDMDL
