MODEL 1
REMARK VINA RESULT: -7.671296399      0.000      0.000
REMARK  15 active torsions:
REMARK  status: ('A' for Active; 'I' for Inactive)
REMARK    1  A    between atoms: O1_2  and  C2_3 
REMARK    2  A    between atoms: C5_6  and  S1_7 
REMARK    3  A    between atoms: S1_7  and  N1_10 
REMARK    4  A    between atoms: N1_10  and  C6_11 
REMARK    5  A    between atoms: N1_10  and  C14_29 
REMARK    6  A    between atoms: C6_11  and  C7_12 
REMARK    7  A    between atoms: C7_12  and  O4_13 
REMARK    8  A    between atoms: O4_13  and  C8_14 
REMARK    9  A    between atoms: C9_16  and  C10_17 
REMARK   10  A    between atoms: C10_17  and  O6_18 
REMARK   11  A    between atoms: C11_20  and  O7_21 
REMARK   12  A    between atoms: C12_23  and  O8_24 
REMARK   13  A    between atoms: C13_26  and  O9_27 
REMARK   14  A    between atoms: C14_29  and  C15_30 
REMARK       I    between atoms: C15_30  and  N2_32 
REMARK   15  A    between atoms: N2_32  and  O11_34 
ROOT
HETATM    1  N1  UNL     1       1.877  -5.764   4.795  1.00  0.00    -0.196 NA
ENDROOT
BRANCH   1   2
HETATM    2  S1  UNL     1       2.404  -4.770   6.084  1.00  0.00     0.244 S 
HETATM    3  O2  UNL     1       2.804  -3.411   5.647  1.00  0.00    -0.206 OA
HETATM    4  O3  UNL     1       1.286  -4.655   7.111  1.00  0.00    -0.206 OA
BRANCH   2   5
HETATM    5  C5  UNL     1       3.724  -5.580   6.902  1.00  0.00     0.074 A 
HETATM    6  C4  UNL     1       3.652  -5.799   8.256  1.00  0.00     0.027 A 
HETATM    7  C3  UNL     1       4.679  -6.432   8.905  1.00  0.00     0.038 A 
HETATM    8  C2  UNL     1       5.818  -6.873   8.234  1.00  0.00     0.068 A 
HETATM    9  C17 UNL     1       5.866  -6.640   6.867  1.00  0.00     0.038 A 
HETATM   10  C16 UNL     1       4.837  -6.004   6.207  1.00  0.00     0.027 A 
BRANCH   8  11
HETATM   11  O1  UNL     1       6.853  -7.511   8.892  1.00  0.00    -0.356 OA
HETATM   12  C1  UNL     1       7.529  -6.805   9.915  1.00  0.00     0.210 C 
ENDBRANCH   8  11
ENDBRANCH   2   5
ENDBRANCH   1   2
BRANCH   1  13
HETATM   13  C6  UNL     1       1.058  -6.860   5.222  1.00  0.00     0.134 C 
BRANCH  13  14
HETATM   14  C7  UNL     1       1.366  -8.056   4.384  1.00  0.00     0.186 C 
BRANCH  14  15
HETATM   15  O4  UNL     1       2.561  -8.672   4.628  1.00  0.00    -0.357 OA
BRANCH  15  16
HETATM   16  C8  UNL     1       2.976  -9.605   3.721  1.00  0.00     0.291 C 
HETATM   17  O5  UNL     1       2.617  -9.263   2.397  1.00  0.00    -0.348 OA
HETATM   18  C9  UNL     1       3.190 -10.253   1.599  1.00  0.00     0.179 C 
HETATM   19  C11 UNL     1       2.227 -11.417   1.592  1.00  0.00     0.180 C 
HETATM   20  C12 UNL     1       1.678 -11.627   2.983  1.00  0.00     0.183 C 
HETATM   21  C13 UNL     1       2.514 -11.007   4.049  1.00  0.00     0.204 C 
BRANCH  18  22
HETATM   22  C10 UNL     1       3.486  -9.758   0.205  1.00  0.00     0.198 C 
BRANCH  22  23
HETATM   23  O6  UNL     1       4.540  -8.847   0.314  1.00  0.00    -0.398 OA
ATOM     24  H6  UNL     1       4.156  -8.008   0.540  1.00  0.00     0.209 HD
ENDBRANCH  22  23
ENDBRANCH  18  22
BRANCH  19  25
HETATM   25  O7  UNL     1       2.833 -12.553   1.072  1.00  0.00    -0.390 OA
ATOM     26  H7  UNL     1       2.950 -12.470   0.132  1.00  0.00     0.210 HD
ENDBRANCH  19  25
BRANCH  20  27
HETATM   27  O8  UNL     1       0.341 -11.177   3.075  1.00  0.00    -0.390 OA
ATOM     28  H8  UNL     1       0.062 -11.118   3.981  1.00  0.00     0.210 HD
ENDBRANCH  20  27
BRANCH  21  29
HETATM   29  O9  UNL     1       3.573 -11.823   4.462  1.00  0.00    -0.388 OA
ATOM     30  H9  UNL     1       4.254 -11.881   3.803  1.00  0.00     0.210 HD
ENDBRANCH  21  29
ENDBRANCH  15  16
ENDBRANCH  14  15
ENDBRANCH  13  14
ENDBRANCH   1  13
BRANCH   1  31
HETATM   31  C14 UNL     1       1.410  -5.055   3.650  1.00  0.00     0.212 C 
BRANCH  31  32
HETATM   32  C15 UNL     1       2.353  -5.086   2.510  1.00  0.00     0.255 C 
HETATM   33  O10 UNL     1       3.211  -4.198   2.275  1.00  0.00    -0.270 OA
HETATM   34  N2  UNL     1       2.288  -6.192   1.620  1.00  0.00    -0.236 N 
ATOM     35  H2  UNL     1       1.602  -6.929   1.785  1.00  0.00     0.197 HD
BRANCH  34  36
HETATM   36  O11 UNL     1       3.121  -6.282   0.558  1.00  0.00    -0.287 OA
ATOM     37  H11 UNL     1       3.504  -5.504   0.170  1.00  0.00     0.244 HD
ENDBRANCH  34  36
ENDBRANCH  31  32
ENDBRANCH   1  31
TORSDOF 15
ENDMDL
