MODEL 4
REMARK VINA RESULT: -7.318449999      5.056      8.630
REMARK  15 active torsions:
REMARK  status: ('A' for Active; 'I' for Inactive)
REMARK    1  A    between atoms: O1_2  and  C2_3 
REMARK    2  A    between atoms: C5_6  and  S1_7 
REMARK    3  A    between atoms: S1_7  and  N1_10 
REMARK    4  A    between atoms: N1_10  and  C6_11 
REMARK    5  A    between atoms: N1_10  and  C14_29 
REMARK    6  A    between atoms: C6_11  and  C7_12 
REMARK    7  A    between atoms: C7_12  and  O4_13 
REMARK    8  A    between atoms: O4_13  and  C8_14 
REMARK    9  A    between atoms: C9_16  and  C10_17 
REMARK   10  A    between atoms: C10_17  and  O6_18 
REMARK   11  A    between atoms: C11_20  and  O7_21 
REMARK   12  A    between atoms: C12_23  and  O8_24 
REMARK   13  A    between atoms: C13_26  and  O9_27 
REMARK   14  A    between atoms: C14_29  and  C15_30 
REMARK       I    between atoms: C15_30  and  N2_32 
REMARK   15  A    between atoms: N2_32  and  O11_34 
ROOT
HETATM    1  N1  UNL     1       1.062  -0.357   2.667  1.00  0.00    -0.196 NA
ENDROOT
BRANCH   1   2
HETATM    2  S1  UNL     1       0.320  -0.225   1.131  1.00  0.00     0.244 S 
HETATM    3  O2  UNL     1       0.284   1.166   0.619  1.00  0.00    -0.206 OA
HETATM    4  O3  UNL     1       1.069  -1.103   0.139  1.00  0.00    -0.206 OA
BRANCH   2   5
HETATM    5  C5  UNL     1      -1.295  -0.896   1.239  1.00  0.00     0.074 A 
HETATM    6  C4  UNL     1      -2.043  -0.686   2.370  1.00  0.00     0.027 A 
HETATM    7  C3  UNL     1      -3.307  -1.206   2.465  1.00  0.00     0.038 A 
HETATM    8  C2  UNL     1      -3.878  -1.956   1.437  1.00  0.00     0.068 A 
HETATM    9  C17 UNL     1      -3.100  -2.153   0.305  1.00  0.00     0.038 A 
HETATM   10  C16 UNL     1      -1.828  -1.634   0.202  1.00  0.00     0.027 A 
BRANCH   8  11
HETATM   11  O1  UNL     1      -5.153  -2.479   1.535  1.00  0.00    -0.356 OA
HETATM   12  C1  UNL     1      -5.670  -3.187   0.424  1.00  0.00     0.210 C 
ENDBRANCH   8  11
ENDBRANCH   2   5
ENDBRANCH   1   2
BRANCH   1  13
HETATM   13  C6  UNL     1       1.741  -1.605   2.862  1.00  0.00     0.134 C 
BRANCH  13  14
HETATM   14  C7  UNL     1       1.282  -2.213   4.146  1.00  0.00     0.186 C 
BRANCH  14  15
HETATM   15  O4  UNL     1       2.259  -2.517   5.053  1.00  0.00    -0.357 OA
BRANCH  15  16
HETATM   16  C8  UNL     1       2.294  -3.798   5.524  1.00  0.00     0.291 C 
HETATM   17  O5  UNL     1       3.599  -4.343   5.498  1.00  0.00    -0.348 OA
HETATM   18  C9  UNL     1       3.479  -5.600   6.092  1.00  0.00     0.179 C 
HETATM   19  C11 UNL     1       3.027  -6.551   5.008  1.00  0.00     0.180 C 
HETATM   20  C12 UNL     1       1.974  -5.884   4.157  1.00  0.00     0.183 C 
HETATM   21  C13 UNL     1       1.322  -4.721   4.824  1.00  0.00     0.204 C 
BRANCH  18  22
HETATM   22  C10 UNL     1       4.767  -6.049   6.735  1.00  0.00     0.198 C 
BRANCH  22  23
HETATM   23  O6  UNL     1       5.553  -6.606   5.722  1.00  0.00    -0.398 OA
ATOM     24  H6  UNL     1       5.765  -7.492   5.994  1.00  0.00     0.209 HD
ENDBRANCH  22  23
ENDBRANCH  18  22
BRANCH  19  25
HETATM   25  O7  UNL     1       2.600  -7.752   5.557  1.00  0.00    -0.390 OA
ATOM     26  H7  UNL     1       1.842  -8.085   5.090  1.00  0.00     0.210 HD
ENDBRANCH  19  25
BRANCH  20  27
HETATM   27  O8  UNL     1       2.500  -5.505   2.901  1.00  0.00    -0.390 OA
ATOM     28  H8  UNL     1       1.805  -5.350   2.272  1.00  0.00     0.210 HD
ENDBRANCH  20  27
BRANCH  21  29
HETATM   29  O9  UNL     1       0.260  -5.089   5.658  1.00  0.00    -0.388 OA
ATOM     30  H9  UNL     1      -0.583  -4.909   5.259  1.00  0.00     0.210 HD
ENDBRANCH  21  29
ENDBRANCH  15  16
ENDBRANCH  14  15
ENDBRANCH  13  14
ENDBRANCH   1  13
BRANCH   1  31
HETATM   31  C14 UNL     1       1.776   0.804   3.083  1.00  0.00     0.212 C 
BRANCH  31  32
HETATM   32  C15 UNL     1       1.049   1.618   4.083  1.00  0.00     0.255 C 
HETATM   33  O10 UNL     1       1.346   1.675   5.303  1.00  0.00    -0.270 OA
HETATM   34  N2  UNL     1      -0.059   2.388   3.637  1.00  0.00    -0.236 N 
ATOM     35  H2  UNL     1      -0.325   2.363   2.653  1.00  0.00     0.197 HD
BRANCH  34  36
HETATM   36  O11 UNL     1      -0.767   3.154   4.499  1.00  0.00    -0.287 OA
ATOM     37  H11 UNL     1      -1.671   2.946   4.709  1.00  0.00     0.244 HD
ENDBRANCH  34  36
ENDBRANCH  31  32
ENDBRANCH   1  31
TORSDOF 15
ENDMDL
