MODEL 8
REMARK VINA RESULT: -8.689314099      2.448      3.655
REMARK  9 active torsions:
REMARK  status: ('A' for Active; 'I' for Inactive)
REMARK    1  A    between atoms: C1_2  and  C2_3 
REMARK       I    between atoms: C1_2  and  N2_24 
REMARK    2  A    between atoms: C2_3  and  N1_4 
REMARK    3  A    between atoms: N1_4  and  C3_5 
REMARK    4  A    between atoms: N1_4  and  S1_9 
REMARK    5  A    between atoms: C3_5  and  C4_6 
REMARK    6  A    between atoms: C4_6  and  O2_7 
REMARK    7  A    between atoms: S1_9  and  C5_12 
REMARK    8  A    between atoms: C8_15  and  C9_16 
REMARK    9  A    between atoms: N2_24  and  O5_26 
ROOT
HETATM    1  S1  UNL     1       3.645  -6.032   8.364  1.00  0.00     0.244 S 
HETATM    2  O3  UNL     1       3.427  -4.674   8.970  1.00  0.00    -0.206 OA
HETATM    3  O4  UNL     1       2.629  -6.942   9.044  1.00  0.00    -0.206 OA
ENDROOT
BRANCH   1   4
HETATM    4  N1  UNL     1       3.402  -5.943   6.692  1.00  0.00    -0.196 NA
BRANCH   4   5
HETATM    5  C2  UNL     1       2.131  -6.378   6.237  1.00  0.00     0.212 C 
BRANCH   5   6
HETATM    6  C1  UNL     1       1.054  -5.389   6.248  1.00  0.00     0.255 C 
HETATM    7  O1  UNL     1       0.649  -4.727   7.232  1.00  0.00    -0.270 OA
HETATM    8  N2  UNL     1       0.378  -5.138   5.011  1.00  0.00    -0.236 N 
ATOM      9  H2  UNL     1       0.656  -5.642   4.169  1.00  0.00     0.197 HD
BRANCH   8  10
HETATM   10  O5  UNL     1      -0.641  -4.224   4.953  1.00  0.00    -0.287 OA
ATOM     11  H5  UNL     1      -0.684  -3.598   4.240  1.00  0.00     0.244 HD
ENDBRANCH   8  10
ENDBRANCH   5   6
ENDBRANCH   4   5
BRANCH   4  12
HETATM   12  C3  UNL     1       3.719  -4.642   6.182  1.00  0.00     0.134 C 
BRANCH  12  13
HETATM   13  C4  UNL     1       3.837  -4.719   4.660  1.00  0.00     0.179 C 
BRANCH  13  14
HETATM   14  O2  UNL     1       3.699  -3.416   4.195  1.00  0.00    -0.400 OA
ATOM     15  H2  UNL     1       3.351  -3.484   3.314  1.00  0.00     0.209 HD
ENDBRANCH  13  14
ENDBRANCH  12  13
ENDBRANCH   4  12
ENDBRANCH   1   4
BRANCH   1  16
HETATM   16  C5  UNL     1       5.277  -6.547   8.778  1.00  0.00     0.074 A 
HETATM   17  C6  UNL     1       5.606  -6.931  10.058  1.00  0.00     0.025 A 
HETATM   18  C7  UNL     1       6.878  -7.339  10.402  1.00  0.00     0.014 A 
HETATM   19  C8  UNL     1       7.893  -7.383   9.468  1.00  0.00    -0.026 A 
HETATM   20  C15 UNL     1       7.563  -6.998   8.187  1.00  0.00     0.014 A 
HETATM   21  C16 UNL     1       6.289  -6.589   7.842  1.00  0.00     0.025 A 
BRANCH  19  22
HETATM   22  C9  UNL     1       9.248  -7.811   9.801  1.00  0.00    -0.026 A 
HETATM   23  C10 UNL     1      10.271  -7.850   8.876  1.00  0.00     0.012 A 
HETATM   24  C11 UNL     1      11.549  -8.258   9.201  1.00  0.00     0.001 A 
HETATM   25  C12 UNL     1      11.856  -8.649  10.486  1.00  0.00     0.000 A 
HETATM   26  C13 UNL     1      10.853  -8.618  11.423  1.00  0.00     0.001 A 
HETATM   27  C14 UNL     1       9.578  -8.206  11.079  1.00  0.00     0.012 A 
ENDBRANCH  19  22
ENDBRANCH   1  16
TORSDOF 9
ENDMDL
