MODEL 10
REMARK VINA RESULT: -8.656740449      1.915      3.575
REMARK  9 active torsions:
REMARK  status: ('A' for Active; 'I' for Inactive)
REMARK    1  A    between atoms: C1_2  and  C2_3 
REMARK       I    between atoms: C1_2  and  N2_24 
REMARK    2  A    between atoms: C2_3  and  N1_4 
REMARK    3  A    between atoms: N1_4  and  C3_5 
REMARK    4  A    between atoms: N1_4  and  S1_9 
REMARK    5  A    between atoms: C3_5  and  C4_6 
REMARK    6  A    between atoms: C4_6  and  O2_7 
REMARK    7  A    between atoms: S1_9  and  C5_12 
REMARK    8  A    between atoms: C8_15  and  C9_16 
REMARK    9  A    between atoms: N2_24  and  O5_26 
ROOT
HETATM    1  S1  UNL     1       0.627  -5.155   4.602  1.00  0.00     0.244 S 
HETATM    2  O3  UNL     1      -0.425  -4.494   5.448  1.00  0.00    -0.206 OA
HETATM    3  O4  UNL     1      -0.010  -6.449   4.108  1.00  0.00    -0.206 OA
ENDROOT
BRANCH   1   4
HETATM    4  N1  UNL     1       1.047  -4.126   3.327  1.00  0.00    -0.196 NA
BRANCH   4   5
HETATM    5  C2  UNL     1       2.196  -3.323   3.545  1.00  0.00     0.212 C 
BRANCH   5   6
HETATM    6  C1  UNL     1       1.966  -1.955   4.005  1.00  0.00     0.255 C 
HETATM    7  O1  UNL     1       2.123  -0.901   3.346  1.00  0.00    -0.270 OA
HETATM    8  N2  UNL     1       1.513  -1.781   5.353  1.00  0.00    -0.236 N 
ATOM      9  H2  UNL     1       1.363  -2.597   5.947  1.00  0.00     0.197 HD
BRANCH   8  10
HETATM   10  O5  UNL     1       1.279  -0.525   5.847  1.00  0.00    -0.287 OA
ATOM     11  H5  UNL     1       1.097  -0.399   6.771  1.00  0.00     0.244 HD
ENDBRANCH   8  10
ENDBRANCH   5   6
ENDBRANCH   4   5
BRANCH   4  12
HETATM   12  C3  UNL     1       1.138  -4.836   2.085  1.00  0.00     0.134 C 
BRANCH  12  13
HETATM   13  C4  UNL     1       2.466  -4.491   1.410  1.00  0.00     0.179 C 
BRANCH  13  14
HETATM   14  O2  UNL     1       2.795  -5.588   0.620  1.00  0.00    -0.400 OA
ATOM     15  H2  UNL     1       3.206  -5.238  -0.160  1.00  0.00     0.209 HD
ENDBRANCH  13  14
ENDBRANCH  12  13
ENDBRANCH   4  12
ENDBRANCH   1   4
BRANCH   1  16
HETATM   16  C5  UNL     1       1.997  -5.527   5.643  1.00  0.00     0.074 A 
HETATM   17  C6  UNL     1       1.958  -5.280   6.997  1.00  0.00     0.025 A 
HETATM   18  C7  UNL     1       3.020  -5.564   7.830  1.00  0.00     0.014 A 
HETATM   19  C8  UNL     1       4.186  -6.116   7.340  1.00  0.00    -0.026 A 
HETATM   20  C15 UNL     1       4.225  -6.363   5.985  1.00  0.00     0.014 A 
HETATM   21  C16 UNL     1       3.161  -6.078   5.150  1.00  0.00     0.025 A 
BRANCH  19  22
HETATM   22  C9  UNL     1       5.326  -6.430   8.195  1.00  0.00    -0.026 A 
HETATM   23  C10 UNL     1       5.213  -6.624   9.557  1.00  0.00     0.012 A 
HETATM   24  C11 UNL     1       6.297  -6.920  10.357  1.00  0.00     0.001 A 
HETATM   25  C12 UNL     1       7.559  -7.034   9.815  1.00  0.00     0.000 A 
HETATM   26  C13 UNL     1       7.695  -6.845   8.462  1.00  0.00     0.001 A 
HETATM   27  C14 UNL     1       6.597  -6.549   7.676  1.00  0.00     0.012 A 
ENDBRANCH  19  22
ENDBRANCH   1  16
TORSDOF 9
ENDMDL
