MODEL 11
REMARK VINA RESULT: -8.651698902      1.965      3.584
REMARK  9 active torsions:
REMARK  status: ('A' for Active; 'I' for Inactive)
REMARK    1  A    between atoms: C1_2  and  C2_3 
REMARK       I    between atoms: C1_2  and  N2_24 
REMARK    2  A    between atoms: C2_3  and  N1_4 
REMARK    3  A    between atoms: N1_4  and  C3_5 
REMARK    4  A    between atoms: N1_4  and  S1_9 
REMARK    5  A    between atoms: C3_5  and  C4_6 
REMARK    6  A    between atoms: C4_6  and  O2_7 
REMARK    7  A    between atoms: S1_9  and  C5_12 
REMARK    8  A    between atoms: C8_15  and  C9_16 
REMARK    9  A    between atoms: N2_24  and  O5_26 
ROOT
HETATM    1  S1  UNL     1       1.319  -5.087   5.641  1.00  0.00     0.244 S 
HETATM    2  O3  UNL     1       0.342  -4.545   6.646  1.00  0.00    -0.206 OA
HETATM    3  O4  UNL     1       0.638  -6.311   5.040  1.00  0.00    -0.206 OA
ENDROOT
BRANCH   1   4
HETATM    4  N1  UNL     1       1.638  -3.901   4.477  1.00  0.00    -0.196 NA
BRANCH   4   5
HETATM    5  C2  UNL     1       2.102  -2.659   4.982  1.00  0.00     0.212 C 
BRANCH   5   6
HETATM    6  C1  UNL     1       1.618  -1.454   4.314  1.00  0.00     0.255 C 
HETATM    7  O1  UNL     1       2.259  -0.397   4.104  1.00  0.00    -0.270 OA
HETATM    8  N2  UNL     1       0.266  -1.461   3.839  1.00  0.00    -0.236 N 
ATOM      9  H2  UNL     1      -0.315  -2.289   3.975  1.00  0.00     0.197 HD
BRANCH   8  10
HETATM   10  O5  UNL     1      -0.251  -0.363   3.205  1.00  0.00    -0.287 OA
ATOM     11  H5  UNL     1      -1.185  -0.293   3.050  1.00  0.00     0.244 HD
ENDBRANCH   8  10
ENDBRANCH   5   6
ENDBRANCH   4   5
BRANCH   4  12
HETATM   12  C3  UNL     1       2.500  -4.396   3.444  1.00  0.00     0.134 C 
BRANCH  12  13
HETATM   13  C4  UNL     1       1.709  -4.495   2.140  1.00  0.00     0.179 C 
BRANCH  13  14
HETATM   14  O2  UNL     1       0.369  -4.362   2.489  1.00  0.00    -0.400 OA
ATOM     15  H2  UNL     1      -0.109  -4.275   1.673  1.00  0.00     0.209 HD
ENDBRANCH  13  14
ENDBRANCH  12  13
ENDBRANCH   4  12
ENDBRANCH   1   4
BRANCH   1  16
HETATM   16  C5  UNL     1       2.767  -5.579   6.511  1.00  0.00     0.074 A 
HETATM   17  C6  UNL     1       2.736  -5.857   7.859  1.00  0.00     0.025 A 
HETATM   18  C7  UNL     1       3.859  -6.245   8.560  1.00  0.00     0.014 A 
HETATM   19  C8  UNL     1       5.083  -6.374   7.934  1.00  0.00    -0.026 A 
HETATM   20  C15 UNL     1       5.114  -6.095   6.585  1.00  0.00     0.014 A 
HETATM   21  C16 UNL     1       3.989  -5.707   5.884  1.00  0.00     0.025 A 
BRANCH  19  22
HETATM   22  C9  UNL     1       6.289  -6.784   8.647  1.00  0.00    -0.026 A 
HETATM   23  C10 UNL     1       7.521  -6.891   8.037  1.00  0.00     0.012 A 
HETATM   24  C11 UNL     1       8.656  -7.280   8.720  1.00  0.00     0.001 A 
HETATM   25  C12 UNL     1       8.597  -7.582  10.063  1.00  0.00     0.000 A 
HETATM   26  C13 UNL     1       7.381  -7.482  10.691  1.00  0.00     0.001 A 
HETATM   27  C14 UNL     1       6.255  -7.090   9.991  1.00  0.00     0.012 A 
ENDBRANCH  19  22
ENDBRANCH   1  16
TORSDOF 9
ENDMDL
