MODEL 17
REMARK VINA RESULT: -8.456984235      2.469      4.319
REMARK  9 active torsions:
REMARK  status: ('A' for Active; 'I' for Inactive)
REMARK    1  A    between atoms: C1_2  and  C2_3 
REMARK       I    between atoms: C1_2  and  N2_24 
REMARK    2  A    between atoms: C2_3  and  N1_4 
REMARK    3  A    between atoms: N1_4  and  C3_5 
REMARK    4  A    between atoms: N1_4  and  S1_9 
REMARK    5  A    between atoms: C3_5  and  C4_6 
REMARK    6  A    between atoms: C4_6  and  O2_7 
REMARK    7  A    between atoms: S1_9  and  C5_12 
REMARK    8  A    between atoms: C8_15  and  C9_16 
REMARK    9  A    between atoms: N2_24  and  O5_26 
ROOT
HETATM    1  S1  UNL     1       0.880  -4.719   4.570  1.00  0.00     0.244 S 
HETATM    2  O3  UNL     1      -0.407  -5.061   5.265  1.00  0.00    -0.206 OA
HETATM    3  O4  UNL     1       0.893  -5.571   3.306  1.00  0.00    -0.206 OA
ENDROOT
BRANCH   1   4
HETATM    4  N1  UNL     1       0.904  -3.063   4.220  1.00  0.00    -0.196 NA
BRANCH   4   5
HETATM    5  C2  UNL     1       2.036  -2.355   4.698  1.00  0.00     0.212 C 
BRANCH   5   6
HETATM    6  C1  UNL     1       1.992  -0.898   4.597  1.00  0.00     0.255 C 
HETATM    7  O1  UNL     1       2.474  -0.190   3.682  1.00  0.00    -0.270 OA
HETATM    8  N2  UNL     1       1.332  -0.183   5.649  1.00  0.00    -0.236 N 
ATOM      9  H2  UNL     1       0.916  -0.696   6.427  1.00  0.00     0.197 HD
BRANCH   8  10
HETATM   10  O5  UNL     1       1.256   1.184   5.615  1.00  0.00    -0.287 OA
ATOM     11  H5  UNL     1       1.093   1.675   6.412  1.00  0.00     0.244 HD
ENDBRANCH   8  10
ENDBRANCH   5   6
ENDBRANCH   4   5
BRANCH   4  12
HETATM   12  C3  UNL     1       0.689  -2.817   2.824  1.00  0.00     0.134 C 
BRANCH  12  13
HETATM   13  C4  UNL     1      -0.796  -2.542   2.590  1.00  0.00     0.179 C 
BRANCH  13  14
HETATM   14  O2  UNL     1      -1.184  -1.643   3.577  1.00  0.00    -0.400 OA
ATOM     15  H2  UNL     1      -2.133  -1.619   3.556  1.00  0.00     0.209 HD
ENDBRANCH  13  14
ENDBRANCH  12  13
ENDBRANCH   4  12
ENDBRANCH   1   4
BRANCH   1  16
HETATM   16  C5  UNL     1       2.205  -5.199   5.626  1.00  0.00     0.074 A 
HETATM   17  C6  UNL     1       3.452  -5.494   5.124  1.00  0.00     0.025 A 
HETATM   18  C7  UNL     1       4.503  -5.872   5.934  1.00  0.00     0.014 A 
HETATM   19  C8  UNL     1       4.351  -5.973   7.302  1.00  0.00    -0.026 A 
HETATM   20  C15 UNL     1       3.102  -5.679   7.804  1.00  0.00     0.014 A 
HETATM   21  C16 UNL     1       2.049  -5.300   6.992  1.00  0.00     0.025 A 
BRANCH  19  22
HETATM   22  C9  UNL     1       5.444  -6.368   8.185  1.00  0.00    -0.026 A 
HETATM   23  C10 UNL     1       5.271  -6.604   9.534  1.00  0.00     0.012 A 
HETATM   24  C11 UNL     1       6.311  -6.977  10.361  1.00  0.00     0.001 A 
HETATM   25  C12 UNL     1       7.585  -7.130   9.860  1.00  0.00     0.000 A 
HETATM   26  C13 UNL     1       7.780  -6.901   8.521  1.00  0.00     0.001 A 
HETATM   27  C14 UNL     1       6.727  -6.528   7.707  1.00  0.00     0.012 A 
ENDBRANCH  19  22
ENDBRANCH   1  16
TORSDOF 9
ENDMDL
