MODEL 4
REMARK VINA RESULT: -8.893214649      1.725      2.385
REMARK  9 active torsions:
REMARK  status: ('A' for Active; 'I' for Inactive)
REMARK    1  A    between atoms: C1_2  and  C2_3 
REMARK       I    between atoms: C1_2  and  N2_24 
REMARK    2  A    between atoms: C2_3  and  N1_4 
REMARK    3  A    between atoms: N1_4  and  C3_5 
REMARK    4  A    between atoms: N1_4  and  S1_9 
REMARK    5  A    between atoms: C3_5  and  C4_6 
REMARK    6  A    between atoms: C4_6  and  O2_7 
REMARK    7  A    between atoms: S1_9  and  C5_12 
REMARK    8  A    between atoms: C8_15  and  C9_16 
REMARK    9  A    between atoms: N2_24  and  O5_26 
ROOT
HETATM    1  S1  UNL     1       3.320  -5.614   7.514  1.00  0.00     0.244 S 
HETATM    2  O3  UNL     1       3.215  -4.149   7.836  1.00  0.00    -0.206 OA
HETATM    3  O4  UNL     1       2.168  -6.272   8.264  1.00  0.00    -0.206 OA
ENDROOT
BRANCH   1   4
HETATM    4  N1  UNL     1       3.194  -5.829   5.840  1.00  0.00    -0.196 NA
BRANCH   4   5
HETATM    5  C2  UNL     1       1.926  -6.261   5.374  1.00  0.00     0.212 C 
BRANCH   5   6
HETATM    6  C1  UNL     1       1.891  -7.520   4.632  1.00  0.00     0.255 C 
HETATM    7  O1  UNL     1       2.826  -8.344   4.500  1.00  0.00    -0.270 OA
HETATM    8  N2  UNL     1       0.664  -7.865   3.978  1.00  0.00    -0.236 N 
ATOM      9  H2  UNL     1      -0.139  -7.240   4.044  1.00  0.00     0.197 HD
BRANCH   8  10
HETATM   10  O5  UNL     1       0.565  -9.030   3.265  1.00  0.00    -0.287 OA
ATOM     11  H5  UNL     1      -0.288  -9.382   3.037  1.00  0.00     0.244 HD
ENDBRANCH   8  10
ENDBRANCH   5   6
ENDBRANCH   4   5
BRANCH   4  12
HETATM   12  C3  UNL     1       3.642  -4.670   5.126  1.00  0.00     0.134 C 
BRANCH  12  13
HETATM   13  C4  UNL     1       2.426  -3.855   4.686  1.00  0.00     0.179 C 
BRANCH  13  14
HETATM   14  O2  UNL     1       2.475  -2.666   5.407  1.00  0.00    -0.400 OA
ATOM     15  H2  UNL     1       1.626  -2.256   5.298  1.00  0.00     0.209 HD
ENDBRANCH  13  14
ENDBRANCH  12  13
ENDBRANCH   4  12
ENDBRANCH   1   4
BRANCH   1  16
HETATM   16  C5  UNL     1       4.854  -6.195   8.151  1.00  0.00     0.074 A 
HETATM   17  C6  UNL     1       4.997  -6.542   9.475  1.00  0.00     0.025 A 
HETATM   18  C7  UNL     1       6.191  -7.000   9.994  1.00  0.00     0.014 A 
HETATM   19  C8  UNL     1       7.311  -7.134   9.200  1.00  0.00    -0.026 A 
HETATM   20  C15 UNL     1       7.168  -6.787   7.874  1.00  0.00     0.014 A 
HETATM   21  C16 UNL     1       5.973  -6.328   7.355  1.00  0.00     0.025 A 
BRANCH  19  22
HETATM   22  C9  UNL     1       8.587  -7.618   9.719  1.00  0.00    -0.026 A 
HETATM   23  C10 UNL     1       8.742  -8.098  11.003  1.00  0.00     0.012 A 
HETATM   24  C11 UNL     1       9.953  -8.553  11.484  1.00  0.00     0.001 A 
HETATM   25  C12 UNL     1      11.074  -8.542  10.683  1.00  0.00     0.000 A 
HETATM   26  C13 UNL     1      10.943  -8.069   9.402  1.00  0.00     0.001 A 
HETATM   27  C14 UNL     1       9.722  -7.617   8.936  1.00  0.00     0.012 A 
ENDBRANCH  19  22
ENDBRANCH   1  16
TORSDOF 9
ENDMDL
