MODEL 4
REMARK VINA RESULT: -4.675168573      2.073      4.879
REMARK  6 active torsions:
REMARK  status: ('A' for Active; 'I' for Inactive)
REMARK       I    between atoms: C2_2  and  N1_4 
REMARK    1  A    between atoms: N1_4  and  C3_6 
REMARK    2  A    between atoms: C4_7  and  O2_8 
REMARK    3  A    between atoms: C5_11  and  C6_12 
REMARK    4  A    between atoms: C6_12  and  O4_13 
REMARK    5  A    between atoms: C7_15  and  O5_16 
REMARK    6  A    between atoms: C8_18  and  O6_19 
ROOT
HETATM    1  C3  UNL     1     -39.839 -30.023  -5.330  1.00  0.00     0.170 C 
HETATM    2  C4  UNL     1     -40.818 -30.918  -6.096  1.00  0.00     0.282 C 
HETATM    3  O3  UNL     1     -42.042 -30.250  -6.047  1.00  0.00    -0.349 OA
HETATM    4  C5  UNL     1     -42.534 -30.373  -4.775  1.00  0.00     0.179 C 
HETATM    5  C7  UNL     1     -41.637 -29.850  -3.701  1.00  0.00     0.180 C 
HETATM    6  C8  UNL     1     -40.190 -30.247  -3.878  1.00  0.00     0.177 C 
ENDROOT
BRANCH   1   7
HETATM    7  N1  UNL     1     -38.495 -30.367  -5.658  1.00  0.00    -0.349 N 
HETATM    8  C2  UNL     1     -37.427 -29.431  -5.612  1.00  0.00     0.214 C 
HETATM    9  C1  UNL     1     -36.019 -29.798  -5.957  1.00  0.00     0.117 C 
HETATM   10  O1  UNL     1     -37.736 -28.252  -5.259  1.00  0.00    -0.274 OA
ATOM     11  H1  UNL     1     -38.292 -31.328  -5.937  1.00  0.00     0.163 HD
ENDBRANCH   1   7
BRANCH   2  12
HETATM   12  O2  UNL     1     -40.991 -32.113  -5.392  1.00  0.00    -0.369 OA
ATOM     13  H2  UNL     1     -41.659 -31.989  -4.729  1.00  0.00     0.212 HD
ENDBRANCH   2  12
BRANCH   6  14
HETATM   14  O6  UNL     1     -39.432 -29.490  -3.011  1.00  0.00    -0.391 OA
ATOM     15  H6  UNL     1     -39.840 -29.369  -2.162  1.00  0.00     0.210 HD
ENDBRANCH   6  14
BRANCH   5  16
HETATM   16  O5  UNL     1     -41.749 -28.468  -3.533  1.00  0.00    -0.390 OA
ATOM     17  H5  UNL     1     -42.643 -28.159  -3.622  1.00  0.00     0.210 HD
ENDBRANCH   5  16
BRANCH   4  18
HETATM   18  C6  UNL     1     -43.879 -29.666  -4.631  1.00  0.00     0.198 C 
BRANCH  18  19
HETATM   19  O4  UNL     1     -44.290 -29.295  -5.906  1.00  0.00    -0.398 OA
ATOM     20  H4  UNL     1     -44.583 -30.083  -6.350  1.00  0.00     0.209 HD
ENDBRANCH  18  19
ENDBRANCH   4  18
TORSDOF 6
ENDMDL
