MODEL 2
REMARK VINA RESULT: -5.310320523      1.645      5.046
REMARK  6 active torsions:
REMARK  status: ('A' for Active; 'I' for Inactive)
REMARK       I    between atoms: C2_2  and  N1_4 
REMARK    1  A    between atoms: N1_4  and  C3_6 
REMARK    2  A    between atoms: C4_7  and  O2_8 
REMARK    3  A    between atoms: C5_11  and  C6_12 
REMARK    4  A    between atoms: C6_12  and  O4_13 
REMARK    5  A    between atoms: C7_15  and  O5_16 
REMARK    6  A    between atoms: C8_18  and  O6_19 
ROOT
HETATM    1  C3  UNL     1     -39.258 -29.980  -4.605  1.00  0.00     0.170 C 
HETATM    2  C4  UNL     1     -39.339 -28.677  -3.805  1.00  0.00     0.282 C 
HETATM    3  O3  UNL     1     -40.029 -29.007  -2.636  1.00  0.00    -0.349 OA
HETATM    4  C5  UNL     1     -41.347 -29.180  -2.965  1.00  0.00     0.179 C 
HETATM    5  C7  UNL     1     -41.603 -30.221  -4.006  1.00  0.00     0.180 C 
HETATM    6  C8  UNL     1     -40.647 -30.153  -5.174  1.00  0.00     0.177 C 
ENDROOT
BRANCH   1   7
HETATM    7  N1  UNL     1     -38.237 -29.887  -5.596  1.00  0.00    -0.349 N 
HETATM    8  C2  UNL     1     -36.916 -30.365  -5.388  1.00  0.00     0.214 C 
HETATM    9  C1  UNL     1     -35.848 -30.265  -6.431  1.00  0.00     0.117 C 
HETATM   10  O1  UNL     1     -36.686 -30.888  -4.255  1.00  0.00    -0.274 OA
ATOM     11  H1  UNL     1     -38.466 -29.459  -6.494  1.00  0.00     0.163 HD
ENDBRANCH   1   7
BRANCH   2  12
HETATM   12  O2  UNL     1     -40.143 -27.765  -4.494  1.00  0.00    -0.369 OA
ATOM     13  H2  UNL     1     -39.968 -26.890  -4.171  1.00  0.00     0.212 HD
ENDBRANCH   2  12
BRANCH   6  14
HETATM   14  O6  UNL     1     -40.794 -31.309  -5.912  1.00  0.00    -0.391 OA
ATOM     15  H6  UNL     1     -41.700 -31.523  -6.097  1.00  0.00     0.210 HD
ENDBRANCH   6  14
BRANCH   5  16
HETATM   16  O5  UNL     1     -41.640 -31.513  -3.477  1.00  0.00    -0.390 OA
ATOM     17  H5  UNL     1     -42.280 -32.067  -3.908  1.00  0.00     0.210 HD
ENDBRANCH   5  16
BRANCH   4  18
HETATM   18  C6  UNL     1     -42.179 -29.546  -1.739  1.00  0.00     0.198 C 
BRANCH  18  19
HETATM   19  O4  UNL     1     -42.444 -28.367  -1.052  1.00  0.00    -0.398 OA
ATOM     20  H4  UNL     1     -41.612 -28.027  -0.742  1.00  0.00     0.209 HD
ENDBRANCH  18  19
ENDBRANCH   4  18
TORSDOF 6
ENDMDL
