MODEL 1
REMARK VINA RESULT: -5.386863137      0.000      0.000
REMARK  6 active torsions:
REMARK  status: ('A' for Active; 'I' for Inactive)
REMARK       I    between atoms: C2_2  and  N1_4 
REMARK    1  A    between atoms: N1_4  and  C3_6 
REMARK    2  A    between atoms: C4_7  and  O2_8 
REMARK    3  A    between atoms: C5_11  and  C6_12 
REMARK    4  A    between atoms: C6_12  and  O4_13 
REMARK    5  A    between atoms: C7_15  and  O5_16 
REMARK    6  A    between atoms: C8_18  and  O6_19 
ROOT
HETATM    1  C3  UNL     1     -40.141 -30.009  -4.386  1.00  0.00     0.170 C 
HETATM    2  C4  UNL     1     -39.700 -31.176  -5.275  1.00  0.00     0.282 C 
HETATM    3  O3  UNL     1     -38.317 -31.261  -5.109  1.00  0.00    -0.349 OA
HETATM    4  C5  UNL     1     -37.750 -30.209  -5.778  1.00  0.00     0.179 C 
HETATM    5  C7  UNL     1     -38.222 -28.861  -5.343  1.00  0.00     0.180 C 
HETATM    6  C8  UNL     1     -39.720 -28.778  -5.153  1.00  0.00     0.177 C 
ENDROOT
BRANCH   1   7
HETATM    7  N1  UNL     1     -41.543 -30.080  -4.138  1.00  0.00    -0.349 N 
HETATM    8  C2  UNL     1     -42.147 -29.540  -2.971  1.00  0.00     0.214 C 
HETATM    9  C1  UNL     1     -43.619 -29.618  -2.715  1.00  0.00     0.117 C 
HETATM   10  O1  UNL     1     -41.361 -28.980  -2.147  1.00  0.00    -0.274 OA
ATOM     11  H1  UNL     1     -42.138 -30.540  -4.828  1.00  0.00     0.163 HD
ENDBRANCH   1   7
BRANCH   2  12
HETATM   12  O2  UNL     1     -39.917 -30.838  -6.614  1.00  0.00    -0.369 OA
ATOM     13  H2  UNL     1     -39.668 -31.571  -7.163  1.00  0.00     0.212 HD
ENDBRANCH   2  12
BRANCH   6  14
HETATM   14  O6  UNL     1     -40.000 -27.601  -4.493  1.00  0.00    -0.391 OA
ATOM     15  H6  UNL     1     -39.513 -26.857  -4.826  1.00  0.00     0.210 HD
ENDBRANCH   6  14
BRANCH   5  16
HETATM   16  O5  UNL     1     -37.558 -28.400  -4.204  1.00  0.00    -0.390 OA
ATOM     17  H5  UNL     1     -37.354 -27.473  -4.249  1.00  0.00     0.210 HD
ENDBRANCH   5  16
BRANCH   4  18
HETATM   18  C6  UNL     1     -36.230 -30.225  -5.648  1.00  0.00     0.198 C 
BRANCH  18  19
HETATM   19  O4  UNL     1     -35.929 -30.679  -4.369  1.00  0.00    -0.398 OA
ATOM     20  H4  UNL     1     -35.869 -31.626  -4.411  1.00  0.00     0.209 HD
ENDBRANCH  18  19
ENDBRANCH   4  18
TORSDOF 6
ENDMDL
