MODEL 3
REMARK VINA RESULT: -7.772388164      1.430      1.970
REMARK  7 active torsions:
REMARK  status: ('A' for Active; 'I' for Inactive)
REMARK    1  A    between atoms: N2_5  and  C4_6 
REMARK    2  A    between atoms: C4_6  and  C5_7 
REMARK    3  A    between atoms: C5_7  and  C6_8 
REMARK    4  A    between atoms: C6_8  and  O1_9 
REMARK    5  A    between atoms: O1_9  and  C7_10 
REMARK    6  A    between atoms: C10_13  and  C11_14 
REMARK    7  A    between atoms: C18_24  and  C19_25 
ROOT
HETATM    1  C11 UNL     1      12.882  -2.477  22.378  1.00  0.00     0.043 A 
HETATM    2  C12 UNL     1      12.673  -1.305  21.703  1.00  0.00     0.030 A 
HETATM    3  C13 UNL     1      12.684  -0.064  22.341  1.00  0.00     0.005 A 
HETATM    4  C14 UNL     1      12.915  -0.039  23.696  1.00  0.00     0.041 A 
HETATM    5  C15 UNL     1      13.125  -1.227  24.366  1.00  0.00     0.114 A 
HETATM    6  C16 UNL     1      13.368  -1.182  25.796  1.00  0.00     0.117 C 
HETATM    7  N3  UNL     1      13.544  -1.152  26.930  1.00  0.00    -0.190 NA
HETATM    8  N4  UNL     1      13.106  -2.402  23.715  1.00  0.00    -0.347 N 
ATOM      9  H4  UNL     1      13.264  -3.261  24.239  1.00  0.00     0.167 HD
ENDROOT
BRANCH   1  10
HETATM   10  C10 UNL     1      12.878  -3.802  21.747  1.00  0.00    -0.009 A 
HETATM   11  C9  UNL     1      11.689  -4.335  21.251  1.00  0.00     0.016 A 
HETATM   12  C8  UNL     1      11.661  -5.574  20.656  1.00  0.00     0.038 A 
HETATM   13  C7  UNL     1      12.799  -6.341  20.525  1.00  0.00     0.083 A 
HETATM   14  C18 UNL     1      13.985  -5.831  21.011  1.00  0.00     0.082 A 
HETATM   15  C17 UNL     1      14.002  -4.582  21.609  1.00  0.00     0.032 A 
BRANCH  13  16
HETATM   16  O1  UNL     1      12.719  -7.585  19.918  1.00  0.00    -0.350 OA
BRANCH  16  17
HETATM   17  C6  UNL     1      12.080  -7.708  18.685  1.00  0.00     0.177 C 
BRANCH  17  18
HETATM   18  C5  UNL     1      12.999  -7.934  17.534  1.00  0.00     0.057 C 
BRANCH  18  19
HETATM   19  C4  UNL     1      12.978  -9.381  17.106  1.00  0.00     0.274 C 
BRANCH  19  20
HETATM   20  N2  UNL     1      14.129 -10.113  17.508  1.00  0.00     0.091 N 
HETATM   21  C3  UNL     1      14.695 -10.967  16.521  1.00  0.00     0.302 C 
HETATM   22  C2  UNL     1      15.589 -12.012  17.197  1.00  0.00     0.302 C 
HETATM   23  N1  UNL     1      16.146 -11.454  18.420  1.00  0.00     0.087 N 
HETATM   24  C1  UNL     1      17.165 -12.382  18.873  1.00  0.00     0.310 C 
HETATM   25  C21 UNL     1      15.035 -11.409  19.385  1.00  0.00     0.302 C 
HETATM   26  C20 UNL     1      13.795 -10.834  18.741  1.00  0.00     0.302 C 
ENDBRANCH  19  20
ENDBRANCH  18  19
ENDBRANCH  17  18
ENDBRANCH  16  17
ENDBRANCH  13  16
BRANCH  14  27
HETATM   27  C19 UNL     1      15.225  -6.624  20.889  1.00  0.00     0.420 C 
HETATM   28  F1  UNL     1      15.366  -7.226  19.661  1.00  0.00    -0.166 F 
HETATM   29  F2  UNL     1      16.318  -5.790  21.088  1.00  0.00    -0.166 F 
HETATM   30  F3  UNL     1      15.255  -7.552  21.928  1.00  0.00    -0.166 F 
ENDBRANCH  14  27
ENDBRANCH   1  10
TORSDOF 7
ENDMDL
