MODEL 1
REMARK VINA RESULT: -7.818650332      0.000      0.000
REMARK  7 active torsions:
REMARK  status: ('A' for Active; 'I' for Inactive)
REMARK    1  A    between atoms: N2_5  and  C4_6 
REMARK    2  A    between atoms: C4_6  and  C5_7 
REMARK    3  A    between atoms: C5_7  and  C6_8 
REMARK    4  A    between atoms: C6_8  and  O1_9 
REMARK    5  A    between atoms: O1_9  and  C7_10 
REMARK    6  A    between atoms: C10_13  and  C11_14 
REMARK    7  A    between atoms: C18_24  and  C19_25 
ROOT
HETATM    1  C11 UNL     1      12.842  -2.486  22.379  1.00  0.00     0.043 A 
HETATM    2  C12 UNL     1      12.588  -1.321  21.709  1.00  0.00     0.030 A 
HETATM    3  C13 UNL     1      12.577  -0.079  22.347  1.00  0.00     0.005 A 
HETATM    4  C14 UNL     1      12.834  -0.048  23.698  1.00  0.00     0.041 A 
HETATM    5  C15 UNL     1      13.090  -1.230  24.362  1.00  0.00     0.114 A 
HETATM    6  C16 UNL     1      13.359  -1.178  25.787  1.00  0.00     0.117 C 
HETATM    7  N3  UNL     1      13.557  -1.144  26.917  1.00  0.00    -0.190 NA
HETATM    8  N4  UNL     1      13.090  -2.405  23.711  1.00  0.00    -0.347 N 
ATOM      9  H4  UNL     1      13.282  -3.260  24.232  1.00  0.00     0.167 HD
ENDROOT
BRANCH   1  10
HETATM   10  C10 UNL     1      12.862  -3.811  21.747  1.00  0.00    -0.009 A 
HETATM   11  C9  UNL     1      11.685  -4.362  21.244  1.00  0.00     0.016 A 
HETATM   12  C8  UNL     1      11.679  -5.602  20.649  1.00  0.00     0.038 A 
HETATM   13  C7  UNL     1      12.830  -6.350  20.524  1.00  0.00     0.083 A 
HETATM   14  C18 UNL     1      14.006  -5.822  21.016  1.00  0.00     0.082 A 
HETATM   15  C17 UNL     1      14.000  -4.573  21.615  1.00  0.00     0.032 A 
BRANCH  13  16
HETATM   16  O1  UNL     1      12.772  -7.595  19.916  1.00  0.00    -0.350 OA
BRANCH  16  17
HETATM   17  C6  UNL     1      11.747  -7.872  19.013  1.00  0.00     0.177 C 
BRANCH  17  18
HETATM   18  C5  UNL     1      12.124  -7.703  17.581  1.00  0.00     0.057 C 
BRANCH  18  19
HETATM   19  C4  UNL     1      13.384  -8.470  17.262  1.00  0.00     0.274 C 
BRANCH  19  20
HETATM   20  N2  UNL     1      13.165  -9.618  16.451  1.00  0.00     0.091 N 
HETATM   21  C3  UNL     1      11.983  -9.602  15.662  1.00  0.00     0.302 C 
HETATM   22  C2  UNL     1      11.634 -11.030  15.230  1.00  0.00     0.302 C 
HETATM   23  N1  UNL     1      12.854 -11.814  15.118  1.00  0.00     0.087 N 
HETATM   24  C1  UNL     1      12.489 -13.061  14.472  1.00  0.00     0.310 C 
HETATM   25  C21 UNL     1      13.299 -12.067  16.498  1.00  0.00     0.302 C 
HETATM   26  C20 UNL     1      13.239 -10.799  17.318  1.00  0.00     0.302 C 
ENDBRANCH  19  20
ENDBRANCH  18  19
ENDBRANCH  17  18
ENDBRANCH  16  17
ENDBRANCH  13  16
BRANCH  14  27
HETATM   27  C19 UNL     1      15.259  -6.595  20.901  1.00  0.00     0.420 C 
HETATM   28  F1  UNL     1      15.385  -7.248  19.697  1.00  0.00    -0.166 F 
HETATM   29  F2  UNL     1      16.338  -5.732  21.038  1.00  0.00    -0.166 F 
HETATM   30  F3  UNL     1      15.330  -7.476  21.978  1.00  0.00    -0.166 F 
ENDBRANCH  14  27
ENDBRANCH   1  10
TORSDOF 7
ENDMDL
