MODEL 2
REMARK VINA RESULT: -7.812889421      1.080      1.204
REMARK  7 active torsions:
REMARK  status: ('A' for Active; 'I' for Inactive)
REMARK    1  A    between atoms: N2_5  and  C4_6 
REMARK    2  A    between atoms: C4_6  and  C5_7 
REMARK    3  A    between atoms: C5_7  and  C6_8 
REMARK    4  A    between atoms: C6_8  and  O1_9 
REMARK    5  A    between atoms: O1_9  and  C7_10 
REMARK    6  A    between atoms: C10_13  and  C11_14 
REMARK    7  A    between atoms: C18_24  and  C19_25 
ROOT
HETATM    1  C11 UNL     1      12.016  -3.139  22.130  1.00  0.00     0.043 A 
HETATM    2  C12 UNL     1      11.049  -2.260  21.723  1.00  0.00     0.030 A 
HETATM    3  C13 UNL     1      10.735  -1.108  22.445  1.00  0.00     0.005 A 
HETATM    4  C14 UNL     1      11.433  -0.866  23.605  1.00  0.00     0.041 A 
HETATM    5  C15 UNL     1      12.406  -1.758  24.004  1.00  0.00     0.114 A 
HETATM    6  C16 UNL     1      13.133  -1.486  25.230  1.00  0.00     0.117 C 
HETATM    7  N3  UNL     1      13.699  -1.283  26.208  1.00  0.00    -0.190 NA
HETATM    8  N4  UNL     1      12.678  -2.856  23.280  1.00  0.00    -0.347 N 
ATOM      9  H4  UNL     1      13.403  -3.496  23.604  1.00  0.00     0.167 HD
ENDROOT
BRANCH   1  10
HETATM   10  C10 UNL     1      12.378  -4.361  21.401  1.00  0.00    -0.009 A 
HETATM   11  C9  UNL     1      11.426  -5.014  20.618  1.00  0.00     0.016 A 
HETATM   12  C8  UNL     1      11.742  -6.159  19.928  1.00  0.00     0.038 A 
HETATM   13  C7  UNL     1      13.005  -6.711  19.977  1.00  0.00     0.083 A 
HETATM   14  C18 UNL     1      13.960  -6.080  20.747  1.00  0.00     0.082 A 
HETATM   15  C17 UNL     1      13.631  -4.926  21.440  1.00  0.00     0.032 A 
BRANCH  13  16
HETATM   16  O1  UNL     1      13.273  -7.868  19.262  1.00  0.00    -0.350 OA
BRANCH  16  17
HETATM   17  C6  UNL     1      12.406  -8.265  18.246  1.00  0.00     0.177 C 
BRANCH  17  18
HETATM   18  C5  UNL     1      13.001  -8.235  16.880  1.00  0.00     0.057 C 
BRANCH  18  19
HETATM   19  C4  UNL     1      13.598  -9.574  16.524  1.00  0.00     0.274 C 
BRANCH  19  20
HETATM   20  N2  UNL     1      12.880 -10.271  15.513  1.00  0.00     0.091 N 
HETATM   21  C3  UNL     1      11.668  -9.663  15.085  1.00  0.00     0.302 C 
HETATM   22  C2  UNL     1      10.792 -10.705  14.382  1.00  0.00     0.302 C 
HETATM   23  N1  UNL     1      11.640 -11.707  13.754  1.00  0.00     0.087 N 
HETATM   24  C1  UNL     1      10.777 -12.508  12.906  1.00  0.00     0.310 C 
HETATM   25  C21 UNL     1      12.176 -12.526  14.852  1.00  0.00     0.302 C 
HETATM   26  C20 UNL     1      12.679 -11.648  15.975  1.00  0.00     0.302 C 
ENDBRANCH  19  20
ENDBRANCH  18  19
ENDBRANCH  17  18
ENDBRANCH  16  17
ENDBRANCH  13  16
BRANCH  14  27
HETATM   27  C19 UNL     1      15.323  -6.642  20.825  1.00  0.00     0.420 C 
HETATM   28  F1  UNL     1      15.716  -7.274  19.670  1.00  0.00    -0.166 F 
HETATM   29  F2  UNL     1      16.223  -5.615  21.082  1.00  0.00    -0.166 F 
HETATM   30  F3  UNL     1      15.384  -7.491  21.928  1.00  0.00    -0.166 F 
ENDBRANCH  14  27
ENDBRANCH   1  10
TORSDOF 7
ENDMDL
