MODEL 17
REMARK VINA RESULT: -6.806170015      3.812      4.687
REMARK  5 active torsions:
REMARK  status: ('A' for Active; 'I' for Inactive)
REMARK    1  A    between atoms: C2_2  and  C4_4 
REMARK    2  A    between atoms: C9_9  and  N1_10 
REMARK       I    between atoms: N1_10  and  C10_12 
REMARK       I    between atoms: C10_12  and  N2_14 
REMARK    3  A    between atoms: N2_14  and  C11_16 
REMARK    4  A    between atoms: C14_19  and  S1_20 
REMARK    5  A    between atoms: S1_20  and  N3_21 
ROOT
HETATM    1  N1  UNL     1      -1.623   7.995  12.193  1.00  0.00    -0.308 N 
ATOM      2  H1  UNL     1      -0.761   7.741  11.710  1.00  0.00     0.170 HD
HETATM    3  C10 UNL     1      -2.382   6.937  12.765  1.00  0.00     0.325 C 
HETATM    4  O1  UNL     1      -3.449   7.152  13.375  1.00  0.00    -0.247 OA
HETATM    5  N2  UNL     1      -1.950   5.584  12.664  1.00  0.00    -0.309 N 
ATOM      6  H2  UNL     1      -1.079   5.413  12.162  1.00  0.00     0.170 HD
ENDROOT
BRANCH   5   7
HETATM    7  C11 UNL     1      -2.615   4.455  13.195  1.00  0.00     0.036 A 
HETATM    8  C12 UNL     1      -3.344   3.556  12.489  1.00  0.00     0.031 A 
HETATM    9  C13 UNL     1      -3.953   2.457  13.108  1.00  0.00     0.027 A 
HETATM   10  C14 UNL     1      -3.836   2.246  14.459  1.00  0.00     0.079 A 
HETATM   11  C15 UNL     1      -3.101   3.151  15.179  1.00  0.00     0.027 A 
HETATM   12  C16 UNL     1      -2.512   4.215  14.574  1.00  0.00     0.031 A 
BRANCH  10  13
HETATM   13  S1  UNL     1      -4.589   0.875  15.260  1.00  0.00     0.256 S 
HETATM   14  O2  UNL     1      -4.807  -0.207  14.242  1.00  0.00    -0.201 OA
HETATM   15  O3  UNL     1      -3.634   0.350  16.297  1.00  0.00    -0.201 OA
BRANCH  13  16
HETATM   16  N3  UNL     1      -6.064   1.418  15.946  1.00  0.00    -0.324 N 
ATOM     17  H32 UNL     1      -6.851   1.806  15.425  1.00  0.00     0.169 HD
ATOM     18  H31 UNL     1      -6.006   1.282  16.955  1.00  0.00     0.169 HD
ENDBRANCH  13  16
ENDBRANCH  10  13
ENDBRANCH   5   7
BRANCH   1  19
HETATM   19  C9  UNL     1      -1.953   9.351  12.234  1.00  0.00     0.043 A 
HETATM   20  C4  UNL     1      -1.507  10.095  13.355  1.00  0.00    -0.028 A 
HETATM   21  C5  UNL     1      -1.785  11.420  13.479  1.00  0.00     0.010 A 
HETATM   22  C6  UNL     1      -2.521  12.049  12.487  1.00  0.00     0.001 A 
HETATM   23  C7  UNL     1      -2.971  11.366  11.387  1.00  0.00     0.002 A 
HETATM   24  C8  UNL     1      -2.676   9.999  11.272  1.00  0.00     0.030 A 
BRANCH  20  25
HETATM   25  C2  UNL     1      -0.715   9.416  14.412  1.00  0.00     0.013 C 
HETATM   26  C1  UNL     1      -1.651   9.108  15.564  1.00  0.00     0.015 C 
HETATM   27  C3  UNL     1       0.307  10.442  14.920  1.00  0.00     0.015 C 
ENDBRANCH  20  25
ENDBRANCH   1  19
TORSDOF 5
ENDMDL
