MODEL 6
REMARK VINA RESULT: -7.060615185      3.504      4.580
REMARK  5 active torsions:
REMARK  status: ('A' for Active; 'I' for Inactive)
REMARK    1  A    between atoms: C2_2  and  C4_4 
REMARK    2  A    between atoms: C9_9  and  N1_10 
REMARK       I    between atoms: N1_10  and  C10_12 
REMARK       I    between atoms: C10_12  and  N2_14 
REMARK    3  A    between atoms: N2_14  and  C11_16 
REMARK    4  A    between atoms: C14_19  and  S1_20 
REMARK    5  A    between atoms: S1_20  and  N3_21 
ROOT
HETATM    1  N1  UNL     1      -2.136   6.849  12.676  1.00  0.00    -0.308 N 
ATOM      2  H1  UNL     1      -1.284   6.388  12.357  1.00  0.00     0.170 HD
HETATM    3  C10 UNL     1      -3.049   6.069  13.438  1.00  0.00     0.325 C 
HETATM    4  O1  UNL     1      -4.117   6.548  13.873  1.00  0.00    -0.247 OA
HETATM    5  N2  UNL     1      -2.779   4.704  13.738  1.00  0.00    -0.309 N 
ATOM      6  H2  UNL     1      -1.906   4.316  13.379  1.00  0.00     0.170 HD
ENDROOT
BRANCH   5   7
HETATM    7  C11 UNL     1      -3.605   3.836  14.488  1.00  0.00     0.036 A 
HETATM    8  C12 UNL     1      -4.952   3.926  14.609  1.00  0.00     0.031 A 
HETATM    9  C13 UNL     1      -5.685   3.003  15.365  1.00  0.00     0.027 A 
HETATM   10  C14 UNL     1      -5.066   1.965  16.017  1.00  0.00     0.079 A 
HETATM   11  C15 UNL     1      -3.704   1.868  15.899  1.00  0.00     0.027 A 
HETATM   12  C16 UNL     1      -2.998   2.766  15.164  1.00  0.00     0.031 A 
BRANCH  10  13
HETATM   13  S1  UNL     1      -5.961   0.792  16.971  1.00  0.00     0.256 S 
HETATM   14  O2  UNL     1      -5.659  -0.579  16.441  1.00  0.00    -0.201 OA
HETATM   15  O3  UNL     1      -5.467   0.861  18.390  1.00  0.00    -0.201 OA
BRANCH  13  16
HETATM   16  N3  UNL     1      -7.628   1.178  16.840  1.00  0.00    -0.324 N 
ATOM     17  H32 UNL     1      -8.005   2.104  16.640  1.00  0.00     0.169 HD
ATOM     18  H31 UNL     1      -8.157   0.322  16.998  1.00  0.00     0.169 HD
ENDBRANCH  13  16
ENDBRANCH  10  13
ENDBRANCH   5   7
BRANCH   1  19
HETATM   19  C9  UNL     1      -2.302   8.190  12.327  1.00  0.00     0.043 A 
HETATM   20  C4  UNL     1      -1.722   9.162  13.182  1.00  0.00    -0.028 A 
HETATM   21  C5  UNL     1      -1.836  10.490  12.921  1.00  0.00     0.010 A 
HETATM   22  C6  UNL     1      -2.536  10.898  11.795  1.00  0.00     0.001 A 
HETATM   23  C7  UNL     1      -3.112   9.992  10.944  1.00  0.00     0.002 A 
HETATM   24  C8  UNL     1      -2.985   8.623  11.225  1.00  0.00     0.030 A 
BRANCH  20  25
HETATM   25  C2  UNL     1      -0.970   8.718  14.384  1.00  0.00     0.013 C 
HETATM   26  C1  UNL     1      -1.888   8.859  15.581  1.00  0.00     0.015 C 
HETATM   27  C3  UNL     1       0.179   9.718  14.573  1.00  0.00     0.015 C 
ENDBRANCH  20  25
ENDBRANCH   1  19
TORSDOF 5
ENDMDL
