MODEL 10
REMARK VINA RESULT: -7.002042815      1.094      2.331
REMARK  5 active torsions:
REMARK  status: ('A' for Active; 'I' for Inactive)
REMARK    1  A    between atoms: C2_2  and  C4_4 
REMARK    2  A    between atoms: C9_9  and  N1_10 
REMARK       I    between atoms: N1_10  and  C10_12 
REMARK       I    between atoms: C10_12  and  N2_14 
REMARK    3  A    between atoms: N2_14  and  C11_16 
REMARK    4  A    between atoms: C14_19  and  S1_20 
REMARK    5  A    between atoms: S1_20  and  N3_21 
ROOT
HETATM    1  N1  UNL     1      -4.540   7.313  10.072  1.00  0.00    -0.308 N 
ATOM      2  H1  UNL     1      -3.722   7.145   9.488  1.00  0.00     0.170 HD
HETATM    3  C10 UNL     1      -4.777   6.397  11.135  1.00  0.00     0.325 C 
HETATM    4  O1  UNL     1      -5.752   6.523  11.904  1.00  0.00    -0.247 OA
HETATM    5  N2  UNL     1      -3.903   5.297  11.366  1.00  0.00    -0.309 N 
ATOM      6  H2  UNL     1      -3.109   5.197  10.734  1.00  0.00     0.170 HD
ENDROOT
BRANCH   5   7
HETATM    7  C11 UNL     1      -4.033   4.330  12.390  1.00  0.00     0.036 A 
HETATM    8  C12 UNL     1      -3.714   4.505  13.695  1.00  0.00     0.031 A 
HETATM    9  C13 UNL     1      -3.895   3.486  14.639  1.00  0.00     0.027 A 
HETATM   10  C14 UNL     1      -4.405   2.264  14.277  1.00  0.00     0.079 A 
HETATM   11  C15 UNL     1      -4.729   2.079  12.958  1.00  0.00     0.027 A 
HETATM   12  C16 UNL     1      -4.551   3.072  12.048  1.00  0.00     0.031 A 
BRANCH  10  13
HETATM   13  S1  UNL     1      -4.643   0.969  15.440  1.00  0.00     0.256 S 
HETATM   14  O2  UNL     1      -4.800  -0.321  14.688  1.00  0.00    -0.201 OA
HETATM   15  O3  UNL     1      -3.406   0.863  16.289  1.00  0.00    -0.201 OA
BRANCH  13  16
HETATM   16  N3  UNL     1      -6.038   1.348  16.363  1.00  0.00    -0.324 N 
ATOM     17  H32 UNL     1      -6.565   2.219  16.307  1.00  0.00     0.169 HD
ATOM     18  H31 UNL     1      -6.237   0.550  16.967  1.00  0.00     0.169 HD
ENDBRANCH  13  16
ENDBRANCH  10  13
ENDBRANCH   5   7
BRANCH   1  19
HETATM   19  C9  UNL     1      -5.330   8.421   9.760  1.00  0.00     0.043 A 
HETATM   20  C4  UNL     1      -6.396   8.223   8.846  1.00  0.00    -0.028 A 
HETATM   21  C5  UNL     1      -7.213   9.246   8.483  1.00  0.00     0.010 A 
HETATM   22  C6  UNL     1      -6.994  10.506   9.019  1.00  0.00     0.001 A 
HETATM   23  C7  UNL     1      -5.975  10.740   9.904  1.00  0.00     0.002 A 
HETATM   24  C8  UNL     1      -5.139   9.674  10.271  1.00  0.00     0.030 A 
BRANCH  20  25
HETATM   25  C2  UNL     1      -6.628   6.870   8.280  1.00  0.00     0.013 C 
HETATM   26  C1  UNL     1      -5.982   6.826   6.910  1.00  0.00     0.015 C 
HETATM   27  C3  UNL     1      -8.143   6.737   8.072  1.00  0.00     0.015 C 
ENDBRANCH  20  25
ENDBRANCH   1  19
TORSDOF 5
ENDMDL
