MODEL 15
REMARK VINA RESULT: -6.894434072      5.543      8.404
REMARK  5 active torsions:
REMARK  status: ('A' for Active; 'I' for Inactive)
REMARK    1  A    between atoms: C2_2  and  C4_4 
REMARK    2  A    between atoms: C9_9  and  N1_10 
REMARK       I    between atoms: N1_10  and  C10_12 
REMARK       I    between atoms: C10_12  and  N2_14 
REMARK    3  A    between atoms: N2_14  and  C11_16 
REMARK    4  A    between atoms: C14_19  and  S1_20 
REMARK    5  A    between atoms: S1_20  and  N3_21 
ROOT
HETATM    1  N1  UNL     1      -2.389   3.816  13.914  1.00  0.00    -0.308 N 
ATOM      2  H1  UNL     1      -1.693   3.550  14.610  1.00  0.00     0.170 HD
HETATM    3  C10 UNL     1      -1.955   3.901  12.562  1.00  0.00     0.325 C 
HETATM    4  O1  UNL     1      -2.736   4.219  11.642  1.00  0.00    -0.247 OA
HETATM    5  N2  UNL     1      -0.606   3.623  12.204  1.00  0.00    -0.309 N 
ATOM      6  H2  UNL     1       0.029   3.367  12.959  1.00  0.00     0.170 HD
ENDROOT
BRANCH   5   7
HETATM    7  C11 UNL     1      -0.063   3.669  10.899  1.00  0.00     0.036 A 
HETATM    8  C12 UNL     1      -0.731   3.403   9.750  1.00  0.00     0.031 A 
HETATM    9  C13 UNL     1      -0.106   3.492   8.499  1.00  0.00     0.027 A 
HETATM   10  C14 UNL     1       1.214   3.854   8.388  1.00  0.00     0.079 A 
HETATM   11  C15 UNL     1       1.896   4.123   9.546  1.00  0.00     0.027 A 
HETATM   12  C16 UNL     1       1.284   4.035  10.756  1.00  0.00     0.031 A 
BRANCH  10  13
HETATM   13  S1  UNL     1       2.023   3.974   6.833  1.00  0.00     0.256 S 
HETATM   14  O2  UNL     1       2.747   5.288   6.776  1.00  0.00    -0.201 OA
HETATM   15  O3  UNL     1       3.047   2.876   6.746  1.00  0.00    -0.201 OA
BRANCH  13  16
HETATM   16  N3  UNL     1       0.825   3.848   5.612  1.00  0.00    -0.324 N 
ATOM     17  H32 UNL     1       0.626   3.011   5.064  1.00  0.00     0.169 HD
ATOM     18  H31 UNL     1       0.359   4.752   5.540  1.00  0.00     0.169 HD
ENDBRANCH  13  16
ENDBRANCH  10  13
ENDBRANCH   5   7
BRANCH   1  19
HETATM   19  C9  UNL     1      -3.684   4.066  14.372  1.00  0.00     0.043 A 
HETATM   20  C4  UNL     1      -4.463   2.947  14.762  1.00  0.00    -0.028 A 
HETATM   21  C5  UNL     1      -5.734   3.097  15.218  1.00  0.00     0.010 A 
HETATM   22  C6  UNL     1      -6.275   4.371  15.300  1.00  0.00     0.001 A 
HETATM   23  C7  UNL     1      -5.557   5.478  14.933  1.00  0.00     0.002 A 
HETATM   24  C8  UNL     1      -4.244   5.309  14.465  1.00  0.00     0.030 A 
BRANCH  20  25
HETATM   25  C2  UNL     1      -3.876   1.585  14.676  1.00  0.00     0.013 C 
HETATM   26  C1  UNL     1      -4.323   0.973  13.363  1.00  0.00     0.015 C 
HETATM   27  C3  UNL     1      -4.516   0.762  15.802  1.00  0.00     0.015 C 
ENDBRANCH  20  25
ENDBRANCH   1  19
TORSDOF 5
ENDMDL
