MODEL 17
REMARK VINA RESULT: -6.772258177      3.670      4.237
REMARK  4 active torsions:
REMARK  status: ('A' for Active; 'I' for Inactive)
REMARK    1  A    between atoms: N1_1  and  S1_4 
REMARK    2  A    between atoms: S1_4  and  C1_7 
REMARK    3  A    between atoms: C4_10  and  N2_11 
REMARK       I    between atoms: N2_11  and  C5_13 
REMARK       I    between atoms: C5_13  and  N3_15 
REMARK    4  A    between atoms: N3_15  and  C6_17 
ROOT
HETATM    1  N2  UNL     1      -3.324   4.907  13.601  1.00  0.00    -0.309 N 
ATOM      2  H2  UNL     1      -3.056   4.554  12.682  1.00  0.00     0.170 HD
HETATM    3  C5  UNL     1      -3.076   6.289  13.846  1.00  0.00     0.325 C 
HETATM    4  O3  UNL     1      -3.392   6.738  14.943  1.00  0.00    -0.247 OA
HETATM    5  N3  UNL     1      -2.489   7.133  12.880  1.00  0.00    -0.309 N 
ATOM      6  H3  UNL     1      -2.240   6.714  11.984  1.00  0.00     0.170 HD
ENDROOT
BRANCH   1   7
HETATM    7  C4  UNL     1      -3.898   3.977  14.487  1.00  0.00     0.036 A 
HETATM    8  C3  UNL     1      -5.285   4.096  14.668  1.00  0.00     0.031 A 
HETATM    9  C2  UNL     1      -6.003   3.264  15.496  1.00  0.00     0.027 A 
HETATM   10  C1  UNL     1      -5.341   2.267  16.181  1.00  0.00     0.079 A 
HETATM   11  C13 UNL     1      -3.989   2.149  16.007  1.00  0.00     0.027 A 
HETATM   12  C12 UNL     1      -3.259   2.995  15.166  1.00  0.00     0.031 A 
BRANCH  10  13
HETATM   13  S1  UNL     1      -6.268   1.223  17.225  1.00  0.00     0.256 S 
HETATM   14  O1  UNL     1      -5.823  -0.208  17.119  1.00  0.00    -0.201 OA
HETATM   15  O2  UNL     1      -7.698   1.269  16.767  1.00  0.00    -0.201 OA
BRANCH  13  16
HETATM   16  N1  UNL     1      -6.214   1.792  18.841  1.00  0.00    -0.324 N 
ATOM     17  H12 UNL     1      -6.944   1.596  19.527  1.00  0.00     0.169 HD
ATOM     18  H11 UNL     1      -5.375   2.341  19.024  1.00  0.00     0.169 HD
ENDBRANCH  13  16
ENDBRANCH  10  13
ENDBRANCH   1   7
BRANCH   5  19
HETATM   19  C6  UNL     1      -2.218   8.506  13.048  1.00  0.00     0.036 A 
HETATM   20  C7  UNL     1      -2.490   9.366  11.953  1.00  0.00     0.032 A 
HETATM   21  C8  UNL     1      -2.278  10.714  12.007  1.00  0.00     0.044 A 
HETATM   22  C9  UNL     1      -1.785  11.286  13.153  1.00  0.00     0.116 A 
HETATM   23  F1  UNL     1      -1.579  12.618  13.197  1.00  0.00    -0.206 F 
HETATM   24  C10 UNL     1      -1.512  10.467  14.236  1.00  0.00     0.044 A 
HETATM   25  C11 UNL     1      -1.726   9.082  14.191  1.00  0.00     0.032 A 
ENDBRANCH   5  19
TORSDOF 4
ENDMDL
