MODEL 4
REMARK VINA RESULT: -7.182400751      4.672      8.783
REMARK  4 active torsions:
REMARK  status: ('A' for Active; 'I' for Inactive)
REMARK    1  A    between atoms: N1_1  and  S1_4 
REMARK    2  A    between atoms: S1_4  and  C1_7 
REMARK    3  A    between atoms: C4_10  and  N2_11 
REMARK       I    between atoms: N2_11  and  C5_13 
REMARK       I    between atoms: C5_13  and  N3_15 
REMARK    4  A    between atoms: N3_15  and  C6_17 
ROOT
HETATM    1  N2  UNL     1      -2.824   3.538  12.039  1.00  0.00    -0.309 N 
ATOM      2  H2  UNL     1      -3.467   3.387  11.261  1.00  0.00     0.170 HD
HETATM    3  C5  UNL     1      -3.354   3.342  13.347  1.00  0.00     0.325 C 
HETATM    4  O3  UNL     1      -2.600   3.513  14.300  1.00  0.00    -0.247 OA
HETATM    5  N3  UNL     1      -4.695   2.964  13.569  1.00  0.00    -0.309 N 
ATOM      6  H3  UNL     1      -5.286   2.836  12.747  1.00  0.00     0.170 HD
ENDROOT
BRANCH   1   7
HETATM    7  C4  UNL     1      -1.510   3.915  11.703  1.00  0.00     0.036 A 
HETATM    8  C3  UNL     1      -0.766   2.949  11.008  1.00  0.00     0.031 A 
HETATM    9  C2  UNL     1       0.531   3.158  10.600  1.00  0.00     0.027 A 
HETATM   10  C1  UNL     1       1.135   4.365  10.882  1.00  0.00     0.079 A 
HETATM   11  C13 UNL     1       0.412   5.309  11.560  1.00  0.00     0.027 A 
HETATM   12  C12 UNL     1      -0.906   5.096  11.974  1.00  0.00     0.031 A 
BRANCH  10  13
HETATM   13  S1  UNL     1       2.779   4.611  10.357  1.00  0.00     0.256 S 
HETATM   14  O1  UNL     1       3.254   3.495   9.472  1.00  0.00    -0.201 OA
HETATM   15  O2  UNL     1       3.656   4.602  11.577  1.00  0.00    -0.201 OA
BRANCH  13  16
HETATM   16  N1  UNL     1       2.944   6.142   9.603  1.00  0.00    -0.324 N 
ATOM     17  H12 UNL     1       3.835   6.502   9.261  1.00  0.00     0.169 HD
ATOM     18  H11 UNL     1       2.053   6.634   9.542  1.00  0.00     0.169 HD
ENDBRANCH  13  16
ENDBRANCH  10  13
ENDBRANCH   1   7
BRANCH   5  19
HETATM   19  C6  UNL     1      -5.288   2.747  14.829  1.00  0.00     0.036 A 
HETATM   20  C7  UNL     1      -4.913   1.577  15.537  1.00  0.00     0.032 A 
HETATM   21  C8  UNL     1      -5.413   1.273  16.772  1.00  0.00     0.044 A 
HETATM   22  C9  UNL     1      -6.316   2.114  17.372  1.00  0.00     0.116 A 
HETATM   23  F1  UNL     1      -6.805   1.805  18.590  1.00  0.00    -0.206 F 
HETATM   24  C10 UNL     1      -6.698   3.263  16.701  1.00  0.00     0.044 A 
HETATM   25  C11 UNL     1      -6.189   3.585  15.434  1.00  0.00     0.032 A 
ENDBRANCH   5  19
TORSDOF 4
ENDMDL
