MODEL 7
REMARK VINA RESULT: -7.131907045      3.853      4.513
REMARK  4 active torsions:
REMARK  status: ('A' for Active; 'I' for Inactive)
REMARK    1  A    between atoms: N1_1  and  S1_4 
REMARK    2  A    between atoms: S1_4  and  C1_7 
REMARK    3  A    between atoms: C4_10  and  N2_11 
REMARK       I    between atoms: N2_11  and  C5_13 
REMARK       I    between atoms: C5_13  and  N3_15 
REMARK    4  A    between atoms: N3_15  and  C6_17 
ROOT
HETATM    1  N2  UNL     1      -3.358   4.015  12.804  1.00  0.00    -0.309 N 
ATOM      2  H2  UNL     1      -2.439   4.384  13.052  1.00  0.00     0.170 HD
HETATM    3  C5  UNL     1      -3.874   4.400  11.533  1.00  0.00     0.325 C 
HETATM    4  O3  UNL     1      -4.976   3.966  11.211  1.00  0.00    -0.247 OA
HETATM    5  N3  UNL     1      -3.166   5.248  10.657  1.00  0.00    -0.309 N 
ATOM      6  H3  UNL     1      -2.256   5.587  10.969  1.00  0.00     0.170 HD
ENDROOT
BRANCH   1   7
HETATM    7  C4  UNL     1      -3.975   3.181  13.755  1.00  0.00     0.036 A 
HETATM    8  C3  UNL     1      -4.807   3.834  14.678  1.00  0.00     0.031 A 
HETATM    9  C2  UNL     1      -5.489   3.167  15.669  1.00  0.00     0.027 A 
HETATM   10  C1  UNL     1      -5.357   1.798  15.769  1.00  0.00     0.079 A 
HETATM   11  C13 UNL     1      -4.547   1.158  14.870  1.00  0.00     0.027 A 
HETATM   12  C12 UNL     1      -3.853   1.837  13.863  1.00  0.00     0.031 A 
BRANCH  10  13
HETATM   13  S1  UNL     1      -6.229   0.971  17.031  1.00  0.00     0.256 S 
HETATM   14  O1  UNL     1      -5.718  -0.426  17.238  1.00  0.00    -0.201 OA
HETATM   15  O2  UNL     1      -7.662   0.850  16.595  1.00  0.00    -0.201 OA
BRANCH  13  16
HETATM   16  N1  UNL     1      -6.196   1.886  18.480  1.00  0.00    -0.324 N 
ATOM     17  H12 UNL     1      -5.579   1.670  19.263  1.00  0.00     0.169 HD
ATOM     18  H11 UNL     1      -6.860   2.660  18.457  1.00  0.00     0.169 HD
ENDBRANCH  13  16
ENDBRANCH  10  13
ENDBRANCH   1   7
BRANCH   5  19
HETATM   19  C6  UNL     1      -3.608   5.667   9.386  1.00  0.00     0.036 A 
HETATM   20  C7  UNL     1      -4.569   6.710   9.338  1.00  0.00     0.032 A 
HETATM   21  C8  UNL     1      -5.059   7.205   8.162  1.00  0.00     0.044 A 
HETATM   22  C9  UNL     1      -4.622   6.691   6.967  1.00  0.00     0.116 A 
HETATM   23  F1  UNL     1      -5.111   7.185   5.811  1.00  0.00    -0.206 F 
HETATM   24  C10 UNL     1      -3.684   5.672   6.987  1.00  0.00     0.044 A 
HETATM   25  C11 UNL     1      -3.174   5.158   8.189  1.00  0.00     0.032 A 
ENDBRANCH   5  19
TORSDOF 4
ENDMDL
