MODEL 3
REMARK VINA RESULT: -7.202523549      4.689      8.870
REMARK  4 active torsions:
REMARK  status: ('A' for Active; 'I' for Inactive)
REMARK    1  A    between atoms: N1_1  and  S1_4 
REMARK    2  A    between atoms: S1_4  and  C1_7 
REMARK    3  A    between atoms: C4_10  and  N2_11 
REMARK       I    between atoms: N2_11  and  C5_13 
REMARK       I    between atoms: C5_13  and  N3_15 
REMARK    4  A    between atoms: N3_15  and  C6_17 
ROOT
HETATM    1  N2  UNL     1      -2.813   3.540  12.022  1.00  0.00    -0.309 N 
ATOM      2  H2  UNL     1      -3.502   3.490  11.270  1.00  0.00     0.170 HD
HETATM    3  C5  UNL     1      -3.279   3.223  13.331  1.00  0.00     0.325 C 
HETATM    4  O3  UNL     1      -2.470   3.272  14.251  1.00  0.00    -0.247 OA
HETATM    5  N3  UNL     1      -4.618   2.861  13.588  1.00  0.00    -0.309 N 
ATOM      6  H3  UNL     1      -5.256   2.836  12.792  1.00  0.00     0.170 HD
ENDROOT
BRANCH   1   7
HETATM    7  C4  UNL     1      -1.508   3.914  11.653  1.00  0.00     0.036 A 
HETATM    8  C3  UNL     1      -0.785   2.948  10.936  1.00  0.00     0.031 A 
HETATM    9  C2  UNL     1       0.502   3.153  10.495  1.00  0.00     0.027 A 
HETATM   10  C1  UNL     1       1.117   4.358  10.764  1.00  0.00     0.079 A 
HETATM   11  C13 UNL     1       0.415   5.302  11.463  1.00  0.00     0.027 A 
HETATM   12  C12 UNL     1      -0.893   5.093  11.911  1.00  0.00     0.031 A 
BRANCH  10  13
HETATM   13  S1  UNL     1       2.748   4.600  10.198  1.00  0.00     0.256 S 
HETATM   14  O1  UNL     1       3.244   3.421   9.410  1.00  0.00    -0.201 OA
HETATM   15  O2  UNL     1       3.638   4.725  11.401  1.00  0.00    -0.201 OA
BRANCH  13  16
HETATM   16  N1  UNL     1       2.861   6.059   9.305  1.00  0.00    -0.324 N 
ATOM     17  H12 UNL     1       2.559   6.145   8.335  1.00  0.00     0.169 HD
ATOM     18  H11 UNL     1       3.261   6.815   9.861  1.00  0.00     0.169 HD
ENDBRANCH  13  16
ENDBRANCH  10  13
ENDBRANCH   1   7
BRANCH   5  19
HETATM   19  C6  UNL     1      -5.150   2.530  14.850  1.00  0.00     0.036 A 
HETATM   20  C7  UNL     1      -6.092   3.425  15.419  1.00  0.00     0.032 A 
HETATM   21  C8  UNL     1      -6.681   3.199  16.631  1.00  0.00     0.044 A 
HETATM   22  C9  UNL     1      -6.368   2.070  17.347  1.00  0.00     0.116 A 
HETATM   23  F1  UNL     1      -6.955   1.856  18.542  1.00  0.00    -0.206 F 
HETATM   24  C10 UNL     1      -5.452   1.180  16.812  1.00  0.00     0.044 A 
HETATM   25  C11 UNL     1      -4.842   1.403  15.568  1.00  0.00     0.032 A 
ENDBRANCH   5  19
TORSDOF 4
ENDMDL
