MODEL 2
REMARK VINA RESULT: -7.256833743      3.755      4.250
REMARK  4 active torsions:
REMARK  status: ('A' for Active; 'I' for Inactive)
REMARK    1  A    between atoms: N1_1  and  S1_4 
REMARK    2  A    between atoms: S1_4  and  C1_7 
REMARK    3  A    between atoms: C4_10  and  N2_11 
REMARK       I    between atoms: N2_11  and  C5_13 
REMARK       I    between atoms: C5_13  and  N3_15 
REMARK    4  A    between atoms: N3_15  and  C6_17 
ROOT
HETATM    1  N2  UNL     1      -3.132   5.086  13.848  1.00  0.00    -0.309 N 
ATOM      2  H2  UNL     1      -2.742   4.752  12.966  1.00  0.00     0.170 HD
HETATM    3  C5  UNL     1      -2.821   6.428  14.211  1.00  0.00     0.325 C 
HETATM    4  O3  UNL     1      -3.281   6.854  15.266  1.00  0.00    -0.247 OA
HETATM    5  N3  UNL     1      -2.015   7.260  13.406  1.00  0.00    -0.309 N 
ATOM      6  H3  UNL     1      -1.652   6.861  12.540  1.00  0.00     0.170 HD
ENDROOT
BRANCH   1   7
HETATM    7  C4  UNL     1      -3.919   4.171  14.572  1.00  0.00     0.036 A 
HETATM    8  C3  UNL     1      -3.211   3.136  15.202  1.00  0.00     0.031 A 
HETATM    9  C2  UNL     1      -3.827   2.161  15.953  1.00  0.00     0.027 A 
HETATM   10  C1  UNL     1      -5.198   2.192  16.098  1.00  0.00     0.079 A 
HETATM   11  C13 UNL     1      -5.891   3.200  15.484  1.00  0.00     0.027 A 
HETATM   12  C12 UNL     1      -5.265   4.191  14.721  1.00  0.00     0.031 A 
BRANCH  10  13
HETATM   13  S1  UNL     1      -5.959   0.949  17.053  1.00  0.00     0.256 S 
HETATM   14  O1  UNL     1      -5.461   0.952  18.470  1.00  0.00    -0.201 OA
HETATM   15  O2  UNL     1      -5.580  -0.380  16.462  1.00  0.00    -0.201 OA
BRANCH  13  16
HETATM   16  N1  UNL     1      -7.665   1.093  16.973  1.00  0.00    -0.324 N 
ATOM     17  H12 UNL     1      -8.247   1.298  17.785  1.00  0.00     0.169 HD
ATOM     18  H11 UNL     1      -8.015   0.949  16.026  1.00  0.00     0.169 HD
ENDBRANCH  13  16
ENDBRANCH  10  13
ENDBRANCH   1   7
BRANCH   5  19
HETATM   19  C6  UNL     1      -1.669   8.595  13.696  1.00  0.00     0.036 A 
HETATM   20  C7  UNL     1      -0.808   8.823  14.800  1.00  0.00     0.032 A 
HETATM   21  C8  UNL     1      -0.396  10.074  15.164  1.00  0.00     0.044 A 
HETATM   22  C9  UNL     1      -0.818  11.170  14.453  1.00  0.00     0.116 A 
HETATM   23  F1  UNL     1      -0.407  12.400  14.820  1.00  0.00    -0.206 F 
HETATM   24  C10 UNL     1      -1.659  10.972  13.371  1.00  0.00     0.044 A 
HETATM   25  C11 UNL     1      -2.086   9.692  12.988  1.00  0.00     0.032 A 
ENDBRANCH   5  19
TORSDOF 4
ENDMDL
