MODEL 15
REMARK VINA RESULT: -6.303564584      1.364      1.983
REMARK  8 active torsions:
REMARK  status: ('A' for Active; 'I' for Inactive)
REMARK    1  A    between atoms: C1_2  and  C2_4 
REMARK    2  A    between atoms: C2_4  and  O3_5 
REMARK    3  A    between atoms: C4_8  and  C5_9 
REMARK    4  A    between atoms: C6_10  and  C7_11 
REMARK    5  A    between atoms: C7_11  and  O4_12 
REMARK    6  A    between atoms: O4_12  and  C8_13 
REMARK    7  A    between atoms: C14_19  and  O5_20 
REMARK    8  A    between atoms: C15_22  and  O6_23 
ROOT
HETATM    1  C2  UNL     1     -38.075 -61.071 -51.435  1.00  0.00     0.166 C 
HETATM    2  C3  UNL     1     -38.110 -61.121 -49.966  1.00  0.00     0.031 C 
HETATM    3  C4  UNL     1     -38.482 -60.136 -49.176  1.00  0.00    -0.028 C 
HETATM    4  C14 UNL     1     -38.900 -58.879 -49.829  1.00  0.00     0.179 C 
HETATM    5  C15 UNL     1     -39.784 -59.304 -51.005  1.00  0.00     0.155 C 
HETATM    6  C16 UNL     1     -38.824 -59.918 -52.020  1.00  0.00     0.088 C 
ENDROOT
BRANCH   3   7
HETATM    7  C5  UNL     1     -38.463 -60.331 -47.741  1.00  0.00     0.007 C 
HETATM    8  C6  UNL     1     -39.552 -60.327 -46.990  1.00  0.00     0.000 C 
BRANCH   8   9
HETATM    9  C7  UNL     1     -39.477 -60.535 -45.510  1.00  0.00     0.203 C 
BRANCH   9  10
HETATM   10  O4  UNL     1     -38.245 -59.991 -45.082  1.00  0.00    -0.347 OA
BRANCH  10  11
HETATM   11  C8  UNL     1     -37.365 -60.790 -44.398  1.00  0.00     0.069 A 
HETATM   12  C9  UNL     1     -37.747 -61.427 -43.249  1.00  0.00     0.037 A 
HETATM   13  C10 UNL     1     -36.880 -62.244 -42.534  1.00  0.00     0.003 A 
HETATM   14  C11 UNL     1     -35.604 -62.388 -43.033  1.00  0.00     0.000 A 
HETATM   15  C12 UNL     1     -35.211 -61.752 -44.186  1.00  0.00     0.003 A 
HETATM   16  C13 UNL     1     -36.089 -60.955 -44.869  1.00  0.00     0.037 A 
ENDBRANCH  10  11
ENDBRANCH   9  10
ENDBRANCH   8   9
ENDBRANCH   3   7
BRANCH   4  17
HETATM   17  O5  UNL     1     -37.771 -58.255 -50.392  1.00  0.00    -0.388 OA
ATOM     18  H5  UNL     1     -38.048 -57.709 -51.119  1.00  0.00     0.210 HD
ENDBRANCH   4  17
BRANCH   1  19
HETATM   19  C1  UNL     1     -38.670 -62.324 -51.996  1.00  0.00     0.213 C 
HETATM   20  O1  UNL     1     -38.016 -62.944 -52.891  1.00  0.00    -0.645 OA
HETATM   21  O2  UNL     1     -39.873 -62.842 -51.605  1.00  0.00    -0.645 OA
ENDBRANCH   1  19
BRANCH   1  22
HETATM   22  O3  UNL     1     -36.713 -61.046 -51.808  1.00  0.00    -0.375 OA
ATOM     23  H3  UNL     1     -36.425 -60.142 -51.772  1.00  0.00     0.211 HD
ENDBRANCH   1  22
BRANCH   5  24
HETATM   24  O6  UNL     1     -40.676 -60.298 -50.642  1.00  0.00    -0.393 OA
ATOM     25  H6  UNL     1     -41.044 -60.734 -51.401  1.00  0.00     0.210 HD
ENDBRANCH   5  24
TORSDOF 8
ENDMDL
