MODEL 8
REMARK VINA RESULT: -7.163209297      2.379      8.122
REMARK  8 active torsions:
REMARK  status: ('A' for Active; 'I' for Inactive)
REMARK    1  A    between atoms: C1_2  and  C2_4 
REMARK    2  A    between atoms: C2_4  and  O3_5 
REMARK    3  A    between atoms: C4_8  and  C5_9 
REMARK    4  A    between atoms: C6_10  and  C7_11 
REMARK    5  A    between atoms: C7_11  and  O4_12 
REMARK    6  A    between atoms: O4_12  and  C8_13 
REMARK    7  A    between atoms: C14_19  and  O5_20 
REMARK    8  A    between atoms: C15_22  and  O6_23 
ROOT
HETATM    1  C2  UNL     1     -38.429 -60.630 -42.522  1.00  0.00     0.166 C 
HETATM    2  C3  UNL     1     -38.368 -60.277 -43.948  1.00  0.00     0.031 C 
HETATM    3  C4  UNL     1     -37.375 -60.560 -44.765  1.00  0.00    -0.028 C 
HETATM    4  C14 UNL     1     -36.230 -61.296 -44.192  1.00  0.00     0.179 C 
HETATM    5  C15 UNL     1     -36.845 -62.389 -43.314  1.00  0.00     0.155 C 
HETATM    6  C16 UNL     1     -37.420 -61.652 -42.107  1.00  0.00     0.088 C 
ENDROOT
BRANCH   3   7
HETATM    7  C5  UNL     1     -37.455 -60.144 -46.149  1.00  0.00     0.007 C 
HETATM    8  C6  UNL     1     -38.538 -59.610 -46.690  1.00  0.00     0.000 C 
BRANCH   8   9
HETATM    9  C7  UNL     1     -38.567 -59.198 -48.127  1.00  0.00     0.203 C 
BRANCH   9  10
HETATM   10  O4  UNL     1     -39.523 -60.017 -48.770  1.00  0.00    -0.347 OA
BRANCH  10  11
HETATM   11  C8  UNL     1     -39.195 -60.621 -49.957  1.00  0.00     0.069 A 
HETATM   12  C9  UNL     1     -37.898 -60.643 -50.394  1.00  0.00     0.037 A 
HETATM   13  C10 UNL     1     -37.532 -61.247 -51.590  1.00  0.00     0.003 A 
HETATM   14  C11 UNL     1     -38.539 -61.828 -52.329  1.00  0.00     0.000 A 
HETATM   15  C12 UNL     1     -39.844 -61.811 -51.899  1.00  0.00     0.003 A 
HETATM   16  C13 UNL     1     -40.172 -61.208 -50.715  1.00  0.00     0.037 A 
ENDBRANCH  10  11
ENDBRANCH   9  10
ENDBRANCH   8   9
ENDBRANCH   3   7
BRANCH   4  17
HETATM   17  O5  UNL     1     -35.524 -60.445 -43.322  1.00  0.00    -0.388 OA
ATOM     18  H5  UNL     1     -36.128 -60.083 -42.683  1.00  0.00     0.210 HD
ENDBRANCH   4  17
BRANCH   1  19
HETATM   19  C1  UNL     1     -39.782 -61.178 -42.195  1.00  0.00     0.213 C 
HETATM   20  O1  UNL     1     -40.365 -60.742 -41.155  1.00  0.00    -0.645 OA
HETATM   21  O2  UNL     1     -40.429 -62.118 -42.947  1.00  0.00    -0.645 OA
ENDBRANCH   1  19
BRANCH   1  22
HETATM   22  O3  UNL     1     -38.274 -59.427 -41.798  1.00  0.00    -0.375 OA
ATOM     23  H3  UNL     1     -37.361 -59.173 -41.861  1.00  0.00     0.211 HD
ENDBRANCH   1  22
BRANCH   5  24
HETATM   24  O6  UNL     1     -37.906 -63.016 -43.945  1.00  0.00    -0.393 OA
ATOM     25  H6  UNL     1     -37.981 -63.927 -43.684  1.00  0.00     0.210 HD
ENDBRANCH   5  24
TORSDOF 8
ENDMDL
