MODEL 1
REMARK VINA RESULT: -10.474729047      0.000      0.000
REMARK  8 active torsions:
REMARK  status: ('A' for Active; 'I' for Inactive)
REMARK    1  A    between atoms: C1_2  and  C2_4 
REMARK    2  A    between atoms: C2_4  and  O3_5 
REMARK    3  A    between atoms: C4_8  and  C5_9 
REMARK    4  A    between atoms: C6_10  and  C7_11 
REMARK    5  A    between atoms: C7_11  and  O4_12 
REMARK    6  A    between atoms: O4_12  and  C8_13 
REMARK    7  A    between atoms: C14_19  and  O5_20 
REMARK    8  A    between atoms: C15_22  and  O6_23 
ROOT
HETATM    1  C2  UNL     1     -39.218 -60.565 -51.898  1.00  0.00     0.166 C 
HETATM    2  C3  UNL     1     -39.303 -60.350 -50.446  1.00  0.00     0.031 C 
HETATM    3  C4  UNL     1     -40.407 -60.388 -49.730  1.00  0.00    -0.028 C 
HETATM    4  C14 UNL     1     -41.662 -60.673 -50.454  1.00  0.00     0.179 C 
HETATM    5  C15 UNL     1     -41.326 -61.814 -51.420  1.00  0.00     0.155 C 
HETATM    6  C16 UNL     1     -40.445 -61.178 -52.492  1.00  0.00     0.088 C 
ENDROOT
BRANCH   3   7
HETATM    7  C5  UNL     1     -40.335 -60.154 -48.302  1.00  0.00     0.007 C 
HETATM    8  C6  UNL     1     -39.202 -60.148 -47.620  1.00  0.00     0.000 C 
BRANCH   8   9
HETATM    9  C7  UNL     1     -39.184 -59.900 -46.145  1.00  0.00     0.203 C 
BRANCH   9  10
HETATM   10  O4  UNL     1     -37.832 -59.726 -45.774  1.00  0.00    -0.347 OA
BRANCH  10  11
HETATM   11  C8  UNL     1     -37.277 -60.579 -44.854  1.00  0.00     0.069 A 
HETATM   12  C9  UNL     1     -38.036 -61.108 -43.846  1.00  0.00     0.037 A 
HETATM   13  C10 UNL     1     -37.505 -61.975 -42.899  1.00  0.00     0.003 A 
HETATM   14  C11 UNL     1     -36.168 -62.285 -43.017  1.00  0.00     0.000 A 
HETATM   15  C12 UNL     1     -35.398 -61.759 -44.026  1.00  0.00     0.003 A 
HETATM   16  C13 UNL     1     -35.951 -60.908 -44.944  1.00  0.00     0.037 A 
ENDBRANCH  10  11
ENDBRANCH   9  10
ENDBRANCH   8   9
ENDBRANCH   3   7
BRANCH   4  17
HETATM   17  O5  UNL     1     -41.993 -59.566 -51.256  1.00  0.00    -0.388 OA
ATOM     18  H5  UNL     1     -41.741 -59.746 -52.154  1.00  0.00     0.210 HD
ENDBRANCH   4  17
BRANCH   1  19
HETATM   19  C1  UNL     1     -38.069 -61.472 -52.207  1.00  0.00     0.213 C 
HETATM   20  O1  UNL     1     -36.901 -61.079 -51.899  1.00  0.00    -0.645 OA
HETATM   21  O2  UNL     1     -38.198 -62.696 -52.800  1.00  0.00    -0.645 OA
ENDBRANCH   1  19
BRANCH   1  22
HETATM   22  O3  UNL     1     -38.934 -59.309 -52.479  1.00  0.00    -0.375 OA
ATOM     23  H3  UNL     1     -39.447 -58.659 -52.015  1.00  0.00     0.211 HD
ENDBRANCH   1  22
BRANCH   5  24
HETATM   24  O6  UNL     1     -40.568 -62.797 -50.807  1.00  0.00    -0.393 OA
ATOM     25  H6  UNL     1     -40.611 -62.734 -49.860  1.00  0.00     0.210 HD
ENDBRANCH   5  24
TORSDOF 8
ENDMDL
