MODEL 12
REMARK VINA RESULT: -6.672221007      1.310      1.931
REMARK  8 active torsions:
REMARK  status: ('A' for Active; 'I' for Inactive)
REMARK    1  A    between atoms: C1_2  and  C2_4 
REMARK    2  A    between atoms: C2_4  and  O3_5 
REMARK    3  A    between atoms: C4_8  and  C5_9 
REMARK    4  A    between atoms: C6_10  and  C7_11 
REMARK    5  A    between atoms: C7_11  and  O4_12 
REMARK    6  A    between atoms: O4_12  and  C8_13 
REMARK    7  A    between atoms: C14_19  and  O5_20 
REMARK    8  A    between atoms: C15_22  and  O6_23 
ROOT
HETATM    1  C2  UNL     1     -39.485 -60.550 -51.066  1.00  0.00     0.166 C 
HETATM    2  C3  UNL     1     -38.788 -60.709 -49.781  1.00  0.00     0.031 C 
HETATM    3  C4  UNL     1     -39.190 -60.219 -48.627  1.00  0.00    -0.028 C 
HETATM    4  C14 UNL     1     -40.448 -59.445 -48.633  1.00  0.00     0.179 C 
HETATM    5  C15 UNL     1     -41.414 -60.245 -49.513  1.00  0.00     0.155 C 
HETATM    6  C16 UNL     1     -40.893 -60.067 -50.936  1.00  0.00     0.088 C 
ENDROOT
BRANCH   3   7
HETATM    7  C5  UNL     1     -38.396 -60.457 -47.440  1.00  0.00     0.007 C 
HETATM    8  C6  UNL     1     -37.076 -60.541 -47.450  1.00  0.00     0.000 C 
BRANCH   8   9
HETATM    9  C7  UNL     1     -36.303 -60.788 -46.193  1.00  0.00     0.203 C 
BRANCH   9  10
HETATM   10  O4  UNL     1     -37.016 -60.167 -45.143  1.00  0.00    -0.347 OA
BRANCH  10  11
HETATM   11  C8  UNL     1     -37.178 -60.837 -43.957  1.00  0.00     0.069 A 
HETATM   12  C9  UNL     1     -38.389 -60.850 -43.322  1.00  0.00     0.037 A 
HETATM   13  C10 UNL     1     -38.586 -61.519 -42.120  1.00  0.00     0.003 A 
HETATM   14  C11 UNL     1     -37.499 -62.176 -41.587  1.00  0.00     0.000 A 
HETATM   15  C12 UNL     1     -36.279 -62.169 -42.218  1.00  0.00     0.003 A 
HETATM   16  C13 UNL     1     -36.117 -61.501 -43.401  1.00  0.00     0.037 A 
ENDBRANCH  10  11
ENDBRANCH   9  10
ENDBRANCH   8   9
ENDBRANCH   3   7
BRANCH   4  17
HETATM   17  O5  UNL     1     -40.234 -58.223 -49.296  1.00  0.00    -0.388 OA
ATOM     18  H5  UNL     1     -40.799 -58.180 -50.059  1.00  0.00     0.210 HD
ENDBRANCH   4  17
BRANCH   1  19
HETATM   19  C1  UNL     1     -39.526 -61.862 -51.784  1.00  0.00     0.213 C 
HETATM   20  O1  UNL     1     -38.641 -62.083 -52.669  1.00  0.00    -0.645 OA
HETATM   21  O2  UNL     1     -40.455 -62.836 -51.547  1.00  0.00    -0.645 OA
ENDBRANCH   1  19
BRANCH   1  22
HETATM   22  O3  UNL     1     -38.705 -59.666 -51.844  1.00  0.00    -0.375 OA
ATOM     23  H3  UNL     1     -39.267 -58.947 -52.107  1.00  0.00     0.211 HD
ENDBRANCH   1  22
BRANCH   5  24
HETATM   24  O6  UNL     1     -41.362 -61.599 -49.232  1.00  0.00    -0.393 OA
ATOM     25  H6  UNL     1     -41.123 -61.761 -48.326  1.00  0.00     0.210 HD
ENDBRANCH   5  24
TORSDOF 8
ENDMDL
