MODEL 10
REMARK VINA RESULT: -7.054660179      2.321      7.649
REMARK  8 active torsions:
REMARK  status: ('A' for Active; 'I' for Inactive)
REMARK    1  A    between atoms: C1_2  and  C2_4 
REMARK    2  A    between atoms: C2_4  and  O3_5 
REMARK    3  A    between atoms: C4_8  and  C5_9 
REMARK    4  A    between atoms: C6_10  and  C7_11 
REMARK    5  A    between atoms: C7_11  and  O4_12 
REMARK    6  A    between atoms: O4_12  and  C8_13 
REMARK    7  A    between atoms: C14_19  and  O5_20 
REMARK    8  A    between atoms: C15_22  and  O6_23 
ROOT
HETATM    1  C2  UNL     1     -37.624 -61.966 -43.290  1.00  0.00     0.166 C 
HETATM    2  C3  UNL     1     -37.971 -61.169 -44.476  1.00  0.00     0.031 C 
HETATM    3  C4  UNL     1     -39.159 -60.665 -44.739  1.00  0.00    -0.028 C 
HETATM    4  C14 UNL     1     -40.227 -60.927 -43.753  1.00  0.00     0.179 C 
HETATM    5  C15 UNL     1     -39.580 -60.709 -42.382  1.00  0.00     0.155 C 
HETATM    6  C16 UNL     1     -38.639 -61.897 -42.195  1.00  0.00     0.088 C 
ENDROOT
BRANCH   3   7
HETATM    7  C5  UNL     1     -39.351 -59.897 -45.951  1.00  0.00     0.007 C 
HETATM    8  C6  UNL     1     -40.351 -60.102 -46.794  1.00  0.00     0.000 C 
BRANCH   8   9
HETATM    9  C7  UNL     1     -40.504 -59.280 -48.033  1.00  0.00     0.203 C 
BRANCH   9  10
HETATM   10  O4  UNL     1     -40.752 -60.179 -49.095  1.00  0.00    -0.347 OA
BRANCH  10  11
HETATM   11  C8  UNL     1     -39.717 -60.540 -49.919  1.00  0.00     0.069 A 
HETATM   12  C9  UNL     1     -39.948 -61.283 -51.044  1.00  0.00     0.037 A 
HETATM   13  C10 UNL     1     -38.923 -61.665 -51.901  1.00  0.00     0.003 A 
HETATM   14  C11 UNL     1     -37.649 -61.261 -51.568  1.00  0.00     0.000 A 
HETATM   15  C12 UNL     1     -37.407 -60.514 -50.440  1.00  0.00     0.003 A 
HETATM   16  C13 UNL     1     -38.439 -60.153 -49.617  1.00  0.00     0.037 A 
ENDBRANCH  10  11
ENDBRANCH   9  10
ENDBRANCH   8   9
ENDBRANCH   3   7
BRANCH   4  17
HETATM   17  O5  UNL     1     -40.580 -62.288 -43.809  1.00  0.00    -0.388 OA
ATOM     18  H5  UNL     1     -40.121 -62.756 -43.122  1.00  0.00     0.210 HD
ENDBRANCH   4  17
BRANCH   1  19
HETATM   19  C1  UNL     1     -36.323 -61.492 -42.726  1.00  0.00     0.213 C 
HETATM   20  O1  UNL     1     -36.106 -61.681 -41.489  1.00  0.00    -0.645 OA
HETATM   21  O2  UNL     1     -35.352 -60.869 -43.459  1.00  0.00    -0.645 OA
ENDBRANCH   1  19
BRANCH   1  22
HETATM   22  O3  UNL     1     -37.434 -63.293 -43.735  1.00  0.00    -0.375 OA
ATOM     23  H3  UNL     1     -37.947 -63.404 -44.527  1.00  0.00     0.211 HD
ENDBRANCH   1  22
BRANCH   5  24
HETATM   24  O6  UNL     1     -38.797 -59.568 -42.361  1.00  0.00    -0.393 OA
ATOM     25  H6  UNL     1     -38.137 -59.608 -41.678  1.00  0.00     0.210 HD
ENDBRANCH   5  24
TORSDOF 8
ENDMDL
