MODEL 9
REMARK VINA RESULT: -7.153764101      2.381      8.091
REMARK  8 active torsions:
REMARK  status: ('A' for Active; 'I' for Inactive)
REMARK    1  A    between atoms: C1_2  and  C2_4 
REMARK    2  A    between atoms: C2_4  and  O3_5 
REMARK    3  A    between atoms: C4_8  and  C5_9 
REMARK    4  A    between atoms: C6_10  and  C7_11 
REMARK    5  A    between atoms: C7_11  and  O4_12 
REMARK    6  A    between atoms: O4_12  and  C8_13 
REMARK    7  A    between atoms: C14_19  and  O5_20 
REMARK    8  A    between atoms: C15_22  and  O6_23 
ROOT
HETATM    1  C2  UNL     1     -38.403 -60.609 -42.513  1.00  0.00     0.166 C 
HETATM    2  C3  UNL     1     -38.351 -60.270 -43.943  1.00  0.00     0.031 C 
HETATM    3  C4  UNL     1     -37.364 -60.563 -44.764  1.00  0.00    -0.028 C 
HETATM    4  C14 UNL     1     -36.216 -61.294 -44.192  1.00  0.00     0.179 C 
HETATM    5  C15 UNL     1     -36.827 -62.378 -43.298  1.00  0.00     0.155 C 
HETATM    6  C16 UNL     1     -37.392 -61.627 -42.095  1.00  0.00     0.088 C 
ENDROOT
BRANCH   3   7
HETATM    7  C5  UNL     1     -37.453 -60.162 -46.152  1.00  0.00     0.007 C 
HETATM    8  C6  UNL     1     -38.510 -59.558 -46.671  1.00  0.00     0.000 C 
BRANCH   8   9
HETATM    9  C7  UNL     1     -38.550 -59.164 -48.113  1.00  0.00     0.203 C 
BRANCH   9  10
HETATM   10  O4  UNL     1     -39.486 -60.014 -48.745  1.00  0.00    -0.347 OA
BRANCH  10  11
HETATM   11  C8  UNL     1     -39.148 -60.615 -49.931  1.00  0.00     0.069 A 
HETATM   12  C9  UNL     1     -40.099 -61.227 -50.700  1.00  0.00     0.037 A 
HETATM   13  C10 UNL     1     -39.791 -61.843 -51.906  1.00  0.00     0.003 A 
HETATM   14  C11 UNL     1     -38.471 -61.815 -52.301  1.00  0.00     0.000 A 
HETATM   15  C12 UNL     1     -37.508 -61.202 -51.536  1.00  0.00     0.003 A 
HETATM   16  C13 UNL     1     -37.845 -60.603 -50.352  1.00  0.00     0.037 A 
ENDBRANCH  10  11
ENDBRANCH   9  10
ENDBRANCH   8   9
ENDBRANCH   3   7
BRANCH   4  17
HETATM   17  O5  UNL     1     -35.503 -60.435 -43.335  1.00  0.00    -0.388 OA
ATOM     18  H5  UNL     1     -35.915 -60.439 -42.478  1.00  0.00     0.210 HD
ENDBRANCH   4  17
BRANCH   1  19
HETATM   19  C1  UNL     1     -39.754 -61.151 -42.171  1.00  0.00     0.213 C 
HETATM   20  O1  UNL     1     -40.245 -62.046 -42.928  1.00  0.00    -0.645 OA
HETATM   21  O2  UNL     1     -40.492 -60.744 -41.096  1.00  0.00    -0.645 OA
ENDBRANCH   1  19
BRANCH   1  22
HETATM   22  O3  UNL     1     -38.241 -59.398 -41.803  1.00  0.00    -0.375 OA
ATOM     23  H3  UNL     1     -37.313 -59.291 -41.631  1.00  0.00     0.211 HD
ENDBRANCH   1  22
BRANCH   5  24
HETATM   24  O6  UNL     1     -37.892 -63.010 -43.915  1.00  0.00    -0.393 OA
ATOM     25  H6  UNL     1     -38.226 -62.503 -44.646  1.00  0.00     0.210 HD
ENDBRANCH   5  24
TORSDOF 8
ENDMDL
