MODEL 7
REMARK VINA RESULT: -7.595846625      1.503      2.269
REMARK  8 active torsions:
REMARK  status: ('A' for Active; 'I' for Inactive)
REMARK    1  A    between atoms: C1_2  and  C2_4 
REMARK    2  A    between atoms: C2_4  and  O3_5 
REMARK    3  A    between atoms: C4_8  and  C5_9 
REMARK    4  A    between atoms: C6_10  and  C7_11 
REMARK    5  A    between atoms: C7_11  and  O4_12 
REMARK    6  A    between atoms: O4_12  and  C8_13 
REMARK    7  A    between atoms: C14_19  and  O5_20 
REMARK    8  A    between atoms: C15_22  and  O6_23 
ROOT
HETATM    1  C2  UNL     1     -39.012 -60.136 -49.968  1.00  0.00     0.166 C 
HETATM    2  C3  UNL     1     -38.832 -60.485 -48.551  1.00  0.00     0.031 C 
HETATM    3  C4  UNL     1     -39.605 -60.089 -47.562  1.00  0.00    -0.028 C 
HETATM    4  C14 UNL     1     -40.747 -59.222 -47.913  1.00  0.00     0.179 C 
HETATM    5  C15 UNL     1     -41.359 -59.844 -49.172  1.00  0.00     0.155 C 
HETATM    6  C16 UNL     1     -40.353 -59.559 -50.284  1.00  0.00     0.088 C 
ENDROOT
BRANCH   3   7
HETATM    7  C5  UNL     1     -39.302 -60.515 -46.211  1.00  0.00     0.007 C 
HETATM    8  C6  UNL     1     -40.224 -60.890 -45.340  1.00  0.00     0.000 C 
BRANCH   8   9
HETATM    9  C7  UNL     1     -39.856 -61.321 -43.955  1.00  0.00     0.203 C 
BRANCH   9  10
HETATM   10  O4  UNL     1     -38.734 -60.554 -43.571  1.00  0.00    -0.347 OA
BRANCH  10  11
HETATM   11  C8  UNL     1     -37.478 -61.079 -43.737  1.00  0.00     0.069 A 
HETATM   12  C9  UNL     1     -37.018 -62.065 -42.907  1.00  0.00     0.037 A 
HETATM   13  C10 UNL     1     -35.752 -62.619 -43.049  1.00  0.00     0.003 A 
HETATM   14  C11 UNL     1     -34.967 -62.130 -44.069  1.00  0.00     0.000 A 
HETATM   15  C12 UNL     1     -35.420 -61.139 -44.908  1.00  0.00     0.003 A 
HETATM   16  C13 UNL     1     -36.673 -60.614 -44.743  1.00  0.00     0.037 A 
ENDBRANCH  10  11
ENDBRANCH   9  10
ENDBRANCH   8   9
ENDBRANCH   3   7
BRANCH   4  17
HETATM   17  O5  UNL     1     -40.264 -57.958 -48.296  1.00  0.00    -0.388 OA
ATOM     18  H5  UNL     1     -40.646 -57.719 -49.133  1.00  0.00     0.210 HD
ENDBRANCH   4  17
BRANCH   1  19
HETATM   19  C1  UNL     1     -38.838 -61.357 -50.815  1.00  0.00     0.213 C 
HETATM   20  O1  UNL     1     -37.729 -61.511 -51.416  1.00  0.00    -0.645 OA
HETATM   21  O2  UNL     1     -39.797 -62.316 -50.981  1.00  0.00    -0.645 OA
ENDBRANCH   1  19
BRANCH   1  22
HETATM   22  O3  UNL     1     -37.972 -59.240 -50.300  1.00  0.00    -0.375 OA
ATOM     23  H3  UNL     1     -37.423 -59.667 -50.946  1.00  0.00     0.211 HD
ENDBRANCH   1  22
BRANCH   5  24
HETATM   24  O6  UNL     1     -41.461 -61.220 -49.066  1.00  0.00    -0.393 OA
ATOM     25  H6  UNL     1     -41.150 -61.658 -49.850  1.00  0.00     0.210 HD
ENDBRANCH   5  24
TORSDOF 8
ENDMDL
