MODEL 2
REMARK VINA RESULT: -10.453224593      0.050      1.017
REMARK  8 active torsions:
REMARK  status: ('A' for Active; 'I' for Inactive)
REMARK    1  A    between atoms: C1_2  and  C2_4 
REMARK    2  A    between atoms: C2_4  and  O3_5 
REMARK    3  A    between atoms: C4_8  and  C5_9 
REMARK    4  A    between atoms: C6_10  and  C7_11 
REMARK    5  A    between atoms: C7_11  and  O4_12 
REMARK    6  A    between atoms: O4_12  and  C8_13 
REMARK    7  A    between atoms: C14_19  and  O5_20 
REMARK    8  A    between atoms: C15_22  and  O6_23 
ROOT
HETATM    1  C2  UNL     1     -39.188 -60.535 -51.880  1.00  0.00     0.166 C 
HETATM    2  C3  UNL     1     -39.292 -60.328 -50.428  1.00  0.00     0.031 C 
HETATM    3  C4  UNL     1     -40.406 -60.372 -49.727  1.00  0.00    -0.028 C 
HETATM    4  C14 UNL     1     -41.651 -60.653 -50.470  1.00  0.00     0.179 C 
HETATM    5  C15 UNL     1     -41.301 -61.787 -51.438  1.00  0.00     0.155 C 
HETATM    6  C16 UNL     1     -40.406 -61.145 -52.495  1.00  0.00     0.088 C 
ENDROOT
BRANCH   3   7
HETATM    7  C5  UNL     1     -40.354 -60.147 -48.298  1.00  0.00     0.007 C 
HETATM    8  C6  UNL     1     -39.232 -60.169 -47.596  1.00  0.00     0.000 C 
BRANCH   8   9
HETATM    9  C7  UNL     1     -39.234 -59.929 -46.120  1.00  0.00     0.203 C 
BRANCH   9  10
HETATM   10  O4  UNL     1     -37.890 -59.726 -45.735  1.00  0.00    -0.347 OA
BRANCH  10  11
HETATM   11  C8  UNL     1     -37.318 -60.584 -44.831  1.00  0.00     0.069 A 
HETATM   12  C9  UNL     1     -35.990 -60.904 -44.915  1.00  0.00     0.037 A 
HETATM   13  C10 UNL     1     -35.380 -61.769 -44.016  1.00  0.00     0.003 A 
HETATM   14  C11 UNL     1     -36.174 -62.299 -43.023  1.00  0.00     0.000 A 
HETATM   15  C12 UNL     1     -37.508 -61.984 -42.930  1.00  0.00     0.003 A 
HETATM   16  C13 UNL     1     -38.080 -61.128 -43.831  1.00  0.00     0.037 A 
ENDBRANCH  10  11
ENDBRANCH   9  10
ENDBRANCH   8   9
ENDBRANCH   3   7
BRANCH   4  17
HETATM   17  O5  UNL     1     -41.971 -59.541 -51.270  1.00  0.00    -0.388 OA
ATOM     18  H5  UNL     1     -41.932 -59.794 -52.185  1.00  0.00     0.210 HD
ENDBRANCH   4  17
BRANCH   1  19
HETATM   19  C1  UNL     1     -38.034 -61.438 -52.180  1.00  0.00     0.213 C 
HETATM   20  O1  UNL     1     -36.864 -61.011 -51.933  1.00  0.00    -0.645 OA
HETATM   21  O2  UNL     1     -38.161 -62.695 -52.703  1.00  0.00    -0.645 OA
ENDBRANCH   1  19
BRANCH   1  22
HETATM   22  O3  UNL     1     -38.897 -59.275 -52.450  1.00  0.00    -0.375 OA
ATOM     23  H3  UNL     1     -39.658 -59.007 -52.950  1.00  0.00     0.211 HD
ENDBRANCH   1  22
BRANCH   5  24
HETATM   24  O6  UNL     1     -40.550 -62.774 -50.822  1.00  0.00    -0.393 OA
ATOM     25  H6  UNL     1     -39.738 -62.938 -51.286  1.00  0.00     0.210 HD
ENDBRANCH   5  24
TORSDOF 8
ENDMDL
