MODEL 5
REMARK VINA RESULT: -6.316418241      6.315      8.168
REMARK  4 active torsions:
REMARK  status: ('A' for Active; 'I' for Inactive)
REMARK    1  A    between atoms: C1_2  and  C2_4 
REMARK    2  A    between atoms: C2_4  and  O3_5 
REMARK    3  A    between atoms: C5_9  and  O4_10 
REMARK    4  A    between atoms: C6_12  and  O5_13 
ROOT
HETATM    1  C2  UNL     1      48.250   5.928  20.010  1.00  0.00     0.166 C 
HETATM    2  C3  UNL     1      47.583   5.281  21.175  1.00  0.00     0.020 C 
HETATM    3  C4  UNL     1      48.067   4.214  21.801  1.00  0.00     0.006 C 
HETATM    4  C5  UNL     1      49.335   3.534  21.417  1.00  0.00     0.169 C 
HETATM    5  C6  UNL     1      49.722   4.009  20.037  1.00  0.00     0.154 C 
HETATM    6  C7  UNL     1      49.732   5.540  20.112  1.00  0.00     0.088 C 
ENDROOT
BRANCH   1   7
HETATM    7  C1  UNL     1      48.076   7.388  20.079  1.00  0.00     0.213 C 
HETATM    8  O1  UNL     1      47.207   7.843  20.864  1.00  0.00    -0.645 OA
HETATM    9  O2  UNL     1      48.807   8.291  19.338  1.00  0.00    -0.645 OA
ENDBRANCH   1   7
BRANCH   1  10
HETATM   10  O3  UNL     1      47.786   5.417  18.815  1.00  0.00    -0.375 OA
ATOM     11  H3  UNL     1      47.718   4.470  18.842  1.00  0.00     0.211 HD
ENDBRANCH   1  10
BRANCH   5  12
HETATM   12  O5  UNL     1      50.957   3.519  19.639  1.00  0.00    -0.393 OA
ATOM     13  H5  UNL     1      51.026   3.438  18.695  1.00  0.00     0.210 HD
ENDBRANCH   5  12
BRANCH   4  14
HETATM   14  O4  UNL     1      49.184   2.141  21.449  1.00  0.00    -0.389 OA
ATOM     15  H4  UNL     1      48.555   1.852  20.797  1.00  0.00     0.210 HD
ENDBRANCH   4  14
TORSDOF 4
ENDMDL
