MODEL 9
REMARK VINA RESULT: -5.917059906      1.092      1.645
REMARK  4 active torsions:
REMARK  status: ('A' for Active; 'I' for Inactive)
REMARK    1  A    between atoms: C1_2  and  C2_4 
REMARK    2  A    between atoms: C2_4  and  O3_5 
REMARK    3  A    between atoms: C5_9  and  O4_10 
REMARK    4  A    between atoms: C6_12  and  O5_13 
ROOT
HETATM    1  C2  UNL     1      44.745   5.753  26.917  1.00  0.00     0.166 C 
HETATM    2  C3  UNL     1      44.931   6.112  25.483  1.00  0.00     0.020 C 
HETATM    3  C4  UNL     1      44.205   7.029  24.853  1.00  0.00     0.006 C 
HETATM    4  C5  UNL     1      43.115   7.809  25.502  1.00  0.00     0.169 C 
HETATM    5  C6  UNL     1      42.755   7.125  26.799  1.00  0.00     0.154 C 
HETATM    6  C7  UNL     1      44.074   6.972  27.567  1.00  0.00     0.088 C 
ENDROOT
BRANCH   1   7
HETATM    7  C1  UNL     1      46.049   5.469  27.538  1.00  0.00     0.213 C 
HETATM    8  O1  UNL     1      46.589   6.378  28.217  1.00  0.00    -0.645 OA
HETATM    9  O2  UNL     1      46.716   4.269  27.424  1.00  0.00    -0.645 OA
ENDBRANCH   1   7
BRANCH   1  10
HETATM   10  O3  UNL     1      43.871   4.694  27.063  1.00  0.00    -0.375 OA
ATOM     11  H3  UNL     1      43.264   4.837  27.780  1.00  0.00     0.211 HD
ENDBRANCH   1  10
BRANCH   5  12
HETATM   12  O5  UNL     1      41.828   7.847  27.536  1.00  0.00    -0.393 OA
ATOM     13  H5  UNL     1      41.007   7.958  27.071  1.00  0.00     0.210 HD
ENDBRANCH   5  12
BRANCH   4  14
HETATM   14  O4  UNL     1      42.001   7.909  24.657  1.00  0.00    -0.389 OA
ATOM     15  H4  UNL     1      41.315   7.309  24.927  1.00  0.00     0.210 HD
ENDBRANCH   4  14
TORSDOF 4
ENDMDL
