MODEL 2
REMARK VINA RESULT: -6.856432069      6.770      8.342
REMARK  4 active torsions:
REMARK  status: ('A' for Active; 'I' for Inactive)
REMARK    1  A    between atoms: C1_2  and  C2_4 
REMARK    2  A    between atoms: C2_4  and  O3_5 
REMARK    3  A    between atoms: C5_9  and  O4_10 
REMARK    4  A    between atoms: C6_12  and  O5_13 
ROOT
HETATM    1  C2  UNL     1      48.552   4.468  20.609  1.00  0.00     0.166 C 
HETATM    2  C3  UNL     1      49.090   3.548  21.650  1.00  0.00     0.020 C 
HETATM    3  C4  UNL     1      50.387   3.371  21.877  1.00  0.00     0.006 C 
HETATM    4  C5  UNL     1      51.462   4.069  21.120  1.00  0.00     0.169 C 
HETATM    5  C6  UNL     1      50.849   4.662  19.874  1.00  0.00     0.154 C 
HETATM    6  C7  UNL     1      49.659   5.501  20.355  1.00  0.00     0.088 C 
ENDROOT
BRANCH   1   7
HETATM    7  C1  UNL     1      47.322   5.114  21.096  1.00  0.00     0.213 C 
HETATM    8  O1  UNL     1      46.938   4.848  22.262  1.00  0.00    -0.645 OA
HETATM    9  O2  UNL     1      46.564   5.994  20.354  1.00  0.00    -0.645 OA
ENDBRANCH   1   7
BRANCH   1  10
HETATM   10  O3  UNL     1      48.342   3.810  19.414  1.00  0.00    -0.375 OA
ATOM     11  H3  UNL     1      47.457   3.942  19.092  1.00  0.00     0.211 HD
ENDBRANCH   1  10
BRANCH   5  12
HETATM   12  O5  UNL     1      51.751   5.437  19.160  1.00  0.00    -0.393 OA
ATOM     13  H5  UNL     1      51.661   5.323  18.221  1.00  0.00     0.210 HD
ENDBRANCH   5  12
BRANCH   4  14
HETATM   14  O4  UNL     1      52.502   3.187  20.800  1.00  0.00    -0.389 OA
ATOM     15  H4  UNL     1      52.326   2.735  19.983  1.00  0.00     0.210 HD
ENDBRANCH   4  14
TORSDOF 4
ENDMDL
