MODEL 6
REMARK VINA RESULT: -6.247797034      6.632      7.649
REMARK  4 active torsions:
REMARK  status: ('A' for Active; 'I' for Inactive)
REMARK    1  A    between atoms: C1_2  and  C2_4 
REMARK    2  A    between atoms: C2_4  and  O3_5 
REMARK    3  A    between atoms: C5_9  and  O4_10 
REMARK    4  A    between atoms: C6_12  and  O5_13 
ROOT
HETATM    1  C2  UNL     1      49.413   4.169  20.346  1.00  0.00     0.166 C 
HETATM    2  C3  UNL     1      50.353   5.238  19.903  1.00  0.00     0.020 C 
HETATM    3  C4  UNL     1      49.987   6.495  19.682  1.00  0.00     0.006 C 
HETATM    4  C5  UNL     1      48.594   6.993  19.849  1.00  0.00     0.169 C 
HETATM    5  C6  UNL     1      47.674   5.797  19.922  1.00  0.00     0.154 C 
HETATM    6  C7  UNL     1      48.246   4.899  21.025  1.00  0.00     0.088 C 
ENDROOT
BRANCH   1   7
HETATM    7  C1  UNL     1      50.091   3.260  21.284  1.00  0.00     0.213 C 
HETATM    8  O1  UNL     1      49.460   2.252  21.688  1.00  0.00    -0.645 OA
HETATM    9  O2  UNL     1      51.376   3.443  21.747  1.00  0.00    -0.645 OA
ENDBRANCH   1   7
BRANCH   1  10
HETATM   10  O3  UNL     1      48.882   3.486  19.270  1.00  0.00    -0.375 OA
ATOM     11  H3  UNL     1      47.992   3.201  19.442  1.00  0.00     0.211 HD
ENDBRANCH   1  10
BRANCH   5  12
HETATM   12  O5  UNL     1      46.363   6.157  20.198  1.00  0.00    -0.393 OA
ATOM     13  H5  UNL     1      45.738   5.670  19.674  1.00  0.00     0.210 HD
ENDBRANCH   5  12
BRANCH   4  14
HETATM   14  O4  UNL     1      48.236   7.843  18.795  1.00  0.00    -0.389 OA
ATOM     15  H4  UNL     1      47.350   7.664  18.500  1.00  0.00     0.210 HD
ENDBRANCH   4  14
TORSDOF 4
ENDMDL
