MODEL 1
REMARK VINA RESULT: -8.093547209      0.000      0.000
REMARK  4 active torsions:
REMARK  status: ('A' for Active; 'I' for Inactive)
REMARK    1  A    between atoms: C1_2  and  C2_4 
REMARK    2  A    between atoms: C2_4  and  O3_5 
REMARK    3  A    between atoms: C5_9  and  O4_10 
REMARK    4  A    between atoms: C6_12  and  O5_13 
ROOT
HETATM    1  C2  UNL     1      44.720   5.783  26.771  1.00  0.00     0.166 C 
HETATM    2  C3  UNL     1      45.062   5.144  25.469  1.00  0.00     0.020 C 
HETATM    3  C4  UNL     1      44.740   5.659  24.288  1.00  0.00     0.006 C 
HETATM    4  C5  UNL     1      43.998   6.939  24.119  1.00  0.00     0.169 C 
HETATM    5  C6  UNL     1      43.379   7.302  25.448  1.00  0.00     0.154 C 
HETATM    6  C7  UNL     1      44.529   7.275  26.462  1.00  0.00     0.088 C 
ENDROOT
BRANCH   1   7
HETATM    7  C1  UNL     1      45.812   5.575  27.735  1.00  0.00     0.213 C 
HETATM    8  O1  UNL     1      46.319   4.429  27.814  1.00  0.00    -0.645 OA
HETATM    9  O2  UNL     1      46.316   6.559  28.559  1.00  0.00    -0.645 OA
ENDBRANCH   1   7
BRANCH   1  10
HETATM   10  O3  UNL     1      43.515   5.321  27.260  1.00  0.00    -0.375 OA
ATOM     11  H3  UNL     1      42.789   5.580  26.704  1.00  0.00     0.211 HD
ENDBRANCH   1  10
BRANCH   5  12
HETATM   12  O5  UNL     1      42.764   8.545  25.420  1.00  0.00    -0.393 OA
ATOM     13  H5  UNL     1      43.361   9.247  25.649  1.00  0.00     0.210 HD
ENDBRANCH   5  12
BRANCH   4  14
HETATM   14  O4  UNL     1      43.021   6.822  23.121  1.00  0.00    -0.389 OA
ATOM     15  H4  UNL     1      42.731   7.679  22.829  1.00  0.00     0.210 HD
ENDBRANCH   4  14
TORSDOF 4
ENDMDL
