MODEL 3
REMARK VINA RESULT: -9.987149074      1.444      2.143
REMARK  5 active torsions:
REMARK  status: ('A' for Active; 'I' for Inactive)
REMARK    1  A    between atoms: P1_2  and  C2_5 
REMARK    2  A    between atoms: C2_5  and  C3_6 
REMARK    3  A    between atoms: C2_5  and  C12_20 
REMARK       I    between atoms: C3_6  and  N1_8 
REMARK    4  A    between atoms: N1_8  and  C4_10 
REMARK    5  A    between atoms: C5_11  and  C6_12 
ROOT
HETATM    1  C2  UNL     1     -14.428 -44.855 -57.301  1.00  0.00     0.203 C 
ENDROOT
BRANCH   1   2
HETATM    2  P1  UNL     1     -14.425 -44.663 -59.017  1.00  0.00     0.120 P 
HETATM    3  C1  UNL     1     -15.728 -43.869 -59.867  1.00  0.00     0.120 C 
HETATM    4  O1  UNL     1     -13.212 -45.474 -59.926  1.00  0.00    -0.667 OA
HETATM    5  O2  UNL     1     -13.441 -43.473 -59.102  1.00  0.00    -0.667 OA
ENDBRANCH   1   2
BRANCH   1   6
HETATM    6  C3  UNL     1     -13.078 -44.979 -56.650  1.00  0.00     0.240 C 
HETATM    7  O3  UNL     1     -12.944 -44.397 -55.545  1.00  0.00    -0.272 OA
HETATM    8  N1  UNL     1     -12.016 -45.691 -57.207  1.00  0.00    -0.336 N 
ATOM      9  H1  UNL     1     -12.119 -46.166 -58.104  1.00  0.00     0.168 HD
BRANCH   8  10
HETATM   10  C4  UNL     1     -10.766 -45.738 -56.484  1.00  0.00     0.092 C 
HETATM   11  C5  UNL     1      -9.639 -45.338 -57.043  1.00  0.00     0.028 C 
BRANCH  11  12
HETATM   12  C6  UNL     1      -8.337 -45.344 -56.412  1.00  0.00    -0.032 A 
HETATM   13  C7  UNL     1      -8.182 -45.452 -55.049  1.00  0.00     0.014 A 
HETATM   14  C8  UNL     1      -6.906 -45.452 -54.495  1.00  0.00     0.046 A 
HETATM   15  C9  UNL     1      -5.802 -45.345 -55.294  1.00  0.00     0.154 A 
HETATM   16  F1  UNL     1      -4.564 -45.347 -54.736  1.00  0.00    -0.203 F 
HETATM   17  C10 UNL     1      -5.928 -45.236 -56.664  1.00  0.00     0.155 A 
HETATM   18  F2  UNL     1      -4.839 -45.131 -57.434  1.00  0.00    -0.203 F 
HETATM   19  C11 UNL     1      -7.206 -45.238 -57.181  1.00  0.00     0.057 A 
ENDBRANCH  11  12
ENDBRANCH   8  10
ENDBRANCH   1   6
BRANCH   1  20
HETATM   20  C12 UNL     1     -15.170 -46.168 -57.056  1.00  0.00    -0.017 A 
HETATM   21  C13 UNL     1     -15.203 -47.066 -58.093  1.00  0.00     0.059 A 
HETATM   22  S1  UNL     1     -16.109 -48.378 -57.445  1.00  0.00    -0.101 SA
HETATM   23  C14 UNL     1     -16.412 -47.746 -55.892  1.00  0.00     0.015 A 
HETATM   24  C15 UNL     1     -17.095 -48.236 -54.781  1.00  0.00     0.021 A 
HETATM   25  C19 UNL     1     -15.799 -46.534 -55.925  1.00  0.00    -0.009 A 
HETATM   26  C16 UNL     1     -17.179 -47.470 -53.613  1.00  0.00     0.025 A 
HETATM   27  C17 UNL     1     -16.567 -46.259 -53.648  1.00  0.00     0.035 A 
HETATM   28 CL1  UNL     1     -16.674 -45.289 -52.161  1.00  0.00    -0.084 Cl
HETATM   29  C18 UNL     1     -15.905 -45.794 -54.735  1.00  0.00     0.037 A 
ENDBRANCH   1  20
TORSDOF 5
ENDMDL
