MODEL 1
REMARK VINA RESULT: -10.143454982      0.000      0.000
REMARK  5 active torsions:
REMARK  status: ('A' for Active; 'I' for Inactive)
REMARK    1  A    between atoms: P1_2  and  C2_5 
REMARK    2  A    between atoms: C2_5  and  C3_6 
REMARK    3  A    between atoms: C2_5  and  C12_20 
REMARK       I    between atoms: C3_6  and  N1_8 
REMARK    4  A    between atoms: N1_8  and  C4_10 
REMARK    5  A    between atoms: C5_11  and  C6_12 
ROOT
HETATM    1  C2  UNL     1     -13.772 -44.516 -56.615  1.00  0.00     0.203 C 
ENDROOT
BRANCH   1   2
HETATM    2  P1  UNL     1     -14.611 -43.196 -57.346  1.00  0.00     0.120 P 
HETATM    3  C1  UNL     1     -15.750 -43.425 -58.651  1.00  0.00     0.120 C 
HETATM    4  O1  UNL     1     -14.143 -41.598 -56.922  1.00  0.00    -0.667 OA
HETATM    5  O2  UNL     1     -15.680 -42.983 -56.249  1.00  0.00    -0.667 OA
ENDBRANCH   1   2
BRANCH   1   6
HETATM    6  C3  UNL     1     -12.296 -44.591 -56.886  1.00  0.00     0.240 C 
HETATM    7  O3  UNL     1     -11.871 -43.874 -57.826  1.00  0.00    -0.272 OA
HETATM    8  N1  UNL     1     -11.418 -45.394 -56.159  1.00  0.00    -0.336 N 
ATOM      9  H1  UNL     1     -11.757 -45.979 -55.394  1.00  0.00     0.168 HD
BRANCH   8  10
HETATM   10  C4  UNL     1     -10.018 -45.380 -56.514  1.00  0.00     0.092 C 
HETATM   11  C5  UNL     1      -9.080 -45.321 -55.588  1.00  0.00     0.028 C 
BRANCH  11  12
HETATM   12  C6  UNL     1      -7.653 -45.301 -55.832  1.00  0.00    -0.032 A 
HETATM   13  C7  UNL     1      -7.123 -45.453 -57.094  1.00  0.00     0.014 A 
HETATM   14  C8  UNL     1      -5.743 -45.427 -57.272  1.00  0.00     0.046 A 
HETATM   15  C9  UNL     1      -4.908 -45.249 -56.204  1.00  0.00     0.154 A 
HETATM   16  F1  UNL     1      -3.565 -45.226 -56.397  1.00  0.00    -0.203 F 
HETATM   17  C10 UNL     1      -5.413 -45.095 -54.929  1.00  0.00     0.155 A 
HETATM   18  F2  UNL     1      -4.585 -44.923 -53.893  1.00  0.00    -0.203 F 
HETATM   19  C11 UNL     1      -6.783 -45.127 -54.787  1.00  0.00     0.057 A 
ENDBRANCH  11  12
ENDBRANCH   8  10
ENDBRANCH   1   6
BRANCH   1  20
HETATM   20  C12 UNL     1     -14.407 -45.766 -57.224  1.00  0.00    -0.017 A 
HETATM   21  C13 UNL     1     -14.042 -46.087 -58.507  1.00  0.00     0.059 A 
HETATM   22  S1  UNL     1     -14.948 -47.515 -58.826  1.00  0.00    -0.101 SA
HETATM   23  C14 UNL     1     -15.753 -47.655 -57.331  1.00  0.00     0.015 A 
HETATM   24  C15 UNL     1     -16.670 -48.574 -56.825  1.00  0.00     0.021 A 
HETATM   25  C19 UNL     1     -15.292 -46.586 -56.629  1.00  0.00    -0.009 A 
HETATM   26  C16 UNL     1     -17.169 -48.427 -55.526  1.00  0.00     0.025 A 
HETATM   27  C17 UNL     1     -16.708 -47.358 -54.826  1.00  0.00     0.035 A 
HETATM   28 CL1  UNL     1     -17.344 -47.175 -53.176  1.00  0.00    -0.084 Cl
HETATM   29  C18 UNL     1     -15.815 -46.471 -55.330  1.00  0.00     0.037 A 
ENDBRANCH   1  20
TORSDOF 5
ENDMDL
