MODEL 4
REMARK VINA RESULT: -8.743238270      2.880      4.099
REMARK  5 active torsions:
REMARK  status: ('A' for Active; 'I' for Inactive)
REMARK    1  A    between atoms: P1_2  and  C2_5 
REMARK    2  A    between atoms: C2_5  and  C3_6 
REMARK    3  A    between atoms: C2_5  and  C12_20 
REMARK       I    between atoms: C3_6  and  N1_8 
REMARK    4  A    between atoms: N1_8  and  C4_10 
REMARK    5  A    between atoms: C5_11  and  C6_12 
ROOT
HETATM    1  C2  UNL     1     -14.569 -45.986 -57.653  1.00  0.00     0.203 C 
ENDROOT
BRANCH   1   2
HETATM    2  P1  UNL     1     -15.193 -46.084 -56.046  1.00  0.00     0.120 P 
HETATM    3  C1  UNL     1     -16.701 -46.888 -55.681  1.00  0.00     0.120 C 
HETATM    4  O1  UNL     1     -14.417 -45.174 -54.813  1.00  0.00    -0.667 OA
HETATM    5  O2  UNL     1     -14.285 -47.224 -55.529  1.00  0.00    -0.667 OA
ENDBRANCH   1   2
BRANCH   1   6
HETATM    6  C3  UNL     1     -13.073 -45.900 -57.775  1.00  0.00     0.240 C 
HETATM    7  O3  UNL     1     -12.578 -46.366 -58.831  1.00  0.00    -0.272 OA
HETATM    8  N1  UNL     1     -12.251 -45.342 -56.796  1.00  0.00    -0.336 N 
ATOM      9  H1  UNL     1     -12.647 -44.961 -55.936  1.00  0.00     0.168 HD
BRANCH   8  10
HETATM   10  C4  UNL     1     -10.825 -45.316 -57.029  1.00  0.00     0.092 C 
HETATM   11  C5  UNL     1      -9.970 -45.353 -56.025  1.00  0.00     0.028 C 
BRANCH  11  12
HETATM   12  C6  UNL     1      -8.528 -45.332 -56.144  1.00  0.00    -0.032 A 
HETATM   13  C7  UNL     1      -7.892 -45.356 -57.365  1.00  0.00     0.014 A 
HETATM   14  C8  UNL     1      -6.502 -45.334 -57.422  1.00  0.00     0.046 A 
HETATM   15  C9  UNL     1      -5.760 -45.287 -56.275  1.00  0.00     0.154 A 
HETATM   16  F1  UNL     1      -4.405 -45.267 -56.350  1.00  0.00    -0.203 F 
HETATM   17  C10 UNL     1      -6.372 -45.262 -55.039  1.00  0.00     0.155 A 
HETATM   18  F2  UNL     1      -5.634 -45.217 -53.923  1.00  0.00    -0.203 F 
HETATM   19  C11 UNL     1      -7.749 -45.285 -55.016  1.00  0.00     0.057 A 
ENDBRANCH  11  12
ENDBRANCH   8  10
ENDBRANCH   1   6
BRANCH   1  20
HETATM   20  C12 UNL     1     -15.144 -44.687 -58.216  1.00  0.00    -0.017 A 
HETATM   21  C13 UNL     1     -15.256 -43.629 -57.348  1.00  0.00     0.059 A 
HETATM   22  S1  UNL     1     -15.929 -42.387 -58.331  1.00  0.00    -0.101 SA
HETATM   23  C14 UNL     1     -16.043 -43.246 -59.798  1.00  0.00     0.015 A 
HETATM   24  C15 UNL     1     -16.500 -42.904 -61.070  1.00  0.00     0.021 A 
HETATM   25  C19 UNL     1     -15.555 -44.473 -59.478  1.00  0.00    -0.009 A 
HETATM   26  C16 UNL     1     -16.470 -43.845 -62.104  1.00  0.00     0.025 A 
HETATM   27  C17 UNL     1     -15.981 -45.070 -61.783  1.00  0.00     0.035 A 
HETATM   28 CL1  UNL     1     -15.944 -46.263 -63.101  1.00  0.00    -0.084 Cl
HETATM   29  C18 UNL     1     -15.540 -45.391 -60.542  1.00  0.00     0.037 A 
ENDBRANCH   1  20
TORSDOF 5
ENDMDL
