MODEL 5
REMARK VINA RESULT: -8.700197999      2.927      4.245
REMARK  5 active torsions:
REMARK  status: ('A' for Active; 'I' for Inactive)
REMARK    1  A    between atoms: P1_2  and  C2_5 
REMARK    2  A    between atoms: C2_5  and  C3_6 
REMARK    3  A    between atoms: C2_5  and  C12_20 
REMARK       I    between atoms: C3_6  and  N1_8 
REMARK    4  A    between atoms: N1_8  and  C4_10 
REMARK    5  A    between atoms: C5_11  and  C6_12 
ROOT
HETATM    1  C2  UNL     1     -14.446 -45.957 -57.662  1.00  0.00     0.203 C 
ENDROOT
BRANCH   1   2
HETATM    2  P1  UNL     1     -15.142 -46.054 -56.085  1.00  0.00     0.120 P 
HETATM    3  C1  UNL     1     -16.673 -46.843 -55.790  1.00  0.00     0.120 C 
HETATM    4  O1  UNL     1     -14.412 -45.156 -54.815  1.00  0.00    -0.667 OA
HETATM    5  O2  UNL     1     -14.270 -47.205 -55.533  1.00  0.00    -0.667 OA
ENDBRANCH   1   2
BRANCH   1   6
HETATM    6  C3  UNL     1     -12.953 -45.794 -57.715  1.00  0.00     0.240 C 
HETATM    7  O3  UNL     1     -12.415 -45.996 -58.831  1.00  0.00    -0.272 OA
HETATM    8  N1  UNL     1     -12.177 -45.440 -56.611  1.00  0.00    -0.336 N 
ATOM      9  H1  UNL     1     -12.607 -45.274 -55.701  1.00  0.00     0.168 HD
BRANCH   8  10
HETATM   10  C4  UNL     1     -10.748 -45.313 -56.788  1.00  0.00     0.092 C 
HETATM   11  C5  UNL     1      -9.916 -45.524 -55.785  1.00  0.00     0.028 C 
BRANCH  11  12
HETATM   12  C6  UNL     1      -8.474 -45.425 -55.851  1.00  0.00    -0.032 A 
HETATM   13  C7  UNL     1      -7.682 -45.488 -54.727  1.00  0.00     0.014 A 
HETATM   14  C8  UNL     1      -6.300 -45.386 -54.848  1.00  0.00     0.046 A 
HETATM   15  C9  UNL     1      -5.719 -45.226 -56.075  1.00  0.00     0.154 A 
HETATM   16  F1  UNL     1      -4.369 -45.128 -56.174  1.00  0.00    -0.203 F 
HETATM   17  C10 UNL     1      -6.490 -45.159 -57.218  1.00  0.00     0.155 A 
HETATM   18  F2  UNL     1      -5.909 -45.001 -58.413  1.00  0.00    -0.203 F 
HETATM   19  C11 UNL     1      -7.855 -45.262 -57.064  1.00  0.00     0.057 A 
ENDBRANCH  11  12
ENDBRANCH   8  10
ENDBRANCH   1   6
BRANCH   1  20
HETATM   20  C12 UNL     1     -15.060 -44.702 -58.282  1.00  0.00    -0.017 A 
HETATM   21  C13 UNL     1     -15.203 -43.610 -57.464  1.00  0.00     0.059 A 
HETATM   22  S1  UNL     1     -15.913 -42.435 -58.501  1.00  0.00    -0.101 SA
HETATM   23  C14 UNL     1     -16.003 -43.362 -59.927  1.00  0.00     0.015 A 
HETATM   24  C15 UNL     1     -16.470 -43.092 -61.212  1.00  0.00     0.021 A 
HETATM   25  C19 UNL     1     -15.478 -44.559 -59.553  1.00  0.00    -0.009 A 
HETATM   26  C16 UNL     1     -16.412 -44.078 -62.203  1.00  0.00     0.025 A 
HETATM   27  C17 UNL     1     -15.888 -45.273 -61.827  1.00  0.00     0.035 A 
HETATM   28 CL1  UNL     1     -15.816 -46.523 -63.089  1.00  0.00    -0.084 Cl
HETATM   29  C18 UNL     1     -15.437 -45.524 -60.574  1.00  0.00     0.037 A 
ENDBRANCH   1  20
TORSDOF 5
ENDMDL
