MODEL 7
REMARK VINA RESULT: -8.459527212      5.487      9.167
REMARK  5 active torsions:
REMARK  status: ('A' for Active; 'I' for Inactive)
REMARK    1  A    between atoms: P1_2  and  C2_5 
REMARK    2  A    between atoms: C2_5  and  C3_6 
REMARK    3  A    between atoms: C2_5  and  C12_20 
REMARK       I    between atoms: C3_6  and  N1_8 
REMARK    4  A    between atoms: N1_8  and  C4_10 
REMARK    5  A    between atoms: C5_11  and  C6_12 
ROOT
HETATM    1  C2  UNL     1     -12.466 -45.679 -56.906  1.00  0.00     0.203 C 
ENDROOT
BRANCH   1   2
HETATM    2  P1  UNL     1     -12.847 -47.313 -57.313  1.00  0.00     0.120 P 
HETATM    3  C1  UNL     1     -11.804 -48.647 -56.882  1.00  0.00     0.120 C 
HETATM    4  O1  UNL     1     -14.177 -47.603 -58.362  1.00  0.00    -0.667 OA
HETATM    5  O2  UNL     1     -13.893 -47.575 -56.205  1.00  0.00    -0.667 OA
ENDBRANCH   1   2
BRANCH   1   6
HETATM    6  C3  UNL     1     -13.525 -44.658 -57.216  1.00  0.00     0.240 C 
HETATM    7  O3  UNL     1     -13.393 -43.541 -56.658  1.00  0.00    -0.272 OA
HETATM    8  N1  UNL     1     -14.603 -44.900 -58.067  1.00  0.00    -0.336 N 
ATOM      9  H1  UNL     1     -14.715 -45.806 -58.523  1.00  0.00     0.168 HD
BRANCH   8  10
HETATM   10  C4  UNL     1     -15.557 -43.837 -58.287  1.00  0.00     0.092 C 
HETATM   11  C5  UNL     1     -15.946 -43.512 -59.505  1.00  0.00     0.028 C 
BRANCH  11  12
HETATM   12  C6  UNL     1     -16.892 -42.468 -59.838  1.00  0.00    -0.032 A 
HETATM   13  C7  UNL     1     -17.877 -42.645 -60.783  1.00  0.00     0.014 A 
HETATM   14  C8  UNL     1     -18.760 -41.607 -61.064  1.00  0.00     0.046 A 
HETATM   15  C9  UNL     1     -18.659 -40.412 -60.408  1.00  0.00     0.154 A 
HETATM   16  F1  UNL     1     -19.530 -39.411 -60.695  1.00  0.00    -0.203 F 
HETATM   17  C10 UNL     1     -17.681 -40.208 -59.456  1.00  0.00     0.155 A 
HETATM   18  F2  UNL     1     -17.593 -39.033 -58.822  1.00  0.00    -0.203 F 
HETATM   19  C11 UNL     1     -16.822 -41.255 -59.202  1.00  0.00     0.057 A 
ENDBRANCH  11  12
ENDBRANCH   8  10
ENDBRANCH   1   6
BRANCH   1  20
HETATM   20  C12 UNL     1     -11.246 -45.339 -57.761  1.00  0.00    -0.017 A 
HETATM   21  C13 UNL     1     -11.479 -44.998 -59.070  1.00  0.00     0.059 A 
HETATM   22  S1  UNL     1      -9.900 -44.697 -59.683  1.00  0.00    -0.101 SA
HETATM   23  C14 UNL     1      -9.004 -45.011 -58.269  1.00  0.00     0.015 A 
HETATM   24  C15 UNL     1      -7.642 -44.978 -57.976  1.00  0.00     0.021 A 
HETATM   25  C19 UNL     1      -9.961 -45.341 -57.362  1.00  0.00    -0.009 A 
HETATM   26  C16 UNL     1      -7.191 -45.294 -56.690  1.00  0.00     0.025 A 
HETATM   27  C17 UNL     1      -8.149 -45.623 -55.785  1.00  0.00     0.035 A 
HETATM   28 CL1  UNL     1      -7.572 -46.023 -54.152  1.00  0.00    -0.084 Cl
HETATM   29  C18 UNL     1      -9.471 -45.652 -56.082  1.00  0.00     0.037 A 
ENDBRANCH   1  20
TORSDOF 5
ENDMDL
