MODEL 13
REMARK VINA RESULT: -7.597920370      2.622      7.733
REMARK  8 active torsions:
REMARK  status: ('A' for Active; 'I' for Inactive)
REMARK    1  A    between atoms: C1_2  and  C2_3 
REMARK       I    between atoms: C1_2  and  N1_20 
REMARK    2  A    between atoms: C2_3  and  C3_4 
REMARK    3  A    between atoms: C3_4  and  C4_5 
REMARK    4  A    between atoms: C6_7  and  O2_8 
REMARK    5  A    between atoms: C6_7  and  C7_10 
REMARK    6  A    between atoms: C9_14  and  O5_15 
REMARK    7  A    between atoms: C10_17  and  O6_18 
REMARK    8  A    between atoms: N1_20  and  C11_22 
ROOT
HETATM    1  C4  UNL     1      28.660  29.486  -2.455  1.00  0.00    -0.049 C 
HETATM    2  C5  UNL     1      27.937  29.261  -3.546  1.00  0.00     0.027 C 
HETATM    3  C6  UNL     1      26.884  30.196  -4.007  1.00  0.00     0.166 C 
HETATM    4  C8  UNL     1      27.013  31.594  -3.513  1.00  0.00     0.088 C 
HETATM    5  C9  UNL     1      28.284  31.834  -2.768  1.00  0.00     0.154 C 
HETATM    6  C10 UNL     1      28.362  30.721  -1.719  1.00  0.00     0.175 C 
ENDROOT
BRANCH   1   7
HETATM    7  C3  UNL     1      29.677  28.494  -2.092  1.00  0.00     0.046 C 
BRANCH   7   8
HETATM    8  C2  UNL     1      29.582  27.207  -2.828  1.00  0.00     0.107 C 
BRANCH   8   9
HETATM    9  C1  UNL     1      29.149  26.135  -1.868  1.00  0.00     0.222 C 
HETATM   10  O1  UNL     1      27.971  25.747  -1.881  1.00  0.00    -0.273 OA
HETATM   11  N1  UNL     1      30.074  25.585  -0.970  1.00  0.00    -0.327 N 
ATOM     12  H1  UNL     1      31.021  25.960  -1.017  1.00  0.00     0.169 HD
BRANCH  11  13
HETATM   13  C11 UNL     1      29.857  24.582  -0.014  1.00  0.00     0.034 A 
HETATM   14  C12 UNL     1      29.045  23.512  -0.380  1.00  0.00     0.029 A 
HETATM   15  C13 UNL     1      28.792  22.518   0.520  1.00  0.00     0.002 A 
HETATM   16  C14 UNL     1      29.345  22.576   1.795  1.00  0.00     0.000 A 
HETATM   17  C15 UNL     1      30.142  23.626   2.153  1.00  0.00     0.002 A 
HETATM   18  C16 UNL     1      30.390  24.633   1.225  1.00  0.00     0.029 A 
ENDBRANCH  11  13
ENDBRANCH   8   9
ENDBRANCH   7   8
ENDBRANCH   1   7
BRANCH   6  19
HETATM   19  O6  UNL     1      29.259  31.027  -0.720  1.00  0.00    -0.389 OA
ATOM     20  H6  UNL     1      28.875  31.436   0.047  1.00  0.00     0.210 HD
ENDBRANCH   6  19
BRANCH   3  21
HETATM   21  O2  UNL     1      26.935  30.253  -5.408  1.00  0.00    -0.375 OA
ATOM     22  H2  UNL     1      26.391  30.978  -5.693  1.00  0.00     0.211 HD
ENDBRANCH   3  21
BRANCH   3  23
HETATM   23  C7  UNL     1      25.579  29.574  -3.645  1.00  0.00     0.213 C 
HETATM   24  O3  UNL     1      25.472  28.703  -2.728  1.00  0.00    -0.645 OA
HETATM   25  O4  UNL     1      24.415  29.920  -4.296  1.00  0.00    -0.645 OA
ENDBRANCH   3  23
BRANCH   5  26
HETATM   26  O5  UNL     1      28.384  33.078  -2.208  1.00  0.00    -0.393 OA
ATOM     27  H5  UNL     1      29.024  33.143  -1.509  1.00  0.00     0.210 HD
ENDBRANCH   5  26
TORSDOF 8
ENDMDL
