MODEL 12
REMARK VINA RESULT: -7.676190009      2.621      7.586
REMARK  8 active torsions:
REMARK  status: ('A' for Active; 'I' for Inactive)
REMARK    1  A    between atoms: C1_2  and  C2_3 
REMARK       I    between atoms: C1_2  and  N1_20 
REMARK    2  A    between atoms: C2_3  and  C3_4 
REMARK    3  A    between atoms: C3_4  and  C4_5 
REMARK    4  A    between atoms: C6_7  and  O2_8 
REMARK    5  A    between atoms: C6_7  and  C7_10 
REMARK    6  A    between atoms: C9_14  and  O5_15 
REMARK    7  A    between atoms: C10_17  and  O6_18 
REMARK    8  A    between atoms: N1_20  and  C11_22 
ROOT
HETATM    1  C4  UNL     1      28.625  29.308  -2.411  1.00  0.00    -0.049 C 
HETATM    2  C5  UNL     1      27.869  28.926  -3.434  1.00  0.00     0.027 C 
HETATM    3  C6  UNL     1      26.747  29.749  -3.942  1.00  0.00     0.166 C 
HETATM    4  C8  UNL     1      26.818  31.198  -3.610  1.00  0.00     0.088 C 
HETATM    5  C9  UNL     1      28.106  31.584  -2.959  1.00  0.00     0.154 C 
HETATM    6  C10 UNL     1      28.291  30.600  -1.800  1.00  0.00     0.175 C 
ENDROOT
BRANCH   1   7
HETATM    7  C3  UNL     1      29.711  28.414  -1.991  1.00  0.00     0.046 C 
BRANCH   7   8
HETATM    8  C2  UNL     1      29.748  27.108  -2.697  1.00  0.00     0.107 C 
BRANCH   8   9
HETATM    9  C1  UNL     1      29.226  26.046  -1.770  1.00  0.00     0.222 C 
HETATM   10  O1  UNL     1      28.029  25.728  -1.823  1.00  0.00    -0.273 OA
HETATM   11  N1  UNL     1      30.091  25.427  -0.857  1.00  0.00    -0.327 N 
ATOM     12  H1  UNL     1      31.059  25.747  -0.871  1.00  0.00     0.169 HD
BRANCH  11  13
HETATM   13  C11 UNL     1      29.789  24.422   0.073  1.00  0.00     0.034 A 
HETATM   14  C12 UNL     1      30.305  24.562   1.358  1.00  0.00     0.029 A 
HETATM   15  C13 UNL     1      30.051  23.603   2.296  1.00  0.00     0.002 A 
HETATM   16  C14 UNL     1      29.280  22.494   1.965  1.00  0.00     0.000 A 
HETATM   17  C15 UNL     1      28.774  22.357   0.704  1.00  0.00     0.002 A 
HETATM   18  C16 UNL     1      29.042  23.343  -0.242  1.00  0.00     0.029 A 
ENDBRANCH  11  13
ENDBRANCH   8   9
ENDBRANCH   7   8
ENDBRANCH   1   7
BRANCH   6  19
HETATM   19  O6  UNL     1      29.212  31.061  -0.886  1.00  0.00    -0.389 OA
ATOM     20  H6  UNL     1      30.120  30.912  -1.126  1.00  0.00     0.210 HD
ENDBRANCH   6  19
BRANCH   3  21
HETATM   21  O2  UNL     1      26.734  29.652  -5.341  1.00  0.00    -0.375 OA
ATOM     22  H2  UNL     1      26.743  30.533  -5.697  1.00  0.00     0.211 HD
ENDBRANCH   3  21
BRANCH   3  23
HETATM   23  C7  UNL     1      25.495  29.106  -3.450  1.00  0.00     0.213 C 
HETATM   24  O3  UNL     1      24.342  29.518  -3.787  1.00  0.00    -0.645 OA
HETATM   25  O4  UNL     1      25.532  28.024  -2.599  1.00  0.00    -0.645 OA
ENDBRANCH   3  23
BRANCH   5  26
HETATM   26  O5  UNL     1      28.161  32.886  -2.544  1.00  0.00    -0.393 OA
ATOM     27  H5  UNL     1      28.253  33.518  -3.248  1.00  0.00     0.210 HD
ENDBRANCH   5  26
TORSDOF 8
ENDMDL
