MODEL 5
REMARK VINA RESULT: -9.903131731      1.051      3.067
REMARK  8 active torsions:
REMARK  status: ('A' for Active; 'I' for Inactive)
REMARK    1  A    between atoms: C1_2  and  C2_3 
REMARK       I    between atoms: C1_2  and  N1_20 
REMARK    2  A    between atoms: C2_3  and  C3_4 
REMARK    3  A    between atoms: C3_4  and  C4_5 
REMARK    4  A    between atoms: C6_7  and  O2_8 
REMARK    5  A    between atoms: C6_7  and  C7_10 
REMARK    6  A    between atoms: C9_14  and  O5_15 
REMARK    7  A    between atoms: C10_17  and  O6_18 
REMARK    8  A    between atoms: N1_20  and  C11_22 
ROOT
HETATM    1  C4  UNL     1      29.246  24.239  -0.279  1.00  0.00    -0.049 C 
HETATM    2  C5  UNL     1      30.400  24.323   0.372  1.00  0.00     0.027 C 
HETATM    3  C6  UNL     1      30.630  23.645   1.670  1.00  0.00     0.166 C 
HETATM    4  C8  UNL     1      29.733  22.491   1.954  1.00  0.00     0.088 C 
HETATM    5  C9  UNL     1      28.867  22.127   0.793  1.00  0.00     0.154 C 
HETATM    6  C10 UNL     1      28.196  23.432   0.355  1.00  0.00     0.175 C 
ENDROOT
BRANCH   1   7
HETATM    7  C3  UNL     1      29.129  24.950  -1.557  1.00  0.00     0.046 C 
BRANCH   7   8
HETATM    8  C2  UNL     1      29.998  26.147  -1.685  1.00  0.00     0.107 C 
BRANCH   8   9
HETATM    9  C1  UNL     1      29.145  27.322  -2.075  1.00  0.00     0.222 C 
HETATM   10  O1  UNL     1      28.016  27.123  -2.545  1.00  0.00    -0.273 OA
HETATM   11  N1  UNL     1      29.631  28.625  -1.905  1.00  0.00    -0.327 N 
ATOM     12  H1  UNL     1      30.570  28.706  -1.517  1.00  0.00     0.169 HD
BRANCH  11  13
HETATM   13  C11 UNL     1      28.984  29.833  -2.203  1.00  0.00     0.034 A 
HETATM   14  C12 UNL     1      28.104  29.839  -3.281  1.00  0.00     0.029 A 
HETATM   15  C13 UNL     1      27.460  30.994  -3.621  1.00  0.00     0.002 A 
HETATM   16  C14 UNL     1      27.685  32.156  -2.891  1.00  0.00     0.000 A 
HETATM   17  C15 UNL     1      28.549  32.149  -1.833  1.00  0.00     0.002 A 
HETATM   18  C16 UNL     1      29.198  30.965  -1.499  1.00  0.00     0.029 A 
ENDBRANCH  11  13
ENDBRANCH   8   9
ENDBRANCH   7   8
ENDBRANCH   1   7
BRANCH   6  19
HETATM   19  O6  UNL     1      27.093  23.196  -0.435  1.00  0.00    -0.389 OA
ATOM     20  H6  UNL     1      26.757  22.308  -0.394  1.00  0.00     0.210 HD
ENDBRANCH   6  19
BRANCH   3  21
HETATM   21  O2  UNL     1      31.943  23.150   1.676  1.00  0.00    -0.375 OA
ATOM     22  H2  UNL     1      31.907  22.223   1.883  1.00  0.00     0.211 HD
ENDBRANCH   3  21
BRANCH   3  23
HETATM   23  C7  UNL     1      30.559  24.702   2.717  1.00  0.00     0.213 C 
HETATM   24  O3  UNL     1      31.222  25.781   2.640  1.00  0.00    -0.645 OA
HETATM   25  O4  UNL     1      29.760  24.556   3.830  1.00  0.00    -0.645 OA
ENDBRANCH   3  23
BRANCH   5  26
HETATM   26  O5  UNL     1      27.955  21.141   1.056  1.00  0.00    -0.393 OA
ATOM     27  H5  UNL     1      28.181  20.292   0.694  1.00  0.00     0.210 HD
ENDBRANCH   5  26
TORSDOF 8
ENDMDL
