MODEL 4
REMARK VINA RESULT: -10.053177867      1.055      2.913
REMARK  8 active torsions:
REMARK  status: ('A' for Active; 'I' for Inactive)
REMARK    1  A    between atoms: C1_2  and  C2_3 
REMARK       I    between atoms: C1_2  and  N1_20 
REMARK    2  A    between atoms: C2_3  and  C3_4 
REMARK    3  A    between atoms: C3_4  and  C4_5 
REMARK    4  A    between atoms: C6_7  and  O2_8 
REMARK    5  A    between atoms: C6_7  and  C7_10 
REMARK    6  A    between atoms: C9_14  and  O5_15 
REMARK    7  A    between atoms: C10_17  and  O6_18 
REMARK    8  A    between atoms: N1_20  and  C11_22 
ROOT
HETATM    1  C4  UNL     1      29.255  24.233  -0.242  1.00  0.00    -0.049 C 
HETATM    2  C5  UNL     1      30.399  24.318   0.428  1.00  0.00     0.027 C 
HETATM    3  C6  UNL     1      30.611  23.632   1.725  1.00  0.00     0.166 C 
HETATM    4  C8  UNL     1      29.714  22.473   1.987  1.00  0.00     0.088 C 
HETATM    5  C9  UNL     1      28.868  22.113   0.810  1.00  0.00     0.154 C 
HETATM    6  C10 UNL     1      28.199  23.419   0.371  1.00  0.00     0.175 C 
ENDROOT
BRANCH   1   7
HETATM    7  C3  UNL     1      29.155  24.953  -1.516  1.00  0.00     0.046 C 
BRANCH   7   8
HETATM    8  C2  UNL     1      29.999  26.171  -1.611  1.00  0.00     0.107 C 
BRANCH   8   9
HETATM    9  C1  UNL     1      29.141  27.316  -2.070  1.00  0.00     0.222 C 
HETATM   10  O1  UNL     1      28.038  27.081  -2.585  1.00  0.00    -0.273 OA
HETATM   11  N1  UNL     1      29.592  28.634  -1.916  1.00  0.00    -0.327 N 
ATOM     12  H1  UNL     1      30.511  28.746  -1.489  1.00  0.00     0.169 HD
BRANCH  11  13
HETATM   13  C11 UNL     1      28.934  29.819  -2.276  1.00  0.00     0.034 A 
HETATM   14  C12 UNL     1      29.196  30.955  -1.515  1.00  0.00     0.029 A 
HETATM   15  C13 UNL     1      28.569  32.130  -1.816  1.00  0.00     0.002 A 
HETATM   16  C14 UNL     1      27.675  32.187  -2.880  1.00  0.00     0.000 A 
HETATM   17  C15 UNL     1      27.419  31.073  -3.626  1.00  0.00     0.002 A 
HETATM   18  C16 UNL     1      28.065  29.882  -3.307  1.00  0.00     0.029 A 
ENDBRANCH  11  13
ENDBRANCH   8   9
ENDBRANCH   7   8
ENDBRANCH   1   7
BRANCH   6  19
HETATM   19  O6  UNL     1      27.110  23.183  -0.439  1.00  0.00    -0.389 OA
ATOM     20  H6  UNL     1      26.460  22.595  -0.071  1.00  0.00     0.210 HD
ENDBRANCH   6  19
BRANCH   3  21
HETATM   21  O2  UNL     1      31.925  23.143   1.749  1.00  0.00    -0.375 OA
ATOM     22  H2  UNL     1      31.927  22.326   2.234  1.00  0.00     0.211 HD
ENDBRANCH   3  21
BRANCH   3  23
HETATM   23  C7  UNL     1      30.519  24.681   2.778  1.00  0.00     0.213 C 
HETATM   24  O3  UNL     1      29.780  24.553   3.803  1.00  0.00    -0.645 OA
HETATM   25  O4  UNL     1      31.239  25.852   2.689  1.00  0.00    -0.645 OA
ENDBRANCH   3  23
BRANCH   5  26
HETATM   26  O5  UNL     1      27.957  21.122   1.052  1.00  0.00    -0.393 OA
ATOM     27  H5  UNL     1      27.186  21.154   0.497  1.00  0.00     0.210 HD
ENDBRANCH   5  26
TORSDOF 8
ENDMDL
