MODEL 9
REMARK VINA RESULT: -8.746264172      1.251      2.925
REMARK  8 active torsions:
REMARK  status: ('A' for Active; 'I' for Inactive)
REMARK    1  A    between atoms: C1_2  and  C2_3 
REMARK       I    between atoms: C1_2  and  N1_20 
REMARK    2  A    between atoms: C2_3  and  C3_4 
REMARK    3  A    between atoms: C3_4  and  C4_5 
REMARK    4  A    between atoms: C6_7  and  O2_8 
REMARK    5  A    between atoms: C6_7  and  C7_10 
REMARK    6  A    between atoms: C9_14  and  O5_15 
REMARK    7  A    between atoms: C10_17  and  O6_18 
REMARK    8  A    between atoms: N1_20  and  C11_22 
ROOT
HETATM    1  C4  UNL     1      29.772  25.090  -0.283  1.00  0.00    -0.049 C 
HETATM    2  C5  UNL     1      30.642  24.658   0.623  1.00  0.00     0.027 C 
HETATM    3  C6  UNL     1      30.449  23.390   1.366  1.00  0.00     0.166 C 
HETATM    4  C8  UNL     1      29.545  22.402   0.717  1.00  0.00     0.088 C 
HETATM    5  C9  UNL     1      29.124  22.811  -0.656  1.00  0.00     0.154 C 
HETATM    6  C10 UNL     1      28.596  24.241  -0.515  1.00  0.00     0.175 C 
ENDROOT
BRANCH   1   7
HETATM    7  C3  UNL     1      30.062  26.358  -0.960  1.00  0.00     0.046 C 
BRANCH   7   8
HETATM    8  C2  UNL     1      29.882  26.332  -2.434  1.00  0.00     0.107 C 
BRANCH   8   9
HETATM    9  C1  UNL     1      29.034  27.506  -2.836  1.00  0.00     0.222 C 
HETATM   10  O1  UNL     1      28.059  27.325  -3.580  1.00  0.00    -0.273 OA
HETATM   11  N1  UNL     1      29.352  28.790  -2.371  1.00  0.00    -0.327 N 
ATOM     12  H1  UNL     1      30.171  28.857  -1.768  1.00  0.00     0.169 HD
BRANCH  11  13
HETATM   13  C11 UNL     1      28.680  29.992  -2.633  1.00  0.00     0.034 A 
HETATM   14  C12 UNL     1      27.733  29.989  -3.652  1.00  0.00     0.029 A 
HETATM   15  C13 UNL     1      27.062  31.139  -3.955  1.00  0.00     0.002 A 
HETATM   16  C14 UNL     1      27.328  32.306  -3.247  1.00  0.00     0.000 A 
HETATM   17  C15 UNL     1      28.258  32.308  -2.247  1.00  0.00     0.002 A 
HETATM   18  C16 UNL     1      28.934  31.129  -1.950  1.00  0.00     0.029 A 
ENDBRANCH  11  13
ENDBRANCH   8   9
ENDBRANCH   7   8
ENDBRANCH   1   7
BRANCH   6  19
HETATM   19  O6  UNL     1      27.825  24.607  -1.596  1.00  0.00    -0.389 OA
ATOM     20  H6  UNL     1      28.167  24.331  -2.439  1.00  0.00     0.210 HD
ENDBRANCH   6  19
BRANCH   3  21
HETATM   21  O2  UNL     1      31.700  22.771   1.501  1.00  0.00    -0.375 OA
ATOM     22  H2  UNL     1      31.577  21.834   1.399  1.00  0.00     0.211 HD
ENDBRANCH   3  21
BRANCH   3  23
HETATM   23  C7  UNL     1      30.002  23.768   2.736  1.00  0.00     0.213 C 
HETATM   24  O3  UNL     1      30.672  24.550   3.479  1.00  0.00    -0.645 OA
HETATM   25  O4  UNL     1      28.828  23.281   3.267  1.00  0.00    -0.645 OA
ENDBRANCH   3  23
BRANCH   5  26
HETATM   26  O5  UNL     1      28.208  21.977  -1.237  1.00  0.00    -0.393 OA
ATOM     27  H5  UNL     1      27.855  22.296  -2.060  1.00  0.00     0.210 HD
ENDBRANCH   5  26
TORSDOF 8
ENDMDL
