MODEL 8
REMARK VINA RESULT: -8.914218418      1.108      2.879
REMARK  8 active torsions:
REMARK  status: ('A' for Active; 'I' for Inactive)
REMARK    1  A    between atoms: C1_2  and  C2_3 
REMARK       I    between atoms: C1_2  and  N1_20 
REMARK    2  A    between atoms: C2_3  and  C3_4 
REMARK    3  A    between atoms: C3_4  and  C4_5 
REMARK    4  A    between atoms: C6_7  and  O2_8 
REMARK    5  A    between atoms: C6_7  and  C7_10 
REMARK    6  A    between atoms: C9_14  and  O5_15 
REMARK    7  A    between atoms: C10_17  and  O6_18 
REMARK    8  A    between atoms: N1_20  and  C11_22 
ROOT
HETATM    1  C4  UNL     1      29.288  23.992  -0.395  1.00  0.00    -0.049 C 
HETATM    2  C5  UNL     1      30.039  24.418   0.613  1.00  0.00     0.027 C 
HETATM    3  C6  UNL     1      30.326  23.577   1.799  1.00  0.00     0.166 C 
HETATM    4  C8  UNL     1      30.175  22.110   1.592  1.00  0.00     0.088 C 
HETATM    5  C9  UNL     1      29.917  21.747   0.167  1.00  0.00     0.154 C 
HETATM    6  C10 UNL     1      28.749  22.632  -0.277  1.00  0.00     0.175 C 
ENDROOT
BRANCH   1   7
HETATM    7  C3  UNL     1      29.069  24.908  -1.520  1.00  0.00     0.046 C 
BRANCH   7   8
HETATM    8  C2  UNL     1      29.869  26.159  -1.467  1.00  0.00     0.107 C 
BRANCH   8   9
HETATM    9  C1  UNL     1      29.155  27.220  -2.258  1.00  0.00     0.222 C 
HETATM   10  O1  UNL     1      28.563  26.906  -3.301  1.00  0.00    -0.273 OA
HETATM   11  N1  UNL     1      29.164  28.549  -1.812  1.00  0.00    -0.327 N 
ATOM     12  H1  UNL     1      29.676  28.728  -0.949  1.00  0.00     0.169 HD
BRANCH  11  13
HETATM   13  C11 UNL     1      28.556  29.663  -2.408  1.00  0.00     0.034 A 
HETATM   14  C12 UNL     1      28.972  30.922  -1.987  1.00  0.00     0.029 A 
HETATM   15  C13 UNL     1      28.399  32.038  -2.526  1.00  0.00     0.002 A 
HETATM   16  C14 UNL     1      27.406  31.913  -3.491  1.00  0.00     0.000 A 
HETATM   17  C15 UNL     1      26.998  30.677  -3.903  1.00  0.00     0.002 A 
HETATM   18  C16 UNL     1      27.590  29.548  -3.345  1.00  0.00     0.029 A 
ENDBRANCH  11  13
ENDBRANCH   8   9
ENDBRANCH   7   8
ENDBRANCH   1   7
BRANCH   6  19
HETATM   19  O6  UNL     1      28.151  22.147  -1.420  1.00  0.00    -0.389 OA
ATOM     20  H6  UNL     1      28.156  21.200  -1.501  1.00  0.00     0.210 HD
ENDBRANCH   6  19
BRANCH   3  21
HETATM   21  O2  UNL     1      31.659  23.799   2.178  1.00  0.00    -0.375 OA
ATOM     22  H2  UNL     1      32.061  24.359   1.524  1.00  0.00     0.211 HD
ENDBRANCH   3  21
BRANCH   3  23
HETATM   23  C7  UNL     1      29.469  24.095   2.902  1.00  0.00     0.213 C 
HETATM   24  O3  UNL     1      29.903  24.907   3.776  1.00  0.00    -0.645 OA
HETATM   25  O4  UNL     1      28.151  23.713   3.026  1.00  0.00    -0.645 OA
ENDBRANCH   3  23
BRANCH   5  26
HETATM   26  O5  UNL     1      29.666  20.418  -0.041  1.00  0.00    -0.393 OA
ATOM     27  H5  UNL     1      30.115  20.047  -0.791  1.00  0.00     0.210 HD
ENDBRANCH   5  26
TORSDOF 8
ENDMDL
