MODEL 6
REMARK VINA RESULT: -9.586674710      1.278      3.170
REMARK  8 active torsions:
REMARK  status: ('A' for Active; 'I' for Inactive)
REMARK    1  A    between atoms: C1_2  and  C2_3 
REMARK       I    between atoms: C1_2  and  N1_20 
REMARK    2  A    between atoms: C2_3  and  C3_4 
REMARK    3  A    between atoms: C3_4  and  C4_5 
REMARK    4  A    between atoms: C6_7  and  O2_8 
REMARK    5  A    between atoms: C6_7  and  C7_10 
REMARK    6  A    between atoms: C9_14  and  O5_15 
REMARK    7  A    between atoms: C10_17  and  O6_18 
REMARK    8  A    between atoms: N1_20  and  C11_22 
ROOT
HETATM    1  C4  UNL     1      29.697  24.440  -0.308  1.00  0.00    -0.049 C 
HETATM    2  C5  UNL     1      30.724  24.451   0.534  1.00  0.00     0.027 C 
HETATM    3  C6  UNL     1      30.706  23.712   1.818  1.00  0.00     0.166 C 
HETATM    4  C8  UNL     1      29.737  22.584   1.889  1.00  0.00     0.088 C 
HETATM    5  C9  UNL     1      29.072  22.303   0.582  1.00  0.00     0.154 C 
HETATM    6  C10 UNL     1      28.529  23.651   0.100  1.00  0.00     0.175 C 
ENDROOT
BRANCH   1   7
HETATM    7  C3  UNL     1      29.824  25.208  -1.552  1.00  0.00     0.046 C 
BRANCH   7   8
HETATM    8  C2  UNL     1      28.550  25.771  -2.067  1.00  0.00     0.107 C 
BRANCH   8   9
HETATM    9  C1  UNL     1      28.769  27.218  -2.412  1.00  0.00     0.222 C 
HETATM   10  O1  UNL     1      29.924  27.633  -2.586  1.00  0.00    -0.273 OA
HETATM   11  N1  UNL     1      27.671  28.082  -2.533  1.00  0.00    -0.327 N 
ATOM     12  H1  UNL     1      26.755  27.666  -2.370  1.00  0.00     0.169 HD
BRANCH  11  13
HETATM   13  C11 UNL     1      27.679  29.447  -2.850  1.00  0.00     0.034 A 
HETATM   14  C12 UNL     1      26.959  29.849  -3.971  1.00  0.00     0.029 A 
HETATM   15  C13 UNL     1      26.947  31.166  -4.331  1.00  0.00     0.002 A 
HETATM   16  C14 UNL     1      27.652  32.098  -3.578  1.00  0.00     0.000 A 
HETATM   17  C15 UNL     1      28.359  31.703  -2.478  1.00  0.00     0.002 A 
HETATM   18  C16 UNL     1      28.362  30.358  -2.124  1.00  0.00     0.029 A 
ENDBRANCH  11  13
ENDBRANCH   8   9
ENDBRANCH   7   8
ENDBRANCH   1   7
BRANCH   6  19
HETATM   19  O6  UNL     1      27.571  23.491  -0.878  1.00  0.00    -0.389 OA
ATOM     20  H6  UNL     1      26.728  23.187  -0.562  1.00  0.00     0.210 HD
ENDBRANCH   6  19
BRANCH   3  21
HETATM   21  O2  UNL     1      31.982  23.166   2.024  1.00  0.00    -0.375 OA
ATOM     22  H2  UNL     1      32.146  23.148   2.960  1.00  0.00     0.211 HD
ENDBRANCH   3  21
BRANCH   3  23
HETATM   23  C7  UNL     1      30.489  24.727   2.887  1.00  0.00     0.213 C 
HETATM   24  O3  UNL     1      29.712  24.524   3.870  1.00  0.00    -0.645 OA
HETATM   25  O4  UNL     1      31.130  25.946   2.859  1.00  0.00    -0.645 OA
ENDBRANCH   3  23
BRANCH   5  26
HETATM   26  O5  UNL     1      28.098  21.344   0.639  1.00  0.00    -0.393 OA
ATOM     27  H5  UNL     1      28.380  20.482   0.356  1.00  0.00     0.210 HD
ENDBRANCH   5  26
TORSDOF 8
ENDMDL
