MODEL 11
REMARK VINA RESULT: -7.744481589      2.818      7.922
REMARK  8 active torsions:
REMARK  status: ('A' for Active; 'I' for Inactive)
REMARK    1  A    between atoms: C1_2  and  C2_3 
REMARK       I    between atoms: C1_2  and  N1_20 
REMARK    2  A    between atoms: C2_3  and  C3_4 
REMARK    3  A    between atoms: C3_4  and  C4_5 
REMARK    4  A    between atoms: C6_7  and  O2_8 
REMARK    5  A    between atoms: C6_7  and  C7_10 
REMARK    6  A    between atoms: C9_14  and  O5_15 
REMARK    7  A    between atoms: C10_17  and  O6_18 
REMARK    8  A    between atoms: N1_20  and  C11_22 
ROOT
HETATM    1  C4  UNL     1      28.030  28.806  -2.809  1.00  0.00    -0.049 C 
HETATM    2  C5  UNL     1      28.124  30.052  -3.259  1.00  0.00     0.027 C 
HETATM    3  C6  UNL     1      27.044  30.695  -4.044  1.00  0.00     0.166 C 
HETATM    4  C8  UNL     1      25.692  30.098  -3.875  1.00  0.00     0.088 C 
HETATM    5  C9  UNL     1      25.645  29.053  -2.810  1.00  0.00     0.154 C 
HETATM    6  C10 UNL     1      26.791  28.089  -3.130  1.00  0.00     0.175 C 
ENDROOT
BRANCH   1   7
HETATM    7  C3  UNL     1      29.160  28.270  -2.041  1.00  0.00     0.046 C 
BRANCH   7   8
HETATM    8  C2  UNL     1      29.988  27.274  -2.768  1.00  0.00     0.107 C 
BRANCH   8   9
HETATM    9  C1  UNL     1      29.713  25.911  -2.196  1.00  0.00     0.222 C 
HETATM   10  O1  UNL     1      29.320  25.005  -2.946  1.00  0.00    -0.273 OA
HETATM   11  N1  UNL     1      29.902  25.676  -0.827  1.00  0.00    -0.327 N 
ATOM     12  H1  UNL     1      30.221  26.472  -0.277  1.00  0.00     0.169 HD
BRANCH  11  13
HETATM   13  C11 UNL     1      29.704  24.481  -0.122  1.00  0.00     0.034 A 
HETATM   14  C12 UNL     1      30.402  24.318   1.072  1.00  0.00     0.029 A 
HETATM   15  C13 UNL     1      30.255  23.165   1.788  1.00  0.00     0.002 A 
HETATM   16  C14 UNL     1      29.412  22.161   1.325  1.00  0.00     0.000 A 
HETATM   17  C15 UNL     1      28.727  22.322   0.154  1.00  0.00     0.002 A 
HETATM   18  C16 UNL     1      28.887  23.501  -0.566  1.00  0.00     0.029 A 
ENDBRANCH  11  13
ENDBRANCH   8   9
ENDBRANCH   7   8
ENDBRANCH   1   7
BRANCH   6  19
HETATM   19  O6  UNL     1      26.637  26.884  -2.480  1.00  0.00    -0.389 OA
ATOM     20  H6  UNL     1      26.667  26.937  -1.531  1.00  0.00     0.210 HD
ENDBRANCH   6  19
BRANCH   3  21
HETATM   21  O2  UNL     1      26.951  32.035  -3.639  1.00  0.00    -0.375 OA
ATOM     22  H2  UNL     1      27.570  32.542  -4.152  1.00  0.00     0.211 HD
ENDBRANCH   3  21
BRANCH   3  23
HETATM   23  C7  UNL     1      27.499  30.701  -5.463  1.00  0.00     0.213 C 
HETATM   24  O3  UNL     1      28.509  31.367  -5.850  1.00  0.00    -0.645 OA
HETATM   25  O4  UNL     1      26.839  29.977  -6.430  1.00  0.00    -0.645 OA
ENDBRANCH   3  23
BRANCH   5  26
HETATM   26  O5  UNL     1      24.443  28.409  -2.703  1.00  0.00    -0.393 OA
ATOM     27  H5  UNL     1      23.967  28.329  -3.521  1.00  0.00     0.210 HD
ENDBRANCH   5  26
TORSDOF 8
ENDMDL
