MODEL 9
REMARK VINA RESULT: -6.432355684      1.003      2.589
REMARK  2 active torsions:
REMARK  status: ('A' for Active; 'I' for Inactive)
REMARK    1  A    between atoms: C1_2  and  C2_4 
REMARK    2  A    between atoms: C4_6  and  O3_7 
ROOT
HETATM    1  C2  UNL     1     -39.475  10.516 -10.514  1.00  0.00     0.050 A 
HETATM    2  C3  UNL     1     -39.102   9.554  -9.602  1.00  0.00     0.074 A 
HETATM    3  C4  UNL     1     -38.080   9.803  -8.694  1.00  0.00     0.143 A 
HETATM    4  N1  UNL     1     -37.421  10.977  -8.665  1.00  0.00    -0.304 N 
ATOM      5  H1  UNL     1     -36.673  11.148  -7.994  1.00  0.00     0.171 HD
HETATM    6  C5  UNL     1     -37.789  11.915  -9.556  1.00  0.00     0.248 A 
HETATM    7  O4  UNL     1     -37.174  13.014  -9.531  1.00  0.00    -0.268 OA
HETATM    8  C6  UNL     1     -38.795  11.725 -10.482  1.00  0.00     0.093 A 
ENDROOT
BRANCH   1   9
HETATM    9  C1  UNL     1     -40.545  10.268 -11.471  1.00  0.00     0.209 C 
HETATM   10  O1  UNL     1     -40.805  11.138 -12.317  1.00  0.00    -0.644 OA
HETATM   11  O2  UNL     1     -41.279   9.102 -11.471  1.00  0.00    -0.644 OA
ENDBRANCH   1   9
BRANCH   3  12
HETATM   12  O3  UNL     1     -37.748   8.786  -7.795  1.00  0.00    -0.346 OA
ATOM     13  H3  UNL     1     -37.879   7.888  -8.077  1.00  0.00     0.219 HD
ENDBRANCH   3  12
TORSDOF 2
ENDMDL
