MODEL 8
REMARK VINA RESULT: -6.452738051      1.088      1.272
REMARK  2 active torsions:
REMARK  status: ('A' for Active; 'I' for Inactive)
REMARK    1  A    between atoms: C1_2  and  C2_4 
REMARK    2  A    between atoms: C4_6  and  O3_7 
ROOT
HETATM    1  C2  UNL     1     -39.420  10.440 -10.417  1.00  0.00     0.050 A 
HETATM    2  C3  UNL     1     -38.702  11.609 -10.292  1.00  0.00     0.074 A 
HETATM    3  C4  UNL     1     -37.706  11.723  -9.331  1.00  0.00     0.143 A 
HETATM    4  N1  UNL     1     -37.401  10.714  -8.494  1.00  0.00    -0.304 N 
ATOM      5  H1  UNL     1     -36.667  10.809  -7.792  1.00  0.00     0.171 HD
HETATM    6  C5  UNL     1     -38.103   9.573  -8.619  1.00  0.00     0.248 A 
HETATM    7  O4  UNL     1     -37.821   8.627  -7.837  1.00  0.00    -0.268 OA
HETATM    8  C6  UNL     1     -39.105   9.401  -9.554  1.00  0.00     0.093 A 
ENDROOT
BRANCH   1   9
HETATM    9  C1  UNL     1     -40.467  10.307 -11.421  1.00  0.00     0.209 C 
HETATM   10  O1  UNL     1     -40.659  11.242 -12.214  1.00  0.00    -0.644 OA
HETATM   11  O2  UNL     1     -41.253   9.181 -11.522  1.00  0.00    -0.644 OA
ENDBRANCH   1   9
BRANCH   3  12
HETATM   12  O3  UNL     1     -37.014  12.935  -9.255  1.00  0.00    -0.346 OA
ATOM     13  H3  UNL     1     -37.387  13.685  -9.702  1.00  0.00     0.219 HD
ENDBRANCH   3  12
TORSDOF 2
ENDMDL
