MODEL 3
REMARK VINA RESULT: -6.764935548      1.098      2.414
REMARK  2 active torsions:
REMARK  status: ('A' for Active; 'I' for Inactive)
REMARK    1  A    between atoms: C1_2  and  C2_4 
REMARK    2  A    between atoms: C4_6  and  O3_7 
ROOT
HETATM    1  C2  UNL     1     -39.451   9.484 -10.496  1.00  0.00     0.050 A 
HETATM    2  C3  UNL     1     -38.999   9.642  -9.205  1.00  0.00     0.074 A 
HETATM    3  C4  UNL     1     -38.031  10.594  -8.909  1.00  0.00     0.143 A 
HETATM    4  N1  UNL     1     -37.502  11.392  -9.855  1.00  0.00    -0.304 N 
ATOM      5  H1  UNL     1     -36.792  12.087  -9.626  1.00  0.00     0.171 HD
HETATM    6  C5  UNL     1     -37.946  11.236 -11.115  1.00  0.00     0.248 A 
HETATM    7  O4  UNL     1     -37.453  11.981 -12.003  1.00  0.00    -0.268 OA
HETATM    8  C6  UNL     1     -38.905  10.308 -11.470  1.00  0.00     0.093 A 
ENDROOT
BRANCH   1   9
HETATM    9  C1  UNL     1     -40.466   8.490 -10.820  1.00  0.00     0.209 C 
HETATM   10  O1  UNL     1     -41.520   8.864 -11.358  1.00  0.00    -0.644 OA
HETATM   11  O2  UNL     1     -40.299   7.151 -10.550  1.00  0.00    -0.644 OA
ENDBRANCH   1   9
BRANCH   3  12
HETATM   12  O3  UNL     1     -37.615  10.704  -7.580  1.00  0.00    -0.346 OA
ATOM     13  H3  UNL     1     -37.297   9.918  -7.150  1.00  0.00     0.219 HD
ENDBRANCH   3  12
TORSDOF 2
ENDMDL
