MODEL 1
REMARK VINA RESULT: -7.979492690      0.000      0.000
REMARK  2 active torsions:
REMARK  status: ('A' for Active; 'I' for Inactive)
REMARK    1  A    between atoms: C1_2  and  C2_4 
REMARK    2  A    between atoms: C4_6  and  O3_7 
ROOT
HETATM    1  C2  UNL     1     -39.431   9.673 -10.183  1.00  0.00     0.050 A 
HETATM    2  C3  UNL     1     -39.223  10.989 -10.533  1.00  0.00     0.074 A 
HETATM    3  C4  UNL     1     -38.351  11.783  -9.798  1.00  0.00     0.143 A 
HETATM    4  N1  UNL     1     -37.682  11.310  -8.730  1.00  0.00    -0.304 N 
ATOM      5  H1  UNL     1     -37.044  11.902  -8.198  1.00  0.00     0.171 HD
HETATM    6  C5  UNL     1     -37.886  10.024  -8.391  1.00  0.00     0.248 A 
HETATM    7  O4  UNL     1     -37.261   9.578  -7.393  1.00  0.00    -0.268 OA
HETATM    8  C6  UNL     1     -38.740   9.187  -9.083  1.00  0.00     0.093 A 
ENDROOT
BRANCH   1   9
HETATM    9  C1  UNL     1     -40.341   8.829 -10.945  1.00  0.00     0.209 C 
HETATM   10  O1  UNL     1     -41.220   9.368 -11.636  1.00  0.00    -0.644 OA
HETATM   11  O2  UNL     1     -40.263   7.455 -10.926  1.00  0.00    -0.644 OA
ENDBRANCH   1   9
BRANCH   3  12
HETATM   12  O3  UNL     1     -38.184  13.110 -10.203  1.00  0.00    -0.346 OA
ATOM     13  H3  UNL     1     -38.029  13.761  -9.529  1.00  0.00     0.219 HD
ENDBRANCH   3  12
TORSDOF 2
ENDMDL
