MODEL 2
REMARK VINA RESULT: -7.938678749      0.260      2.603
REMARK  2 active torsions:
REMARK  status: ('A' for Active; 'I' for Inactive)
REMARK    1  A    between atoms: C1_2  and  C2_4 
REMARK    2  A    between atoms: C4_6  and  O3_7 
ROOT
HETATM    1  C2  UNL     1     -39.300   9.691 -10.068  1.00  0.00     0.050 A 
HETATM    2  C3  UNL     1     -38.596   9.333  -8.940  1.00  0.00     0.074 A 
HETATM    3  C4  UNL     1     -37.774  10.254  -8.302  1.00  0.00     0.143 A 
HETATM    4  N1  UNL     1     -37.634  11.516  -8.749  1.00  0.00    -0.304 N 
ATOM      5  H1  UNL     1     -37.029  12.183  -8.271  1.00  0.00     0.171 HD
HETATM    6  C5  UNL     1     -38.324  11.863  -9.849  1.00  0.00     0.248 A 
HETATM    7  O4  UNL     1     -38.195  13.043 -10.270  1.00  0.00    -0.268 OA
HETATM    8  C6  UNL     1     -39.155  10.992 -10.527  1.00  0.00     0.093 A 
ENDROOT
BRANCH   1   9
HETATM    9  C1  UNL     1     -40.165   8.735 -10.747  1.00  0.00     0.209 C 
HETATM   10  O1  UNL     1     -39.923   7.523 -10.634  1.00  0.00    -0.644 OA
HETATM   11  O2  UNL     1     -41.241   9.127 -11.511  1.00  0.00    -0.644 OA
ENDBRANCH   1   9
BRANCH   3  12
HETATM   12  O3  UNL     1     -37.086   9.829  -7.162  1.00  0.00    -0.346 OA
ATOM     13  H3  UNL     1     -37.547   9.856  -6.332  1.00  0.00     0.219 HD
ENDBRANCH   3  12
TORSDOF 2
ENDMDL
