MODEL 10
REMARK VINA RESULT: -5.641811082      2.899      6.040
REMARK  9 active torsions:
REMARK  status: ('A' for Active; 'I' for Inactive)
REMARK    1  A    between atoms: C1_2  and  C2_3 
REMARK       I    between atoms: C1_2  and  N1_9 
REMARK    2  A    between atoms: C2_3  and  O2_4 
REMARK    3  A    between atoms: O2_4  and  P1_5 
REMARK    4  A    between atoms: N1_9  and  O6_10 
REMARK    5  A    between atoms: N1_9  and  C3_12 
REMARK    6  A    between atoms: C3_12  and  C4_13 
REMARK    7  A    between atoms: C4_13  and  C5_14 
REMARK    8  A    between atoms: C5_14  and  C6_15 
REMARK    9  A    between atoms: C6_15  and  O7_16 
ROOT
HETATM    1  O1  UNL     1      -9.168  -8.743 -42.116  1.00  0.00    -0.269 OA
HETATM    2  C1  UNL     1      -8.371  -7.798 -42.224  1.00  0.00     0.267 C 
HETATM    3  N1  UNL     1      -8.832  -6.521 -42.621  1.00  0.00    -0.227 N 
ENDROOT
BRANCH   3   4
HETATM    4  O6  UNL     1      -7.964  -5.498 -42.737  1.00  0.00    -0.285 OA
ATOM      5  H6  UNL     1      -7.690  -5.017 -41.965  1.00  0.00     0.245 HD
ENDBRANCH   3   4
BRANCH   3   6
HETATM    6  C3  UNL     1     -10.262  -6.313 -42.909  1.00  0.00     0.159 C 
BRANCH   6   7
HETATM    7  C4  UNL     1     -10.341  -5.591 -44.206  1.00  0.00     0.024 C 
BRANCH   7   8
HETATM    8  C5  UNL     1     -11.623  -4.915 -44.521  1.00  0.00     0.028 C 
BRANCH   8   9
HETATM    9  C6  UNL     1     -12.734  -5.336 -43.623  1.00  0.00     0.164 C 
BRANCH   9  10
HETATM   10  O7  UNL     1     -13.932  -4.733 -43.931  1.00  0.00    -0.401 OA
ATOM     11  H7  UNL     1     -14.623  -5.356 -44.124  1.00  0.00     0.209 HD
ENDBRANCH   9  10
ENDBRANCH   8   9
ENDBRANCH   7   8
ENDBRANCH   6   7
ENDBRANCH   3   6
BRANCH   2  12
HETATM   12  C2  UNL     1      -6.938  -8.018 -41.932  1.00  0.00     0.287 C 
BRANCH  12  13
HETATM   13  O2  UNL     1      -6.583  -7.299 -40.834  1.00  0.00    -0.273 OA
BRANCH  13  14
HETATM   14  P1  UNL     1      -5.103  -6.594 -41.099  1.00  0.00     0.422 P 
HETATM   15  O3  UNL     1      -4.695  -7.933 -41.767  1.00  0.00    -0.617 OA
HETATM   16  O4  UNL     1      -5.505  -5.547 -40.023  1.00  0.00    -0.617 OA
HETATM   17  O5  UNL     1      -4.944  -5.598 -42.373  1.00  0.00    -0.617 OA
ENDBRANCH  13  14
ENDBRANCH  12  13
ENDBRANCH   2  12
TORSDOF 9
ENDMDL
