MODEL 9
REMARK VINA RESULT: -5.716991379      3.225      4.799
REMARK  9 active torsions:
REMARK  status: ('A' for Active; 'I' for Inactive)
REMARK    1  A    between atoms: C1_2  and  C2_3 
REMARK       I    between atoms: C1_2  and  N1_9 
REMARK    2  A    between atoms: C2_3  and  O2_4 
REMARK    3  A    between atoms: O2_4  and  P1_5 
REMARK    4  A    between atoms: N1_9  and  O6_10 
REMARK    5  A    between atoms: N1_9  and  C3_12 
REMARK    6  A    between atoms: C3_12  and  C4_13 
REMARK    7  A    between atoms: C4_13  and  C5_14 
REMARK    8  A    between atoms: C5_14  and  C6_15 
REMARK    9  A    between atoms: C6_15  and  O7_16 
ROOT
HETATM    1  O1  UNL     1      -8.555  -6.572 -43.674  1.00  0.00    -0.269 OA
HETATM    2  C1  UNL     1      -9.074  -5.455 -43.823  1.00  0.00     0.267 C 
HETATM    3  N1  UNL     1     -10.482  -5.322 -43.851  1.00  0.00    -0.227 N 
ENDROOT
BRANCH   3   4
HETATM    4  O6  UNL     1     -11.041  -4.108 -44.013  1.00  0.00    -0.285 OA
ATOM      5  H6  UNL     1     -11.893  -3.923 -43.635  1.00  0.00     0.245 HD
ENDBRANCH   3   4
BRANCH   3   6
HETATM    6  C3  UNL     1     -11.334  -6.515 -43.704  1.00  0.00     0.159 C 
BRANCH   6   7
HETATM    7  C4  UNL     1     -12.033  -6.389 -42.399  1.00  0.00     0.024 C 
BRANCH   7   8
HETATM    8  C5  UNL     1     -11.330  -6.923 -41.206  1.00  0.00     0.028 C 
BRANCH   8   9
HETATM    9  C6  UNL     1     -10.520  -8.136 -41.508  1.00  0.00     0.164 C 
BRANCH   9  10
HETATM   10  O7  UNL     1     -10.960  -9.256 -40.840  1.00  0.00    -0.401 OA
ATOM     11  H7  UNL     1     -11.847  -9.502 -41.071  1.00  0.00     0.209 HD
ENDBRANCH   9  10
ENDBRANCH   8   9
ENDBRANCH   7   8
ENDBRANCH   6   7
ENDBRANCH   3   6
BRANCH   2  12
HETATM   12  C2  UNL     1      -8.208  -4.265 -43.970  1.00  0.00     0.287 C 
BRANCH  12  13
HETATM   13  O2  UNL     1      -8.164  -3.895 -45.278  1.00  0.00    -0.273 OA
BRANCH  13  14
HETATM   14  P1  UNL     1      -6.592  -3.550 -45.694  1.00  0.00     0.422 P 
HETATM   15  O3  UNL     1      -6.915  -2.085 -45.298  1.00  0.00    -0.617 OA
HETATM   16  O4  UNL     1      -6.589  -4.901 -46.461  1.00  0.00    -0.617 OA
HETATM   17  O5  UNL     1      -5.423  -3.870 -44.612  1.00  0.00    -0.617 OA
ENDBRANCH  13  14
ENDBRANCH  12  13
ENDBRANCH   2  12
TORSDOF 9
ENDMDL
