MODEL 12
REMARK VINA RESULT: -6.977875615      1.992      7.123
REMARK  10 active torsions:
REMARK  status: ('A' for Active; 'I' for Inactive)
REMARK    1  A    between atoms: C1_2  and  C2_3 
REMARK       I    between atoms: C1_2  and  N1_9 
REMARK    2  A    between atoms: C2_3  and  O2_4 
REMARK    3  A    between atoms: O2_4  and  P1_5 
REMARK    4  A    between atoms: N1_9  and  O6_10 
REMARK    5  A    between atoms: N1_9  and  C3_12 
REMARK    6  A    between atoms: C3_12  and  C4_13 
REMARK    7  A    between atoms: C4_13  and  C5_14 
REMARK    8  A    between atoms: C5_14  and  C6_15 
REMARK    9  A    between atoms: C6_15  and  O7_16 
REMARK   10  A    between atoms: O7_16  and  P2_17 
ROOT
HETATM    1  O1  UNL     1      -9.686  25.219 -25.194  1.00  0.00    -0.269 OA
HETATM    2  C1  UNL     1     -10.820  25.787 -25.026  1.00  0.00     0.267 C 
HETATM    3  N1  UNL     1     -10.935  27.045 -24.395  1.00  0.00    -0.227 N 
ENDROOT
BRANCH   3   4
HETATM    4  O6  UNL     1     -12.145  27.603 -24.241  1.00  0.00    -0.285 OA
ATOM      5  H6  UNL     1     -12.708  27.721 -24.997  1.00  0.00     0.245 HD
ENDBRANCH   3   4
BRANCH   3   6
HETATM    6  C3  UNL     1      -9.771  27.739 -23.917  1.00  0.00     0.159 C 
BRANCH   6   7
HETATM    7  C4  UNL     1      -9.688  29.138 -24.434  1.00  0.00     0.024 C 
BRANCH   7   8
HETATM    8  C5  UNL     1      -8.404  29.372 -25.160  1.00  0.00     0.028 C 
BRANCH   8   9
HETATM    9  C6  UNL     1      -7.298  28.454 -24.731  1.00  0.00     0.182 C 
BRANCH   9  10
HETATM   10  O7  UNL     1      -6.225  28.622 -25.642  1.00  0.00    -0.283 OA
BRANCH  10  11
HETATM   11  P2  UNL     1      -4.842  28.583 -25.000  1.00  0.00     0.422 P 
HETATM   12  O8  UNL     1      -4.174  27.737 -26.216  1.00  0.00    -0.617 OA
HETATM   13  O9  UNL     1      -5.458  27.780 -23.690  1.00  0.00    -0.617 OA
HETATM   14  O10 UNL     1      -4.790  30.250 -25.015  1.00  0.00    -0.617 OA
ENDBRANCH  10  11
ENDBRANCH   9  10
ENDBRANCH   8   9
ENDBRANCH   7   8
ENDBRANCH   6   7
ENDBRANCH   3   6
BRANCH   2  15
HETATM   15  C2  UNL     1     -11.984  25.029 -25.538  1.00  0.00     0.287 C 
BRANCH  15  16
HETATM   16  O2  UNL     1     -11.632  24.524 -26.794  1.00  0.00    -0.273 OA
BRANCH  16  17
HETATM   17  P1  UNL     1     -12.144  25.292 -28.027  1.00  0.00     0.422 P 
HETATM   18  O3  UNL     1     -11.781  23.981 -28.953  1.00  0.00    -0.617 OA
HETATM   19  O4  UNL     1     -12.720  26.063 -29.219  1.00  0.00    -0.617 OA
HETATM   20  O5  UNL     1     -13.626  25.352 -27.261  1.00  0.00    -0.617 OA
ENDBRANCH  16  17
ENDBRANCH  15  16
ENDBRANCH   2  15
TORSDOF 10
ENDMDL
