MODEL 15
REMARK VINA RESULT: -6.928333643      1.731      2.134
REMARK  10 active torsions:
REMARK  status: ('A' for Active; 'I' for Inactive)
REMARK    1  A    between atoms: C1_2  and  C2_3 
REMARK       I    between atoms: C1_2  and  N1_9 
REMARK    2  A    between atoms: C2_3  and  O2_4 
REMARK    3  A    between atoms: O2_4  and  P1_5 
REMARK    4  A    between atoms: N1_9  and  O6_10 
REMARK    5  A    between atoms: N1_9  and  C3_12 
REMARK    6  A    between atoms: C3_12  and  C4_13 
REMARK    7  A    between atoms: C4_13  and  C5_14 
REMARK    8  A    between atoms: C5_14  and  C6_15 
REMARK    9  A    between atoms: C6_15  and  O7_16 
REMARK   10  A    between atoms: O7_16  and  P2_17 
ROOT
HETATM    1  O1  UNL     1      -6.622  24.800 -23.024  1.00  0.00    -0.269 OA
HETATM    2  C1  UNL     1      -6.810  25.810 -23.787  1.00  0.00     0.267 C 
HETATM    3  N1  UNL     1      -8.093  26.368 -23.978  1.00  0.00    -0.227 N 
ENDROOT
BRANCH   3   4
HETATM    4  O6  UNL     1      -8.241  27.428 -24.787  1.00  0.00    -0.285 OA
ATOM      5  H6  UNL     1      -8.813  28.141 -24.528  1.00  0.00     0.245 HD
ENDBRANCH   3   4
BRANCH   3   6
HETATM    6  C3  UNL     1      -9.243  25.817 -23.317  1.00  0.00     0.159 C 
BRANCH   6   7
HETATM    7  C4  UNL     1     -10.524  26.216 -23.973  1.00  0.00     0.024 C 
BRANCH   7   8
HETATM    8  C5  UNL     1     -10.952  25.206 -24.986  1.00  0.00     0.028 C 
BRANCH   8   9
HETATM    9  C6  UNL     1     -12.015  25.707 -25.918  1.00  0.00     0.182 C 
BRANCH   9  10
HETATM   10  O7  UNL     1     -12.661  26.798 -25.284  1.00  0.00    -0.283 OA
BRANCH  10  11
HETATM   11  P2  UNL     1     -14.184  26.704 -25.268  1.00  0.00     0.422 P 
HETATM   12  O8  UNL     1     -14.240  25.562 -26.422  1.00  0.00    -0.617 OA
HETATM   13  O9  UNL     1     -14.300  28.300 -25.694  1.00  0.00    -0.617 OA
HETATM   14  O10 UNL     1     -14.138  26.265 -23.660  1.00  0.00    -0.617 OA
ENDBRANCH  10  11
ENDBRANCH   9  10
ENDBRANCH   8   9
ENDBRANCH   7   8
ENDBRANCH   6   7
ENDBRANCH   3   6
BRANCH   2  15
HETATM   15  C2  UNL     1      -5.592  26.337 -24.442  1.00  0.00     0.287 C 
BRANCH  15  16
HETATM   16  O2  UNL     1      -5.297  27.567 -23.844  1.00  0.00    -0.273 OA
BRANCH  16  17
HETATM   17  P1  UNL     1      -4.747  28.678 -24.759  1.00  0.00     0.422 P 
HETATM   18  O3  UNL     1      -4.454  27.538 -25.909  1.00  0.00    -0.617 OA
HETATM   19  O4  UNL     1      -4.266  29.817 -25.663  1.00  0.00    -0.617 OA
HETATM   20  O5  UNL     1      -6.264  29.370 -24.678  1.00  0.00    -0.617 OA
ENDBRANCH  16  17
ENDBRANCH  15  16
ENDBRANCH   2  15
TORSDOF 10
ENDMDL
