MODEL 6
REMARK VINA RESULT: -7.267608910      1.555      7.295
REMARK  10 active torsions:
REMARK  status: ('A' for Active; 'I' for Inactive)
REMARK    1  A    between atoms: C1_2  and  C2_3 
REMARK       I    between atoms: C1_2  and  N1_9 
REMARK    2  A    between atoms: C2_3  and  O2_4 
REMARK    3  A    between atoms: O2_4  and  P1_5 
REMARK    4  A    between atoms: N1_9  and  O6_10 
REMARK    5  A    between atoms: N1_9  and  C3_12 
REMARK    6  A    between atoms: C3_12  and  C4_13 
REMARK    7  A    between atoms: C4_13  and  C5_14 
REMARK    8  A    between atoms: C5_14  and  C6_15 
REMARK    9  A    between atoms: C6_15  and  O7_16 
REMARK   10  A    between atoms: O7_16  and  P2_17 
ROOT
HETATM    1  O1  UNL     1     -10.668  28.059 -24.584  1.00  0.00    -0.269 OA
HETATM    2  C1  UNL     1     -10.919  26.838 -24.873  1.00  0.00     0.267 C 
HETATM    3  N1  UNL     1     -10.064  25.788 -24.472  1.00  0.00    -0.227 N 
ENDROOT
BRANCH   3   4
HETATM    4  O6  UNL     1     -10.368  24.523 -24.799  1.00  0.00    -0.285 OA
ATOM      5  H6  UNL     1      -9.672  23.886 -24.911  1.00  0.00     0.245 HD
ENDBRANCH   3   4
BRANCH   3   6
HETATM    6  C3  UNL     1      -8.871  26.056 -23.718  1.00  0.00     0.159 C 
BRANCH   6   7
HETATM    7  C4  UNL     1      -7.698  25.270 -24.206  1.00  0.00     0.024 C 
BRANCH   7   8
HETATM    8  C5  UNL     1      -6.447  25.666 -23.496  1.00  0.00     0.028 C 
BRANCH   8   9
HETATM    9  C6  UNL     1      -5.406  26.256 -24.401  1.00  0.00     0.182 C 
BRANCH   9  10
HETATM   10  O7  UNL     1      -5.205  27.602 -24.002  1.00  0.00    -0.283 OA
BRANCH  10  11
HETATM   11  P2  UNL     1      -4.878  28.555 -25.147  1.00  0.00     0.422 P 
HETATM   12  O8  UNL     1      -6.274  28.275 -25.932  1.00  0.00    -0.617 OA
HETATM   13  O9  UNL     1      -3.537  27.663 -25.526  1.00  0.00    -0.617 OA
HETATM   14  O10 UNL     1      -4.769  29.818 -24.063  1.00  0.00    -0.617 OA
ENDBRANCH  10  11
ENDBRANCH   9  10
ENDBRANCH   8   9
ENDBRANCH   7   8
ENDBRANCH   6   7
ENDBRANCH   3   6
BRANCH   2  15
HETATM   15  C2  UNL     1     -12.159  26.620 -25.650  1.00  0.00     0.287 C 
BRANCH  15  16
HETATM   16  O2  UNL     1     -11.790  26.046 -26.872  1.00  0.00    -0.273 OA
BRANCH  16  17
HETATM   17  P1  UNL     1     -12.828  25.145 -27.567  1.00  0.00     0.422 P 
HETATM   18  O3  UNL     1     -11.952  23.833 -27.101  1.00  0.00    -0.617 OA
HETATM   19  O4  UNL     1     -13.914  24.279 -28.213  1.00  0.00    -0.617 OA
HETATM   20  O5  UNL     1     -13.953  25.780 -26.509  1.00  0.00    -0.617 OA
ENDBRANCH  16  17
ENDBRANCH  15  16
ENDBRANCH   2  15
TORSDOF 10
ENDMDL
