MODEL 14
REMARK VINA RESULT: -6.946951018      1.983      2.567
REMARK  10 active torsions:
REMARK  status: ('A' for Active; 'I' for Inactive)
REMARK    1  A    between atoms: C1_2  and  C2_3 
REMARK       I    between atoms: C1_2  and  N1_9 
REMARK    2  A    between atoms: C2_3  and  O2_4 
REMARK    3  A    between atoms: O2_4  and  P1_5 
REMARK    4  A    between atoms: N1_9  and  O6_10 
REMARK    5  A    between atoms: N1_9  and  C3_12 
REMARK    6  A    between atoms: C3_12  and  C4_13 
REMARK    7  A    between atoms: C4_13  and  C5_14 
REMARK    8  A    between atoms: C5_14  and  C6_15 
REMARK    9  A    between atoms: C6_15  and  O7_16 
REMARK   10  A    between atoms: O7_16  and  P2_17 
ROOT
HETATM    1  O1  UNL     1      -6.835  24.235 -23.659  1.00  0.00    -0.269 OA
HETATM    2  C1  UNL     1      -6.930  25.478 -23.946  1.00  0.00     0.267 C 
HETATM    3  N1  UNL     1      -8.138  26.045 -24.407  1.00  0.00    -0.227 N 
ENDROOT
BRANCH   3   4
HETATM    4  O6  UNL     1      -8.189  27.354 -24.695  1.00  0.00    -0.285 OA
ATOM      5  H6  UNL     1      -7.401  27.882 -24.627  1.00  0.00     0.245 HD
ENDBRANCH   3   4
BRANCH   3   6
HETATM    6  C3  UNL     1      -9.315  25.238 -24.571  1.00  0.00     0.159 C 
BRANCH   6   7
HETATM    7  C4  UNL     1     -10.546  26.060 -24.771  1.00  0.00     0.024 C 
BRANCH   7   8
HETATM    8  C5  UNL     1     -11.337  25.575 -25.940  1.00  0.00     0.028 C 
BRANCH   8   9
HETATM    9  C6  UNL     1     -12.540  26.419 -26.241  1.00  0.00     0.182 C 
BRANCH   9  10
HETATM   10  O7  UNL     1     -13.679  25.731 -25.752  1.00  0.00    -0.283 OA
BRANCH  10  11
HETATM   11  P2  UNL     1     -14.671  26.611 -24.998  1.00  0.00     0.422 P 
HETATM   12  O8  UNL     1     -14.273  27.958 -25.815  1.00  0.00    -0.617 OA
HETATM   13  O9  UNL     1     -13.909  26.270 -23.569  1.00  0.00    -0.617 OA
HETATM   14  O10 UNL     1     -15.926  25.650 -25.531  1.00  0.00    -0.617 OA
ENDBRANCH  10  11
ENDBRANCH   9  10
ENDBRANCH   8   9
ENDBRANCH   7   8
ENDBRANCH   6   7
ENDBRANCH   3   6
BRANCH   2  15
HETATM   15  C2  UNL     1      -5.688  26.261 -23.758  1.00  0.00     0.287 C 
BRANCH  15  16
HETATM   16  O2  UNL     1      -5.318  26.762 -25.011  1.00  0.00    -0.273 OA
BRANCH  16  17
HETATM   17  P1  UNL     1      -4.697  28.172 -25.048  1.00  0.00     0.422 P 
HETATM   18  O3  UNL     1      -3.414  27.548 -25.868  1.00  0.00    -0.617 OA
HETATM   19  O4  UNL     1      -4.141  29.597 -25.119  1.00  0.00    -0.617 OA
HETATM   20  O5  UNL     1      -6.049  28.646 -25.905  1.00  0.00    -0.617 OA
ENDBRANCH  16  17
ENDBRANCH  15  16
ENDBRANCH   2  15
TORSDOF 10
ENDMDL
