MODEL 10
REMARK VINA RESULT: -7.107398819      1.487      7.297
REMARK  10 active torsions:
REMARK  status: ('A' for Active; 'I' for Inactive)
REMARK    1  A    between atoms: C1_2  and  C2_3 
REMARK       I    between atoms: C1_2  and  N1_9 
REMARK    2  A    between atoms: C2_3  and  O2_4 
REMARK    3  A    between atoms: O2_4  and  P1_5 
REMARK    4  A    between atoms: N1_9  and  O6_10 
REMARK    5  A    between atoms: N1_9  and  C3_12 
REMARK    6  A    between atoms: C3_12  and  C4_13 
REMARK    7  A    between atoms: C4_13  and  C5_14 
REMARK    8  A    between atoms: C5_14  and  C6_15 
REMARK    9  A    between atoms: C6_15  and  O7_16 
REMARK   10  A    between atoms: O7_16  and  P2_17 
ROOT
HETATM    1  O1  UNL     1     -10.480  28.067 -24.464  1.00  0.00    -0.269 OA
HETATM    2  C1  UNL     1     -10.820  26.868 -24.753  1.00  0.00     0.267 C 
HETATM    3  N1  UNL     1     -10.048  25.758 -24.345  1.00  0.00    -0.227 N 
ENDROOT
BRANCH   3   4
HETATM    4  O6  UNL     1     -10.444  24.518 -24.671  1.00  0.00    -0.285 OA
ATOM      5  H6  UNL     1      -9.794  23.854 -24.869  1.00  0.00     0.245 HD
ENDBRANCH   3   4
BRANCH   3   6
HETATM    6  C3  UNL     1      -8.843  25.938 -23.584  1.00  0.00     0.159 C 
BRANCH   6   7
HETATM    7  C4  UNL     1      -7.655  25.312 -24.239  1.00  0.00     0.024 C 
BRANCH   7   8
HETATM    8  C5  UNL     1      -6.397  25.640 -23.505  1.00  0.00     0.028 C 
BRANCH   8   9
HETATM    9  C6  UNL     1      -5.347  26.272 -24.371  1.00  0.00     0.182 C 
BRANCH   9  10
HETATM   10  O7  UNL     1      -5.247  27.635 -23.995  1.00  0.00    -0.283 OA
BRANCH  10  11
HETATM   11  P2  UNL     1      -4.913  28.581 -25.144  1.00  0.00     0.422 P 
HETATM   12  O8  UNL     1      -4.764  29.882 -24.182  1.00  0.00    -0.617 OA
HETATM   13  O9  UNL     1      -6.372  28.256 -25.855  1.00  0.00    -0.617 OA
HETATM   14  O10 UNL     1      -3.574  27.658 -25.514  1.00  0.00    -0.617 OA
ENDBRANCH  10  11
ENDBRANCH   9  10
ENDBRANCH   8   9
ENDBRANCH   7   8
ENDBRANCH   6   7
ENDBRANCH   3   6
BRANCH   2  15
HETATM   15  C2  UNL     1     -12.068  26.741 -25.537  1.00  0.00     0.287 C 
BRANCH  15  16
HETATM   16  O2  UNL     1     -11.736  26.134 -26.753  1.00  0.00    -0.273 OA
BRANCH  16  17
HETATM   17  P1  UNL     1     -12.846  25.338 -27.467  1.00  0.00     0.422 P 
HETATM   18  O3  UNL     1     -12.458  26.116 -28.864  1.00  0.00    -0.617 OA
HETATM   19  O4  UNL     1     -13.915  24.484 -28.155  1.00  0.00    -0.617 OA
HETATM   20  O5  UNL     1     -12.001  23.961 -27.049  1.00  0.00    -0.617 OA
ENDBRANCH  16  17
ENDBRANCH  15  16
ENDBRANCH   2  15
TORSDOF 10
ENDMDL
