MODEL 1
REMARK VINA RESULT: -7.853938335      0.000      0.000
REMARK  8 active torsions:
REMARK  status: ('A' for Active; 'I' for Inactive)
REMARK    1  A    between atoms: N1_1  and  S1_4 
REMARK    2  A    between atoms: S1_4  and  C1_7 
REMARK    3  A    between atoms: C4_10  and  C5_11 
REMARK    4  A    between atoms: C5_11  and  C6_12 
REMARK    5  A    between atoms: C6_12  and  N2_13 
REMARK       I    between atoms: N2_13  and  C7_15 
REMARK    6  A    between atoms: C7_15  and  C8_17 
REMARK    7  A    between atoms: C8_17  and  C9_18 
REMARK    8  A    between atoms: C12_21  and  O4_22 
ROOT
HETATM    1  C6  UNL     1      18.700   7.938  13.021  1.00  0.00     0.127 C 
ENDROOT
BRANCH   1   2
HETATM    2  C5  UNL     1      17.586   8.023  13.992  1.00  0.00     0.058 C 
BRANCH   2   3
HETATM    3  C4  UNL     1      17.148   6.738  14.581  1.00  0.00    -0.057 A 
HETATM    4  C3  UNL     1      18.023   5.742  14.968  1.00  0.00     0.009 A 
HETATM    5  C2  UNL     1      17.593   4.555  15.518  1.00  0.00     0.026 A 
HETATM    6  C1  UNL     1      16.259   4.297  15.713  1.00  0.00     0.079 A 
HETATM    7  C16 UNL     1      15.366   5.279  15.333  1.00  0.00     0.026 A 
HETATM    8  C15 UNL     1      15.806   6.467  14.782  1.00  0.00     0.009 A 
BRANCH   6   9
HETATM    9  S1  UNL     1      15.677   2.804  16.408  1.00  0.00     0.256 S 
HETATM   10  O1  UNL     1      16.141   1.653  15.564  1.00  0.00    -0.201 OA
HETATM   11  O2  UNL     1      16.261   2.687  17.798  1.00  0.00    -0.201 OA
BRANCH   9  12
HETATM   12  N1  UNL     1      13.952   2.817  16.581  1.00  0.00    -0.324 N 
ATOM     13  H12 UNL     1      13.382   1.971  16.581  1.00  0.00     0.169 HD
ATOM     14  H11 UNL     1      13.590   3.766  16.680  1.00  0.00     0.169 HD
ENDBRANCH   9  12
ENDBRANCH   6   9
ENDBRANCH   2   3
ENDBRANCH   1   2
BRANCH   1  15
HETATM   15  N2  UNL     1      18.549   6.969  11.977  1.00  0.00    -0.361 N 
HETATM   16  C7  UNL     1      19.562   6.026  11.654  1.00  0.00     0.221 C 
HETATM   17  O3  UNL     1      20.615   6.083  12.339  1.00  0.00    -0.273 OA
ATOM     18  H2  UNL     1      17.680   6.955  11.444  1.00  0.00     0.162 HD
BRANCH  16  19
HETATM   19  C8  UNL     1      19.439   5.021  10.591  1.00  0.00     0.141 C 
BRANCH  19  20
HETATM   20  C9  UNL     1      18.699   3.849  11.118  1.00  0.00    -0.048 A 
HETATM   21  C10 UNL     1      17.485   4.028  11.773  1.00  0.00     0.010 A 
HETATM   22  C11 UNL     1      16.768   2.962  12.277  1.00  0.00     0.039 A 
HETATM   23  C12 UNL     1      17.251   1.676  12.139  1.00  0.00     0.087 A 
HETATM   24  C13 UNL     1      18.436   1.475  11.502  1.00  0.00     0.067 A 
HETATM   25 CL1  UNL     1      19.016  -0.174  11.345  1.00  0.00    -0.081 Cl
HETATM   26  C14 UNL     1      19.143   2.551  11.002  1.00  0.00     0.034 A 
BRANCH  23  27
HETATM   27  O4  UNL     1      16.497   0.607  12.664  1.00  0.00    -0.359 OA
ATOM     28  H4  UNL     1      16.642  -0.267  12.322  1.00  0.00     0.217 HD
ENDBRANCH  23  27
ENDBRANCH  19  20
ENDBRANCH  16  19
ENDBRANCH   1  15
TORSDOF 8
ENDMDL
