MODEL 3
REMARK VINA RESULT: -7.468210674      2.944      4.925
REMARK  8 active torsions:
REMARK  status: ('A' for Active; 'I' for Inactive)
REMARK    1  A    between atoms: N1_1  and  S1_4 
REMARK    2  A    between atoms: S1_4  and  C1_7 
REMARK    3  A    between atoms: C4_10  and  C5_11 
REMARK    4  A    between atoms: C5_11  and  C6_12 
REMARK    5  A    between atoms: C6_12  and  N2_13 
REMARK       I    between atoms: N2_13  and  C7_15 
REMARK    6  A    between atoms: C7_15  and  C8_17 
REMARK    7  A    between atoms: C8_17  and  C9_18 
REMARK    8  A    between atoms: C12_21  and  O4_22 
ROOT
HETATM    1  C6  UNL     1      18.025   8.084  11.528  1.00  0.00     0.127 C 
ENDROOT
BRANCH   1   2
HETATM    2  C5  UNL     1      18.919   7.101  10.878  1.00  0.00     0.058 C 
BRANCH   2   3
HETATM    3  C4  UNL     1      18.556   5.678  11.068  1.00  0.00    -0.057 A 
HETATM    4  C3  UNL     1      19.443   4.722  11.523  1.00  0.00     0.009 A 
HETATM    5  C2  UNL     1      19.082   3.404  11.696  1.00  0.00     0.026 A 
HETATM    6  C1  UNL     1      17.810   2.968  11.423  1.00  0.00     0.079 A 
HETATM    7  C16 UNL     1      16.907   3.907  10.965  1.00  0.00     0.026 A 
HETATM    8  C15 UNL     1      17.277   5.226  10.795  1.00  0.00     0.009 A 
BRANCH   6   9
HETATM    9  S1  UNL     1      17.317   1.305  11.630  1.00  0.00     0.256 S 
HETATM   10  O1  UNL     1      16.767   1.122  13.015  1.00  0.00    -0.201 OA
HETATM   11  O2  UNL     1      16.238   1.016  10.610  1.00  0.00    -0.201 OA
BRANCH   9  12
HETATM   12  N1  UNL     1      18.625   0.213  11.311  1.00  0.00    -0.324 N 
ATOM     13  H12 UNL     1      18.807  -0.189  10.391  1.00  0.00     0.169 HD
ATOM     14  H11 UNL     1      19.175   0.029  12.149  1.00  0.00     0.169 HD
ENDBRANCH   9  12
ENDBRANCH   6   9
ENDBRANCH   2   3
ENDBRANCH   1   2
BRANCH   1  15
HETATM   15  N2  UNL     1      17.794   7.893  12.929  1.00  0.00    -0.361 N 
HETATM   16  C7  UNL     1      16.512   7.587  13.460  1.00  0.00     0.221 C 
HETATM   17  O3  UNL     1      15.574   7.489  12.630  1.00  0.00    -0.273 OA
ATOM     18  H2  UNL     1      18.582   7.980  13.570  1.00  0.00     0.162 HD
BRANCH  16  19
HETATM   19  C8  UNL     1      16.244   7.386  14.889  1.00  0.00     0.141 C 
BRANCH  19  20
HETATM   20  C9  UNL     1      16.182   5.931  15.169  1.00  0.00    -0.048 A 
HETATM   21  C10 UNL     1      17.240   5.105  14.802  1.00  0.00     0.010 A 
HETATM   22  C11 UNL     1      17.219   3.747  15.045  1.00  0.00     0.039 A 
HETATM   23  C12 UNL     1      16.128   3.171  15.667  1.00  0.00     0.087 A 
HETATM   24  C13 UNL     1      15.081   3.959  16.036  1.00  0.00     0.067 A 
HETATM   25 CL1  UNL     1      13.713   3.191  16.824  1.00  0.00    -0.081 Cl
HETATM   26  C14 UNL     1      15.116   5.316  15.786  1.00  0.00     0.034 A 
BRANCH  23  27
HETATM   27  O4  UNL     1      16.135   1.782  15.902  1.00  0.00    -0.359 OA
ATOM     28  H4  UNL     1      15.375   1.383  16.310  1.00  0.00     0.217 HD
ENDBRANCH  23  27
ENDBRANCH  19  20
ENDBRANCH  16  19
ENDBRANCH   1  15
TORSDOF 8
ENDMDL
