MODEL 2
REMARK VINA RESULT: -7.475348497      1.456      2.034
REMARK  8 active torsions:
REMARK  status: ('A' for Active; 'I' for Inactive)
REMARK    1  A    between atoms: N1_1  and  S1_4 
REMARK    2  A    between atoms: S1_4  and  C1_7 
REMARK    3  A    between atoms: C4_10  and  C5_11 
REMARK    4  A    between atoms: C5_11  and  C6_12 
REMARK    5  A    between atoms: C6_12  and  N2_13 
REMARK       I    between atoms: N2_13  and  C7_15 
REMARK    6  A    between atoms: C7_15  and  C8_17 
REMARK    7  A    between atoms: C8_17  and  C9_18 
REMARK    8  A    between atoms: C12_21  and  O4_22 
ROOT
HETATM    1  C6  UNL     1      19.149   8.672  12.971  1.00  0.00     0.127 C 
ENDROOT
BRANCH   1   2
HETATM    2  C5  UNL     1      17.970   8.572  13.861  1.00  0.00     0.058 C 
BRANCH   2   3
HETATM    3  C4  UNL     1      17.591   7.202  14.273  1.00  0.00    -0.057 A 
HETATM    4  C3  UNL     1      16.314   6.693  14.135  1.00  0.00     0.009 A 
HETATM    5  C2  UNL     1      15.984   5.413  14.522  1.00  0.00     0.026 A 
HETATM    6  C1  UNL     1      16.916   4.567  15.069  1.00  0.00     0.079 A 
HETATM    7  C16 UNL     1      18.198   5.056  15.217  1.00  0.00     0.026 A 
HETATM    8  C15 UNL     1      18.521   6.340  14.826  1.00  0.00     0.009 A 
BRANCH   6   9
HETATM    9  S1  UNL     1      16.534   2.939  15.571  1.00  0.00     0.256 S 
HETATM   10  O1  UNL     1      16.471   2.051  14.362  1.00  0.00    -0.201 OA
HETATM   11  O2  UNL     1      17.639   2.471  16.491  1.00  0.00    -0.201 OA
BRANCH   9  12
HETATM   12  N1  UNL     1      15.059   2.886  16.481  1.00  0.00    -0.324 N 
ATOM     13  H12 UNL     1      14.491   2.045  16.579  1.00  0.00     0.169 HD
ATOM     14  H11 UNL     1      14.841   3.792  16.897  1.00  0.00     0.169 HD
ENDBRANCH   9  12
ENDBRANCH   6   9
ENDBRANCH   2   3
ENDBRANCH   1   2
BRANCH   1  15
HETATM   15  N2  UNL     1      19.162   7.786  11.845  1.00  0.00    -0.361 N 
HETATM   16  C7  UNL     1      20.257   6.927  11.558  1.00  0.00     0.221 C 
HETATM   17  O3  UNL     1      21.231   6.982  12.351  1.00  0.00    -0.273 OA
ATOM     18  H2  UNL     1      18.352   7.771  11.225  1.00  0.00     0.162 HD
BRANCH  16  19
HETATM   19  C8  UNL     1      20.301   6.010  10.413  1.00  0.00     0.141 C 
BRANCH  19  20
HETATM   20  C9  UNL     1      19.549   4.778  10.753  1.00  0.00    -0.048 A 
HETATM   21  C10 UNL     1      20.227   3.578  10.944  1.00  0.00     0.010 A 
HETATM   22  C11 UNL     1      19.563   2.411  11.261  1.00  0.00     0.039 A 
HETATM   23  C12 UNL     1      18.188   2.411  11.395  1.00  0.00     0.087 A 
HETATM   24  C13 UNL     1      17.503   3.573  11.213  1.00  0.00     0.067 A 
HETATM   25 CL1  UNL     1      15.757   3.534  11.394  1.00  0.00    -0.081 Cl
HETATM   26  C14 UNL     1      18.181   4.733  10.896  1.00  0.00     0.034 A 
BRANCH  23  27
HETATM   27  O4  UNL     1      17.537   1.205  11.719  1.00  0.00    -0.359 OA
ATOM     28  H4  UNL     1      16.684   1.028  11.338  1.00  0.00     0.217 HD
ENDBRANCH  23  27
ENDBRANCH  19  20
ENDBRANCH  16  19
ENDBRANCH   1  15
TORSDOF 8
ENDMDL
