MODEL 19
REMARK VINA RESULT: -7.552049602      2.467      8.086
REMARK  7 active torsions:
REMARK  status: ('A' for Active; 'I' for Inactive)
REMARK    1  A    between atoms: C4_4  and  O1_5 
REMARK    2  A    between atoms: O1_5  and  C5_6 
REMARK    3  A    between atoms: C5_6  and  C6_7 
REMARK    4  A    between atoms: C10_13  and  C11_14 
REMARK    5  A    between atoms: C11_14  and  C12_15 
REMARK    6  A    between atoms: C15_18  and  O4_19 
REMARK    7  A    between atoms: C16_21  and  C17_22 
ROOT
HETATM    1  C1  UNL     1     -22.647   2.038  -2.732  1.00  0.00     0.049 C 
HETATM    2  C2  UNL     1     -21.812   0.977  -2.142  1.00  0.00    -0.052 A 
HETATM    3  C3  UNL     1     -22.023   0.726  -0.787  1.00  0.00     0.044 A 
HETATM    4  C4  UNL     1     -21.292  -0.227  -0.140  1.00  0.00     0.070 A 
HETATM    5  C7  UNL     1     -20.360  -0.911  -0.867  1.00  0.00     0.044 A 
HETATM    6  C8  UNL     1     -20.149  -0.662  -2.215  1.00  0.00    -0.052 A 
HETATM    7  C9  UNL     1     -19.114  -1.455  -2.907  1.00  0.00     0.049 C 
HETATM    8  C10 UNL     1     -20.887   0.307  -2.894  1.00  0.00    -0.042 A 
ENDROOT
BRANCH   8   9
HETATM    9  C11 UNL     1     -20.705   0.588  -4.311  1.00  0.00     0.078 C 
BRANCH   9  10
HETATM   10  C12 UNL     1     -21.531  -0.207  -5.250  1.00  0.00    -0.053 A 
HETATM   11  C13 UNL     1     -22.384  -1.188  -4.818  1.00  0.00     0.010 A 
HETATM   12  C14 UNL     1     -23.133  -1.921  -5.725  1.00  0.00     0.037 A 
HETATM   13  C15 UNL     1     -23.057  -1.705  -7.072  1.00  0.00     0.072 A 
HETATM   14  C16 UNL     1     -22.208  -0.724  -7.527  1.00  0.00    -0.021 A 
HETATM   15  C20 UNL     1     -21.463   0.005  -6.619  1.00  0.00     0.017 A 
BRANCH  13  16
HETATM   16  O4  UNL     1     -23.811  -2.444  -8.003  1.00  0.00    -0.360 OA
ATOM     17  H4  UNL     1     -24.499  -2.055  -8.530  1.00  0.00     0.217 HD
ENDBRANCH  13  16
BRANCH  14  18
HETATM   18  C17 UNL     1     -22.126  -0.490  -8.991  1.00  0.00     0.013 C 
HETATM   19  C18 UNL     1     -22.827   0.792  -9.392  1.00  0.00     0.015 C 
HETATM   20  C19 UNL     1     -20.682  -0.406  -9.414  1.00  0.00     0.015 C 
ENDBRANCH  14  18
ENDBRANCH   9  10
ENDBRANCH   8   9
BRANCH   4  21
HETATM   21  O1  UNL     1     -21.430  -0.548   1.216  1.00  0.00    -0.341 OA
BRANCH  21  22
HETATM   22  C5  UNL     1     -22.643  -1.050   1.676  1.00  0.00     0.288 C 
BRANCH  22  23
HETATM   23  C6  UNL     1     -23.460  -0.068   2.434  1.00  0.00     0.198 C 
HETATM   24  O2  UNL     1     -23.116   0.443   3.532  1.00  0.00    -0.646 OA
HETATM   25  O3  UNL     1     -24.687   0.322   1.911  1.00  0.00    -0.646 OA
ENDBRANCH  22  23
ENDBRANCH  21  22
ENDBRANCH   4  21
TORSDOF 7
ENDMDL
