MODEL 1
REMARK VINA RESULT: -7.978828882      0.000      0.000
REMARK  7 active torsions:
REMARK  status: ('A' for Active; 'I' for Inactive)
REMARK    1  A    between atoms: C4_4  and  O1_5 
REMARK    2  A    between atoms: O1_5  and  C5_6 
REMARK    3  A    between atoms: C5_6  and  C6_7 
REMARK    4  A    between atoms: C10_13  and  C11_14 
REMARK    5  A    between atoms: C11_14  and  C12_15 
REMARK    6  A    between atoms: C15_18  and  O4_19 
REMARK    7  A    between atoms: C16_21  and  C17_22 
ROOT
HETATM    1  C1  UNL     1     -23.437  -2.424  -5.054  1.00  0.00     0.049 C 
HETATM    2  C2  UNL     1     -22.606  -1.291  -5.499  1.00  0.00    -0.052 A 
HETATM    3  C3  UNL     1     -22.542  -1.096  -6.879  1.00  0.00     0.044 A 
HETATM    4  C4  UNL     1     -21.788  -0.084  -7.397  1.00  0.00     0.070 A 
HETATM    5  C7  UNL     1     -21.111   0.714  -6.520  1.00  0.00     0.044 A 
HETATM    6  C8  UNL     1     -21.174   0.520  -5.148  1.00  0.00    -0.052 A 
HETATM    7  C9  UNL     1     -20.400   1.437  -4.287  1.00  0.00     0.049 C 
HETATM    8  C10 UNL     1     -21.939  -0.507  -4.598  1.00  0.00    -0.042 A 
ENDROOT
BRANCH   8   9
HETATM    9  C11 UNL     1     -22.042  -0.734  -3.164  1.00  0.00     0.078 C 
BRANCH   9  10
HETATM   10  C12 UNL     1     -22.995   0.130  -2.428  1.00  0.00    -0.053 A 
HETATM   11  C13 UNL     1     -24.122   0.639  -3.018  1.00  0.00     0.010 A 
HETATM   12  C14 UNL     1     -24.984   1.456  -2.305  1.00  0.00     0.037 A 
HETATM   13  C15 UNL     1     -24.756   1.789  -1.000  1.00  0.00     0.072 A 
HETATM   14  C16 UNL     1     -23.631   1.288  -0.388  1.00  0.00    -0.021 A 
HETATM   15  C20 UNL     1     -22.774   0.474  -1.103  1.00  0.00     0.017 A 
BRANCH  13  16
HETATM   16  O4  UNL     1     -25.624   2.618  -0.265  1.00  0.00    -0.360 OA
ATOM     17  H4  UNL     1     -25.357   3.062   0.532  1.00  0.00     0.217 HD
ENDBRANCH  13  16
BRANCH  14  18
HETATM   18  C17 UNL     1     -23.383   1.651   1.031  1.00  0.00     0.013 C 
HETATM   19  C18 UNL     1     -23.816   0.546   1.973  1.00  0.00     0.015 C 
HETATM   20  C19 UNL     1     -21.916   1.919   1.240  1.00  0.00     0.015 C 
ENDBRANCH  14  18
ENDBRANCH   9  10
ENDBRANCH   8   9
BRANCH   4  21
HETATM   21  O1  UNL     1     -21.659   0.189  -8.764  1.00  0.00    -0.341 OA
BRANCH  21  22
HETATM   22  C5  UNL     1     -22.585   1.025  -9.381  1.00  0.00     0.288 C 
BRANCH  22  23
HETATM   23  C6  UNL     1     -22.038   2.345  -9.785  1.00  0.00     0.198 C 
HETATM   24  O2  UNL     1     -21.101   2.937  -9.187  1.00  0.00    -0.646 OA
HETATM   25  O3  UNL     1     -22.585   2.982 -10.891  1.00  0.00    -0.646 OA
ENDBRANCH  22  23
ENDBRANCH  21  22
ENDBRANCH   4  21
TORSDOF 7
ENDMDL
