MODEL 3
REMARK VINA RESULT: -7.944936484      3.089      4.427
REMARK  7 active torsions:
REMARK  status: ('A' for Active; 'I' for Inactive)
REMARK    1  A    between atoms: C4_4  and  O1_5 
REMARK    2  A    between atoms: O1_5  and  C5_6 
REMARK    3  A    between atoms: C5_6  and  C6_7 
REMARK    4  A    between atoms: C10_13  and  C11_14 
REMARK    5  A    between atoms: C11_14  and  C12_15 
REMARK    6  A    between atoms: C15_18  and  O4_19 
REMARK    7  A    between atoms: C16_21  and  C17_22 
ROOT
HETATM    1  C1  UNL     1     -20.061   2.481  -5.060  1.00  0.00     0.049 C 
HETATM    2  C2  UNL     1     -20.875   1.345  -5.530  1.00  0.00    -0.052 A 
HETATM    3  C3  UNL     1     -20.910   1.159  -6.912  1.00  0.00     0.044 A 
HETATM    4  C4  UNL     1     -21.645   0.146  -7.452  1.00  0.00     0.070 A 
HETATM    5  C7  UNL     1     -22.335  -0.663  -6.594  1.00  0.00     0.044 A 
HETATM    6  C8  UNL     1     -22.301  -0.478  -5.220  1.00  0.00    -0.052 A 
HETATM    7  C9  UNL     1     -23.085  -1.406  -4.382  1.00  0.00     0.049 C 
HETATM    8  C10 UNL     1     -21.554   0.551  -4.648  1.00  0.00    -0.042 A 
ENDROOT
BRANCH   8   9
HETATM    9  C11 UNL     1     -21.481   0.768  -3.210  1.00  0.00     0.078 C 
BRANCH   9  10
HETATM   10  C12 UNL     1     -20.548  -0.104  -2.460  1.00  0.00    -0.053 A 
HETATM   11  C13 UNL     1     -19.430  -0.644  -3.040  1.00  0.00     0.010 A 
HETATM   12  C14 UNL     1     -18.585  -1.467  -2.312  1.00  0.00     0.037 A 
HETATM   13  C15 UNL     1     -18.821  -1.774  -1.003  1.00  0.00     0.072 A 
HETATM   14  C16 UNL     1     -19.937  -1.242  -0.401  1.00  0.00    -0.021 A 
HETATM   15  C20 UNL     1     -20.777  -0.422  -1.130  1.00  0.00     0.017 A 
BRANCH  13  16
HETATM   16  O4  UNL     1     -17.972  -2.609  -0.253  1.00  0.00    -0.360 OA
ATOM     17  H4  UNL     1     -18.240  -3.015   0.563  1.00  0.00     0.217 HD
ENDBRANCH  13  16
BRANCH  14  18
HETATM   18  C17 UNL     1     -20.194  -1.577   1.024  1.00  0.00     0.013 C 
HETATM   19  C18 UNL     1     -19.827  -0.430   1.942  1.00  0.00     0.015 C 
HETATM   20  C19 UNL     1     -21.652  -1.905   1.216  1.00  0.00     0.015 C 
ENDBRANCH  14  18
ENDBRANCH   9  10
ENDBRANCH   8   9
BRANCH   4  21
HETATM   21  O1  UNL     1     -21.744  -0.118  -8.824  1.00  0.00    -0.341 OA
BRANCH  21  22
HETATM   22  C5  UNL     1     -20.847  -1.004  -9.412  1.00  0.00     0.288 C 
BRANCH  22  23
HETATM   23  C6  UNL     1     -21.452  -2.295  -9.828  1.00  0.00     0.198 C 
HETATM   24  O2  UNL     1     -22.438  -2.832  -9.258  1.00  0.00    -0.646 OA
HETATM   25  O3  UNL     1     -20.905  -2.968 -10.913  1.00  0.00    -0.646 OA
ENDBRANCH  22  23
ENDBRANCH  21  22
ENDBRANCH   4  21
TORSDOF 7
ENDMDL
