MODEL 2
REMARK VINA RESULT: -7.971741154      0.088      1.725
REMARK  7 active torsions:
REMARK  status: ('A' for Active; 'I' for Inactive)
REMARK    1  A    between atoms: C4_4  and  O1_5 
REMARK    2  A    between atoms: O1_5  and  C5_6 
REMARK    3  A    between atoms: C5_6  and  C6_7 
REMARK    4  A    between atoms: C10_13  and  C11_14 
REMARK    5  A    between atoms: C11_14  and  C12_15 
REMARK    6  A    between atoms: C15_18  and  O4_19 
REMARK    7  A    between atoms: C16_21  and  C17_22 
ROOT
HETATM    1  C1  UNL     1     -20.425   1.504  -4.305  1.00  0.00     0.049 C 
HETATM    2  C2  UNL     1     -21.150   0.567  -5.181  1.00  0.00    -0.052 A 
HETATM    3  C3  UNL     1     -21.037   0.811  -6.550  1.00  0.00     0.044 A 
HETATM    4  C4  UNL     1     -21.681   0.011  -7.448  1.00  0.00     0.070 A 
HETATM    5  C7  UNL     1     -22.429  -1.020  -6.954  1.00  0.00     0.044 A 
HETATM    6  C8  UNL     1     -22.542  -1.262  -5.593  1.00  0.00    -0.052 A 
HETATM    7  C9  UNL     1     -23.379  -2.401  -5.165  1.00  0.00     0.049 C 
HETATM    8  C10 UNL     1     -21.891  -0.458  -4.660  1.00  0.00    -0.042 A 
ENDROOT
BRANCH   8   9
HETATM    9  C11 UNL     1     -21.973  -0.689  -3.224  1.00  0.00     0.078 C 
BRANCH   9  10
HETATM   10  C12 UNL     1     -22.941   0.149  -2.478  1.00  0.00    -0.053 A 
HETATM   11  C13 UNL     1     -24.081   0.638  -3.060  1.00  0.00     0.010 A 
HETATM   12  C14 UNL     1     -24.958   1.431  -2.336  1.00  0.00     0.037 A 
HETATM   13  C15 UNL     1     -24.732   1.758  -1.029  1.00  0.00     0.072 A 
HETATM   14  C16 UNL     1     -23.594   1.276  -0.426  1.00  0.00    -0.021 A 
HETATM   15  C20 UNL     1     -22.722   0.487  -1.151  1.00  0.00     0.017 A 
BRANCH  13  16
HETATM   16  O4  UNL     1     -25.614   2.562  -0.284  1.00  0.00    -0.360 OA
ATOM     17  H4  UNL     1     -25.435   2.827   0.611  1.00  0.00     0.217 HD
ENDBRANCH  13  16
BRANCH  14  18
HETATM   18  C17 UNL     1     -23.348   1.632   0.995  1.00  0.00     0.013 C 
HETATM   19  C18 UNL     1     -23.777   0.521   1.931  1.00  0.00     0.015 C 
HETATM   20  C19 UNL     1     -21.882   1.905   1.207  1.00  0.00     0.015 C 
ENDBRANCH  14  18
ENDBRANCH   9  10
ENDBRANCH   8   9
BRANCH   4  21
HETATM   21  O1  UNL     1     -21.630   0.177  -8.837  1.00  0.00    -0.341 OA
BRANCH  21  22
HETATM   22  C5  UNL     1     -22.576   0.985  -9.460  1.00  0.00     0.288 C 
BRANCH  22  23
HETATM   23  C6  UNL     1     -22.071   2.327  -9.846  1.00  0.00     0.198 C 
HETATM   24  O2  UNL     1     -21.156   2.942  -9.238  1.00  0.00    -0.646 OA
HETATM   25  O3  UNL     1     -22.636   2.960 -10.946  1.00  0.00    -0.646 OA
ENDBRANCH  22  23
ENDBRANCH  21  22
ENDBRANCH   4  21
TORSDOF 7
ENDMDL
