MODEL 6
REMARK VINA RESULT: -8.994558597      1.956      2.817
REMARK  8 active torsions:
REMARK  status: ('A' for Active; 'I' for Inactive)
REMARK    1  A    between atoms: C4_4  and  O1_5 
REMARK    2  A    between atoms: O1_5  and  C5_6 
REMARK    3  A    between atoms: C5_6  and  C6_7 
REMARK    4  A    between atoms: C10_13  and  C11_14 
REMARK    5  A    between atoms: C11_14  and  C12_15 
REMARK    6  A    between atoms: C15_18  and  O4_19 
REMARK    7  A    between atoms: C16_21  and  C17_22 
REMARK    8  A    between atoms: C17_22  and  C18_23 
ROOT
HETATM    1  C12 UNL     1      21.664   0.422 -27.151  1.00  0.00    -0.053 A 
HETATM    2  C13 UNL     1      20.562   1.219 -27.248  1.00  0.00     0.010 A 
HETATM    3  C14 UNL     1      19.981   1.842 -26.134  1.00  0.00     0.037 A 
HETATM    4  C15 UNL     1      20.516   1.668 -24.876  1.00  0.00     0.072 A 
HETATM    5  C16 UNL     1      21.626   0.869 -24.750  1.00  0.00    -0.020 A 
HETATM    6  C24 UNL     1      22.183   0.263 -25.864  1.00  0.00     0.017 A 
ENDROOT
BRANCH   1   7
HETATM    7  C11 UNL     1      22.304  -0.281 -28.259  1.00  0.00     0.078 C 
BRANCH   7   8
HETATM    8  C10 UNL     1      22.145   0.315 -29.592  1.00  0.00    -0.042 A 
HETATM    9  C2  UNL     1      22.911   1.386 -29.986  1.00  0.00    -0.052 A 
HETATM   10  C1  UNL     1      23.941   2.005 -29.121  1.00  0.00     0.049 C 
HETATM   11  C3  UNL     1      22.724   1.908 -31.260  1.00  0.00     0.044 A 
HETATM   12  C4  UNL     1      21.806   1.401 -32.150  1.00  0.00     0.070 A 
HETATM   13  C7  UNL     1      21.049   0.329 -31.741  1.00  0.00     0.044 A 
HETATM   14  C8  UNL     1      21.200  -0.226 -30.479  1.00  0.00    -0.052 A 
HETATM   15  C9  UNL     1      20.371  -1.410 -30.120  1.00  0.00     0.049 C 
BRANCH  12  16
HETATM   16  O1  UNL     1      21.600   1.901 -33.415  1.00  0.00    -0.341 OA
BRANCH  16  17
HETATM   17  C5  UNL     1      22.487   1.847 -34.481  1.00  0.00     0.288 C 
BRANCH  17  18
HETATM   18  C6  UNL     1      23.089   0.527 -34.740  1.00  0.00     0.198 C 
HETATM   19  O2  UNL     1      22.465  -0.338 -35.389  1.00  0.00    -0.646 OA
HETATM   20  O3  UNL     1      24.351   0.253 -34.260  1.00  0.00    -0.646 OA
ENDBRANCH  17  18
ENDBRANCH  16  17
ENDBRANCH  12  16
ENDBRANCH   7   8
ENDBRANCH   1   7
BRANCH   5  21
HETATM   21  C17 UNL     1      22.297   0.613 -23.431  1.00  0.00     0.080 C 
BRANCH  21  22
HETATM   22  C18 UNL     1      21.686  -0.495 -22.687  1.00  0.00    -0.054 A 
HETATM   23  C19 UNL     1      21.745  -1.811 -23.085  1.00  0.00     0.007 A 
HETATM   24  C20 UNL     1      21.145  -2.830 -22.351  1.00  0.00     0.001 A 
HETATM   25  C21 UNL     1      20.475  -2.514 -21.199  1.00  0.00     0.000 A 
HETATM   26  C22 UNL     1      20.407  -1.205 -20.789  1.00  0.00     0.001 A 
HETATM   27  C23 UNL     1      21.000  -0.210 -21.518  1.00  0.00     0.007 A 
ENDBRANCH  21  22
ENDBRANCH   5  21
BRANCH   4  28
HETATM   28  O4  UNL     1      19.968   2.268 -23.751  1.00  0.00    -0.360 OA
ATOM     29  H4  UNL     1      19.501   1.770 -23.090  1.00  0.00     0.217 HD
ENDBRANCH   4  28
TORSDOF 8
ENDMDL
