MODEL 16
REMARK VINA RESULT: -8.570217728      3.050      9.091
REMARK  8 active torsions:
REMARK  status: ('A' for Active; 'I' for Inactive)
REMARK    1  A    between atoms: C4_4  and  O1_5 
REMARK    2  A    between atoms: O1_5  and  C5_6 
REMARK    3  A    between atoms: C5_6  and  C6_7 
REMARK    4  A    between atoms: C10_13  and  C11_14 
REMARK    5  A    between atoms: C11_14  and  C12_15 
REMARK    6  A    between atoms: C15_18  and  O4_19 
REMARK    7  A    between atoms: C16_21  and  C17_22 
REMARK    8  A    between atoms: C17_22  and  C18_23 
ROOT
HETATM    1  C12 UNL     1      20.671   0.019 -28.654  1.00  0.00    -0.053 A 
HETATM    2  C13 UNL     1      19.381  -0.410 -28.553  1.00  0.00     0.010 A 
HETATM    3  C14 UNL     1      18.751  -1.151 -29.563  1.00  0.00     0.037 A 
HETATM    4  C15 UNL     1      19.427  -1.478 -30.718  1.00  0.00     0.072 A 
HETATM    5  C16 UNL     1      20.728  -1.058 -30.846  1.00  0.00    -0.020 A 
HETATM    6  C24 UNL     1      21.332  -0.327 -29.836  1.00  0.00     0.017 A 
ENDROOT
BRANCH   1   7
HETATM    7  C11 UNL     1      21.382   0.816 -27.660  1.00  0.00     0.078 C 
BRANCH   7   8
HETATM    8  C10 UNL     1      21.022   0.584 -26.254  1.00  0.00    -0.042 A 
HETATM    9  C2  UNL     1      20.167   1.431 -25.593  1.00  0.00    -0.052 A 
HETATM   10  C1  UNL     1      19.546   2.615 -26.232  1.00  0.00     0.049 C 
HETATM   11  C3  UNL     1      19.854   1.163 -24.266  1.00  0.00     0.044 A 
HETATM   12  C4  UNL     1      20.362   0.085 -23.581  1.00  0.00     0.070 A 
HETATM   13  C7  UNL     1      21.215  -0.754 -24.257  1.00  0.00     0.044 A 
HETATM   14  C8  UNL     1      21.556  -0.528 -25.582  1.00  0.00    -0.052 A 
HETATM   15  C9  UNL     1      22.456  -1.501 -26.261  1.00  0.00     0.049 C 
BRANCH  12  16
HETATM   16  O1  UNL     1      20.071  -0.202 -22.267  1.00  0.00    -0.341 OA
BRANCH  16  17
HETATM   17  C5  UNL     1      20.873  -0.900 -21.374  1.00  0.00     0.288 C 
BRANCH  17  18
HETATM   18  C6  UNL     1      20.586  -2.341 -21.257  1.00  0.00     0.198 C 
HETATM   19  O2  UNL     1      19.573  -2.738 -20.645  1.00  0.00    -0.646 OA
HETATM   20  O3  UNL     1      21.447  -3.251 -21.830  1.00  0.00    -0.646 OA
ENDBRANCH  17  18
ENDBRANCH  16  17
ENDBRANCH  12  16
ENDBRANCH   7   8
ENDBRANCH   1   7
BRANCH   5  21
HETATM   21  C17 UNL     1      21.564  -1.362 -32.057  1.00  0.00     0.080 C 
BRANCH  21  22
HETATM   22  C18 UNL     1      21.830  -0.173 -32.878  1.00  0.00    -0.054 A 
HETATM   23  C19 UNL     1      22.818  -0.107 -33.832  1.00  0.00     0.007 A 
HETATM   24  C20 UNL     1      23.039   1.044 -34.584  1.00  0.00     0.001 A 
HETATM   25  C21 UNL     1      22.250   2.142 -34.367  1.00  0.00     0.000 A 
HETATM   26  C22 UNL     1      21.260   2.090 -33.417  1.00  0.00     0.001 A 
HETATM   27  C23 UNL     1      21.050   0.954 -32.683  1.00  0.00     0.007 A 
ENDBRANCH  21  22
ENDBRANCH   5  21
BRANCH   4  28
HETATM   28  O4  UNL     1      18.835  -2.208 -31.739  1.00  0.00    -0.360 OA
ATOM     29  H4  UNL     1      19.083  -3.105 -31.929  1.00  0.00     0.217 HD
ENDBRANCH   4  28
TORSDOF 8
ENDMDL
