MODEL 15
REMARK VINA RESULT: -8.580102702      2.317      8.498
REMARK  8 active torsions:
REMARK  status: ('A' for Active; 'I' for Inactive)
REMARK    1  A    between atoms: C4_4  and  O1_5 
REMARK    2  A    between atoms: O1_5  and  C5_6 
REMARK    3  A    between atoms: C5_6  and  C6_7 
REMARK    4  A    between atoms: C10_13  and  C11_14 
REMARK    5  A    between atoms: C11_14  and  C12_15 
REMARK    6  A    between atoms: C15_18  and  O4_19 
REMARK    7  A    between atoms: C16_21  and  C17_22 
REMARK    8  A    between atoms: C17_22  and  C18_23 
ROOT
HETATM    1  C12 UNL     1      21.960  -0.336 -29.040  1.00  0.00    -0.053 A 
HETATM    2  C13 UNL     1      21.209  -0.130 -30.159  1.00  0.00     0.010 A 
HETATM    3  C14 UNL     1      21.567   0.798 -31.147  1.00  0.00     0.037 A 
HETATM    4  C15 UNL     1      22.715   1.549 -31.021  1.00  0.00     0.072 A 
HETATM    5  C16 UNL     1      23.491   1.361 -29.903  1.00  0.00    -0.020 A 
HETATM    6  C24 UNL     1      23.118   0.439 -28.938  1.00  0.00     0.017 A 
ENDROOT
BRANCH   1   7
HETATM    7  C11 UNL     1      21.637  -1.261 -27.958  1.00  0.00     0.078 C 
BRANCH   7   8
HETATM    8  C10 UNL     1      21.925  -0.799 -26.593  1.00  0.00    -0.042 A 
HETATM    9  C2  UNL     1      21.343   0.340 -26.092  1.00  0.00    -0.052 A 
HETATM   10  C1  UNL     1      20.392   1.170 -26.868  1.00  0.00     0.049 C 
HETATM   11  C3  UNL     1      21.645   0.729 -24.793  1.00  0.00     0.044 A 
HETATM   12  C4  UNL     1      22.502   0.024 -23.981  1.00  0.00     0.070 A 
HETATM   13  C7  UNL     1      23.075  -1.114 -24.497  1.00  0.00     0.044 A 
HETATM   14  C8  UNL     1      22.804  -1.541 -25.788  1.00  0.00    -0.052 A 
HETATM   15  C9  UNL     1      23.433  -2.805 -26.265  1.00  0.00     0.049 C 
BRANCH  12  16
HETATM   16  O1  UNL     1      22.820   0.389 -22.694  1.00  0.00    -0.341 OA
BRANCH  16  17
HETATM   17  C5  UNL     1      21.952   0.903 -21.740  1.00  0.00     0.288 C 
BRANCH  17  18
HETATM   18  C6  UNL     1      22.115   2.338 -21.441  1.00  0.00     0.198 C 
HETATM   19  O2  UNL     1      21.267   3.167 -21.829  1.00  0.00    -0.646 OA
HETATM   20  O3  UNL     1      23.215   2.758 -20.726  1.00  0.00    -0.646 OA
ENDBRANCH  17  18
ENDBRANCH  16  17
ENDBRANCH  12  16
ENDBRANCH   7   8
ENDBRANCH   1   7
BRANCH   5  21
HETATM   21  C17 UNL     1      24.765   2.117 -29.662  1.00  0.00     0.080 C 
BRANCH  21  22
HETATM   22  C18 UNL     1      25.826   1.764 -30.615  1.00  0.00    -0.054 A 
HETATM   23  C19 UNL     1      26.050   2.434 -31.795  1.00  0.00     0.007 A 
HETATM   24  C20 UNL     1      27.064   2.060 -32.673  1.00  0.00     0.001 A 
HETATM   25  C21 UNL     1      27.862   0.994 -32.352  1.00  0.00     0.000 A 
HETATM   26  C22 UNL     1      27.650   0.316 -31.177  1.00  0.00     0.001 A 
HETATM   27  C23 UNL     1      26.650   0.691 -30.320  1.00  0.00     0.007 A 
ENDBRANCH  21  22
ENDBRANCH   5  21
BRANCH   4  28
HETATM   28  O4  UNL     1      23.100   2.477 -31.978  1.00  0.00    -0.360 OA
ATOM     29  H4  UNL     1      22.606   2.612 -32.778  1.00  0.00     0.217 HD
ENDBRANCH   4  28
TORSDOF 8
ENDMDL
