MODEL 7
REMARK VINA RESULT: -8.989641894      1.952      3.236
REMARK  8 active torsions:
REMARK  status: ('A' for Active; 'I' for Inactive)
REMARK    1  A    between atoms: C4_4  and  O1_5 
REMARK    2  A    between atoms: O1_5  and  C5_6 
REMARK    3  A    between atoms: C5_6  and  C6_7 
REMARK    4  A    between atoms: C10_13  and  C11_14 
REMARK    5  A    between atoms: C11_14  and  C12_15 
REMARK    6  A    between atoms: C15_18  and  O4_19 
REMARK    7  A    between atoms: C16_21  and  C17_22 
REMARK    8  A    between atoms: C17_22  and  C18_23 
ROOT
HETATM    1  C12 UNL     1      21.672   0.365 -27.133  1.00  0.00    -0.053 A 
HETATM    2  C13 UNL     1      20.570   1.162 -27.242  1.00  0.00     0.010 A 
HETATM    3  C14 UNL     1      19.979   1.789 -26.136  1.00  0.00     0.037 A 
HETATM    4  C15 UNL     1      20.502   1.620 -24.872  1.00  0.00     0.072 A 
HETATM    5  C16 UNL     1      21.612   0.822 -24.733  1.00  0.00    -0.020 A 
HETATM    6  C24 UNL     1      22.179   0.212 -25.840  1.00  0.00     0.017 A 
ENDROOT
BRANCH   1   7
HETATM    7  C11 UNL     1      22.322  -0.341 -28.231  1.00  0.00     0.078 C 
BRANCH   7   8
HETATM    8  C10 UNL     1      22.115   0.209 -29.578  1.00  0.00    -0.042 A 
HETATM    9  C2  UNL     1      21.198  -0.345 -30.438  1.00  0.00    -0.052 A 
HETATM   10  C1  UNL     1      20.357  -1.511 -30.080  1.00  0.00     0.049 C 
HETATM   11  C3  UNL     1      21.038   0.217 -31.698  1.00  0.00     0.044 A 
HETATM   12  C4  UNL     1      21.757   1.308 -32.127  1.00  0.00     0.070 A 
HETATM   13  C7  UNL     1      22.669   1.852 -31.255  1.00  0.00     0.044 A 
HETATM   14  C8  UNL     1      22.864   1.325 -29.987  1.00  0.00    -0.052 A 
HETATM   15  C9  UNL     1      23.843   1.991 -29.083  1.00  0.00     0.049 C 
BRANCH  12  16
HETATM   16  O1  UNL     1      21.620   1.882 -33.370  1.00  0.00    -0.341 OA
BRANCH  16  17
HETATM   17  C5  UNL     1      22.529   1.817 -34.417  1.00  0.00     0.288 C 
BRANCH  17  18
HETATM   18  C6  UNL     1      23.089   0.481 -34.689  1.00  0.00     0.198 C 
HETATM   19  O2  UNL     1      22.421  -0.372 -35.308  1.00  0.00    -0.646 OA
HETATM   20  O3  UNL     1      24.361   0.180 -34.255  1.00  0.00    -0.646 OA
ENDBRANCH  17  18
ENDBRANCH  16  17
ENDBRANCH  12  16
ENDBRANCH   7   8
ENDBRANCH   1   7
BRANCH   5  21
HETATM   21  C17 UNL     1      22.271   0.571 -23.407  1.00  0.00     0.080 C 
BRANCH  21  22
HETATM   22  C18 UNL     1      21.651  -0.533 -22.663  1.00  0.00    -0.054 A 
HETATM   23  C19 UNL     1      21.725  -1.852 -23.047  1.00  0.00     0.007 A 
HETATM   24  C20 UNL     1      21.116  -2.867 -22.314  1.00  0.00     0.001 A 
HETATM   25  C21 UNL     1      20.423  -2.543 -21.178  1.00  0.00     0.000 A 
HETATM   26  C22 UNL     1      20.340  -1.231 -20.783  1.00  0.00     0.001 A 
HETATM   27  C23 UNL     1      20.943  -0.240 -21.510  1.00  0.00     0.007 A 
ENDBRANCH  21  22
ENDBRANCH   5  21
BRANCH   4  28
HETATM   28  O4  UNL     1      19.943   2.224 -23.755  1.00  0.00    -0.360 OA
ATOM     29  H4  UNL     1      19.904   3.167 -23.657  1.00  0.00     0.217 HD
ENDBRANCH   4  28
TORSDOF 8
ENDMDL
