MODEL 11
REMARK VINA RESULT: -8.921194739      2.508      3.425
REMARK  8 active torsions:
REMARK  status: ('A' for Active; 'I' for Inactive)
REMARK    1  A    between atoms: C4_4  and  O1_5 
REMARK    2  A    between atoms: O1_5  and  C5_6 
REMARK    3  A    between atoms: C5_6  and  C6_7 
REMARK    4  A    between atoms: C10_13  and  C11_14 
REMARK    5  A    between atoms: C11_14  and  C12_15 
REMARK    6  A    between atoms: C15_18  and  O4_19 
REMARK    7  A    between atoms: C16_21  and  C17_22 
REMARK    8  A    between atoms: C17_22  and  C18_23 
ROOT
HETATM    1  C12 UNL     1      21.666   0.393 -27.170  1.00  0.00    -0.053 A 
HETATM    2  C13 UNL     1      20.571   1.200 -27.264  1.00  0.00     0.010 A 
HETATM    3  C14 UNL     1      20.001   1.830 -26.149  1.00  0.00     0.037 A 
HETATM    4  C15 UNL     1      20.539   1.654 -24.893  1.00  0.00     0.072 A 
HETATM    5  C16 UNL     1      21.643   0.846 -24.770  1.00  0.00    -0.020 A 
HETATM    6  C24 UNL     1      22.190   0.232 -25.885  1.00  0.00     0.017 A 
ENDROOT
BRANCH   1   7
HETATM    7  C11 UNL     1      22.296  -0.317 -28.279  1.00  0.00     0.078 C 
BRANCH   7   8
HETATM    8  C10 UNL     1      21.706  -0.110 -29.609  1.00  0.00    -0.042 A 
HETATM    9  C2  UNL     1      22.092   0.945 -30.400  1.00  0.00    -0.052 A 
HETATM   10  C1  UNL     1      23.117   1.931 -29.987  1.00  0.00     0.049 C 
HETATM   11  C3  UNL     1      21.507   1.091 -31.651  1.00  0.00     0.044 A 
HETATM   12  C4  UNL     1      20.556   0.226 -32.139  1.00  0.00     0.070 A 
HETATM   13  C7  UNL     1      20.182  -0.826 -31.336  1.00  0.00     0.044 A 
HETATM   14  C8  UNL     1      20.738  -1.013 -30.080  1.00  0.00    -0.052 A 
HETATM   15  C9  UNL     1      20.311  -2.196 -29.282  1.00  0.00     0.049 C 
BRANCH  12  16
HETATM   16  O1  UNL     1      19.959   0.350 -33.372  1.00  0.00    -0.341 OA
BRANCH  16  17
HETATM   17  C5  UNL     1      19.709  -0.672 -34.277  1.00  0.00     0.288 C 
BRANCH  17  18
HETATM   18  C6  UNL     1      20.901  -1.259 -34.918  1.00  0.00     0.198 C 
HETATM   19  O2  UNL     1      20.994  -2.493 -35.075  1.00  0.00    -0.646 OA
HETATM   20  O3  UNL     1      21.915  -0.430 -35.345  1.00  0.00    -0.646 OA
ENDBRANCH  17  18
ENDBRANCH  16  17
ENDBRANCH  12  16
ENDBRANCH   7   8
ENDBRANCH   1   7
BRANCH   5  21
HETATM   21  C17 UNL     1      22.317   0.587 -23.453  1.00  0.00     0.080 C 
BRANCH  21  22
HETATM   22  C18 UNL     1      21.698  -0.514 -22.703  1.00  0.00    -0.054 A 
HETATM   23  C19 UNL     1      21.725  -1.828 -23.109  1.00  0.00     0.007 A 
HETATM   24  C20 UNL     1      21.118  -2.839 -22.370  1.00  0.00     0.001 A 
HETATM   25  C21 UNL     1      20.476  -2.516 -21.203  1.00  0.00     0.000 A 
HETATM   26  C22 UNL     1      20.441  -1.209 -20.786  1.00  0.00     0.001 A 
HETATM   27  C23 UNL     1      21.041  -0.222 -21.520  1.00  0.00     0.007 A 
ENDBRANCH  21  22
ENDBRANCH   5  21
BRANCH   4  28
HETATM   28  O4  UNL     1      20.001   2.261 -23.766  1.00  0.00    -0.360 OA
ATOM     29  H4  UNL     1      20.545   2.660 -23.099  1.00  0.00     0.217 HD
ENDBRANCH   4  28
TORSDOF 8
ENDMDL
