MODEL 10
REMARK VINA RESULT: -8.930724692      2.509      3.733
REMARK  8 active torsions:
REMARK  status: ('A' for Active; 'I' for Inactive)
REMARK    1  A    between atoms: C4_4  and  O1_5 
REMARK    2  A    between atoms: O1_5  and  C5_6 
REMARK    3  A    between atoms: C5_6  and  C6_7 
REMARK    4  A    between atoms: C10_13  and  C11_14 
REMARK    5  A    between atoms: C11_14  and  C12_15 
REMARK    6  A    between atoms: C15_18  and  O4_19 
REMARK    7  A    between atoms: C16_21  and  C17_22 
REMARK    8  A    between atoms: C17_22  and  C18_23 
ROOT
HETATM    1  C12 UNL     1      21.639   0.332 -27.188  1.00  0.00    -0.053 A 
HETATM    2  C13 UNL     1      20.554   1.153 -27.284  1.00  0.00     0.010 A 
HETATM    3  C14 UNL     1      20.003   1.807 -26.172  1.00  0.00     0.037 A 
HETATM    4  C15 UNL     1      20.549   1.640 -24.919  1.00  0.00     0.072 A 
HETATM    5  C16 UNL     1      21.643   0.818 -24.794  1.00  0.00    -0.020 A 
HETATM    6  C24 UNL     1      22.171   0.182 -25.905  1.00  0.00     0.017 A 
ENDROOT
BRANCH   1   7
HETATM    7  C11 UNL     1      22.248  -0.402 -28.293  1.00  0.00     0.078 C 
BRANCH   7   8
HETATM    8  C10 UNL     1      21.642  -0.215 -29.618  1.00  0.00    -0.042 A 
HETATM    9  C2  UNL     1      20.674  -1.072 -30.082  1.00  0.00    -0.052 A 
HETATM   10  C1  UNL     1      20.168  -2.222 -29.297  1.00  0.00     0.049 C 
HETATM   11  C3  UNL     1      20.129  -0.847 -31.340  1.00  0.00     0.044 A 
HETATM   12  C4  UNL     1      20.515   0.198 -32.146  1.00  0.00     0.070 A 
HETATM   13  C7  UNL     1      21.484   1.047 -31.667  1.00  0.00     0.044 A 
HETATM   14  C8  UNL     1      22.056   0.863 -30.417  1.00  0.00    -0.052 A 
HETATM   15  C9  UNL     1      23.073   1.846 -29.949  1.00  0.00     0.049 C 
BRANCH  12  16
HETATM   16  O1  UNL     1      19.994   0.441 -33.396  1.00  0.00    -0.341 OA
BRANCH  16  17
HETATM   17  C5  UNL     1      19.762  -0.496 -34.393  1.00  0.00     0.288 C 
BRANCH  17  18
HETATM   18  C6  UNL     1      20.958  -1.194 -34.900  1.00  0.00     0.198 C 
HETATM   19  O2  UNL     1      21.033  -2.438 -34.855  1.00  0.00    -0.646 OA
HETATM   20  O3  UNL     1      21.997  -0.458 -35.427  1.00  0.00    -0.646 OA
ENDBRANCH  17  18
ENDBRANCH  16  17
ENDBRANCH  12  16
ENDBRANCH   7   8
ENDBRANCH   1   7
BRANCH   5  21
HETATM   21  C17 UNL     1      22.325   0.567 -23.480  1.00  0.00     0.080 C 
BRANCH  21  22
HETATM   22  C18 UNL     1      21.704  -0.522 -22.715  1.00  0.00    -0.054 A 
HETATM   23  C19 UNL     1      21.750  -1.845 -23.089  1.00  0.00     0.007 A 
HETATM   24  C20 UNL     1      21.141  -2.844 -22.337  1.00  0.00     0.001 A 
HETATM   25  C21 UNL     1      20.476  -2.501 -21.189  1.00  0.00     0.000 A 
HETATM   26  C22 UNL     1      20.421  -1.185 -20.803  1.00  0.00     0.001 A 
HETATM   27  C23 UNL     1      21.023  -0.209 -21.550  1.00  0.00     0.007 A 
ENDBRANCH  21  22
ENDBRANCH   5  21
BRANCH   4  28
HETATM   28  O4  UNL     1      20.030   2.270 -23.796  1.00  0.00    -0.360 OA
ATOM     29  H4  UNL     1      19.594   3.112 -23.846  1.00  0.00     0.217 HD
ENDBRANCH   4  28
TORSDOF 8
ENDMDL
