MODEL 14
REMARK VINA RESULT: -8.596984532      3.404     10.286
REMARK  8 active torsions:
REMARK  status: ('A' for Active; 'I' for Inactive)
REMARK    1  A    between atoms: C4_4  and  O1_5 
REMARK    2  A    between atoms: O1_5  and  C5_6 
REMARK    3  A    between atoms: C5_6  and  C6_7 
REMARK    4  A    between atoms: C10_13  and  C11_14 
REMARK    5  A    between atoms: C11_14  and  C12_15 
REMARK    6  A    between atoms: C15_18  and  O4_19 
REMARK    7  A    between atoms: C16_21  and  C17_22 
REMARK    8  A    between atoms: C17_22  and  C18_23 
ROOT
HETATM    1  C12 UNL     1      21.973   0.453 -24.640  1.00  0.00    -0.053 A 
HETATM    2  C13 UNL     1      20.875   1.262 -24.666  1.00  0.00     0.010 A 
HETATM    3  C14 UNL     1      20.105   1.453 -25.822  1.00  0.00     0.037 A 
HETATM    4  C15 UNL     1      20.437   0.816 -26.998  1.00  0.00     0.072 A 
HETATM    5  C16 UNL     1      21.538  -0.004 -27.000  1.00  0.00    -0.020 A 
HETATM    6  C24 UNL     1      22.285  -0.178 -25.847  1.00  0.00     0.017 A 
ENDROOT
BRANCH   1   7
HETATM    7  C11 UNL     1      22.837   0.229 -23.486  1.00  0.00     0.078 C 
BRANCH   7   8
HETATM    8  C10 UNL     1      22.169   0.092 -22.184  1.00  0.00    -0.042 A 
HETATM    9  C2  UNL     1      21.586  -1.094 -21.809  1.00  0.00    -0.052 A 
HETATM   10  C1  UNL     1      21.591  -2.304 -22.663  1.00  0.00     0.049 C 
HETATM   11  C3  UNL     1      20.972  -1.172 -20.564  1.00  0.00     0.044 A 
HETATM   12  C4  UNL     1      20.922  -0.114 -19.687  1.00  0.00     0.070 A 
HETATM   13  C7  UNL     1      21.512   1.064 -20.078  1.00  0.00     0.044 A 
HETATM   14  C8  UNL     1      22.136   1.190 -21.309  1.00  0.00    -0.052 A 
HETATM   15  C9  UNL     1      22.786   2.487 -21.648  1.00  0.00     0.049 C 
BRANCH  12  16
HETATM   16  O1  UNL     1      20.318  -0.164 -18.452  1.00  0.00    -0.341 OA
BRANCH  16  17
HETATM   17  C5  UNL     1      19.292  -1.015 -18.066  1.00  0.00     0.288 C 
BRANCH  17  18
HETATM   18  C6  UNL     1      18.622  -0.668 -16.799  1.00  0.00     0.198 C 
HETATM   19  O2  UNL     1      19.087   0.223 -16.060  1.00  0.00    -0.646 OA
HETATM   20  O3  UNL     1      17.473  -1.336 -16.437  1.00  0.00    -0.646 OA
ENDBRANCH  17  18
ENDBRANCH  16  17
ENDBRANCH  12  16
ENDBRANCH   7   8
ENDBRANCH   1   7
BRANCH   5  21
HETATM   21  C17 UNL     1      21.990  -0.754 -28.221  1.00  0.00     0.080 C 
BRANCH  21  22
HETATM   22  C18 UNL     1      22.677   0.104 -29.195  1.00  0.00    -0.054 A 
HETATM   23  C19 UNL     1      23.838   0.791 -28.927  1.00  0.00     0.007 A 
HETATM   24  C20 UNL     1      24.451   1.600 -29.878  1.00  0.00     0.001 A 
HETATM   25  C21 UNL     1      23.883   1.716 -31.119  1.00  0.00     0.000 A 
HETATM   26  C22 UNL     1      22.723   1.036 -31.401  1.00  0.00     0.001 A 
HETATM   27  C23 UNL     1      22.128   0.244 -30.459  1.00  0.00     0.007 A 
ENDBRANCH  21  22
ENDBRANCH   5  21
BRANCH   4  28
HETATM   28  O4  UNL     1      19.699   0.982 -28.161  1.00  0.00    -0.360 OA
ATOM     29  H4  UNL     1      19.219   1.781 -28.346  1.00  0.00     0.217 HD
ENDBRANCH   4  28
TORSDOF 8
ENDMDL
