MODEL 3
REMARK VINA RESULT: -7.894578486      2.212      8.154
REMARK  7 active torsions:
REMARK  status: ('A' for Active; 'I' for Inactive)
REMARK    1  A    between atoms: C4_4  and  O1_5 
REMARK    2  A    between atoms: O1_5  and  C5_6 
REMARK    3  A    between atoms: C5_6  and  C6_7 
REMARK    4  A    between atoms: C10_13  and  C11_14 
REMARK    5  A    between atoms: C11_14  and  C12_15 
REMARK    6  A    between atoms: C15_18  and  O4_19 
REMARK    7  A    between atoms: C16_21  and  C17_22 
ROOT
HETATM    1  C1  UNL     1      -0.984   1.167  -1.054  1.00  0.00     0.049 C 
HETATM    2  C2  UNL     1      -0.034   0.041  -1.103  1.00  0.00    -0.052 A 
HETATM    3  C3  UNL     1       0.649  -0.224   0.084  1.00  0.00     0.044 A 
HETATM    4  C4  UNL     1       1.562  -1.235   0.143  1.00  0.00     0.070 A 
HETATM    5  C7  UNL     1       1.773  -1.964  -0.993  1.00  0.00     0.044 A 
HETATM    6  C8  UNL     1       1.094  -1.701  -2.174  1.00  0.00    -0.052 A 
HETATM    7  C9  UNL     1       1.400  -2.546  -3.346  1.00  0.00     0.049 C 
HETATM    8  C10 UNL     1       0.157  -0.673  -2.254  1.00  0.00    -0.042 A 
ENDROOT
BRANCH   8   9
HETATM    9  C11 UNL     1      -0.587  -0.375  -3.470  1.00  0.00     0.078 C 
BRANCH   9  10
HETATM   10  C12 UNL     1       0.134   0.395  -4.510  1.00  0.00    -0.053 A 
HETATM   11  C13 UNL     1       0.865   1.515  -4.211  1.00  0.00     0.010 A 
HETATM   12  C14 UNL     1       1.516   2.219  -5.211  1.00  0.00     0.037 A 
HETATM   13  C15 UNL     1       1.461   1.839  -6.522  1.00  0.00     0.072 A 
HETATM   14  C16 UNL     1       0.734   0.717  -6.843  1.00  0.00    -0.021 A 
HETATM   15  C20 UNL     1       0.086   0.017  -5.844  1.00  0.00     0.017 A 
BRANCH  13  16
HETATM   16  O4  UNL     1       2.117   2.547  -7.546  1.00  0.00    -0.360 OA
ATOM     17  H4  UNL     1       2.681   2.123  -8.183  1.00  0.00     0.217 HD
ENDBRANCH  13  16
BRANCH  14  18
HETATM   18  C17 UNL     1       0.674   0.304  -8.269  1.00  0.00     0.013 C 
HETATM   19  C18 UNL     1       1.700  -0.765  -8.584  1.00  0.00     0.015 C 
HETATM   20  C19 UNL     1      -0.697  -0.232  -8.588  1.00  0.00     0.015 C 
ENDBRANCH  14  18
ENDBRANCH   9  10
ENDBRANCH   8   9
BRANCH   4  21
HETATM   21  O1  UNL     1       2.298  -1.574   1.285  1.00  0.00    -0.341 OA
BRANCH  21  22
HETATM   22  C5  UNL     1       3.688  -1.533   1.234  1.00  0.00     0.288 C 
BRANCH  22  23
HETATM   23  C6  UNL     1       4.335  -2.869   1.196  1.00  0.00     0.198 C 
HETATM   24  O2  UNL     1       3.995  -3.842   1.919  1.00  0.00    -0.646 OA
HETATM   25  O3  UNL     1       5.386  -3.075   0.311  1.00  0.00    -0.646 OA
ENDBRANCH  22  23
ENDBRANCH  21  22
ENDBRANCH   4  21
TORSDOF 7
ENDMDL
