MODEL 7
REMARK VINA RESULT: -7.857024097      4.595      8.302
REMARK  7 active torsions:
REMARK  status: ('A' for Active; 'I' for Inactive)
REMARK    1  A    between atoms: C4_4  and  O1_5 
REMARK    2  A    between atoms: O1_5  and  C5_6 
REMARK    3  A    between atoms: C5_6  and  C6_7 
REMARK    4  A    between atoms: C10_13  and  C11_14 
REMARK    5  A    between atoms: C11_14  and  C12_15 
REMARK    6  A    between atoms: C15_18  and  O4_19 
REMARK    7  A    between atoms: C16_21  and  C17_22 
ROOT
HETATM    1  C1  UNL     1       0.412  -0.164  -0.968  1.00  0.00     0.049 C 
HETATM    2  C2  UNL     1      -0.824   0.616  -1.155  1.00  0.00    -0.052 A 
HETATM    3  C3  UNL     1      -1.635   0.741  -0.028  1.00  0.00     0.044 A 
HETATM    4  C4  UNL     1      -2.810   1.430  -0.097  1.00  0.00     0.070 A 
HETATM    5  C7  UNL     1      -3.150   1.983  -1.299  1.00  0.00     0.044 A 
HETATM    6  C8  UNL     1      -2.344   1.859  -2.421  1.00  0.00    -0.052 A 
HETATM    7  C9  UNL     1      -2.805   2.491  -3.673  1.00  0.00     0.049 C 
HETATM    8  C10 UNL     1      -1.139   1.159  -2.370  1.00  0.00    -0.042 A 
ENDROOT
BRANCH   8   9
HETATM    9  C11 UNL     1      -0.259   1.019  -3.522  1.00  0.00     0.078 C 
BRANCH   9  10
HETATM   10  C12 UNL     1      -0.672   0.036  -4.550  1.00  0.00    -0.053 A 
HETATM   11  C13 UNL     1      -1.210  -1.180  -4.221  1.00  0.00     0.010 A 
HETATM   12  C14 UNL     1      -1.573  -2.082  -5.208  1.00  0.00     0.037 A 
HETATM   13  C15 UNL     1      -1.416  -1.807  -6.537  1.00  0.00     0.072 A 
HETATM   14  C16 UNL     1      -0.879  -0.591  -6.890  1.00  0.00    -0.021 A 
HETATM   15  C20 UNL     1      -0.518   0.306  -5.902  1.00  0.00     0.017 A 
BRANCH  13  16
HETATM   16  O4  UNL     1      -1.780  -2.714  -7.549  1.00  0.00    -0.360 OA
ATOM     17  H4  UNL     1      -2.664  -2.772  -7.893  1.00  0.00     0.217 HD
ENDBRANCH  13  16
BRANCH  14  18
HETATM   18  C17 UNL     1      -0.708  -0.291  -8.335  1.00  0.00     0.013 C 
HETATM   19  C18 UNL     1      -1.821   0.592  -8.858  1.00  0.00     0.015 C 
HETATM   20  C19 UNL     1       0.609   0.405  -8.559  1.00  0.00     0.015 C 
ENDBRANCH  14  18
ENDBRANCH   9  10
ENDBRANCH   8   9
BRANCH   4  21
HETATM   21  O1  UNL     1      -3.690   1.607   0.978  1.00  0.00    -0.341 OA
BRANCH  21  22
HETATM   22  C5  UNL     1      -4.834   2.378   0.800  1.00  0.00     0.288 C 
BRANCH  22  23
HETATM   23  C6  UNL     1      -6.093   1.593   0.734  1.00  0.00     0.198 C 
HETATM   24  O2  UNL     1      -6.181   0.433   0.252  1.00  0.00    -0.646 OA
HETATM   25  O3  UNL     1      -7.259   2.160   1.232  1.00  0.00    -0.646 OA
ENDBRANCH  22  23
ENDBRANCH  21  22
ENDBRANCH   4  21
TORSDOF 7
ENDMDL
