MODEL 5
REMARK VINA RESULT: -7.877002298      2.224      8.108
REMARK  7 active torsions:
REMARK  status: ('A' for Active; 'I' for Inactive)
REMARK    1  A    between atoms: C4_4  and  O1_5 
REMARK    2  A    between atoms: O1_5  and  C5_6 
REMARK    3  A    between atoms: C5_6  and  C6_7 
REMARK    4  A    between atoms: C10_13  and  C11_14 
REMARK    5  A    between atoms: C11_14  and  C12_15 
REMARK    6  A    between atoms: C15_18  and  O4_19 
REMARK    7  A    between atoms: C16_21  and  C17_22 
ROOT
HETATM    1  C1  UNL     1       1.188  -2.644  -3.362  1.00  0.00     0.049 C 
HETATM    2  C2  UNL     1       0.976  -1.759  -2.202  1.00  0.00    -0.052 A 
HETATM    3  C3  UNL     1       1.706  -2.079  -1.058  1.00  0.00     0.044 A 
HETATM    4  C4  UNL     1       1.572  -1.332   0.076  1.00  0.00     0.070 A 
HETATM    5  C7  UNL     1       0.706  -0.277   0.040  1.00  0.00     0.044 A 
HETATM    6  C8  UNL     1      -0.021   0.041  -1.098  1.00  0.00    -0.052 A 
HETATM    7  C9  UNL     1      -0.933   1.200  -1.030  1.00  0.00     0.049 C 
HETATM    8  C10 UNL     1       0.103  -0.709  -2.267  1.00  0.00    -0.042 A 
ENDROOT
BRANCH   8   9
HETATM    9  C11 UNL     1      -0.631  -0.398  -3.486  1.00  0.00     0.078 C 
BRANCH   9  10
HETATM   10  C12 UNL     1       0.101   0.377  -4.514  1.00  0.00    -0.053 A 
HETATM   11  C13 UNL     1       0.859   1.474  -4.198  1.00  0.00     0.010 A 
HETATM   12  C14 UNL     1       1.520   2.184  -5.187  1.00  0.00     0.037 A 
HETATM   13  C15 UNL     1       1.449   1.832  -6.505  1.00  0.00     0.072 A 
HETATM   14  C16 UNL     1       0.694   0.734  -6.845  1.00  0.00    -0.021 A 
HETATM   15  C20 UNL     1       0.036   0.028  -5.855  1.00  0.00     0.017 A 
BRANCH  13  16
HETATM   16  O4  UNL     1       2.114   2.545  -7.519  1.00  0.00    -0.360 OA
ATOM     17  H4  UNL     1       2.664   2.122  -8.168  1.00  0.00     0.217 HD
ENDBRANCH  13  16
BRANCH  14  18
HETATM   18  C17 UNL     1       0.616   0.351  -8.278  1.00  0.00     0.013 C 
HETATM   19  C18 UNL     1       1.595  -0.755  -8.614  1.00  0.00     0.015 C 
HETATM   20  C19 UNL     1      -0.778  -0.119  -8.605  1.00  0.00     0.015 C 
ENDBRANCH  14  18
ENDBRANCH   9  10
ENDBRANCH   8   9
BRANCH   4  21
HETATM   21  O1  UNL     1       2.258  -1.576   1.272  1.00  0.00    -0.341 OA
BRANCH  21  22
HETATM   22  C5  UNL     1       3.203  -2.596   1.317  1.00  0.00     0.288 C 
BRANCH  22  23
HETATM   23  C6  UNL     1       4.577  -2.171   0.945  1.00  0.00     0.198 C 
HETATM   24  O2  UNL     1       5.005  -0.991   1.046  1.00  0.00    -0.646 OA
HETATM   25  O3  UNL     1       5.459  -3.123   0.452  1.00  0.00    -0.646 OA
ENDBRANCH  22  23
ENDBRANCH  21  22
ENDBRANCH   4  21
TORSDOF 7
ENDMDL
