MODEL 1
REMARK VINA RESULT: -7.915846788      0.000      0.000
REMARK  7 active torsions:
REMARK  status: ('A' for Active; 'I' for Inactive)
REMARK    1  A    between atoms: C4_4  and  O1_5 
REMARK    2  A    between atoms: O1_5  and  C5_6 
REMARK    3  A    between atoms: C5_6  and  C6_7 
REMARK    4  A    between atoms: C10_13  and  C11_14 
REMARK    5  A    between atoms: C11_14  and  C12_15 
REMARK    6  A    between atoms: C15_18  and  O4_19 
REMARK    7  A    between atoms: C16_21  and  C17_22 
ROOT
HETATM    1  C1  UNL     1       1.443   1.942  -5.562  1.00  0.00     0.049 C 
HETATM    2  C2  UNL     1       0.616   0.764  -5.879  1.00  0.00    -0.052 A 
HETATM    3  C3  UNL     1       0.554   0.416  -7.228  1.00  0.00     0.044 A 
HETATM    4  C4  UNL     1      -0.195  -0.650  -7.631  1.00  0.00     0.070 A 
HETATM    5  C7  UNL     1      -0.870  -1.348  -6.671  1.00  0.00     0.044 A 
HETATM    6  C8  UNL     1      -0.809  -1.002  -5.329  1.00  0.00    -0.052 A 
HETATM    7  C9  UNL     1      -1.580  -1.821  -4.372  1.00  0.00     0.049 C 
HETATM    8  C10 UNL     1      -0.048   0.083  -4.897  1.00  0.00    -0.042 A 
ENDROOT
BRANCH   8   9
HETATM    9  C11 UNL     1       0.053   0.468  -3.496  1.00  0.00     0.078 C 
BRANCH   9  10
HETATM   10  C12 UNL     1       1.015  -0.300  -2.671  1.00  0.00    -0.053 A 
HETATM   11  C13 UNL     1       2.131  -0.884  -3.208  1.00  0.00     0.010 A 
HETATM   12  C14 UNL     1       3.003  -1.607  -2.410  1.00  0.00     0.037 A 
HETATM   13  C15 UNL     1       2.795  -1.770  -1.070  1.00  0.00     0.072 A 
HETATM   14  C16 UNL     1       1.681  -1.190  -0.509  1.00  0.00    -0.021 A 
HETATM   15  C20 UNL     1       0.814  -0.470  -1.309  1.00  0.00     0.017 A 
BRANCH  13  16
HETATM   16  O4  UNL     1       3.672  -2.502  -0.248  1.00  0.00    -0.360 OA
ATOM     17  H4  UNL     1       4.216  -2.093   0.415  1.00  0.00     0.217 HD
ENDBRANCH  13  16
BRANCH  14  18
HETATM   18  C17 UNL     1       1.454  -1.368   0.948  1.00  0.00     0.013 C 
HETATM   19  C18 UNL     1       1.661  -0.073   1.707  1.00  0.00     0.015 C 
HETATM   20  C19 UNL     1       0.049  -1.853   1.190  1.00  0.00     0.015 C 
ENDBRANCH  14  18
ENDBRANCH   9  10
ENDBRANCH   8   9
BRANCH   4  21
HETATM   21  O1  UNL     1      -0.322  -1.073  -8.960  1.00  0.00    -0.341 OA
BRANCH  21  22
HETATM   22  C5  UNL     1       0.553  -0.573  -9.919  1.00  0.00     0.288 C 
BRANCH  22  23
HETATM   23  C6  UNL     1      -0.099   0.261 -10.961  1.00  0.00     0.198 C 
HETATM   24  O2  UNL     1      -0.028   0.033 -12.197  1.00  0.00    -0.646 OA
HETATM   25  O3  UNL     1      -0.839   1.367 -10.563  1.00  0.00    -0.646 OA
ENDBRANCH  22  23
ENDBRANCH  21  22
ENDBRANCH   4  21
TORSDOF 7
ENDMDL
