MODEL 2
REMARK VINA RESULT: -7.915161578      2.673      3.806
REMARK  7 active torsions:
REMARK  status: ('A' for Active; 'I' for Inactive)
REMARK    1  A    between atoms: C4_4  and  O1_5 
REMARK    2  A    between atoms: O1_5  and  C5_6 
REMARK    3  A    between atoms: C5_6  and  C6_7 
REMARK    4  A    between atoms: C10_13  and  C11_14 
REMARK    5  A    between atoms: C11_14  and  C12_15 
REMARK    6  A    between atoms: C15_18  and  O4_19 
REMARK    7  A    between atoms: C16_21  and  C17_22 
ROOT
HETATM    1  C1  UNL     1      -1.554  -1.997  -5.498  1.00  0.00     0.049 C 
HETATM    2  C2  UNL     1      -0.701  -0.839  -5.819  1.00  0.00    -0.052 A 
HETATM    3  C3  UNL     1      -0.630  -0.499  -7.170  1.00  0.00     0.044 A 
HETATM    4  C4  UNL     1       0.144   0.548  -7.577  1.00  0.00     0.070 A 
HETATM    5  C7  UNL     1       0.834   1.235  -6.619  1.00  0.00     0.044 A 
HETATM    6  C8  UNL     1       0.763   0.897  -5.276  1.00  0.00    -0.052 A 
HETATM    7  C9  UNL     1       1.552   1.702  -4.321  1.00  0.00     0.049 C 
HETATM    8  C10 UNL     1      -0.022  -0.169  -4.839  1.00  0.00    -0.042 A 
ENDROOT
BRANCH   8   9
HETATM    9  C11 UNL     1      -0.134  -0.545  -3.437  1.00  0.00     0.078 C 
BRANCH   9  10
HETATM   10  C12 UNL     1      -1.075   0.251  -2.615  1.00  0.00    -0.053 A 
HETATM   11  C13 UNL     1      -2.192   0.837  -3.150  1.00  0.00     0.010 A 
HETATM   12  C14 UNL     1      -3.044   1.587  -2.354  1.00  0.00     0.037 A 
HETATM   13  C15 UNL     1      -2.816   1.775  -1.021  1.00  0.00     0.072 A 
HETATM   14  C16 UNL     1      -1.701   1.194  -0.464  1.00  0.00    -0.021 A 
HETATM   15  C20 UNL     1      -0.853   0.447  -1.260  1.00  0.00     0.017 A 
BRANCH  13  16
HETATM   16  O4  UNL     1      -3.672   2.535  -0.203  1.00  0.00    -0.360 OA
ATOM     17  H4  UNL     1      -3.656   2.483   0.745  1.00  0.00     0.217 HD
ENDBRANCH  13  16
BRANCH  14  18
HETATM   18  C17 UNL     1      -1.452   1.399   0.986  1.00  0.00     0.013 C 
HETATM   19  C18 UNL     1      -1.630   0.115   1.770  1.00  0.00     0.015 C 
HETATM   20  C19 UNL     1      -0.049   1.905   1.197  1.00  0.00     0.015 C 
ENDBRANCH  14  18
ENDBRANCH   9  10
ENDBRANCH   8   9
BRANCH   4  21
HETATM   21  O1  UNL     1       0.281   0.963  -8.907  1.00  0.00    -0.341 OA
BRANCH  21  22
HETATM   22  C5  UNL     1      -0.582   0.451  -9.871  1.00  0.00     0.288 C 
BRANCH  22  23
HETATM   23  C6  UNL     1       0.097  -0.295 -10.962  1.00  0.00     0.198 C 
HETATM   24  O2  UNL     1      -0.014  -0.018 -12.185  1.00  0.00    -0.646 OA
HETATM   25  O3  UNL     1       0.910  -1.370 -10.627  1.00  0.00    -0.646 OA
ENDBRANCH  22  23
ENDBRANCH  21  22
ENDBRANCH   4  21
TORSDOF 7
ENDMDL
