MODEL 12
REMARK VINA RESULT: -8.445141705      2.132      2.850
REMARK  8 active torsions:
REMARK  status: ('A' for Active; 'I' for Inactive)
REMARK    1  A    between atoms: C4_4  and  O1_5 
REMARK    2  A    between atoms: O1_5  and  C5_6 
REMARK    3  A    between atoms: C5_6  and  C6_7 
REMARK    4  A    between atoms: C10_13  and  C11_14 
REMARK    5  A    between atoms: C11_14  and  C12_15 
REMARK    6  A    between atoms: C15_18  and  O4_19 
REMARK    7  A    between atoms: C16_21  and  C17_22 
REMARK    8  A    between atoms: C17_22  and  C18_23 
ROOT
HETATM    1  C12 UNL     1      -0.218  -0.394   5.072  1.00  0.00    -0.053 A 
HETATM    2  C13 UNL     1       0.949  -1.094   4.994  1.00  0.00     0.010 A 
HETATM    3  C14 UNL     1       1.521  -1.734   6.103  1.00  0.00     0.037 A 
HETATM    4  C15 UNL     1       0.909  -1.679   7.336  1.00  0.00     0.072 A 
HETATM    5  C16 UNL     1      -0.269  -0.981   7.443  1.00  0.00    -0.020 A 
HETATM    6  C24 UNL     1      -0.815  -0.355   6.335  1.00  0.00     0.017 A 
ENDROOT
BRANCH   1   7
HETATM    7  C11 UNL     1      -0.856   0.320   3.971  1.00  0.00     0.078 C 
BRANCH   7   8
HETATM    8  C10 UNL     1      -0.707  -0.269   2.633  1.00  0.00    -0.042 A 
HETATM    9  C2  UNL     1      -1.447  -1.362   2.253  1.00  0.00    -0.052 A 
HETATM   10  C1  UNL     1      -2.440  -2.013   3.139  1.00  0.00     0.049 C 
HETATM   11  C3  UNL     1      -1.272  -1.877   0.975  1.00  0.00     0.044 A 
HETATM   12  C4  UNL     1      -0.388  -1.342   0.068  1.00  0.00     0.070 A 
HETATM   13  C7  UNL     1       0.345  -0.248   0.463  1.00  0.00     0.044 A 
HETATM   14  C8  UNL     1       0.203   0.301   1.728  1.00  0.00    -0.052 A 
HETATM   15  C9  UNL     1       1.003   1.510   2.072  1.00  0.00     0.049 C 
BRANCH  12  16
HETATM   16  O1  UNL     1      -0.193  -1.834  -1.202  1.00  0.00    -0.341 OA
BRANCH  16  17
HETATM   17  C5  UNL     1      -1.108  -1.818  -2.246  1.00  0.00     0.288 C 
BRANCH  17  18
HETATM   18  C6  UNL     1      -1.696  -0.502  -2.555  1.00  0.00     0.198 C 
HETATM   19  O2  UNL     1      -1.114   0.287  -3.327  1.00  0.00    -0.646 OA
HETATM   20  O3  UNL     1      -2.899  -0.148  -1.984  1.00  0.00    -0.646 OA
ENDBRANCH  17  18
ENDBRANCH  16  17
ENDBRANCH  12  16
ENDBRANCH   7   8
ENDBRANCH   1   7
BRANCH   5  21
HETATM   21  C17 UNL     1      -1.026  -0.858   8.734  1.00  0.00     0.080 C 
BRANCH  21  22
HETATM   22  C18 UNL     1      -0.551   0.252   9.570  1.00  0.00    -0.054 A 
HETATM   23  C19 UNL     1      -0.068   0.096  10.848  1.00  0.00     0.007 A 
HETATM   24  C20 UNL     1       0.366   1.178  11.608  1.00  0.00     0.001 A 
HETATM   25  C21 UNL     1       0.310   2.436  11.068  1.00  0.00     0.000 A 
HETATM   26  C22 UNL     1      -0.171   2.606   9.793  1.00  0.00     0.001 A 
HETATM   27  C23 UNL     1      -0.596   1.536   9.054  1.00  0.00     0.007 A 
ENDBRANCH  21  22
ENDBRANCH   5  21
BRANCH   4  28
HETATM   28  O4  UNL     1       1.446  -2.300   8.455  1.00  0.00    -0.360 OA
ATOM     29  H4  UNL     1       1.318  -1.959   9.333  1.00  0.00     0.217 HD
ENDBRANCH   4  28
TORSDOF 8
ENDMDL
