MODEL 7
REMARK VINA RESULT: -8.541626958      3.001      9.801
REMARK  8 active torsions:
REMARK  status: ('A' for Active; 'I' for Inactive)
REMARK    1  A    between atoms: C4_4  and  O1_5 
REMARK    2  A    between atoms: O1_5  and  C5_6 
REMARK    3  A    between atoms: C5_6  and  C6_7 
REMARK    4  A    between atoms: C10_13  and  C11_14 
REMARK    5  A    between atoms: C11_14  and  C12_15 
REMARK    6  A    between atoms: C15_18  and  O4_19 
REMARK    7  A    between atoms: C16_21  and  C17_22 
REMARK    8  A    between atoms: C17_22  and  C18_23 
ROOT
HETATM    1  C12 UNL     1       0.486   0.740   6.878  1.00  0.00    -0.053 A 
HETATM    2  C13 UNL     1      -0.771   1.264   6.812  1.00  0.00     0.010 A 
HETATM    3  C14 UNL     1      -1.562   1.186   5.657  1.00  0.00     0.037 A 
HETATM    4  C15 UNL     1      -1.087   0.563   4.523  1.00  0.00     0.072 A 
HETATM    5  C16 UNL     1       0.176   0.026   4.562  1.00  0.00    -0.020 A 
HETATM    6  C24 UNL     1       0.941   0.115   5.714  1.00  0.00     0.017 A 
ENDROOT
BRANCH   1   7
HETATM    7  C11 UNL     1       1.375   0.808   8.032  1.00  0.00     0.078 C 
BRANCH   7   8
HETATM    8  C10 UNL     1       0.807   0.395   9.323  1.00  0.00    -0.042 A 
HETATM    9  C2  UNL     1       0.383   1.325  10.241  1.00  0.00    -0.052 A 
HETATM   10  C1  UNL     1       0.454   2.786  10.004  1.00  0.00     0.049 C 
HETATM   11  C3  UNL     1      -0.152   0.881  11.444  1.00  0.00     0.044 A 
HETATM   12  C4  UNL     1      -0.278  -0.451  11.760  1.00  0.00     0.070 A 
HETATM   13  C7  UNL     1       0.150  -1.369  10.831  1.00  0.00     0.044 A 
HETATM   14  C8  UNL     1       0.690  -0.973   9.617  1.00  0.00    -0.052 A 
HETATM   15  C9  UNL     1       1.098  -2.025   8.643  1.00  0.00     0.049 C 
BRANCH  12  16
HETATM   16  O1  UNL     1      -0.801  -0.917  12.945  1.00  0.00    -0.341 OA
BRANCH  16  17
HETATM   17  C5  UNL     1      -1.086  -0.165  14.076  1.00  0.00     0.288 C 
BRANCH  17  18
HETATM   18  C6  UNL     1       0.026  -0.010  15.032  1.00  0.00     0.198 C 
HETATM   19  O2  UNL     1      -0.175  -0.109  16.259  1.00  0.00    -0.646 OA
HETATM   20  O3  UNL     1       1.294   0.246  14.558  1.00  0.00    -0.646 OA
ENDBRANCH  17  18
ENDBRANCH  16  17
ENDBRANCH  12  16
ENDBRANCH   7   8
ENDBRANCH   1   7
BRANCH   5  21
HETATM   21  C17 UNL     1       0.795  -0.682   3.390  1.00  0.00     0.080 C 
BRANCH  21  22
HETATM   22  C18 UNL     1       1.550   0.222   2.513  1.00  0.00    -0.054 A 
HETATM   23  C19 UNL     1       2.752   0.796   2.856  1.00  0.00     0.007 A 
HETATM   24  C20 UNL     1       3.430   1.654   1.995  1.00  0.00     0.001 A 
HETATM   25  C21 UNL     1       2.886   1.934   0.770  1.00  0.00     0.000 A 
HETATM   26  C22 UNL     1       1.687   1.368   0.414  1.00  0.00     0.001 A 
HETATM   27  C23 UNL     1       1.027   0.526   1.267  1.00  0.00     0.007 A 
ENDBRANCH  21  22
ENDBRANCH   5  21
BRANCH   4  28
HETATM   28  O4  UNL     1      -1.841   0.467   3.362  1.00  0.00    -0.360 OA
ATOM     29  H4  UNL     1      -2.105   1.233   2.867  1.00  0.00     0.217 HD
ENDBRANCH   4  28
TORSDOF 8
ENDMDL
