MODEL 5
REMARK VINA RESULT: -8.549438962      1.263      1.588
REMARK  8 active torsions:
REMARK  status: ('A' for Active; 'I' for Inactive)
REMARK    1  A    between atoms: C4_4  and  O1_5 
REMARK    2  A    between atoms: O1_5  and  C5_6 
REMARK    3  A    between atoms: C5_6  and  C6_7 
REMARK    4  A    between atoms: C10_13  and  C11_14 
REMARK    5  A    between atoms: C11_14  and  C12_15 
REMARK    6  A    between atoms: C15_18  and  O4_19 
REMARK    7  A    between atoms: C16_21  and  C17_22 
REMARK    8  A    between atoms: C17_22  and  C18_23 
ROOT
HETATM    1  C12 UNL     1      -0.235   0.009   5.401  1.00  0.00    -0.053 A 
HETATM    2  C13 UNL     1       0.925  -0.689   5.235  1.00  0.00     0.010 A 
HETATM    3  C14 UNL     1       1.439  -1.543   6.221  1.00  0.00     0.037 A 
HETATM    4  C15 UNL     1       0.775  -1.713   7.416  1.00  0.00     0.072 A 
HETATM    5  C16 UNL     1      -0.396  -1.022   7.609  1.00  0.00    -0.020 A 
HETATM    6  C24 UNL     1      -0.885  -0.182   6.623  1.00  0.00     0.017 A 
ENDROOT
BRANCH   1   7
HETATM    7  C11 UNL     1      -0.814   0.936   4.434  1.00  0.00     0.078 C 
BRANCH   7   8
HETATM    8  C10 UNL     1      -0.595   0.625   3.015  1.00  0.00    -0.042 A 
HETATM    9  C2  UNL     1      -1.380  -0.293   2.361  1.00  0.00    -0.052 A 
HETATM   10  C1  UNL     1      -2.491  -1.020   3.018  1.00  0.00     0.049 C 
HETATM   11  C3  UNL     1      -1.134  -0.546   1.017  1.00  0.00     0.044 A 
HETATM   12  C4  UNL     1      -0.139   0.082   0.307  1.00  0.00     0.070 A 
HETATM   13  C7  UNL     1       0.637   1.000   0.976  1.00  0.00     0.044 A 
HETATM   14  C8  UNL     1       0.429   1.285   2.316  1.00  0.00    -0.052 A 
HETATM   15  C9  UNL     1       1.284   2.319   2.964  1.00  0.00     0.049 C 
BRANCH  12  16
HETATM   16  O1  UNL     1       0.127  -0.152  -1.022  1.00  0.00    -0.341 OA
BRANCH  16  17
HETATM   17  C5  UNL     1       0.699   0.738  -1.921  1.00  0.00     0.288 C 
BRANCH  17  18
HETATM   18  C6  UNL     1       2.014   0.342  -2.457  1.00  0.00     0.198 C 
HETATM   19  O2  UNL     1       2.991   0.198  -1.694  1.00  0.00    -0.646 OA
HETATM   20  O3  UNL     1       2.158   0.132  -3.810  1.00  0.00    -0.646 OA
ENDBRANCH  17  18
ENDBRANCH  16  17
ENDBRANCH  12  16
ENDBRANCH   7   8
ENDBRANCH   1   7
BRANCH   5  21
HETATM   21  C17 UNL     1      -1.207  -1.134   8.869  1.00  0.00     0.080 C 
BRANCH  21  22
HETATM   22  C18 UNL     1      -0.649  -0.349   9.977  1.00  0.00    -0.054 A 
HETATM   23  C19 UNL     1      -0.354   0.991   9.894  1.00  0.00     0.007 A 
HETATM   24  C20 UNL     1       0.182   1.696  10.969  1.00  0.00     0.001 A 
HETATM   25  C21 UNL     1       0.421   1.034  12.144  1.00  0.00     0.000 A 
HETATM   26  C22 UNL     1       0.131  -0.305  12.242  1.00  0.00     0.001 A 
HETATM   27  C23 UNL     1      -0.394  -0.988  11.179  1.00  0.00     0.007 A 
ENDBRANCH  21  22
ENDBRANCH   5  21
BRANCH   4  28
HETATM   28  O4  UNL     1       1.254  -2.550   8.415  1.00  0.00    -0.360 OA
ATOM     29  H4  UNL     1       1.896  -3.228   8.241  1.00  0.00     0.217 HD
ENDBRANCH   4  28
TORSDOF 8
ENDMDL
