MODEL 14
REMARK VINA RESULT: -8.400526611      2.923      9.712
REMARK  8 active torsions:
REMARK  status: ('A' for Active; 'I' for Inactive)
REMARK    1  A    between atoms: C4_4  and  O1_5 
REMARK    2  A    between atoms: O1_5  and  C5_6 
REMARK    3  A    between atoms: C5_6  and  C6_7 
REMARK    4  A    between atoms: C10_13  and  C11_14 
REMARK    5  A    between atoms: C11_14  and  C12_15 
REMARK    6  A    between atoms: C15_18  and  O4_19 
REMARK    7  A    between atoms: C16_21  and  C17_22 
REMARK    8  A    between atoms: C17_22  and  C18_23 
ROOT
HETATM    1  C12 UNL     1      -0.492  -0.741   7.163  1.00  0.00    -0.053 A 
HETATM    2  C13 UNL     1       0.726  -1.349   7.073  1.00  0.00     0.010 A 
HETATM    3  C14 UNL     1       1.505  -1.309   5.908  1.00  0.00     0.037 A 
HETATM    4  C15 UNL     1       1.060  -0.639   4.790  1.00  0.00     0.072 A 
HETATM    5  C16 UNL     1      -0.164  -0.018   4.853  1.00  0.00    -0.020 A 
HETATM    6  C24 UNL     1      -0.918  -0.071   6.014  1.00  0.00     0.017 A 
ENDROOT
BRANCH   1   7
HETATM    7  C11 UNL     1      -1.369  -0.765   8.329  1.00  0.00     0.078 C 
BRANCH   7   8
HETATM    8  C10 UNL     1      -0.778  -0.334   9.603  1.00  0.00    -0.042 A 
HETATM    9  C2  UNL     1      -0.391  -1.250  10.551  1.00  0.00    -0.052 A 
HETATM   10  C1  UNL     1      -0.528  -2.713  10.364  1.00  0.00     0.049 C 
HETATM   11  C3  UNL     1       0.168  -0.790  11.737  1.00  0.00     0.044 A 
HETATM   12  C4  UNL     1       0.354   0.546  12.007  1.00  0.00     0.070 A 
HETATM   13  C7  UNL     1      -0.037   1.449  11.048  1.00  0.00     0.044 A 
HETATM   14  C8  UNL     1      -0.599   1.037   9.849  1.00  0.00    -0.052 A 
HETATM   15  C9  UNL     1      -0.964   2.072   8.842  1.00  0.00     0.049 C 
BRANCH  12  16
HETATM   16  O1  UNL     1       0.901   1.028  13.174  1.00  0.00    -0.341 OA
BRANCH  16  17
HETATM   17  C5  UNL     1       1.766   0.351  14.024  1.00  0.00     0.288 C 
BRANCH  17  18
HETATM   18  C6  UNL     1       1.252   0.099  15.382  1.00  0.00     0.198 C 
HETATM   19  O2  UNL     1       0.025   0.033  15.594  1.00  0.00    -0.646 OA
HETATM   20  O3  UNL     1       2.142  -0.063  16.422  1.00  0.00    -0.646 OA
ENDBRANCH  17  18
ENDBRANCH  16  17
ENDBRANCH  12  16
ENDBRANCH   7   8
ENDBRANCH   1   7
BRANCH   5  21
HETATM   21  C17 UNL     1      -0.747   0.747   3.699  1.00  0.00     0.080 C 
BRANCH  21  22
HETATM   22  C18 UNL     1      -1.453  -0.116   2.743  1.00  0.00    -0.054 A 
HETATM   23  C19 UNL     1      -2.597  -0.818   3.044  1.00  0.00     0.007 A 
HETATM   24  C20 UNL     1      -3.230  -1.631   2.108  1.00  0.00     0.001 A 
HETATM   25  C21 UNL     1      -2.698  -1.735   0.850  1.00  0.00     0.000 A 
HETATM   26  C22 UNL     1      -1.557  -1.040   0.535  1.00  0.00     0.001 A 
HETATM   27  C23 UNL     1      -0.941  -0.244   1.463  1.00  0.00     0.007 A 
ENDBRANCH  21  22
ENDBRANCH   5  21
BRANCH   4  28
HETATM   28  O4  UNL     1       1.803  -0.579   3.619  1.00  0.00    -0.360 OA
ATOM     29  H4  UNL     1       2.268  -1.333   3.277  1.00  0.00     0.217 HD
ENDBRANCH   4  28
TORSDOF 8
ENDMDL
