MODEL 8
REMARK VINA RESULT: -8.530721650      2.207      2.934
REMARK  8 active torsions:
REMARK  status: ('A' for Active; 'I' for Inactive)
REMARK    1  A    between atoms: C4_4  and  O1_5 
REMARK    2  A    between atoms: O1_5  and  C5_6 
REMARK    3  A    between atoms: C5_6  and  C6_7 
REMARK    4  A    between atoms: C10_13  and  C11_14 
REMARK    5  A    between atoms: C11_14  and  C12_15 
REMARK    6  A    between atoms: C15_18  and  O4_19 
REMARK    7  A    between atoms: C16_21  and  C17_22 
REMARK    8  A    between atoms: C17_22  and  C18_23 
ROOT
HETATM    1  C12 UNL     1      -0.161  -0.455   5.140  1.00  0.00    -0.053 A 
HETATM    2  C13 UNL     1       0.985  -1.193   5.144  1.00  0.00     0.010 A 
HETATM    3  C14 UNL     1       1.486  -1.803   6.303  1.00  0.00     0.037 A 
HETATM    4  C15 UNL     1       0.822  -1.677   7.504  1.00  0.00     0.072 A 
HETATM    5  C16 UNL     1      -0.336  -0.939   7.528  1.00  0.00    -0.020 A 
HETATM    6  C24 UNL     1      -0.812  -0.344   6.372  1.00  0.00     0.017 A 
ENDROOT
BRANCH   1   7
HETATM    7  C11 UNL     1      -0.726   0.231   3.983  1.00  0.00     0.078 C 
BRANCH   7   8
HETATM    8  C10 UNL     1      -0.587  -0.447   2.686  1.00  0.00    -0.042 A 
HETATM    9  C2  UNL     1      -1.374  -1.524   2.361  1.00  0.00    -0.052 A 
HETATM   10  C1  UNL     1      -2.411  -2.070   3.267  1.00  0.00     0.049 C 
HETATM   11  C3  UNL     1      -1.206  -2.125   1.120  1.00  0.00     0.044 A 
HETATM   12  C4  UNL     1      -0.284  -1.690   0.197  1.00  0.00     0.070 A 
HETATM   13  C7  UNL     1       0.495  -0.610   0.537  1.00  0.00     0.044 A 
HETATM   14  C8  UNL     1       0.363   0.022   1.764  1.00  0.00    -0.052 A 
HETATM   15  C9  UNL     1       1.216   1.210   2.047  1.00  0.00     0.049 C 
BRANCH  12  16
HETATM   16  O1  UNL     1      -0.095  -2.268  -1.037  1.00  0.00    -0.341 OA
BRANCH  16  17
HETATM   17  C5  UNL     1      -0.561  -1.792  -2.255  1.00  0.00     0.288 C 
BRANCH  17  18
HETATM   18  C6  UNL     1      -2.002  -1.484  -2.306  1.00  0.00     0.198 C 
HETATM   19  O2  UNL     1      -2.830  -2.370  -2.601  1.00  0.00    -0.646 OA
HETATM   20  O3  UNL     1      -2.430  -0.205  -2.025  1.00  0.00    -0.646 OA
ENDBRANCH  17  18
ENDBRANCH  16  17
ENDBRANCH  12  16
ENDBRANCH   7   8
ENDBRANCH   1   7
BRANCH   5  21
HETATM   21  C17 UNL     1      -1.145  -0.739   8.777  1.00  0.00     0.080 C 
BRANCH  21  22
HETATM   22  C18 UNL     1      -0.642   0.359   9.613  1.00  0.00    -0.054 A 
HETATM   23  C19 UNL     1      -0.579   1.669   9.200  1.00  0.00     0.007 A 
HETATM   24  C20 UNL     1      -0.087   2.678  10.023  1.00  0.00     0.001 A 
HETATM   25  C21 UNL     1       0.347   2.357  11.282  1.00  0.00     0.000 A 
HETATM   26  C22 UNL     1       0.291   1.052  11.708  1.00  0.00     0.001 A 
HETATM   27  C23 UNL     1      -0.194   0.068  10.890  1.00  0.00     0.007 A 
ENDBRANCH  21  22
ENDBRANCH   5  21
BRANCH   4  28
HETATM   28  O4  UNL     1       1.289  -2.266   8.671  1.00  0.00    -0.360 OA
ATOM     29  H4  UNL     1       1.212  -3.199   8.832  1.00  0.00     0.217 HD
ENDBRANCH   4  28
TORSDOF 8
ENDMDL
