MODEL 13
REMARK VINA RESULT: -8.423518033      2.819      9.680
REMARK  8 active torsions:
REMARK  status: ('A' for Active; 'I' for Inactive)
REMARK    1  A    between atoms: C4_4  and  O1_5 
REMARK    2  A    between atoms: O1_5  and  C5_6 
REMARK    3  A    between atoms: C5_6  and  C6_7 
REMARK    4  A    between atoms: C10_13  and  C11_14 
REMARK    5  A    between atoms: C11_14  and  C12_15 
REMARK    6  A    between atoms: C15_18  and  O4_19 
REMARK    7  A    between atoms: C16_21  and  C17_22 
REMARK    8  A    between atoms: C17_22  and  C18_23 
ROOT
HETATM    1  C12 UNL     1      -0.494  -0.672   6.587  1.00  0.00    -0.053 A 
HETATM    2  C13 UNL     1       0.808  -1.076   6.555  1.00  0.00     0.010 A 
HETATM    3  C14 UNL     1       1.602  -0.971   5.404  1.00  0.00     0.037 A 
HETATM    4  C15 UNL     1       1.083  -0.445   4.240  1.00  0.00     0.072 A 
HETATM    5  C16 UNL     1      -0.226  -0.030   4.246  1.00  0.00    -0.020 A 
HETATM    6  C24 UNL     1      -0.992  -0.143   5.394  1.00  0.00     0.017 A 
ENDROOT
BRANCH   1   7
HETATM    7  C11 UNL     1      -1.387  -0.776   7.737  1.00  0.00     0.078 C 
BRANCH   7   8
HETATM    8  C10 UNL     1      -0.869  -0.276   9.017  1.00  0.00    -0.042 A 
HETATM    9  C2  UNL     1      -0.791   1.072   9.273  1.00  0.00    -0.052 A 
HETATM   10  C1  UNL     1      -1.223   2.105   8.303  1.00  0.00     0.049 C 
HETATM   11  C3  UNL     1      -0.298   1.492  10.502  1.00  0.00     0.044 A 
HETATM   12  C4  UNL     1       0.117   0.619  11.480  1.00  0.00     0.070 A 
HETATM   13  C7  UNL     1       0.031  -0.726  11.209  1.00  0.00     0.044 A 
HETATM   14  C8  UNL     1      -0.454  -1.193   9.997  1.00  0.00    -0.052 A 
HETATM   15  C9  UNL     1      -0.553  -2.665   9.790  1.00  0.00     0.049 C 
BRANCH  12  16
HETATM   16  O1  UNL     1       0.611   1.008  12.703  1.00  0.00    -0.341 OA
BRANCH  16  17
HETATM   17  C5  UNL     1       0.960   0.176  13.758  1.00  0.00     0.288 C 
BRANCH  17  18
HETATM   18  C6  UNL     1      -0.082  -0.023  14.782  1.00  0.00     0.198 C 
HETATM   19  O2  UNL     1      -1.263  -0.246  14.449  1.00  0.00    -0.646 OA
HETATM   20  O3  UNL     1       0.260   0.038  16.115  1.00  0.00    -0.646 OA
ENDBRANCH  17  18
ENDBRANCH  16  17
ENDBRANCH  12  16
ENDBRANCH   7   8
ENDBRANCH   1   7
BRANCH   5  21
HETATM   21  C17 UNL     1      -0.894   0.565   3.040  1.00  0.00     0.080 C 
BRANCH  21  22
HETATM   22  C18 UNL     1      -1.674  -0.419   2.277  1.00  0.00    -0.054 A 
HETATM   23  C19 UNL     1      -2.991  -0.719   2.535  1.00  0.00     0.007 A 
HETATM   24  C20 UNL     1      -3.690  -1.664   1.791  1.00  0.00     0.001 A 
HETATM   25  C21 UNL     1      -3.048  -2.316   0.771  1.00  0.00     0.000 A 
HETATM   26  C22 UNL     1      -1.733  -2.027   0.502  1.00  0.00     0.001 A 
HETATM   27  C23 UNL     1      -1.054  -1.095   1.240  1.00  0.00     0.007 A 
ENDBRANCH  21  22
ENDBRANCH   5  21
BRANCH   4  28
HETATM   28  O4  UNL     1       1.839  -0.327   3.082  1.00  0.00    -0.360 OA
ATOM     29  H4  UNL     1       1.931   0.498   2.620  1.00  0.00     0.217 HD
ENDBRANCH   4  28
TORSDOF 8
ENDMDL
