MODEL 15
REMARK VINA RESULT: -8.392621305      1.054      2.052
REMARK  8 active torsions:
REMARK  status: ('A' for Active; 'I' for Inactive)
REMARK    1  A    between atoms: C4_4  and  O1_5 
REMARK    2  A    between atoms: O1_5  and  C5_6 
REMARK    3  A    between atoms: C5_6  and  C6_7 
REMARK    4  A    between atoms: C10_13  and  C11_14 
REMARK    5  A    between atoms: C11_14  and  C12_15 
REMARK    6  A    between atoms: C15_18  and  O4_19 
REMARK    7  A    between atoms: C16_21  and  C17_22 
REMARK    8  A    between atoms: C17_22  and  C18_23 
ROOT
HETATM    1  C12 UNL     1      -0.229  -0.174   5.378  1.00  0.00    -0.053 A 
HETATM    2  C13 UNL     1       0.913  -0.917   5.336  1.00  0.00     0.010 A 
HETATM    3  C14 UNL     1       1.392  -1.628   6.446  1.00  0.00     0.037 A 
HETATM    4  C15 UNL     1       0.710  -1.602   7.643  1.00  0.00     0.072 A 
HETATM    5  C16 UNL     1      -0.445  -0.861   7.712  1.00  0.00    -0.020 A 
HETATM    6  C24 UNL     1      -0.899  -0.166   6.604  1.00  0.00     0.017 A 
ENDROOT
BRANCH   1   7
HETATM    7  C11 UNL     1      -0.772   0.613   4.276  1.00  0.00     0.078 C 
BRANCH   7   8
HETATM    8  C10 UNL     1      -0.286   0.279   2.930  1.00  0.00    -0.042 A 
HETATM    9  C2  UNL     1       0.707   1.015   2.331  1.00  0.00    -0.052 A 
HETATM   10  C1  UNL     1       1.361   2.173   2.984  1.00  0.00     0.049 C 
HETATM   11  C3  UNL     1       1.134   0.652   1.059  1.00  0.00     0.044 A 
HETATM   12  C4  UNL     1       0.606  -0.414   0.369  1.00  0.00     0.070 A 
HETATM   13  C7  UNL     1      -0.386  -1.141   0.983  1.00  0.00     0.044 A 
HETATM   14  C8  UNL     1      -0.843  -0.817   2.251  1.00  0.00    -0.052 A 
HETATM   15  C9  UNL     1      -1.895  -1.674   2.867  1.00  0.00     0.049 C 
BRANCH  12  16
HETATM   16  O1  UNL     1       1.008  -0.792  -0.891  1.00  0.00    -0.341 OA
BRANCH  16  17
HETATM   17  C5  UNL     1       1.146   0.034  -1.999  1.00  0.00     0.288 C 
BRANCH  17  18
HETATM   18  C6  UNL     1       2.530   0.257  -2.456  1.00  0.00     0.198 C 
HETATM   19  O2  UNL     1       3.410   0.632  -1.655  1.00  0.00    -0.646 OA
HETATM   20  O3  UNL     1       2.846   0.047  -3.780  1.00  0.00    -0.646 OA
ENDBRANCH  17  18
ENDBRANCH  16  17
ENDBRANCH  12  16
ENDBRANCH   7   8
ENDBRANCH   1   7
BRANCH   5  21
HETATM   21  C17 UNL     1      -1.273  -0.765   8.961  1.00  0.00     0.080 C 
BRANCH  21  22
HETATM   22  C18 UNL     1      -0.675   0.113   9.975  1.00  0.00    -0.054 A 
HETATM   23  C19 UNL     1      -0.411   1.448   9.775  1.00  0.00     0.007 A 
HETATM   24  C20 UNL     1       0.164   2.242  10.762  1.00  0.00     0.001 A 
HETATM   25  C21 UNL     1       0.477   1.677  11.971  1.00  0.00     0.000 A 
HETATM   26  C22 UNL     1       0.219   0.346  12.186  1.00  0.00     0.001 A 
HETATM   27  C23 UNL     1      -0.346  -0.427  11.208  1.00  0.00     0.007 A 
ENDBRANCH  21  22
ENDBRANCH   5  21
BRANCH   4  28
HETATM   28  O4  UNL     1       1.154  -2.293   8.761  1.00  0.00    -0.360 OA
ATOM     29  H4  UNL     1       2.074  -2.339   8.994  1.00  0.00     0.217 HD
ENDBRANCH   4  28
TORSDOF 8
ENDMDL
