MODEL 11
REMARK VINA RESULT: -8.457446537      2.089      3.018
REMARK  8 active torsions:
REMARK  status: ('A' for Active; 'I' for Inactive)
REMARK    1  A    between atoms: C4_4  and  O1_5 
REMARK    2  A    between atoms: O1_5  and  C5_6 
REMARK    3  A    between atoms: C5_6  and  C6_7 
REMARK    4  A    between atoms: C10_13  and  C11_14 
REMARK    5  A    between atoms: C11_14  and  C12_15 
REMARK    6  A    between atoms: C15_18  and  O4_19 
REMARK    7  A    between atoms: C16_21  and  C17_22 
REMARK    8  A    between atoms: C17_22  and  C18_23 
ROOT
HETATM    1  C12 UNL     1      -0.268  -0.311   5.116  1.00  0.00    -0.053 A 
HETATM    2  C13 UNL     1       0.895  -1.023   5.069  1.00  0.00     0.010 A 
HETATM    3  C14 UNL     1       1.439  -1.654   6.196  1.00  0.00     0.037 A 
HETATM    4  C15 UNL     1       0.806  -1.577   7.417  1.00  0.00     0.072 A 
HETATM    5  C16 UNL     1      -0.367  -0.866   7.493  1.00  0.00    -0.020 A 
HETATM    6  C24 UNL     1      -0.887  -0.250   6.367  1.00  0.00     0.017 A 
ENDROOT
BRANCH   1   7
HETATM    7  C11 UNL     1      -0.878   0.395   3.994  1.00  0.00     0.078 C 
BRANCH   7   8
HETATM    8  C10 UNL     1      -0.650  -0.175   2.659  1.00  0.00    -0.042 A 
HETATM    9  C2  UNL     1       0.283   0.364   1.808  1.00  0.00    -0.052 A 
HETATM   10  C1  UNL     1       1.123   1.532   2.164  1.00  0.00     0.049 C 
HETATM   11  C3  UNL     1       0.463  -0.217   0.558  1.00  0.00     0.044 A 
HETATM   12  C4  UNL     1      -0.252  -1.311   0.132  1.00  0.00     0.070 A 
HETATM   13  C7  UNL     1      -1.182  -1.839   0.996  1.00  0.00     0.044 A 
HETATM   14  C8  UNL     1      -1.396  -1.294   2.253  1.00  0.00    -0.052 A 
HETATM   15  C9  UNL     1      -2.393  -1.944   3.149  1.00  0.00     0.049 C 
BRANCH  12  16
HETATM   16  O1  UNL     1      -0.096  -1.903  -1.100  1.00  0.00    -0.341 OA
BRANCH  16  17
HETATM   17  C5  UNL     1      -0.979  -1.835  -2.169  1.00  0.00     0.288 C 
BRANCH  17  18
HETATM   18  C6  UNL     1      -1.507  -0.492  -2.473  1.00  0.00     0.198 C 
HETATM   19  O2  UNL     1      -0.831   0.320  -3.136  1.00  0.00    -0.646 OA
HETATM   20  O3  UNL     1      -2.758  -0.139  -2.017  1.00  0.00    -0.646 OA
ENDBRANCH  17  18
ENDBRANCH  16  17
ENDBRANCH  12  16
ENDBRANCH   7   8
ENDBRANCH   1   7
BRANCH   5  21
HETATM   21  C17 UNL     1      -1.147  -0.720   8.768  1.00  0.00     0.080 C 
BRANCH  21  22
HETATM   22  C18 UNL     1      -0.637   0.356   9.628  1.00  0.00    -0.054 A 
HETATM   23  C19 UNL     1      -0.541   1.671   9.235  1.00  0.00     0.007 A 
HETATM   24  C20 UNL     1      -0.045   2.658  10.081  1.00  0.00     0.001 A 
HETATM   25  C21 UNL     1       0.361   2.310  11.343  1.00  0.00     0.000 A 
HETATM   26  C22 UNL     1       0.272   1.001  11.748  1.00  0.00     0.001 A 
HETATM   27  C23 UNL     1      -0.218   0.038  10.909  1.00  0.00     0.007 A 
ENDBRANCH  21  22
ENDBRANCH   5  21
BRANCH   4  28
HETATM   28  O4  UNL     1       1.316  -2.188   8.554  1.00  0.00    -0.360 OA
ATOM     29  H4  UNL     1       0.760  -2.637   9.179  1.00  0.00     0.217 HD
ENDBRANCH   4  28
TORSDOF 8
ENDMDL
