MODEL 2
REMARK VINA RESULT: -6.189800408      1.416      2.885
REMARK  12 active torsions:
REMARK  status: ('A' for Active; 'I' for Inactive)
REMARK    1  A    between atoms: O1_1  and  C1_3 
REMARK    2  A    between atoms: C1_3  and  C2_4 
REMARK    3  A    between atoms: C3_6  and  O3_7 
REMARK    4  A    between atoms: O3_7  and  C4_8 
REMARK    5  A    between atoms: C5_9  and  C6_10 
REMARK    6  A    between atoms: C6_10  and  O4_11 
REMARK    7  A    between atoms: C7_14  and  O6_15 
REMARK    8  A    between atoms: C8_17  and  O7_18 
REMARK    9  A    between atoms: C9_20  and  O8_21 
REMARK   10  A    between atoms: C10_23  and  O9_24 
REMARK   11  A    between atoms: C11_26  and  O10_27 
REMARK   12  A    between atoms: C12_29  and  O11_30 
ROOT
HETATM    1  O3  UNL     1     -22.254 -19.923 -18.451  1.00  0.00    -0.348 OA
ENDROOT
BRANCH   1   2
HETATM    2  C3  UNL     1     -22.296 -21.231 -17.986  1.00  0.00     0.292 C 
HETATM    3  O2  UNL     1     -21.356 -21.352 -16.998  1.00  0.00    -0.348 OA
HETATM    4  C2  UNL     1     -21.804 -21.862 -15.805  1.00  0.00     0.179 C 
HETATM    5  C12 UNL     1     -22.549 -23.148 -16.101  1.00  0.00     0.180 C 
HETATM    6  C11 UNL     1     -23.889 -22.681 -16.675  1.00  0.00     0.183 C 
HETATM    7  C10 UNL     1     -23.700 -21.537 -17.598  1.00  0.00     0.204 C 
BRANCH   4   8
HETATM    8  C1  UNL     1     -20.594 -22.168 -14.932  1.00  0.00     0.198 C 
BRANCH   8   9
HETATM    9  O1  UNL     1     -21.003 -21.918 -13.609  1.00  0.00    -0.398 OA
ATOM     10  H1  UNL     1     -20.381 -22.374 -13.055  1.00  0.00     0.209 HD
ENDBRANCH   8   9
ENDBRANCH   4   8
BRANCH   5  11
HETATM   11  O11 UNL     1     -22.784 -23.873 -14.934  1.00  0.00    -0.390 OA
ATOM     12  H11 UNL     1     -22.879 -24.800 -15.119  1.00  0.00     0.210 HD
ENDBRANCH   5  11
BRANCH   6  13
HETATM   13  O10 UNL     1     -24.581 -23.742 -17.265  1.00  0.00    -0.390 OA
ATOM     14  H10 UNL     1     -24.694 -24.478 -16.676  1.00  0.00     0.210 HD
ENDBRANCH   6  13
BRANCH   7  15
HETATM   15  O9  UNL     1     -24.302 -20.390 -17.035  1.00  0.00    -0.388 OA
ATOM     16  H9  UNL     1     -24.496 -20.546 -16.119  1.00  0.00     0.210 HD
ENDBRANCH   7  15
ENDBRANCH   1   2
BRANCH   1  17
HETATM   17  C4  UNL     1     -21.909 -19.812 -19.805  1.00  0.00     0.187 C 
HETATM   18  C5  UNL     1     -20.446 -19.751 -20.020  1.00  0.00     0.180 C 
HETATM   19  O5  UNL     1     -19.891 -18.496 -19.998  1.00  0.00    -0.349 OA
HETATM   20  C7  UNL     1     -20.821 -17.482 -19.888  1.00  0.00     0.288 C 
HETATM   21  C8  UNL     1     -21.962 -17.589 -20.822  1.00  0.00     0.204 C 
HETATM   22  C9  UNL     1     -22.759 -18.811 -20.518  1.00  0.00     0.183 C 
BRANCH  18  23
HETATM   23  C6  UNL     1     -19.964 -20.542 -21.205  1.00  0.00     0.198 C 
BRANCH  23  24
HETATM   24  O4  UNL     1     -20.266 -19.998 -22.428  1.00  0.00    -0.398 OA
ATOM     25  H4  UNL     1     -20.954 -20.444 -22.908  1.00  0.00     0.209 HD
ENDBRANCH  23  24
ENDBRANCH  18  23
BRANCH  20  26
HETATM   26  O6  UNL     1     -21.301 -17.491 -18.582  1.00  0.00    -0.369 OA
ATOM     27  H6  UNL     1     -22.144 -17.054 -18.583  1.00  0.00     0.212 HD
ENDBRANCH  20  26
BRANCH  21  28
HETATM   28  O7  UNL     1     -22.736 -16.420 -20.740  1.00  0.00    -0.388 OA
ATOM     29  H7  UNL     1     -22.448 -15.808 -21.408  1.00  0.00     0.210 HD
ENDBRANCH  21  28
BRANCH  22  30
HETATM   30  O8  UNL     1     -23.276 -19.365 -21.704  1.00  0.00    -0.390 OA
ATOM     31  H8  UNL     1     -23.918 -18.780 -22.089  1.00  0.00     0.210 HD
ENDBRANCH  22  30
ENDBRANCH   1  17
TORSDOF 12
ENDMDL
