MODEL 3
REMARK VINA RESULT: -6.166642038      1.620      2.193
REMARK  12 active torsions:
REMARK  status: ('A' for Active; 'I' for Inactive)
REMARK    1  A    between atoms: O1_1  and  C1_3 
REMARK    2  A    between atoms: C1_3  and  C2_4 
REMARK    3  A    between atoms: C3_6  and  O3_7 
REMARK    4  A    between atoms: O3_7  and  C4_8 
REMARK    5  A    between atoms: C5_9  and  C6_10 
REMARK    6  A    between atoms: C6_10  and  O4_11 
REMARK    7  A    between atoms: C7_14  and  O6_15 
REMARK    8  A    between atoms: C8_17  and  O7_18 
REMARK    9  A    between atoms: C9_20  and  O8_21 
REMARK   10  A    between atoms: C10_23  and  O9_24 
REMARK   11  A    between atoms: C11_26  and  O10_27 
REMARK   12  A    between atoms: C12_29  and  O11_30 
ROOT
HETATM    1  O3  UNL     1     -20.710 -19.615 -18.083  1.00  0.00    -0.348 OA
ENDROOT
BRANCH   1   2
HETATM    2  C3  UNL     1     -21.549 -20.163 -17.122  1.00  0.00     0.292 C 
HETATM    3  O2  UNL     1     -22.654 -20.653 -17.764  1.00  0.00    -0.348 OA
HETATM    4  C2  UNL     1     -22.971 -21.962 -17.497  1.00  0.00     0.179 C 
HETATM    5  C12 UNL     1     -23.013 -22.131 -15.992  1.00  0.00     0.180 C 
HETATM    6  C11 UNL     1     -21.540 -22.156 -15.576  1.00  0.00     0.183 C 
HETATM    7  C10 UNL     1     -20.760 -21.146 -16.330  1.00  0.00     0.204 C 
BRANCH   4   8
HETATM    8  C1  UNL     1     -24.350 -22.249 -18.077  1.00  0.00     0.198 C 
BRANCH   8   9
HETATM    9  O1  UNL     1     -25.102 -21.077 -17.874  1.00  0.00    -0.398 OA
ATOM     10  H1  UNL     1     -25.138 -20.644 -18.719  1.00  0.00     0.209 HD
ENDBRANCH   8   9
ENDBRANCH   4   8
BRANCH   5  11
HETATM   11  O11 UNL     1     -23.604 -23.343 -15.638  1.00  0.00    -0.390 OA
ATOM     12  H11 UNL     1     -23.696 -23.418 -14.696  1.00  0.00     0.210 HD
ENDBRANCH   5  11
BRANCH   6  13
HETATM   13  O10 UNL     1     -21.406 -22.018 -14.192  1.00  0.00    -0.390 OA
ATOM     14  H10 UNL     1     -21.818 -21.229 -13.861  1.00  0.00     0.210 HD
ENDBRANCH   6  13
BRANCH   7  15
HETATM   15  O9  UNL     1     -19.842 -21.812 -17.171  1.00  0.00    -0.388 OA
ATOM     16  H9  UNL     1     -19.520 -22.595 -16.740  1.00  0.00     0.210 HD
ENDBRANCH   7  15
ENDBRANCH   1   2
BRANCH   1  17
HETATM   17  C4  UNL     1     -21.216 -18.452 -18.681  1.00  0.00     0.187 C 
HETATM   18  C5  UNL     1     -21.290 -18.552 -20.156  1.00  0.00     0.180 C 
HETATM   19  O5  UNL     1     -20.167 -18.156 -20.838  1.00  0.00    -0.349 OA
HETATM   20  C7  UNL     1     -19.188 -17.620 -20.027  1.00  0.00     0.288 C 
HETATM   21  C8  UNL     1     -19.669 -16.600 -19.073  1.00  0.00     0.204 C 
HETATM   22  C9  UNL     1     -20.613 -17.216 -18.097  1.00  0.00     0.183 C 
BRANCH  18  23
HETATM   23  C6  UNL     1     -22.534 -17.952 -20.753  1.00  0.00     0.198 C 
BRANCH  23  24
HETATM   24  O4  UNL     1     -22.634 -16.589 -20.637  1.00  0.00    -0.398 OA
ATOM     25  H4  UNL     1     -23.095 -16.284 -19.864  1.00  0.00     0.209 HD
ENDBRANCH  23  24
ENDBRANCH  18  23
BRANCH  20  26
HETATM   26  O6  UNL     1     -18.609 -18.668 -19.318  1.00  0.00    -0.369 OA
ATOM     27  H6  UNL     1     -17.779 -18.358 -18.975  1.00  0.00     0.212 HD
ENDBRANCH  20  26
BRANCH  21  28
HETATM   28  O7  UNL     1     -18.566 -16.006 -18.437  1.00  0.00    -0.388 OA
ATOM     29  H7  UNL     1     -18.654 -16.111 -17.496  1.00  0.00     0.210 HD
ENDBRANCH  21  28
BRANCH  22  30
HETATM   30  O8  UNL     1     -21.621 -16.299 -17.746  1.00  0.00    -0.390 OA
ATOM     31  H8  UNL     1     -21.332 -15.410 -17.917  1.00  0.00     0.210 HD
ENDBRANCH  22  30
ENDBRANCH   1  17
TORSDOF 12
ENDMDL
