MODEL 1
REMARK VINA RESULT: -6.283808406      0.000      0.000
REMARK  12 active torsions:
REMARK  status: ('A' for Active; 'I' for Inactive)
REMARK    1  A    between atoms: O1_1  and  C1_3 
REMARK    2  A    between atoms: C1_3  and  C2_4 
REMARK    3  A    between atoms: C3_6  and  O3_7 
REMARK    4  A    between atoms: O3_7  and  C4_8 
REMARK    5  A    between atoms: C5_9  and  C6_10 
REMARK    6  A    between atoms: C6_10  and  O4_11 
REMARK    7  A    between atoms: C7_14  and  O6_15 
REMARK    8  A    between atoms: C8_17  and  O7_18 
REMARK    9  A    between atoms: C9_20  and  O8_21 
REMARK   10  A    between atoms: C10_23  and  O9_24 
REMARK   11  A    between atoms: C11_26  and  O10_27 
REMARK   12  A    between atoms: C12_29  and  O11_30 
ROOT
HETATM    1  O3  UNL     1     -20.927 -19.961 -18.294  1.00  0.00    -0.348 OA
ENDROOT
BRANCH   1   2
HETATM    2  C3  UNL     1     -21.675 -20.423 -17.218  1.00  0.00     0.292 C 
HETATM    3  O2  UNL     1     -22.799 -21.022 -17.719  1.00  0.00    -0.348 OA
HETATM    4  C2  UNL     1     -23.042 -22.300 -17.282  1.00  0.00     0.179 C 
HETATM    5  C12 UNL     1     -22.975 -22.293 -15.768  1.00  0.00     0.180 C 
HETATM    6  C11 UNL     1     -21.478 -22.220 -15.460  1.00  0.00     0.183 C 
HETATM    7  C10 UNL     1     -20.793 -21.279 -16.378  1.00  0.00     0.204 C 
BRANCH   4   8
HETATM    8  C1  UNL     1     -24.444 -22.699 -17.725  1.00  0.00     0.198 C 
BRANCH   8   9
HETATM    9  O1  UNL     1     -25.003 -21.548 -18.310  1.00  0.00    -0.398 OA
ATOM     10  H1  UNL     1     -25.696 -21.270 -17.722  1.00  0.00     0.209 HD
ENDBRANCH   8   9
ENDBRANCH   4   8
BRANCH   5  11
HETATM   11  O11 UNL     1     -23.489 -23.476 -15.237  1.00  0.00    -0.390 OA
ATOM     12  H11 UNL     1     -22.813 -24.138 -15.156  1.00  0.00     0.210 HD
ENDBRANCH   5  11
BRANCH   6  13
HETATM   13  O10 UNL     1     -21.255 -21.917 -14.114  1.00  0.00    -0.390 OA
ATOM     14  H10 UNL     1     -21.793 -21.196 -13.808  1.00  0.00     0.210 HD
ENDBRANCH   6  13
BRANCH   7  15
HETATM   15  O9  UNL     1     -19.907 -22.006 -17.202  1.00  0.00    -0.388 OA
ATOM     16  H9  UNL     1     -19.424 -22.636 -16.679  1.00  0.00     0.210 HD
ENDBRANCH   7  15
ENDBRANCH   1   2
BRANCH   1  17
HETATM   17  C4  UNL     1     -21.598 -20.027 -19.523  1.00  0.00     0.187 C 
HETATM   18  C5  UNL     1     -21.032 -21.049 -20.431  1.00  0.00     0.180 C 
HETATM   19  O5  UNL     1     -20.019 -20.621 -21.252  1.00  0.00    -0.349 OA
HETATM   20  C7  UNL     1     -19.774 -19.265 -21.168  1.00  0.00     0.288 C 
HETATM   21  C8  UNL     1     -20.980 -18.415 -21.253  1.00  0.00     0.204 C 
HETATM   22  C9  UNL     1     -21.870 -18.670 -20.084  1.00  0.00     0.183 C 
BRANCH  18  23
HETATM   23  C6  UNL     1     -22.062 -21.834 -21.196  1.00  0.00     0.198 C 
BRANCH  23  24
HETATM   24  O4  UNL     1     -23.357 -21.642 -20.788  1.00  0.00    -0.398 OA
ATOM     25  H4  UNL     1     -24.019 -21.871 -21.430  1.00  0.00     0.209 HD
ENDBRANCH  23  24
ENDBRANCH  18  23
BRANCH  20  26
HETATM   26  O6  UNL     1     -19.136 -19.028 -19.955  1.00  0.00    -0.369 OA
ATOM     27  H6  UNL     1     -18.359 -19.573 -19.927  1.00  0.00     0.212 HD
ENDBRANCH  20  26
BRANCH  21  28
HETATM   28  O7  UNL     1     -20.591 -17.068 -21.337  1.00  0.00    -0.388 OA
ATOM     29  H7  UNL     1     -20.312 -16.770 -20.478  1.00  0.00     0.210 HD
ENDBRANCH  21  28
BRANCH  22  30
HETATM   30  O8  UNL     1     -23.220 -18.558 -20.464  1.00  0.00    -0.390 OA
ATOM     31  H8  UNL     1     -23.306 -18.641 -21.407  1.00  0.00     0.210 HD
ENDBRANCH  22  30
ENDBRANCH   1  17
TORSDOF 12
ENDMDL
