MODEL 11
REMARK VINA RESULT: -8.040357704      4.535     10.584
REMARK  17 active torsions:
REMARK  status: ('A' for Active; 'I' for Inactive)
REMARK    1  A    between atoms: C2_2  and  C3_3 
REMARK    2  A    between atoms: C3_3  and  C4_4 
REMARK    3  A    between atoms: C4_4  and  C5_5 
REMARK    4  A    between atoms: C5_5  and  C6_6 
REMARK    5  A    between atoms: C7_7  and  C8_8 
REMARK    6  A    between atoms: C8_8  and  C9_9 
REMARK    7  A    between atoms: C9_9  and  C10_10 
REMARK    8  A    between atoms: C11_11  and  C12_12 
REMARK    9  A    between atoms: C12_12  and  C13_13 
REMARK   10  A    between atoms: C13_13  and  C14_14 
REMARK   11  A    between atoms: C14_14  and  C15_15 
REMARK   12  A    between atoms: C15_15  and  C16_16 
REMARK   13  A    between atoms: C16_16  and  O1_17 
REMARK   14  A    between atoms: C16_16  and  C17_19 
REMARK   15  A    between atoms: C17_19  and  C18_20 
REMARK   16  A    between atoms: C18_20  and  C19_21 
REMARK   17  A    between atoms: C19_21  and  C20_22 
ROOT
HETATM    1  C12 UNL     1      -7.018   1.281  19.421  1.00  0.00     0.027 C 
ENDROOT
BRANCH   1   2
HETATM    2  C11 UNL     1      -7.919   1.227  18.235  1.00  0.00    -0.031 C 
HETATM    3  C10 UNL     1      -7.542   1.178  16.986  1.00  0.00    -0.030 C 
BRANCH   3   4
HETATM    4  C9  UNL     1      -8.335   1.126  15.766  1.00  0.00     0.030 C 
BRANCH   4   5
HETATM    5  C8  UNL     1      -9.334   2.188  15.515  1.00  0.00     0.030 C 
BRANCH   5   6
HETATM    6  C7  UNL     1     -10.633   1.606  15.127  1.00  0.00    -0.030 C 
HETATM    7  C6  UNL     1     -11.122   1.617  13.875  1.00  0.00    -0.031 C 
BRANCH   7   8
HETATM    8  C5  UNL     1     -10.480   2.191  12.695  1.00  0.00     0.027 C 
BRANCH   8   9
HETATM    9  C4  UNL     1      -9.762   1.119  11.862  1.00  0.00     0.004 C 
BRANCH   9  10
HETATM   10  C3  UNL     1     -10.288  -0.256  12.222  1.00  0.00    -0.000 C 
BRANCH  10  11
HETATM   11  C2  UNL     1      -9.203  -1.178  12.674  1.00  0.00    -0.005 C 
HETATM   12  C1  UNL     1      -9.490  -2.622  12.314  1.00  0.00     0.005 C 
ENDBRANCH  10  11
ENDBRANCH   9  10
ENDBRANCH   8   9
ENDBRANCH   7   8
ENDBRANCH   5   6
ENDBRANCH   4   5
ENDBRANCH   3   4
ENDBRANCH   1   2
BRANCH   1  13
HETATM   13  C13 UNL     1      -5.899   0.313  19.275  1.00  0.00     0.004 C 
BRANCH  13  14
HETATM   14  C14 UNL     1      -5.182   0.016  20.556  1.00  0.00     0.003 C 
BRANCH  14  15
HETATM   15  C15 UNL     1      -4.173  -1.064  20.519  1.00  0.00     0.032 C 
BRANCH  15  16
HETATM   16  C16 UNL     1      -4.585  -2.385  21.092  1.00  0.00     0.118 C 
BRANCH  16  17
HETATM   17  O1  UNL     1      -5.943  -2.544  21.001  1.00  0.00    -0.396 OA
ATOM     18  H1  UNL     1      -6.155  -3.413  20.679  1.00  0.00     0.210 HD
ENDBRANCH  16  17
BRANCH  16  19
HETATM   19  C17 UNL     1      -3.771  -3.531  20.541  1.00  0.00     0.032 C 
BRANCH  19  20
HETATM   20  C18 UNL     1      -3.554  -4.608  21.539  1.00  0.00     0.013 C 
BRANCH  20  21
HETATM   21  C19 UNL     1      -2.309  -4.444  22.360  1.00  0.00     0.113 C 
BRANCH  21  22
HETATM   22  C20 UNL     1      -1.336  -5.525  22.250  1.00  0.00     0.172 C 
HETATM   23  O2  UNL     1      -0.731  -5.705  21.167  1.00  0.00    -0.648 OA
HETATM   24  O3  UNL     1      -1.041  -6.373  23.299  1.00  0.00    -0.648 OA
ENDBRANCH  21  22
ENDBRANCH  20  21
ENDBRANCH  19  20
ENDBRANCH  16  19
ENDBRANCH  15  16
ENDBRANCH  14  15
ENDBRANCH  13  14
ENDBRANCH   1  13
TORSDOF 17
ENDMDL
