MODEL 16
REMARK VINA RESULT: -7.875119728      4.366     10.442
REMARK  17 active torsions:
REMARK  status: ('A' for Active; 'I' for Inactive)
REMARK    1  A    between atoms: C2_2  and  C3_3 
REMARK    2  A    between atoms: C3_3  and  C4_4 
REMARK    3  A    between atoms: C4_4  and  C5_5 
REMARK    4  A    between atoms: C5_5  and  C6_6 
REMARK    5  A    between atoms: C7_7  and  C8_8 
REMARK    6  A    between atoms: C8_8  and  C9_9 
REMARK    7  A    between atoms: C9_9  and  C10_10 
REMARK    8  A    between atoms: C11_11  and  C12_12 
REMARK    9  A    between atoms: C12_12  and  C13_13 
REMARK   10  A    between atoms: C13_13  and  C14_14 
REMARK   11  A    between atoms: C14_14  and  C15_15 
REMARK   12  A    between atoms: C15_15  and  C16_16 
REMARK   13  A    between atoms: C16_16  and  O1_17 
REMARK   14  A    between atoms: C16_16  and  C17_19 
REMARK   15  A    between atoms: C17_19  and  C18_20 
REMARK   16  A    between atoms: C18_20  and  C19_21 
REMARK   17  A    between atoms: C19_21  and  C20_22 
ROOT
HETATM    1  C12 UNL     1      -6.449   0.849  18.487  1.00  0.00     0.027 C 
ENDROOT
BRANCH   1   2
HETATM    2  C11 UNL     1      -7.564   1.170  17.553  1.00  0.00    -0.031 C 
HETATM    3  C10 UNL     1      -8.751   1.594  17.892  1.00  0.00    -0.030 C 
BRANCH   3   4
HETATM    4  C9  UNL     1      -9.901   1.931  17.064  1.00  0.00     0.030 C 
BRANCH   4   5
HETATM    5  C8  UNL     1      -9.842   1.661  15.611  1.00  0.00     0.030 C 
BRANCH   5   6
HETATM    6  C7  UNL     1      -9.433   2.869  14.869  1.00  0.00    -0.030 C 
HETATM    7  C6  UNL     1      -9.894   3.201  13.652  1.00  0.00    -0.031 C 
BRANCH   7   8
HETATM    8  C5  UNL     1     -10.861   2.451  12.854  1.00  0.00     0.027 C 
BRANCH   8   9
HETATM    9  C4  UNL     1     -10.168   1.496  11.872  1.00  0.00     0.004 C 
BRANCH   9  10
HETATM   10  C3  UNL     1      -9.993   0.133  12.512  1.00  0.00    -0.000 C 
BRANCH  10  11
HETATM   11  C2  UNL     1      -9.600  -0.913  11.519  1.00  0.00    -0.005 C 
HETATM   12  C1  UNL     1      -9.813  -2.317  12.050  1.00  0.00     0.005 C 
ENDBRANCH  10  11
ENDBRANCH   9  10
ENDBRANCH   8   9
ENDBRANCH   7   8
ENDBRANCH   5   6
ENDBRANCH   4   5
ENDBRANCH   3   4
ENDBRANCH   1   2
BRANCH   1  13
HETATM   13  C13 UNL     1      -6.858   1.085  19.896  1.00  0.00     0.004 C 
BRANCH  13  14
HETATM   14  C14 UNL     1      -6.009   0.372  20.903  1.00  0.00     0.003 C 
BRANCH  14  15
HETATM   15  C15 UNL     1      -4.979  -0.547  20.375  1.00  0.00     0.032 C 
BRANCH  15  16
HETATM   16  C16 UNL     1      -4.771  -1.824  21.129  1.00  0.00     0.118 C 
BRANCH  16  17
HETATM   17  O1  UNL     1      -5.852  -2.652  20.975  1.00  0.00    -0.396 OA
ATOM     18  H1  UNL     1      -6.502  -2.479  21.647  1.00  0.00     0.210 HD
ENDBRANCH  16  17
BRANCH  16  19
HETATM   19  C17 UNL     1      -3.434  -2.458  20.829  1.00  0.00     0.032 C 
BRANCH  19  20
HETATM   20  C18 UNL     1      -3.520  -3.935  20.699  1.00  0.00     0.013 C 
BRANCH  20  21
HETATM   21  C19 UNL     1      -3.174  -4.683  21.952  1.00  0.00     0.113 C 
BRANCH  21  22
HETATM   22  C20 UNL     1      -1.889  -5.374  21.938  1.00  0.00     0.172 C 
HETATM   23  O2  UNL     1      -1.350  -5.699  23.021  1.00  0.00    -0.648 OA
HETATM   24  O3  UNL     1      -1.226  -5.694  20.769  1.00  0.00    -0.648 OA
ENDBRANCH  21  22
ENDBRANCH  20  21
ENDBRANCH  19  20
ENDBRANCH  16  19
ENDBRANCH  15  16
ENDBRANCH  14  15
ENDBRANCH  13  14
ENDBRANCH   1  13
TORSDOF 17
ENDMDL
