MODEL 3
REMARK VINA RESULT: -8.246923943      1.097      1.298
REMARK  17 active torsions:
REMARK  status: ('A' for Active; 'I' for Inactive)
REMARK    1  A    between atoms: C2_2  and  C3_3 
REMARK    2  A    between atoms: C3_3  and  C4_4 
REMARK    3  A    between atoms: C4_4  and  C5_5 
REMARK    4  A    between atoms: C5_5  and  C6_6 
REMARK    5  A    between atoms: C7_7  and  C8_8 
REMARK    6  A    between atoms: C8_8  and  C9_9 
REMARK    7  A    between atoms: C9_9  and  C10_10 
REMARK    8  A    between atoms: C11_11  and  C12_12 
REMARK    9  A    between atoms: C12_12  and  C13_13 
REMARK   10  A    between atoms: C13_13  and  C14_14 
REMARK   11  A    between atoms: C14_14  and  C15_15 
REMARK   12  A    between atoms: C15_15  and  C16_16 
REMARK   13  A    between atoms: C16_16  and  O1_17 
REMARK   14  A    between atoms: C16_16  and  C17_19 
REMARK   15  A    between atoms: C17_19  and  C18_20 
REMARK   16  A    between atoms: C18_20  and  C19_21 
REMARK   17  A    between atoms: C19_21  and  C20_22 
ROOT
HETATM    1  C12 UNL     1      -9.712   1.576  16.942  1.00  0.00     0.027 C 
ENDROOT
BRANCH   1   2
HETATM    2  C11 UNL     1      -8.840   1.628  18.149  1.00  0.00    -0.031 C 
HETATM    3  C10 UNL     1      -7.608   1.202  18.226  1.00  0.00    -0.030 C 
BRANCH   3   4
HETATM    4  C9  UNL     1      -6.680   1.206  19.348  1.00  0.00     0.030 C 
BRANCH   4   5
HETATM    5  C8  UNL     1      -5.700   0.104  19.471  1.00  0.00     0.030 C 
BRANCH   5   6
HETATM    6  C7  UNL     1      -5.399  -0.176  20.888  1.00  0.00    -0.030 C 
HETATM    7  C6  UNL     1      -4.273   0.209  21.512  1.00  0.00    -0.031 C 
BRANCH   7   8
HETATM    8  C5  UNL     1      -3.164   0.955  20.923  1.00  0.00     0.027 C 
BRANCH   8   9
HETATM    9  C4  UNL     1      -1.994   1.103  21.905  1.00  0.00     0.004 C 
BRANCH   9  10
HETATM   10  C3  UNL     1      -0.678   0.908  21.178  1.00  0.00    -0.000 C 
BRANCH  10  11
HETATM   11  C2  UNL     1       0.487   0.876  22.113  1.00  0.00    -0.005 C 
HETATM   12  C1  UNL     1       0.178   0.119  23.389  1.00  0.00     0.005 C 
ENDBRANCH  10  11
ENDBRANCH   9  10
ENDBRANCH   8   9
ENDBRANCH   7   8
ENDBRANCH   5   6
ENDBRANCH   4   5
ENDBRANCH   3   4
ENDBRANCH   1   2
BRANCH   1  13
HETATM   13  C13 UNL     1      -8.908   1.761  15.705  1.00  0.00     0.004 C 
BRANCH  13  14
HETATM   14  C14 UNL     1      -9.137   3.075  15.023  1.00  0.00     0.003 C 
BRANCH  14  15
HETATM   15  C15 UNL     1      -9.941   3.050  13.782  1.00  0.00     0.032 C 
BRANCH  15  16
HETATM   16  C16 UNL     1     -10.445   1.711  13.338  1.00  0.00     0.118 C 
BRANCH  16  17
HETATM   17  O1  UNL     1     -11.748   1.538  13.724  1.00  0.00    -0.396 OA
ATOM     18  H1  UNL     1     -12.284   1.287  12.980  1.00  0.00     0.210 HD
ENDBRANCH  16  17
BRANCH  16  19
HETATM   19  C17 UNL     1     -10.173   1.451  11.876  1.00  0.00     0.032 C 
BRANCH  19  20
HETATM   20  C18 UNL     1      -9.376   0.218  11.655  1.00  0.00     0.013 C 
BRANCH  20  21
HETATM   21  C19 UNL     1      -9.498  -0.798  12.752  1.00  0.00     0.113 C 
BRANCH  21  22
HETATM   22  C20 UNL     1     -10.611  -1.732  12.625  1.00  0.00     0.172 C 
HETATM   23  O2  UNL     1     -10.486  -2.748  11.903  1.00  0.00    -0.648 OA
HETATM   24  O3  UNL     1     -11.817  -1.549  13.274  1.00  0.00    -0.648 OA
ENDBRANCH  21  22
ENDBRANCH  20  21
ENDBRANCH  19  20
ENDBRANCH  16  19
ENDBRANCH  15  16
ENDBRANCH  14  15
ENDBRANCH  13  14
ENDBRANCH   1  13
TORSDOF 17
ENDMDL
