MODEL 10
REMARK VINA RESULT: -7.717879801      2.697      9.263
REMARK  13 active torsions:
REMARK  status: ('A' for Active; 'I' for Inactive)
REMARK    1  A    between atoms: C2_2  and  C3_3 
REMARK    2  A    between atoms: C3_3  and  C4_4 
REMARK    3  A    between atoms: C4_4  and  C5_5 
REMARK    4  A    between atoms: C5_5  and  C6_6 
REMARK    5  A    between atoms: C6_6  and  C7_7 
REMARK    6  A    between atoms: C8_8  and  C9_9 
REMARK    7  A    between atoms: C14_15  and  C15_16 
REMARK    8  A    between atoms: C15_16  and  C16_17 
REMARK    9  A    between atoms: C17_18  and  C18_19 
REMARK   10  A    between atoms: C18_19  and  C19_20 
REMARK   11  A    between atoms: C19_20  and  C20_21 
REMARK   12  A    between atoms: C20_21  and  C21_22 
REMARK   13  A    between atoms: C21_22  and  O2_23 
ROOT
HETATM    1  C9  UNL     1      -4.682  -0.493  20.883  1.00  0.00     0.042 C 
HETATM    2  C10 UNL     1      -4.780  -1.849  21.541  1.00  0.00     0.137 A 
HETATM    3  O1  UNL     1      -6.115  -2.297  21.415  1.00  0.00    -0.379 OA
HETATM    4  C11 UNL     1      -6.365  -1.846  22.704  1.00  0.00     0.134 A 
HETATM    5  C12 UNL     1      -4.984  -1.464  22.967  1.00  0.00     0.052 A 
HETATM    6  C13 UNL     1      -5.974  -0.397  22.936  1.00  0.00     0.029 A 
HETATM    7  C14 UNL     1      -5.634   0.385  21.693  1.00  0.00     0.006 C 
ENDROOT
BRANCH   7   8
HETATM    8  C15 UNL     1      -6.847   0.755  20.886  1.00  0.00     0.032 C 
BRANCH   8   9
HETATM    9  C16 UNL     1      -6.625   0.671  19.434  1.00  0.00    -0.030 C 
HETATM   10  C17 UNL     1      -7.642   0.948  18.622  1.00  0.00    -0.031 C 
BRANCH  10  11
HETATM   11  C18 UNL     1      -7.477   0.880  17.180  1.00  0.00     0.027 C 
BRANCH  11  12
HETATM   12  C19 UNL     1      -8.559   1.354  16.302  1.00  0.00     0.006 C 
BRANCH  12  13
HETATM   13  C20 UNL     1      -8.841   0.661  15.032  1.00  0.00     0.026 C 
BRANCH  13  14
HETATM   14  C21 UNL     1     -10.184   1.011  14.462  1.00  0.00     0.164 C 
BRANCH  14  15
HETATM   15  O2  UNL     1     -10.995   1.502  15.510  1.00  0.00    -0.401 OA
ATOM     16  H2  UNL     1     -10.539   2.226  15.924  1.00  0.00     0.209 HD
ENDBRANCH  14  15
ENDBRANCH  13  14
ENDBRANCH  12  13
ENDBRANCH  11  12
ENDBRANCH  10  11
ENDBRANCH   8   9
ENDBRANCH   7   8
BRANCH   1  17
HETATM   17  C8  UNL     1      -3.331   0.071  20.862  1.00  0.00    -0.023 C 
HETATM   18  C7  UNL     1      -3.100   1.354  21.050  1.00  0.00    -0.030 C 
BRANCH  18  19
HETATM   19  C6  UNL     1      -1.717   1.932  21.030  1.00  0.00     0.027 C 
BRANCH  19  20
HETATM   20  C5  UNL     1      -0.759   0.778  21.140  1.00  0.00     0.004 C 
BRANCH  20  21
HETATM   21  C4  UNL     1      -0.015   0.760  22.437  1.00  0.00     0.000 C 
BRANCH  21  22
HETATM   22  C3  UNL     1      -0.353  -0.459  23.269  1.00  0.00    -0.000 C 
BRANCH  22  23
HETATM   23  C2  UNL     1      -1.576  -0.114  24.115  1.00  0.00    -0.005 C 
HETATM   24  C1  UNL     1      -1.449   1.255  24.718  1.00  0.00     0.005 C 
ENDBRANCH  22  23
ENDBRANCH  21  22
ENDBRANCH  20  21
ENDBRANCH  19  20
ENDBRANCH  18  19
ENDBRANCH   1  17
TORSDOF 13
ENDMDL
