MODEL 3
REMARK VINA RESULT: -8.134257191      2.974      3.750
REMARK  13 active torsions:
REMARK  status: ('A' for Active; 'I' for Inactive)
REMARK    1  A    between atoms: C2_2  and  C3_3 
REMARK    2  A    between atoms: C3_3  and  C4_4 
REMARK    3  A    between atoms: C4_4  and  C5_5 
REMARK    4  A    between atoms: C5_5  and  C6_6 
REMARK    5  A    between atoms: C6_6  and  C7_7 
REMARK    6  A    between atoms: C8_8  and  C9_9 
REMARK    7  A    between atoms: C14_15  and  C15_16 
REMARK    8  A    between atoms: C15_16  and  C16_17 
REMARK    9  A    between atoms: C17_18  and  C18_19 
REMARK   10  A    between atoms: C18_19  and  C19_20 
REMARK   11  A    between atoms: C19_20  and  C20_21 
REMARK   12  A    between atoms: C20_21  and  C21_22 
REMARK   13  A    between atoms: C21_22  and  O2_23 
ROOT
HETATM    1  C9  UNL     1      -5.428   0.076  19.857  1.00  0.00     0.042 C 
HETATM    2  C10 UNL     1      -4.582   0.974  20.730  1.00  0.00     0.137 A 
HETATM    3  O1  UNL     1      -3.364   0.304  20.988  1.00  0.00    -0.379 OA
HETATM    4  C11 UNL     1      -3.876  -0.110  22.209  1.00  0.00     0.134 A 
HETATM    5  C12 UNL     1      -5.114   0.646  22.083  1.00  0.00     0.052 A 
HETATM    6  C13 UNL     1      -5.222  -0.806  22.110  1.00  0.00     0.029 A 
HETATM    7  C14 UNL     1      -5.656  -1.169  20.713  1.00  0.00     0.006 C 
ENDROOT
BRANCH   7   8
HETATM    8  C15 UNL     1      -4.911  -2.350  20.158  1.00  0.00     0.032 C 
BRANCH   8   9
HETATM    9  C16 UNL     1      -4.563  -3.348  21.180  1.00  0.00    -0.030 C 
HETATM   10  C17 UNL     1      -3.461  -4.075  21.004  1.00  0.00    -0.031 C 
BRANCH  10  11
HETATM   11  C18 UNL     1      -3.071  -5.075  21.984  1.00  0.00     0.027 C 
BRANCH  11  12
HETATM   12  C19 UNL     1      -1.880  -5.904  21.741  1.00  0.00     0.006 C 
BRANCH  12  13
HETATM   13  C20 UNL     1      -0.625  -5.631  22.464  1.00  0.00     0.026 C 
BRANCH  13  14
HETATM   14  C21 UNL     1       0.539  -6.413  21.930  1.00  0.00     0.164 C 
BRANCH  14  15
HETATM   15  O2  UNL     1       0.601  -6.216  20.533  1.00  0.00    -0.401 OA
ATOM     16  H2  UNL     1       1.339  -5.648  20.344  1.00  0.00     0.209 HD
ENDBRANCH  14  15
ENDBRANCH  13  14
ENDBRANCH  12  13
ENDBRANCH  11  12
ENDBRANCH  10  11
ENDBRANCH   8   9
ENDBRANCH   7   8
BRANCH   1  17
HETATM   17  C8  UNL     1      -6.698   0.669  19.436  1.00  0.00    -0.023 C 
HETATM   18  C7  UNL     1      -7.090   0.677  18.179  1.00  0.00    -0.030 C 
BRANCH  18  19
HETATM   19  C6  UNL     1      -8.391   1.284  17.747  1.00  0.00     0.027 C 
BRANCH  19  20
HETATM   20  C5  UNL     1      -8.477   1.118  16.255  1.00  0.00     0.004 C 
BRANCH  20  21
HETATM   21  C4  UNL     1      -9.522   1.985  15.631  1.00  0.00     0.000 C 
BRANCH  21  22
HETATM   22  C3  UNL     1     -10.623   1.172  14.982  1.00  0.00    -0.000 C 
BRANCH  22  23
HETATM   23  C2  UNL     1     -10.861   1.750  13.589  1.00  0.00    -0.005 C 
HETATM   24  C1  UNL     1      -9.976   2.937  13.337  1.00  0.00     0.005 C 
ENDBRANCH  22  23
ENDBRANCH  21  22
ENDBRANCH  20  21
ENDBRANCH  19  20
ENDBRANCH  18  19
ENDBRANCH   1  17
TORSDOF 13
ENDMDL
