MODEL 4
REMARK VINA RESULT: -8.126642570      2.417      9.856
REMARK  13 active torsions:
REMARK  status: ('A' for Active; 'I' for Inactive)
REMARK    1  A    between atoms: C2_2  and  C3_3 
REMARK    2  A    between atoms: C3_3  and  C4_4 
REMARK    3  A    between atoms: C4_4  and  C5_5 
REMARK    4  A    between atoms: C5_5  and  C6_6 
REMARK    5  A    between atoms: C6_6  and  C7_7 
REMARK    6  A    between atoms: C8_8  and  C9_9 
REMARK    7  A    between atoms: C14_15  and  C15_16 
REMARK    8  A    between atoms: C15_16  and  C16_17 
REMARK    9  A    between atoms: C17_18  and  C18_19 
REMARK   10  A    between atoms: C18_19  and  C19_20 
REMARK   11  A    between atoms: C19_20  and  C20_21 
REMARK   12  A    between atoms: C20_21  and  C21_22 
REMARK   13  A    between atoms: C21_22  and  O2_23 
ROOT
HETATM    1  C9  UNL     1      -4.316  -0.616  20.721  1.00  0.00     0.042 C 
HETATM    2  C10 UNL     1      -4.861  -1.381  21.905  1.00  0.00     0.137 A 
HETATM    3  O1  UNL     1      -6.110  -1.928  21.529  1.00  0.00    -0.379 OA
HETATM    4  C11 UNL     1      -6.739  -0.859  22.151  1.00  0.00     0.134 A 
HETATM    5  C12 UNL     1      -5.509  -0.287  22.682  1.00  0.00     0.052 A 
HETATM    6  C13 UNL     1      -6.237   0.501  21.697  1.00  0.00     0.029 A 
HETATM    7  C14 UNL     1      -5.347   0.485  20.481  1.00  0.00     0.006 C 
ENDROOT
BRANCH   7   8
HETATM    8  C15 UNL     1      -6.105   0.247  19.206  1.00  0.00     0.032 C 
BRANCH   8   9
HETATM    9  C16 UNL     1      -7.353   1.020  19.120  1.00  0.00    -0.030 C 
HETATM   10  C17 UNL     1      -8.036   0.992  17.978  1.00  0.00    -0.031 C 
BRANCH  10  11
HETATM   11  C18 UNL     1      -9.276   1.738  17.840  1.00  0.00     0.027 C 
BRANCH  11  12
HETATM   12  C19 UNL     1     -10.018   1.684  16.570  1.00  0.00     0.006 C 
BRANCH  12  13
HETATM   13  C20 UNL     1      -9.331   1.300  15.323  1.00  0.00     0.026 C 
BRANCH  13  14
HETATM   14  C21 UNL     1     -10.040   1.786  14.093  1.00  0.00     0.164 C 
BRANCH  14  15
HETATM   15  O2  UNL     1     -11.366   1.300  14.126  1.00  0.00    -0.401 OA
ATOM     16  H2  UNL     1     -11.920   1.974  14.503  1.00  0.00     0.209 HD
ENDBRANCH  14  15
ENDBRANCH  13  14
ENDBRANCH  12  13
ENDBRANCH  11  12
ENDBRANCH  10  11
ENDBRANCH   8   9
ENDBRANCH   7   8
BRANCH   1  17
HETATM   17  C8  UNL     1      -2.980  -0.054  20.930  1.00  0.00    -0.023 C 
HETATM   18  C7  UNL     1      -2.755   1.243  20.936  1.00  0.00    -0.030 C 
BRANCH  18  19
HETATM   19  C6  UNL     1      -1.388   1.820  21.151  1.00  0.00     0.027 C 
BRANCH  19  20
HETATM   20  C5  UNL     1      -0.408   0.689  21.005  1.00  0.00     0.004 C 
BRANCH  20  21
HETATM   21  C4  UNL     1       0.659   0.703  22.051  1.00  0.00     0.000 C 
BRANCH  21  22
HETATM   22  C3  UNL     1       0.108   0.403  23.429  1.00  0.00    -0.000 C 
BRANCH  22  23
HETATM   23  C2  UNL     1       0.605  -0.983  23.831  1.00  0.00    -0.005 C 
HETATM   24  C1  UNL     1       2.082  -1.118  23.598  1.00  0.00     0.005 C 
ENDBRANCH  22  23
ENDBRANCH  21  22
ENDBRANCH  20  21
ENDBRANCH  19  20
ENDBRANCH  18  19
ENDBRANCH   1  17
TORSDOF 13
ENDMDL
