MODEL 5
REMARK VINA RESULT: -7.972007542      2.752      3.548
REMARK  13 active torsions:
REMARK  status: ('A' for Active; 'I' for Inactive)
REMARK    1  A    between atoms: C2_2  and  C3_3 
REMARK    2  A    between atoms: C3_3  and  C4_4 
REMARK    3  A    between atoms: C4_4  and  C5_5 
REMARK    4  A    between atoms: C5_5  and  C6_6 
REMARK    5  A    between atoms: C6_6  and  C7_7 
REMARK    6  A    between atoms: C8_8  and  C9_9 
REMARK    7  A    between atoms: C14_15  and  C15_16 
REMARK    8  A    between atoms: C15_16  and  C16_17 
REMARK    9  A    between atoms: C17_18  and  C18_19 
REMARK   10  A    between atoms: C18_19  and  C19_20 
REMARK   11  A    between atoms: C19_20  and  C20_21 
REMARK   12  A    between atoms: C20_21  and  C21_22 
REMARK   13  A    between atoms: C21_22  and  O2_23 
ROOT
HETATM    1  C9  UNL     1      -5.316   0.079  19.961  1.00  0.00     0.042 C 
HETATM    2  C10 UNL     1      -4.488   0.987  20.841  1.00  0.00     0.137 A 
HETATM    3  O1  UNL     1      -3.252   0.344  21.086  1.00  0.00    -0.379 OA
HETATM    4  C11 UNL     1      -3.748  -0.098  22.304  1.00  0.00     0.134 A 
HETATM    5  C12 UNL     1      -5.006   0.630  22.193  1.00  0.00     0.052 A 
HETATM    6  C13 UNL     1      -5.078  -0.825  22.202  1.00  0.00     0.029 A 
HETATM    7  C14 UNL     1      -5.510  -1.181  20.803  1.00  0.00     0.006 C 
ENDROOT
BRANCH   7   8
HETATM    8  C15 UNL     1      -4.739  -2.337  20.230  1.00  0.00     0.032 C 
BRANCH   8   9
HETATM    9  C16 UNL     1      -4.432  -3.378  21.223  1.00  0.00    -0.030 C 
HETATM   10  C17 UNL     1      -3.483  -4.266  20.935  1.00  0.00    -0.031 C 
BRANCH  10  11
HETATM   11  C18 UNL     1      -3.140  -5.315  21.880  1.00  0.00     0.027 C 
BRANCH  11  12
HETATM   12  C19 UNL     1      -1.747  -5.778  21.977  1.00  0.00     0.006 C 
BRANCH  12  13
HETATM   13  C20 UNL     1      -1.067  -5.825  23.284  1.00  0.00     0.026 C 
BRANCH  13  14
HETATM   14  C21 UNL     1      -0.987  -4.483  23.949  1.00  0.00     0.164 C 
BRANCH  14  15
HETATM   15  O2  UNL     1      -0.527  -4.670  25.271  1.00  0.00    -0.401 OA
ATOM     16  H2  UNL     1       0.368  -4.354  25.323  1.00  0.00     0.209 HD
ENDBRANCH  14  15
ENDBRANCH  13  14
ENDBRANCH  12  13
ENDBRANCH  11  12
ENDBRANCH  10  11
ENDBRANCH   8   9
ENDBRANCH   7   8
BRANCH   1  17
HETATM   17  C8  UNL     1      -6.602   0.646  19.553  1.00  0.00    -0.023 C 
HETATM   18  C7  UNL     1      -7.011   0.635  18.302  1.00  0.00    -0.030 C 
BRANCH  18  19
HETATM   19  C6  UNL     1      -8.329   1.215  17.882  1.00  0.00     0.027 C 
BRANCH  19  20
HETATM   20  C5  UNL     1      -8.419   1.064  16.389  1.00  0.00     0.004 C 
BRANCH  20  21
HETATM   21  C4  UNL     1      -9.187   2.167  15.737  1.00  0.00     0.000 C 
BRANCH  21  22
HETATM   22  C3  UNL     1      -9.787   1.737  14.414  1.00  0.00    -0.000 C 
BRANCH  22  23
HETATM   23  C2  UNL     1      -9.871   2.975  13.524  1.00  0.00    -0.005 C 
HETATM   24  C1  UNL     1     -10.533   2.657  12.214  1.00  0.00     0.005 C 
ENDBRANCH  22  23
ENDBRANCH  21  22
ENDBRANCH  20  21
ENDBRANCH  19  20
ENDBRANCH  18  19
ENDBRANCH   1  17
TORSDOF 13
ENDMDL
