MODEL 6
REMARK VINA RESULT: -7.890201754      3.401      9.990
REMARK  13 active torsions:
REMARK  status: ('A' for Active; 'I' for Inactive)
REMARK    1  A    between atoms: C2_2  and  C3_3 
REMARK    2  A    between atoms: C3_3  and  C4_4 
REMARK    3  A    between atoms: C4_4  and  C5_5 
REMARK    4  A    between atoms: C5_5  and  C6_6 
REMARK    5  A    between atoms: C6_6  and  C7_7 
REMARK    6  A    between atoms: C8_8  and  C9_9 
REMARK    7  A    between atoms: C14_15  and  C15_16 
REMARK    8  A    between atoms: C15_16  and  C16_17 
REMARK    9  A    between atoms: C17_18  and  C18_19 
REMARK   10  A    between atoms: C18_19  and  C19_20 
REMARK   11  A    between atoms: C19_20  and  C20_21 
REMARK   12  A    between atoms: C20_21  and  C21_22 
REMARK   13  A    between atoms: C21_22  and  O2_23 
ROOT
HETATM    1  C9  UNL     1      -5.353  -1.326  21.091  1.00  0.00     0.042 C 
HETATM    2  C10 UNL     1      -4.843  -0.931  22.458  1.00  0.00     0.137 A 
HETATM    3  O1  UNL     1      -5.587   0.192  22.889  1.00  0.00    -0.379 OA
HETATM    4  C11 UNL     1      -4.556   1.014  22.458  1.00  0.00     0.134 A 
HETATM    5  C12 UNL     1      -3.671  -0.085  22.096  1.00  0.00     0.052 A 
HETATM    6  C13 UNL     1      -4.138   0.775  21.017  1.00  0.00     0.029 A 
HETATM    7  C14 UNL     1      -5.063  -0.107  20.218  1.00  0.00     0.006 C 
ENDROOT
BRANCH   7   8
HETATM    8  C15 UNL     1      -6.335   0.588  19.821  1.00  0.00     0.032 C 
BRANCH   8   9
HETATM    9  C16 UNL     1      -6.602   0.529  18.376  1.00  0.00    -0.030 C 
HETATM   10  C17 UNL     1      -7.784   0.951  17.934  1.00  0.00    -0.031 C 
BRANCH  10  11
HETATM   11  C18 UNL     1      -8.099   0.915  16.516  1.00  0.00     0.027 C 
BRANCH  11  12
HETATM   12  C19 UNL     1      -9.423   1.362  16.054  1.00  0.00     0.006 C 
BRANCH  12  13
HETATM   13  C20 UNL     1      -9.539   2.280  14.907  1.00  0.00     0.026 C 
BRANCH  13  14
HETATM   14  C21 UNL     1     -10.561   1.834  13.903  1.00  0.00     0.164 C 
BRANCH  14  15
HETATM   15  O2  UNL     1     -11.077   0.587  14.321  1.00  0.00    -0.401 OA
ATOM     16  H2  UNL     1     -11.810   0.365  13.759  1.00  0.00     0.209 HD
ENDBRANCH  14  15
ENDBRANCH  13  14
ENDBRANCH  12  13
ENDBRANCH  11  12
ENDBRANCH  10  11
ENDBRANCH   8   9
ENDBRANCH   7   8
BRANCH   1  17
HETATM   17  C8  UNL     1      -4.729  -2.532  20.542  1.00  0.00    -0.023 C 
HETATM   18  C7  UNL     1      -4.033  -3.366  21.286  1.00  0.00    -0.030 C 
BRANCH  18  19
HETATM   19  C6  UNL     1      -3.394  -4.601  20.725  1.00  0.00     0.027 C 
BRANCH  19  20
HETATM   20  C5  UNL     1      -2.867  -5.390  21.891  1.00  0.00     0.004 C 
BRANCH  20  21
HETATM   21  C4  UNL     1      -2.297  -4.525  22.969  1.00  0.00     0.000 C 
BRANCH  21  22
HETATM   22  C3  UNL     1      -0.881  -4.926  23.330  1.00  0.00    -0.000 C 
BRANCH  22  23
HETATM   23  C2  UNL     1      -0.619  -6.296  22.710  1.00  0.00    -0.005 C 
HETATM   24  C1  UNL     1       0.568  -6.258  21.792  1.00  0.00     0.005 C 
ENDBRANCH  22  23
ENDBRANCH  21  22
ENDBRANCH  20  21
ENDBRANCH  19  20
ENDBRANCH  18  19
ENDBRANCH   1  17
TORSDOF 13
ENDMDL
