MODEL 1
REMARK VINA RESULT: -7.459594329      0.000      0.000
REMARK  13 active torsions:
REMARK  status: ('A' for Active; 'I' for Inactive)
REMARK    1  A    between atoms: N1_1  and  S1_4 
REMARK    2  A    between atoms: S1_4  and  C1_7 
REMARK    3  A    between atoms: C2_12  and  N4_13 
REMARK    4  A    between atoms: N4_13  and  S2_15 
REMARK    5  A    between atoms: S2_15  and  C3_18 
REMARK    6  A    between atoms: C7_22  and  C8_23 
REMARK    7  A    between atoms: C8_23  and  O6_25 
REMARK    8  A    between atoms: O6_25  and  C9_26 
REMARK    9  A    between atoms: C9_26  and  C10_27 
REMARK   10  A    between atoms: C10_27  and  C11_28 
REMARK   11  A    between atoms: C11_28  and  C12_29 
REMARK   12  A    between atoms: C12_29  and  O7_30 
REMARK   13  A    between atoms: O7_30  and  N5_31 
ROOT
HETATM    1  S2  UNL     1      -2.745   6.428  13.315  1.00  0.00     0.264 S 
HETATM    2  O3  UNL     1      -3.271   7.808  13.598  1.00  0.00    -0.200 OA
HETATM    3  O4  UNL     1      -1.496   6.172  14.133  1.00  0.00    -0.200 OA
ENDROOT
BRANCH   1   4
HETATM    4  N4  UNL     1      -2.346   6.268  11.645  1.00  0.00    -0.259 N 
ATOM      5  H4  UNL     1      -3.027   6.535  10.935  1.00  0.00     0.181 HD
BRANCH   4   6
HETATM    6  C2  UNL     1      -1.074   5.766  11.249  1.00  0.00     0.175 A 
HETATM    7  N3  UNL     1      -0.406   4.809  11.888  1.00  0.00    -0.278 N 
HETATM    8  N2  UNL     1       0.715   4.434  11.455  1.00  0.00    -0.281 N 
ATOM      9  H3  UNL     1      -0.801   4.382  12.725  1.00  0.00     0.189 HD
HETATM   10  C1  UNL     1       1.236   4.986  10.364  1.00  0.00     0.208 A 
ATOM     11  H2  UNL     1       1.227   3.700  11.944  1.00  0.00     0.188 HD
HETATM   12  S3  UNL     1      -0.010   6.119   9.969  1.00  0.00    -0.019 SA
BRANCH  10  13
HETATM   13  S1  UNL     1       2.758   4.654   9.557  1.00  0.00     0.280 S 
HETATM   14  O1  UNL     1       3.874   4.646  10.537  1.00  0.00    -0.199 OA
HETATM   15  O2  UNL     1       2.643   3.263   8.977  1.00  0.00    -0.199 OA
BRANCH  13  16
HETATM   16  N1  UNL     1       2.950   5.760   8.281  1.00  0.00    -0.323 N 
ATOM     17  H12 UNL     1       2.340   6.569   8.173  1.00  0.00     0.169 HD
ATOM     18  H11 UNL     1       3.719   5.542   7.647  1.00  0.00     0.169 HD
ENDBRANCH  13  16
ENDBRANCH  10  13
ENDBRANCH   4   6
ENDBRANCH   1   4
BRANCH   1  19
HETATM   19  C3  UNL     1      -3.924   5.255  13.844  1.00  0.00     0.080 A 
HETATM   20  C4  UNL     1      -5.266   5.635  13.970  1.00  0.00     0.025 A 
HETATM   21  C5  UNL     1      -6.226   4.742  14.391  1.00  0.00     0.003 A 
HETATM   22  C6  UNL     1      -5.863   3.448  14.695  1.00  0.00     0.017 A 
HETATM   23  C7  UNL     1      -4.551   3.024  14.586  1.00  0.00     0.041 A 
HETATM   24  C13 UNL     1      -3.621   3.949  14.162  1.00  0.00     0.042 A 
BRANCH  23  25
HETATM   25  C8  UNL     1      -4.153   1.654  14.906  1.00  0.00     0.293 C 
HETATM   26  O5  UNL     1      -3.599   1.449  16.014  1.00  0.00    -0.259 OA
BRANCH  25  27
HETATM   27  O6  UNL     1      -4.354   0.593  14.063  1.00  0.00    -0.318 OA
BRANCH  27  28
HETATM   28  C9  UNL     1      -4.293   0.709  12.632  1.00  0.00     0.179 C 
BRANCH  28  29
HETATM   29  C10 UNL     1      -4.369  -0.708  12.106  1.00  0.00     0.029 C 
BRANCH  29  30
HETATM   30  C11 UNL     1      -3.526  -0.926  10.882  1.00  0.00     0.031 C 
BRANCH  30  31
HETATM   31  C12 UNL     1      -2.204  -0.212  11.008  1.00  0.00     0.208 C 
BRANCH  31  32
HETATM   32  O7  UNL     1      -2.028   0.751   9.988  1.00  0.00    -0.221 OA
BRANCH  32  33
HETATM   33  N5  UNL     1      -1.516   1.970  10.360  1.00  0.00     0.004 N 
HETATM   34  O8  UNL     1      -1.277   2.162  11.559  1.00  0.00    -0.511 OA
HETATM   35  O9  UNL     1      -1.301   2.897   9.371  1.00  0.00    -0.511 OA
ENDBRANCH  32  33
ENDBRANCH  31  32
ENDBRANCH  30  31
ENDBRANCH  29  30
ENDBRANCH  28  29
ENDBRANCH  27  28
ENDBRANCH  25  27
ENDBRANCH  23  25
ENDBRANCH   1  19
TORSDOF 13
ENDMDL
