MODEL 2
REMARK VINA RESULT: -7.379632308      2.957      5.941
REMARK  13 active torsions:
REMARK  status: ('A' for Active; 'I' for Inactive)
REMARK    1  A    between atoms: N1_1  and  S1_4 
REMARK    2  A    between atoms: S1_4  and  C1_7 
REMARK    3  A    between atoms: C2_12  and  N4_13 
REMARK    4  A    between atoms: N4_13  and  S2_15 
REMARK    5  A    between atoms: S2_15  and  C3_18 
REMARK    6  A    between atoms: C7_22  and  C8_23 
REMARK    7  A    between atoms: C8_23  and  O6_25 
REMARK    8  A    between atoms: O6_25  and  C9_26 
REMARK    9  A    between atoms: C9_26  and  C10_27 
REMARK   10  A    between atoms: C10_27  and  C11_28 
REMARK   11  A    between atoms: C11_28  and  C12_29 
REMARK   12  A    between atoms: C12_29  and  O7_30 
REMARK   13  A    between atoms: O7_30  and  N5_31 
ROOT
HETATM    1  S2  UNL     1      -0.772   6.162  12.360  1.00  0.00     0.264 S 
HETATM    2  O3  UNL     1       0.389   7.113  12.265  1.00  0.00    -0.200 OA
HETATM    3  O4  UNL     1      -1.240   6.058  13.797  1.00  0.00    -0.200 OA
ENDROOT
BRANCH   1   4
HETATM    4  N4  UNL     1      -0.307   4.591  11.823  1.00  0.00    -0.259 N 
ATOM      5  H4  UNL     1       0.667   4.406  11.584  1.00  0.00     0.181 HD
BRANCH   4   6
HETATM    6  C2  UNL     1      -1.271   3.550  11.709  1.00  0.00     0.175 A 
HETATM    7  N3  UNL     1      -2.239   3.316  12.590  1.00  0.00    -0.278 N 
HETATM    8  N2  UNL     1      -3.045   2.368  12.397  1.00  0.00    -0.281 N 
ATOM      9  H3  UNL     1      -2.328   3.902  13.420  1.00  0.00     0.189 HD
HETATM   10  C1  UNL     1      -2.936   1.600  11.319  1.00  0.00     0.208 A 
ATOM     11  H2  UNL     1      -3.787   2.188  13.074  1.00  0.00     0.188 HD
HETATM   12  S3  UNL     1      -1.564   2.330  10.559  1.00  0.00    -0.019 SA
BRANCH  10  13
HETATM   13  S1  UNL     1      -3.912   0.232  10.813  1.00  0.00     0.280 S 
HETATM   14  O1  UNL     1      -5.101   0.696  10.053  1.00  0.00    -0.199 OA
HETATM   15  O2  UNL     1      -3.054  -0.584   9.874  1.00  0.00    -0.199 OA
BRANCH  13  16
HETATM   16  N1  UNL     1      -4.274  -0.713  12.177  1.00  0.00    -0.323 N 
ATOM     17  H12 UNL     1      -4.869  -1.539  12.118  1.00  0.00     0.169 HD
ATOM     18  H11 UNL     1      -3.849  -0.382  13.044  1.00  0.00     0.169 HD
ENDBRANCH  13  16
ENDBRANCH  10  13
ENDBRANCH   4   6
ENDBRANCH   1   4
BRANCH   1  19
HETATM   19  C3  UNL     1      -2.114   6.817  11.456  1.00  0.00     0.080 A 
HETATM   20  C4  UNL     1      -1.870   7.497  10.256  1.00  0.00     0.025 A 
HETATM   21  C5  UNL     1      -2.900   8.033   9.516  1.00  0.00     0.003 A 
HETATM   22  C6  UNL     1      -4.197   7.902   9.962  1.00  0.00     0.017 A 
HETATM   23  C7  UNL     1      -4.489   7.239  11.140  1.00  0.00     0.041 A 
HETATM   24  C13 UNL     1      -3.429   6.717  11.852  1.00  0.00     0.042 A 
BRANCH  23  25
HETATM   25  C8  UNL     1      -5.861   7.093  11.624  1.00  0.00     0.293 C 
HETATM   26  O5  UNL     1      -6.691   7.980  11.305  1.00  0.00    -0.259 OA
BRANCH  25  27
HETATM   27  O6  UNL     1      -6.280   6.046  12.401  1.00  0.00    -0.318 OA
BRANCH  27  28
HETATM   28  C9  UNL     1      -6.595   6.185  13.796  1.00  0.00     0.179 C 
BRANCH  28  29
HETATM   29  C10 UNL     1      -5.692   5.207  14.516  1.00  0.00     0.029 C 
BRANCH  29  30
HETATM   30  C11 UNL     1      -5.911   3.782  14.092  1.00  0.00     0.031 C 
BRANCH  30  31
HETATM   31  C12 UNL     1      -5.338   2.827  15.107  1.00  0.00     0.208 C 
BRANCH  31  32
HETATM   32  O7  UNL     1      -4.914   1.618  14.510  1.00  0.00    -0.221 OA
BRANCH  32  33
HETATM   33  N5  UNL     1      -4.419   0.647  15.345  1.00  0.00     0.004 N 
HETATM   34  O8  UNL     1      -4.811  -0.515  15.188  1.00  0.00    -0.511 OA
HETATM   35  O9  UNL     1      -3.515   1.034  16.303  1.00  0.00    -0.511 OA
ENDBRANCH  32  33
ENDBRANCH  31  32
ENDBRANCH  30  31
ENDBRANCH  29  30
ENDBRANCH  28  29
ENDBRANCH  27  28
ENDBRANCH  25  27
ENDBRANCH  23  25
ENDBRANCH   1  19
TORSDOF 13
ENDMDL
