MODEL 3
REMARK VINA RESULT: -7.320604853      2.933      4.323
REMARK  13 active torsions:
REMARK  status: ('A' for Active; 'I' for Inactive)
REMARK    1  A    between atoms: N1_1  and  S1_4 
REMARK    2  A    between atoms: S1_4  and  C1_7 
REMARK    3  A    between atoms: C2_12  and  N4_13 
REMARK    4  A    between atoms: N4_13  and  S2_15 
REMARK    5  A    between atoms: S2_15  and  C3_18 
REMARK    6  A    between atoms: C7_22  and  C8_23 
REMARK    7  A    between atoms: C8_23  and  O6_25 
REMARK    8  A    between atoms: O6_25  and  C9_26 
REMARK    9  A    between atoms: C9_26  and  C10_27 
REMARK   10  A    between atoms: C10_27  and  C11_28 
REMARK   11  A    between atoms: C11_28  and  C12_29 
REMARK   12  A    between atoms: C12_29  and  O7_30 
REMARK   13  A    between atoms: O7_30  and  N5_31 
ROOT
HETATM    1  S2  UNL     1      -2.683   6.455  13.284  1.00  0.00     0.264 S 
HETATM    2  O3  UNL     1      -3.158   7.853  13.569  1.00  0.00    -0.200 OA
HETATM    3  O4  UNL     1      -1.443   6.152  14.100  1.00  0.00    -0.200 OA
ENDROOT
BRANCH   1   4
HETATM    4  N4  UNL     1      -2.292   6.282  11.613  1.00  0.00    -0.259 N 
ATOM      5  H4  UNL     1      -1.314   6.242  11.324  1.00  0.00     0.181 HD
BRANCH   4   6
HETATM    6  C2  UNL     1      -3.321   6.195  10.634  1.00  0.00     0.175 A 
HETATM    7  N3  UNL     1      -3.899   5.063  10.242  1.00  0.00    -0.278 N 
HETATM    8  N2  UNL     1      -4.804   5.092   9.367  1.00  0.00    -0.281 N 
ATOM      9  H3  UNL     1      -3.609   4.173  10.649  1.00  0.00     0.189 HD
HETATM   10  C1  UNL     1      -5.187   6.247   8.833  1.00  0.00     0.208 A 
ATOM     11  H2  UNL     1      -5.247   4.224   9.067  1.00  0.00     0.188 HD
HETATM   12  S3  UNL     1      -4.144   7.338   9.678  1.00  0.00    -0.019 SA
BRANCH  10  13
HETATM   13  S1  UNL     1      -6.407   6.568   7.614  1.00  0.00     0.280 S 
HETATM   14  O1  UNL     1      -7.766   6.331   8.165  1.00  0.00    -0.199 OA
HETATM   15  O2  UNL     1      -6.297   8.036   7.272  1.00  0.00    -0.199 OA
BRANCH  13  16
HETATM   16  N1  UNL     1      -6.043   5.658   6.226  1.00  0.00    -0.323 N 
ATOM     17  H12 UNL     1      -6.294   5.978   5.291  1.00  0.00     0.169 HD
ATOM     18  H11 UNL     1      -5.560   4.779   6.413  1.00  0.00     0.169 HD
ENDBRANCH  13  16
ENDBRANCH  10  13
ENDBRANCH   4   6
ENDBRANCH   1   4
BRANCH   1  19
HETATM   19  C3  UNL     1      -3.904   5.325  13.813  1.00  0.00     0.080 A 
HETATM   20  C4  UNL     1      -5.225   5.762  13.970  1.00  0.00     0.025 A 
HETATM   21  C5  UNL     1      -6.216   4.904  14.392  1.00  0.00     0.003 A 
HETATM   22  C6  UNL     1      -5.906   3.590  14.666  1.00  0.00     0.017 A 
HETATM   23  C7  UNL     1      -4.617   3.111  14.525  1.00  0.00     0.041 A 
HETATM   24  C13 UNL     1      -3.653   4.002  14.101  1.00  0.00     0.042 A 
BRANCH  23  25
HETATM   25  C8  UNL     1      -4.275   1.718  14.813  1.00  0.00     0.293 C 
HETATM   26  O5  UNL     1      -3.891   1.438  15.975  1.00  0.00    -0.259 OA
BRANCH  25  27
HETATM   27  O6  UNL     1      -4.353   0.715  13.884  1.00  0.00    -0.318 OA
BRANCH  27  28
HETATM   28  C9  UNL     1      -4.330   0.957  12.468  1.00  0.00     0.179 C 
BRANCH  28  29
HETATM   29  C10 UNL     1      -4.174  -0.405  11.825  1.00  0.00     0.029 C 
BRANCH  29  30
HETATM   30  C11 UNL     1      -3.076  -0.449  10.801  1.00  0.00     0.031 C 
BRANCH  30  31
HETATM   31  C12 UNL     1      -2.050   0.623  11.068  1.00  0.00     0.208 C 
BRANCH  31  32
HETATM   32  O7  UNL     1      -1.772   1.384   9.910  1.00  0.00    -0.221 OA
BRANCH  32  33
HETATM   33  N5  UNL     1      -1.604   2.737  10.077  1.00  0.00     0.004 N 
HETATM   34  O8  UNL     1      -1.508   3.443   9.065  1.00  0.00    -0.511 OA
HETATM   35  O9  UNL     1      -1.553   3.217  11.362  1.00  0.00    -0.511 OA
ENDBRANCH  32  33
ENDBRANCH  31  32
ENDBRANCH  30  31
ENDBRANCH  29  30
ENDBRANCH  28  29
ENDBRANCH  27  28
ENDBRANCH  25  27
ENDBRANCH  23  25
ENDBRANCH   1  19
TORSDOF 13
ENDMDL
