MODEL 7
REMARK VINA RESULT: -9.164951096      3.312      6.382
REMARK  4 active torsions:
REMARK  status: ('A' for Active; 'I' for Inactive)
REMARK    1  A    between atoms: N5_13  and  C6_14 
REMARK    2  A    between atoms: C8_17  and  C9_18 
REMARK    3  A    between atoms: C9_18  and  O1_19 
REMARK    4  A    between atoms: C11_23  and  O3_24 
ROOT
HETATM    1  N1  UNL     1      21.817  25.271 110.522  1.00  0.00    -0.080 NA
HETATM    2  C1  UNL     1      23.222  25.390 110.369  1.00  0.00     0.148 A 
HETATM    3  N2  UNL     1      24.065  25.741 111.335  1.00  0.00    -0.339 N 
ATOM      4  H2  UNL     1      23.694  25.943 112.264  1.00  0.00     0.167 HD
HETATM    5  C2  UNL     1      25.404  25.838 111.128  1.00  0.00     0.183 A 
HETATM    6  N3  UNL     1      25.909  25.571 109.905  1.00  0.00    -0.336 N 
ATOM      7  H3  UNL     1      26.914  25.645 109.753  1.00  0.00     0.168 HD
HETATM    8  C3  UNL     1      25.112  25.210 108.883  1.00  0.00     0.141 A 
HETATM    9  C4  UNL     1      23.737  25.115 109.115  1.00  0.00     0.119 A 
HETATM   10  N4  UNL     1      23.210  24.743 107.936  1.00  0.00    -0.346 N 
ATOM     11  H4  UNL     1      22.219  24.584 107.757  1.00  0.00     0.167 HD
HETATM   12  C5  UNL     1      24.181  24.617 107.043  1.00  0.00     0.186 A 
HETATM   13  N5  UNL     1      25.363  24.899 107.604  1.00  0.00    -0.313 N 
ENDROOT
BRANCH  13  14
HETATM   14  C6  UNL     1      26.625  24.869 106.951  1.00  0.00     0.191 C 
HETATM   15  C7  UNL     1      26.502  25.385 105.562  1.00  0.00     0.132 C 
HETATM   16  F1  UNL     1      25.725  26.410 105.128  1.00  0.00    -0.208 F 
HETATM   17  C8  UNL     1      27.282  24.686 104.756  1.00  0.00     0.050 C 
HETATM   18  C10 UNL     1      27.982  23.654 105.513  1.00  0.00     0.191 C 
HETATM   19  O2  UNL     1      29.026  23.037 105.224  1.00  0.00    -0.290 OA
HETATM   20  C11 UNL     1      27.163  23.485 106.738  1.00  0.00     0.222 C 
BRANCH  17  21
HETATM   21  C9  UNL     1      27.425  24.911 103.292  1.00  0.00     0.209 C 
BRANCH  21  22
HETATM   22  O1  UNL     1      27.660  23.729 102.605  1.00  0.00    -0.396 OA
ATOM     23  H1  UNL     1      27.787  23.877 101.676  1.00  0.00     0.209 HD
ENDBRANCH  21  22
ENDBRANCH  17  21
BRANCH  20  24
HETATM   24  O3  UNL     1      27.884  23.005 107.813  1.00  0.00    -0.385 OA
ATOM     25  H3  UNL     1      27.823  22.062 107.919  1.00  0.00     0.210 HD
ENDBRANCH  20  24
ENDBRANCH  13  14
TORSDOF 4
ENDMDL
