MODEL 4
REMARK VINA RESULT: -9.392823194      4.100      6.781
REMARK  4 active torsions:
REMARK  status: ('A' for Active; 'I' for Inactive)
REMARK    1  A    between atoms: N5_13  and  C6_14 
REMARK    2  A    between atoms: C8_17  and  C9_18 
REMARK    3  A    between atoms: C9_18  and  O1_19 
REMARK    4  A    between atoms: C11_23  and  O3_24 
ROOT
HETATM    1  N1  UNL     1      26.323  25.677 109.439  1.00  0.00    -0.080 NA
HETATM    2  C1  UNL     1      25.873  25.381 108.126  1.00  0.00     0.148 A 
HETATM    3  N2  UNL     1      24.623  25.063 107.805  1.00  0.00    -0.339 N 
ATOM      4  H2  UNL     1      23.919  25.023 108.543  1.00  0.00     0.167 HD
HETATM    5  C2  UNL     1      24.251  24.789 106.528  1.00  0.00     0.183 A 
HETATM    6  N3  UNL     1      25.172  24.839 105.542  1.00  0.00    -0.336 N 
ATOM      7  H3  UNL     1      24.889  24.632 104.584  1.00  0.00     0.168 HD
HETATM    8  C3  UNL     1      26.454  25.154 105.798  1.00  0.00     0.141 A 
HETATM    9  C4  UNL     1      26.818  25.433 107.118  1.00  0.00     0.119 A 
HETATM   10  N4  UNL     1      28.132  25.709 107.066  1.00  0.00    -0.346 N 
ATOM     11  H4  UNL     1      28.715  25.956 107.865  1.00  0.00     0.167 HD
HETATM   12  C5  UNL     1      28.551  25.610 105.813  1.00  0.00     0.186 A 
HETATM   13  N5  UNL     1      27.533  25.269 105.012  1.00  0.00    -0.313 N 
ENDROOT
BRANCH  13  14
HETATM   14  C6  UNL     1      27.607  25.073 103.607  1.00  0.00     0.191 C 
HETATM   15  C7  UNL     1      28.285  23.786 103.298  1.00  0.00     0.132 C 
HETATM   16  F1  UNL     1      28.177  22.614 103.973  1.00  0.00    -0.208 F 
HETATM   17  C8  UNL     1      29.047  23.929 102.228  1.00  0.00     0.050 C 
HETATM   18  C10 UNL     1      28.959  25.298 101.733  1.00  0.00     0.191 C 
HETATM   19  O2  UNL     1      29.225  25.745 100.600  1.00  0.00    -0.290 OA
HETATM   20  C11 UNL     1      28.473  26.074 102.900  1.00  0.00     0.222 C 
BRANCH  17  21
HETATM   21  C9  UNL     1      29.879  22.857 101.617  1.00  0.00     0.209 C 
BRANCH  21  22
HETATM   22  O1  UNL     1      30.887  22.433 102.471  1.00  0.00    -0.396 OA
ATOM     23  H1  UNL     1      30.554  22.211 103.332  1.00  0.00     0.209 HD
ENDBRANCH  21  22
ENDBRANCH  17  21
BRANCH  20  24
HETATM   24  O3  UNL     1      27.801  27.228 102.546  1.00  0.00    -0.385 OA
ATOM     25  H3  UNL     1      26.991  27.065 102.077  1.00  0.00     0.210 HD
ENDBRANCH  20  24
ENDBRANCH  13  14
TORSDOF 4
ENDMDL
