MODEL 3
REMARK VINA RESULT: -9.872382992      3.414      6.358
REMARK  4 active torsions:
REMARK  status: ('A' for Active; 'I' for Inactive)
REMARK    1  A    between atoms: N5_13  and  C6_14 
REMARK    2  A    between atoms: C8_17  and  C9_18 
REMARK    3  A    between atoms: C9_18  and  O1_19 
REMARK    4  A    between atoms: C11_23  and  O3_24 
ROOT
HETATM    1  N1  UNL     1      21.473  24.981 110.141  1.00  0.00    -0.080 NA
HETATM    2  C1  UNL     1      22.875  25.189 110.179  1.00  0.00     0.148 A 
HETATM    3  N2  UNL     1      23.559  25.565 111.255  1.00  0.00    -0.339 N 
ATOM      4  H2  UNL     1      23.057  25.721 112.129  1.00  0.00     0.167 HD
HETATM    5  C2  UNL     1      24.905  25.749 111.230  1.00  0.00     0.183 A 
HETATM    6  N3  UNL     1      25.583  25.545 110.081  1.00  0.00    -0.336 N 
ATOM      7  H3  UNL     1      26.593  25.684 110.065  1.00  0.00     0.168 HD
HETATM    8  C3  UNL     1      24.953  25.163 108.955  1.00  0.00     0.141 A 
HETATM    9  C4  UNL     1      23.568  24.978 109.000  1.00  0.00     0.119 A 
HETATM   10  N4  UNL     1      23.225  24.606 107.755  1.00  0.00    -0.346 N 
ATOM     11  H4  UNL     1      22.279  24.391 107.443  1.00  0.00     0.167 HD
HETATM   12  C5  UNL     1      24.312  24.561 106.998  1.00  0.00     0.186 A 
HETATM   13  N5  UNL     1      25.389  24.901 107.716  1.00  0.00    -0.313 N 
ENDROOT
BRANCH  13  14
HETATM   14  C6  UNL     1      26.725  24.964 107.236  1.00  0.00     0.191 C 
HETATM   15  C7  UNL     1      26.767  24.671 105.779  1.00  0.00     0.132 C 
HETATM   16  F1  UNL     1      25.866  25.046 104.836  1.00  0.00    -0.208 F 
HETATM   17  C8  UNL     1      27.847  23.962 105.498  1.00  0.00     0.050 C 
HETATM   18  C10 UNL     1      28.610  23.713 106.715  1.00  0.00     0.191 C 
HETATM   19  O2  UNL     1      29.811  23.406 106.843  1.00  0.00    -0.290 OA
HETATM   20  C11 UNL     1      27.624  23.907 107.807  1.00  0.00     0.222 C 
BRANCH  17  21
HETATM   21  C9  UNL     1      28.228  23.482 104.142  1.00  0.00     0.209 C 
BRANCH  21  22
HETATM   22  O1  UNL     1      28.705  22.180 104.167  1.00  0.00    -0.396 OA
ATOM     23  H1  UNL     1      28.497  21.709 103.370  1.00  0.00     0.209 HD
ENDBRANCH  21  22
ENDBRANCH  17  21
BRANCH  20  24
HETATM   24  O3  UNL     1      28.204  24.268 109.006  1.00  0.00    -0.385 OA
ATOM     25  H3  UNL     1      29.064  24.661 108.908  1.00  0.00     0.210 HD
ENDBRANCH  20  24
ENDBRANCH  13  14
TORSDOF 4
ENDMDL
