MODEL 5
REMARK VINA RESULT: -9.330404781      4.380      7.008
REMARK  4 active torsions:
REMARK  status: ('A' for Active; 'I' for Inactive)
REMARK    1  A    between atoms: N5_13  and  C6_14 
REMARK    2  A    between atoms: C8_17  and  C9_18 
REMARK    3  A    between atoms: C9_18  and  O1_19 
REMARK    4  A    between atoms: C11_23  and  O3_24 
ROOT
HETATM    1  N1  UNL     1      25.777  24.610 108.516  1.00  0.00    -0.080 NA
HETATM    2  C1  UNL     1      26.796  24.524 107.533  1.00  0.00     0.148 A 
HETATM    3  N2  UNL     1      28.080  24.297 107.787  1.00  0.00    -0.339 N 
ATOM      4  H2  UNL     1      28.376  24.173 108.755  1.00  0.00     0.167 HD
HETATM    5  C2  UNL     1      29.011  24.225 106.801  1.00  0.00     0.183 A 
HETATM    6  N3  UNL     1      28.633  24.386 105.515  1.00  0.00    -0.336 N 
ATOM      7  H3  UNL     1      29.335  24.331 104.778  1.00  0.00     0.168 HD
HETATM    8  C3  UNL     1      27.349  24.618 105.188  1.00  0.00     0.141 A 
HETATM    9  C4  UNL     1      26.405  24.689 106.216  1.00  0.00     0.119 A 
HETATM   10  N4  UNL     1      25.235  24.925 105.598  1.00  0.00    -0.346 N 
ATOM     11  H4  UNL     1      24.334  25.034 106.063  1.00  0.00     0.167 HD
HETATM   12  C5  UNL     1      25.437  24.995 104.291  1.00  0.00     0.186 A 
HETATM   13  N5  UNL     1      26.733  24.808 104.014  1.00  0.00    -0.313 N 
ENDROOT
BRANCH  13  14
HETATM   14  C6  UNL     1      27.319  24.815 102.719  1.00  0.00     0.191 C 
HETATM   15  C7  UNL     1      28.113  23.578 102.503  1.00  0.00     0.132 C 
HETATM   16  F1  UNL     1      27.816  22.322 102.923  1.00  0.00    -0.208 F 
HETATM   17  C8  UNL     1      29.205  23.863 101.814  1.00  0.00     0.050 C 
HETATM   18  C10 UNL     1      29.246  25.290 101.516  1.00  0.00     0.191 C 
HETATM   19  O2  UNL     1      29.886  25.891 100.631  1.00  0.00    -0.290 OA
HETATM   20  C11 UNL     1      28.340  25.896 102.521  1.00  0.00     0.222 C 
BRANCH  17  21
HETATM   21  C9  UNL     1      30.243  22.878 101.406  1.00  0.00     0.209 C 
BRANCH  21  22
HETATM   22  O1  UNL     1      30.960  22.399 102.492  1.00  0.00    -0.396 OA
ATOM     23  H1  UNL     1      30.713  21.510 102.718  1.00  0.00     0.209 HD
ENDBRANCH  21  22
ENDBRANCH  17  21
BRANCH  20  24
HETATM   24  O3  UNL     1      27.797  27.097 102.110  1.00  0.00    -0.385 OA
ATOM     25  H3  UNL     1      27.324  27.554 102.797  1.00  0.00     0.210 HD
ENDBRANCH  20  24
ENDBRANCH  13  14
TORSDOF 4
ENDMDL
