MODEL 2
REMARK VINA RESULT: -10.039645916      3.430      6.242
REMARK  4 active torsions:
REMARK  status: ('A' for Active; 'I' for Inactive)
REMARK    1  A    between atoms: N5_13  and  C6_14 
REMARK    2  A    between atoms: C8_17  and  C9_18 
REMARK    3  A    between atoms: C9_18  and  O1_19 
REMARK    4  A    between atoms: C11_23  and  O3_24 
ROOT
HETATM    1  N1  UNL     1      21.549  25.047 110.051  1.00  0.00    -0.080 NA
HETATM    2  C1  UNL     1      22.957  25.188 110.151  1.00  0.00     0.148 A 
HETATM    3  N2  UNL     1      23.611  25.519 111.259  1.00  0.00    -0.339 N 
ATOM      4  H2  UNL     1      23.079  25.689 112.113  1.00  0.00     0.167 HD
HETATM    5  C2  UNL     1      24.964  25.639 111.293  1.00  0.00     0.183 A 
HETATM    6  N3  UNL     1      25.679  25.415 110.171  1.00  0.00    -0.336 N 
ATOM      7  H3  UNL     1      26.695  25.506 110.200  1.00  0.00     0.168 HD
HETATM    8  C3  UNL     1      25.080  25.076 109.015  1.00  0.00     0.141 A 
HETATM    9  C4  UNL     1      23.688  24.958 108.999  1.00  0.00     0.119 A 
HETATM   10  N4  UNL     1      23.382  24.615 107.736  1.00  0.00    -0.346 N 
ATOM     11  H4  UNL     1      22.440  24.450 107.381  1.00  0.00     0.167 HD
HETATM   12  C5  UNL     1      24.496  24.528 107.024  1.00  0.00     0.186 A 
HETATM   13  N5  UNL     1      25.556  24.807 107.792  1.00  0.00    -0.313 N 
ENDROOT
BRANCH  13  14
HETATM   14  C6  UNL     1      26.913  24.812 107.369  1.00  0.00     0.191 C 
HETATM   15  C7  UNL     1      27.104  25.768 106.247  1.00  0.00     0.132 C 
HETATM   16  F1  UNL     1      26.514  26.979 106.085  1.00  0.00    -0.208 F 
HETATM   17  C8  UNL     1      27.964  25.268 105.377  1.00  0.00     0.050 C 
HETATM   18  C10 UNL     1      28.416  23.956 105.822  1.00  0.00     0.191 C 
HETATM   19  O2  UNL     1      29.442  23.324 105.498  1.00  0.00    -0.290 OA
HETATM   20  C11 UNL     1      27.366  23.513 106.771  1.00  0.00     0.222 C 
BRANCH  17  21
HETATM   21  C9  UNL     1      28.404  25.940 104.124  1.00  0.00     0.209 C 
BRANCH  21  22
HETATM   22  O1  UNL     1      29.515  26.744 104.329  1.00  0.00    -0.396 OA
ATOM     23  H1  UNL     1      30.304  26.234 104.469  1.00  0.00     0.209 HD
ENDBRANCH  21  22
ENDBRANCH  17  21
BRANCH  20  24
HETATM   24  O3  UNL     1      27.824  22.607 107.707  1.00  0.00    -0.385 OA
ATOM     25  H3  UNL     1      28.439  22.982 108.327  1.00  0.00     0.210 HD
ENDBRANCH  20  24
ENDBRANCH  13  14
TORSDOF 4
ENDMDL
