MODEL 1
REMARK VINA RESULT: -10.163913714      0.000      0.000
REMARK  4 active torsions:
REMARK  status: ('A' for Active; 'I' for Inactive)
REMARK    1  A    between atoms: N5_13  and  C6_14 
REMARK    2  A    between atoms: C8_17  and  C9_18 
REMARK    3  A    between atoms: C9_18  and  O1_19 
REMARK    4  A    between atoms: C11_23  and  O3_24 
ROOT
HETATM    1  N1  UNL     1      28.961  22.431 103.938  1.00  0.00    -0.080 NA
HETATM    2  C1  UNL     1      27.894  23.344 104.137  1.00  0.00     0.148 A 
HETATM    3  N2  UNL     1      27.285  24.023 103.171  1.00  0.00    -0.339 N 
ATOM      4  H2  UNL     1      27.592  23.892 102.207  1.00  0.00     0.167 HD
HETATM    5  C2  UNL     1      26.267  24.887 103.424  1.00  0.00     0.183 A 
HETATM    6  N3  UNL     1      25.850  25.069 104.694  1.00  0.00    -0.336 N 
ATOM      7  H3  UNL     1      25.085  25.718 104.880  1.00  0.00     0.168 HD
HETATM    8  C3  UNL     1      26.422  24.413 105.719  1.00  0.00     0.141 A 
HETATM    9  C4  UNL     1      27.468  23.529 105.440  1.00  0.00     0.119 A 
HETATM   10  N4  UNL     1      27.833  23.033 106.635  1.00  0.00    -0.346 N 
ATOM     11  H4  UNL     1      28.577  22.353 106.789  1.00  0.00     0.167 HD
HETATM   12  C5  UNL     1      27.073  23.566 107.580  1.00  0.00     0.186 A 
HETATM   13  N5  UNL     1      26.196  24.420 107.040  1.00  0.00    -0.313 N 
ENDROOT
BRANCH  13  14
HETATM   14  C6  UNL     1      25.223  25.176 107.748  1.00  0.00     0.191 C 
HETATM   15  C7  UNL     1      25.580  25.259 109.189  1.00  0.00     0.132 C 
HETATM   16  F1  UNL     1      26.819  25.388 109.727  1.00  0.00    -0.208 F 
HETATM   17  C8  UNL     1      24.484  25.186 109.925  1.00  0.00     0.050 C 
HETATM   18  C10 UNL     1      23.315  25.045 109.064  1.00  0.00     0.191 C 
HETATM   19  O2  UNL     1      22.118  25.286 109.315  1.00  0.00    -0.290 OA
HETATM   20  C11 UNL     1      23.867  24.535 107.785  1.00  0.00     0.222 C 
BRANCH  17  21
HETATM   21  C9  UNL     1      24.444  25.236 111.412  1.00  0.00     0.209 C 
BRANCH  21  22
HETATM   22  O1  UNL     1      24.625  26.524 111.893  1.00  0.00    -0.396 OA
ATOM     23  H1  UNL     1      23.811  27.012 111.919  1.00  0.00     0.209 HD
ENDBRANCH  21  22
ENDBRANCH  17  21
BRANCH  20  24
HETATM   24  O3  UNL     1      23.083  24.845 106.692  1.00  0.00    -0.385 OA
ATOM     25  H3  UNL     1      22.158  24.917 106.898  1.00  0.00     0.210 HD
ENDBRANCH  20  24
ENDBRANCH  13  14
TORSDOF 4
ENDMDL
