MODEL 4
REMARK VINA RESULT: -5.463801294      3.456      4.498
REMARK  1 active torsions:
REMARK  status: ('A' for Active; 'I' for Inactive)
REMARK    1  A    between atoms: C5_5  and  C6_6 
ROOT
HETATM    1  C1  UNL     1      29.702  14.733  15.787  1.00  0.00     0.051 C 
HETATM    2  C2  UNL     1      28.924  13.932  16.780  1.00  0.00    -0.023 A 
HETATM    3  C3  UNL     1      28.623  12.606  16.569  1.00  0.00     0.011 A 
HETATM    4  C4  UNL     1      27.895  11.844  17.490  1.00  0.00     0.015 A 
HETATM    5  C5  UNL     1      27.446  12.401  18.657  1.00  0.00     0.007 A 
HETATM    6  C7  UNL     1      27.749  13.745  18.872  1.00  0.00     0.057 A 
HETATM    7  C8  UNL     1      28.467  14.485  17.957  1.00  0.00     0.123 A 
HETATM    8  F1  UNL     1      28.751  15.796  18.190  1.00  0.00    -0.206 F 
ENDROOT
BRANCH   5   9
HETATM    9  C6  UNL     1      26.676  11.679  19.680  1.00  0.00     0.120 C 
HETATM   10  N1  UNL     1      27.181  11.573  21.013  1.00  0.00    -0.082 NA
HETATM   11  N2  UNL     1      25.556  11.135  19.418  1.00  0.00    -0.387 N 
ATOM     12  H22 UNL     1      25.196  11.211  18.467  1.00  0.00     0.157 HD
ATOM     13  H21 UNL     1      25.022  10.633  20.128  1.00  0.00     0.157 HD
ENDBRANCH   5   9
TORSDOF 1
ENDMDL
