MODEL 1
REMARK VINA RESULT: -6.366065616      0.000      0.000
REMARK  1 active torsions:
REMARK  status: ('A' for Active; 'I' for Inactive)
REMARK    1  A    between atoms: C5_5  and  C6_6 
ROOT
HETATM    1  C1  UNL     1      27.391  12.045  19.673  1.00  0.00     0.051 C 
HETATM    2  C2  UNL     1      27.868  12.900  18.544  1.00  0.00    -0.023 A 
HETATM    3  C3  UNL     1      28.522  12.369  17.456  1.00  0.00     0.011 A 
HETATM    4  C4  UNL     1      28.974  13.158  16.392  1.00  0.00     0.015 A 
HETATM    5  C5  UNL     1      28.779  14.512  16.394  1.00  0.00     0.007 A 
HETATM    6  C7  UNL     1      28.116  15.051  17.496  1.00  0.00     0.057 A 
HETATM    7  C8  UNL     1      27.675  14.265  18.538  1.00  0.00     0.123 A 
HETATM    8  F1  UNL     1      27.030  14.815  19.603  1.00  0.00    -0.206 F 
ENDROOT
BRANCH   5   9
HETATM    9  C6  UNL     1      29.218  15.417  15.322  1.00  0.00     0.120 C 
HETATM   10  N1  UNL     1      28.623  16.710  15.189  1.00  0.00    -0.082 NA
HETATM   11  N2  UNL     1      30.125  15.086  14.493  1.00  0.00    -0.387 N 
ATOM     12  H22 UNL     1      30.549  14.163  14.588  1.00  0.00     0.157 HD
ATOM     13  H21 UNL     1      30.430  15.713  13.749  1.00  0.00     0.157 HD
ENDBRANCH   5   9
TORSDOF 1
ENDMDL
