MODEL 5
REMARK VINA RESULT: -5.359541762      3.334      4.398
REMARK  1 active torsions:
REMARK  status: ('A' for Active; 'I' for Inactive)
REMARK    1  A    between atoms: C5_5  and  C6_6 
ROOT
HETATM    1  C1  UNL     1      29.333  14.973  15.286  1.00  0.00     0.051 C 
HETATM    2  C2  UNL     1      28.942  14.202  16.506  1.00  0.00    -0.023 A 
HETATM    3  C3  UNL     1      28.719  12.845  16.467  1.00  0.00     0.011 A 
HETATM    4  C4  UNL     1      28.351  12.111  17.600  1.00  0.00     0.015 A 
HETATM    5  C5  UNL     1      28.197  12.728  18.812  1.00  0.00     0.007 A 
HETATM    6  C7  UNL     1      28.422  14.103  18.853  1.00  0.00     0.057 A 
HETATM    7  C8  UNL     1      28.783  14.816  17.730  1.00  0.00     0.123 A 
HETATM    8  F1  UNL     1      28.998  16.158  17.795  1.00  0.00    -0.206 F 
ENDROOT
BRANCH   5   9
HETATM    9  C6  UNL     1      27.814  12.038  20.052  1.00  0.00     0.120 C 
HETATM   10  N1  UNL     1      26.448  11.679  20.279  1.00  0.00    -0.082 NA
HETATM   11  N2  UNL     1      28.668  11.742  20.948  1.00  0.00    -0.387 N 
ATOM     12  H22 UNL     1      29.642  11.998  20.786  1.00  0.00     0.157 HD
ATOM     13  H21 UNL     1      28.402  11.264  21.809  1.00  0.00     0.157 HD
ENDBRANCH   5   9
TORSDOF 1
ENDMDL
