MODEL 6
REMARK VINA RESULT: -5.311782281      3.737      4.933
REMARK  1 active torsions:
REMARK  status: ('A' for Active; 'I' for Inactive)
REMARK    1  A    between atoms: C5_5  and  C6_6 
ROOT
HETATM    1  C1  UNL     1      29.249  15.194  15.988  1.00  0.00     0.051 C 
HETATM    2  C2  UNL     1      28.588  14.305  16.992  1.00  0.00    -0.023 A 
HETATM    3  C3  UNL     1      27.944  14.811  18.098  1.00  0.00     0.011 A 
HETATM    4  C4  UNL     1      27.321  13.991  19.046  1.00  0.00     0.015 A 
HETATM    5  C5  UNL     1      27.330  12.630  18.905  1.00  0.00     0.007 A 
HETATM    6  C7  UNL     1      27.983  12.116  17.785  1.00  0.00     0.057 A 
HETATM    7  C8  UNL     1      28.593  12.933  16.858  1.00  0.00     0.123 A 
HETATM    8  F1  UNL     1      29.223  12.407  15.773  1.00  0.00    -0.206 F 
ENDROOT
BRANCH   5   9
HETATM    9  C6  UNL     1      26.704  11.694  19.849  1.00  0.00     0.120 C 
HETATM   10  N1  UNL     1      27.288  11.477  21.136  1.00  0.00    -0.082 NA
HETATM   11  N2  UNL     1      25.641  11.056  19.559  1.00  0.00    -0.387 N 
ATOM     12  H22 UNL     1      25.225  11.211  18.640  1.00  0.00     0.157 HD
ATOM     13  H21 UNL     1      25.207  10.406  20.214  1.00  0.00     0.157 HD
ENDBRANCH   5   9
TORSDOF 1
ENDMDL
