MODEL 1
REMARK VINA RESULT: -7.886070995      0.000      0.000
REMARK  3 active torsions:
REMARK  status: ('A' for Active; 'I' for Inactive)
REMARK    1  A    between atoms: C4_8  and  C5_9 
REMARK       I    between atoms: C5_9  and  N3_11 
REMARK    2  A    between atoms: C11_19  and  C12_20 
REMARK    3  A    between atoms: C18_28  and  C19_29 
ROOT
HETATM    1  C1  UNL     1      44.232  51.517  31.988  1.00  0.00     0.070 C 
HETATM    2  C2  UNL     1      45.320  51.053  32.876  1.00  0.00     0.036 A 
HETATM    3  N1  UNL     1      45.448  51.490  34.118  1.00  0.00    -0.194 N 
ATOM      4  H1  UNL     1      44.782  52.169  34.487  1.00  0.00     0.184 HD
HETATM    5  C3  UNL     1      46.455  51.044  34.900  1.00  0.00     0.690 A 
HETATM    6  N2  UNL     1      46.760  51.354  36.165  1.00  0.00    -0.184 N 
ATOM      7  H2  UNL     1      46.239  52.011  36.747  1.00  0.00     0.184 HD
HETATM    8  C4  UNL     1      47.847  50.676  36.557  1.00  0.00     0.133 A 
HETATM    9  C10 UNL     1      48.203  49.919  35.448  1.00  0.00     0.151 A 
HETATM   10  N4  UNL     1      47.338  50.166  34.460  1.00  0.00    -0.154 N 
HETATM   11  C11 UNL     1      47.241  49.680  33.159  1.00  0.00     0.081 A 
HETATM   12  C18 UNL     1      46.251  50.099  32.349  1.00  0.00     0.029 A 
ENDROOT
BRANCH   8  13
HETATM   13  C5  UNL     1      48.518  50.714  37.854  1.00  0.00     0.272 C 
HETATM   14  O1  UNL     1      49.497  51.525  37.986  1.00  0.00    -0.266 OA
HETATM   15  N3  UNL     1      48.087  49.883  38.901  1.00  0.00    -0.343 N 
HETATM   16  C6  UNL     1      46.980  48.986  38.708  1.00  0.00     0.152 C 
HETATM   17  C9  UNL     1      48.736  49.902  40.186  1.00  0.00     0.152 C 
HETATM   18  C7  UNL     1      46.580  48.297  39.994  1.00  0.00     0.187 C 
HETATM   19  O2  UNL     1      47.612  47.842  40.760  1.00  0.00    -0.388 OA
HETATM   20  C8  UNL     1      48.821  48.454  40.634  1.00  0.00     0.187 C 
ENDBRANCH   8  13
BRANCH  11  21
HETATM   21  C12 UNL     1      48.277  48.750  32.781  1.00  0.00     0.015 A 
HETATM   22  C13 UNL     1      49.458  49.103  32.179  1.00  0.00     0.017 A 
HETATM   23  C14 UNL     1      50.397  48.177  31.779  1.00  0.00     0.025 A 
HETATM   24  C15 UNL     1      50.158  46.818  31.982  1.00  0.00     0.035 A 
HETATM   25 CL1  UNL     1      51.349  45.629  31.474  1.00  0.00    -0.084 Cl
HETATM   26  C16 UNL     1      48.969  46.442  32.588  1.00  0.00     0.048 A 
HETATM   27  C17 UNL     1      48.044  47.385  32.982  1.00  0.00     0.048 A 
HETATM   28 CL2  UNL     1      46.573  46.825  33.738  1.00  0.00    -0.083 Cl
ENDBRANCH  11  21
BRANCH  12  29
HETATM   29  C19 UNL     1      46.013  49.677  30.987  1.00  0.00     0.115 C 
HETATM   30  N5  UNL     1      45.374  48.474  30.665  1.00  0.00    -0.114 NA
ENDBRANCH  12  29
TORSDOF 3
ENDMDL
