MODEL 2
REMARK VINA RESULT: -7.111750190      3.907      7.254
REMARK  3 active torsions:
REMARK  status: ('A' for Active; 'I' for Inactive)
REMARK    1  A    between atoms: C4_8  and  C5_9 
REMARK       I    between atoms: C5_9  and  N3_11 
REMARK    2  A    between atoms: C11_19  and  C12_20 
REMARK    3  A    between atoms: C18_28  and  C19_29 
ROOT
HETATM    1  C1  UNL     1      45.992  51.313  36.365  1.00  0.00     0.070 C 
HETATM    2  C2  UNL     1      46.149  50.954  34.939  1.00  0.00     0.036 A 
HETATM    3  N1  UNL     1      45.635  51.690  33.968  1.00  0.00    -0.194 N 
ATOM      4  H1  UNL     1      45.112  52.535  34.195  1.00  0.00     0.184 HD
HETATM    5  C3  UNL     1      45.800  51.330  32.677  1.00  0.00     0.690 A 
HETATM    6  N2  UNL     1      45.368  51.926  31.559  1.00  0.00    -0.184 N 
ATOM      7  H2  UNL     1      44.821  52.786  31.530  1.00  0.00     0.184 HD
HETATM    8  C4  UNL     1      45.758  51.227  30.483  1.00  0.00     0.133 A 
HETATM    9  C10 UNL     1      46.465  50.151  31.005  1.00  0.00     0.151 A 
HETATM   10  N4  UNL     1      46.471  50.244  32.339  1.00  0.00    -0.154 N 
HETATM   11  C11 UNL     1      47.028  49.440  33.330  1.00  0.00     0.081 A 
HETATM   12  C18 UNL     1      46.888  49.765  34.627  1.00  0.00     0.029 A 
ENDROOT
BRANCH   8  13
HETATM   13  C5  UNL     1      45.504  51.519  29.075  1.00  0.00     0.272 C 
HETATM   14  O1  UNL     1      46.163  52.479  28.546  1.00  0.00    -0.266 OA
HETATM   15  N3  UNL     1      44.571  50.761  28.349  1.00  0.00    -0.343 N 
HETATM   16  C6  UNL     1      43.855  49.689  28.985  1.00  0.00     0.152 C 
HETATM   17  C9  UNL     1      44.304  51.034  26.961  1.00  0.00     0.152 C 
HETATM   18  C7  UNL     1      43.017  48.906  27.998  1.00  0.00     0.187 C 
HETATM   19  O2  UNL     1      42.325  49.654  27.094  1.00  0.00    -0.388 OA
HETATM   20  C8  UNL     1      42.804  50.891  26.787  1.00  0.00     0.187 C 
ENDBRANCH   8  13
BRANCH  11  21
HETATM   21  C12 UNL     1      47.712  48.266  32.843  1.00  0.00     0.015 A 
HETATM   22  C13 UNL     1      47.117  47.046  32.641  1.00  0.00     0.017 A 
HETATM   23  C14 UNL     1      47.819  45.933  32.233  1.00  0.00     0.025 A 
HETATM   24  C15 UNL     1      49.193  46.025  32.010  1.00  0.00     0.035 A 
HETATM   25 CL1  UNL     1      50.097  44.610  31.490  1.00  0.00    -0.084 Cl
HETATM   26  C16 UNL     1      49.811  47.250  32.210  1.00  0.00     0.048 A 
HETATM   27  C17 UNL     1      49.091  48.351  32.619  1.00  0.00     0.048 A 
HETATM   28 CL2  UNL     1      49.949  49.855  32.846  1.00  0.00    -0.083 Cl
ENDBRANCH  11  21
BRANCH  12  29
HETATM   29  C19 UNL     1      47.418  49.042  35.762  1.00  0.00     0.115 C 
HETATM   30  N5  UNL     1      48.698  49.274  36.280  1.00  0.00    -0.114 NA
ENDBRANCH  12  29
TORSDOF 3
ENDMDL
