MODEL 3
REMARK VINA RESULT: -7.046208598     10.171     12.386
REMARK  3 active torsions:
REMARK  status: ('A' for Active; 'I' for Inactive)
REMARK    1  A    between atoms: C4_8  and  C5_9 
REMARK       I    between atoms: C5_9  and  N3_11 
REMARK    2  A    between atoms: C11_19  and  C12_20 
REMARK    3  A    between atoms: C18_28  and  C19_29 
ROOT
HETATM    1  C1  UNL     1      54.203  51.166  36.067  1.00  0.00     0.070 C 
HETATM    2  C2  UNL     1      55.604  51.168  35.596  1.00  0.00     0.036 A 
HETATM    3  N1  UNL     1      56.289  52.288  35.432  1.00  0.00    -0.194 N 
ATOM      4  H1  UNL     1      55.849  53.185  35.633  1.00  0.00     0.184 HD
HETATM    5  C3  UNL     1      57.568  52.250  35.000  1.00  0.00     0.690 A 
HETATM    6  N2  UNL     1      58.425  53.251  34.770  1.00  0.00    -0.184 N 
ATOM      7  H2  UNL     1      58.215  54.241  34.899  1.00  0.00     0.184 HD
HETATM    8  C4  UNL     1      59.600  52.765  34.347  1.00  0.00     0.133 A 
HETATM    9  C10 UNL     1      59.420  51.388  34.326  1.00  0.00     0.151 A 
HETATM   10  N4  UNL     1      58.175  51.109  34.728  1.00  0.00    -0.154 N 
HETATM   11  C11 UNL     1      57.491  49.906  34.887  1.00  0.00     0.081 A 
HETATM   12  C18 UNL     1      56.217  49.902  35.316  1.00  0.00     0.029 A 
ENDROOT
BRANCH   8  13
HETATM   13  C5  UNL     1      60.807  53.504  33.985  1.00  0.00     0.272 C 
HETATM   14  O1  UNL     1      61.688  53.673  34.897  1.00  0.00    -0.266 OA
HETATM   15  N3  UNL     1      60.973  53.999  32.681  1.00  0.00    -0.343 N 
HETATM   16  C6  UNL     1      59.957  53.783  31.688  1.00  0.00     0.152 C 
HETATM   17  C9  UNL     1      62.153  54.732  32.305  1.00  0.00     0.152 C 
HETATM   18  C7  UNL     1      60.394  54.259  30.320  1.00  0.00     0.187 C 
HETATM   19  O2  UNL     1      61.031  55.463  30.294  1.00  0.00    -0.388 OA
HETATM   20  C8  UNL     1      61.676  55.870  31.422  1.00  0.00     0.187 C 
ENDBRANCH   8  13
BRANCH  11  21
HETATM   21  C12 UNL     1      58.246  48.729  34.531  1.00  0.00     0.015 A 
HETATM   22  C13 UNL     1      59.049  48.029  35.394  1.00  0.00     0.017 A 
HETATM   23  C14 UNL     1      59.801  46.944  34.999  1.00  0.00     0.025 A 
HETATM   24  C15 UNL     1      59.761  46.522  33.670  1.00  0.00     0.035 A 
HETATM   25 CL1  UNL     1      60.717  45.140  33.156  1.00  0.00    -0.084 Cl
HETATM   26  C16 UNL     1      58.955  47.218  32.783  1.00  0.00     0.048 A 
HETATM   27  C17 UNL     1      58.210  48.301  33.199  1.00  0.00     0.048 A 
HETATM   28 CL2  UNL     1      57.222  49.120  32.016  1.00  0.00    -0.083 Cl
ENDBRANCH  11  21
BRANCH  12  29
HETATM   29  C19 UNL     1      55.385  48.740  35.542  1.00  0.00     0.115 C 
HETATM   30  N5  UNL     1      54.785  48.022  34.501  1.00  0.00    -0.114 NA
ENDBRANCH  12  29
TORSDOF 3
ENDMDL
