MODEL 2
REMARK VINA RESULT: -12.706655626      1.283      1.820
REMARK  8 active torsions:
REMARK  status: ('A' for Active; 'I' for Inactive)
REMARK    1  A    between atoms: C5_5  and  N1_6 
REMARK    2  A    between atoms: C6_9  and  C7_10 
REMARK    3  A    between atoms: C12_15  and  N3_16 
REMARK       I    between atoms: N3_16  and  C13_18 
REMARK       I    between atoms: C13_18  and  N4_20 
REMARK    4  A    between atoms: N4_20  and  C14_22 
REMARK    5  A    between atoms: C17_25  and  O2_26 
REMARK    6  A    between atoms: O2_26  and  C18_27 
REMARK    7  A    between atoms: C18_27  and  C19_28 
REMARK    8  A    between atoms: C19_28  and  N5_29 
ROOT
HETATM    1  N3  UNL     1      55.618  46.199   9.237  1.00  0.00    -0.293 N 
ATOM      2  H3  UNL     1      56.472  45.841   9.665  1.00  0.00     0.172 HD
HETATM    3  C13 UNL     1      55.011  47.289   9.902  1.00  0.00     0.326 C 
HETATM    4  O1  UNL     1      53.969  47.776   9.519  1.00  0.00    -0.247 OA
HETATM    5  N4  UNL     1      55.633  47.847  11.065  1.00  0.00    -0.308 N 
ATOM      6  H4  UNL     1      56.510  47.417  11.358  1.00  0.00     0.170 HD
ENDROOT
BRANCH   1   7
HETATM    7  C12 UNL     1      55.202  45.535   8.057  1.00  0.00     0.133 A 
HETATM    8  N1  UNL     1      54.986  44.260   7.779  1.00  0.00    -0.240 N 
HETATM    9  N2  UNL     1      54.630  44.208   6.461  1.00  0.00    -0.295 N 
HETATM   10  C6  UNL     1      54.615  45.389   5.912  1.00  0.00     0.037 A 
ATOM     11  H2  UNL     1      54.404  43.346   5.965  1.00  0.00     0.187 HD
HETATM   12  C11 UNL     1      54.968  46.286   6.871  1.00  0.00     0.077 A 
BRANCH   8  13
HETATM   13  C5  UNL     1      55.037  43.079   8.567  1.00  0.00     0.058 A 
HETATM   14  C4  UNL     1      55.370  43.124   9.904  1.00  0.00     0.032 A 
HETATM   15  C3  UNL     1      55.476  41.978  10.666  1.00  0.00     0.009 A 
HETATM   16  C2  UNL     1      55.254  40.734  10.122  1.00  0.00    -0.062 A 
HETATM   17  C1  UNL     1      55.368  39.489  10.946  1.00  0.00     0.048 C 
HETATM   18  C31 UNL     1      54.918  40.657   8.787  1.00  0.00     0.009 A 
HETATM   19  C30 UNL     1      54.813  41.806   8.027  1.00  0.00     0.032 A 
ENDBRANCH   8  13
BRANCH  10  20
HETATM   20  C7  UNL     1      54.275  45.781   4.491  1.00  0.00    -0.007 C 
HETATM   21  C8  UNL     1      52.990  46.605   4.634  1.00  0.00     0.021 C 
HETATM   22  C9  UNL     1      55.349  46.655   3.914  1.00  0.00     0.021 C 
HETATM   23  C10 UNL     1      54.048  44.535   3.679  1.00  0.00     0.021 C 
ENDBRANCH  10  20
ENDBRANCH   1   7
BRANCH   5  24
HETATM   24  C14 UNL     1      55.179  48.906  11.842  1.00  0.00     0.047 A 
HETATM   25  C15 UNL     1      53.929  48.902  12.404  1.00  0.00     0.033 A 
HETATM   26  C16 UNL     1      53.496  49.964  13.213  1.00  0.00     0.040 A 
HETATM   27  C17 UNL     1      54.307  51.032  13.465  1.00  0.00     0.080 A 
HETATM   28  C24 UNL     1      55.571  51.046  12.902  1.00  0.00     0.010 A 
HETATM   29  C25 UNL     1      56.406  52.137  13.148  1.00  0.00     0.015 A 
HETATM   30  C29 UNL     1      56.009  50.003  12.102  1.00  0.00     0.004 A 
HETATM   31  C26 UNL     1      57.647  52.157  12.591  1.00  0.00     0.001 A 
HETATM   32  C27 UNL     1      58.125  51.145  11.790  1.00  0.00     0.001 A 
HETATM   33  C28 UNL     1      57.264  50.063  11.560  1.00  0.00     0.014 A 
BRANCH  27  34
HETATM   34  O2  UNL     1      53.932  52.088  14.242  1.00  0.00    -0.349 OA
BRANCH  34  35
HETATM   35  C18 UNL     1      53.330  52.007  15.527  1.00  0.00     0.206 C 
BRANCH  35  36
HETATM   36  C19 UNL     1      52.035  52.780  15.418  1.00  0.00     0.299 C 
BRANCH  36  37
HETATM   37  N5  UNL     1      51.733  53.618  16.525  1.00  0.00     0.094 N 
HETATM   38  C20 UNL     1      50.660  53.100  17.360  1.00  0.00     0.298 C 
HETATM   39  C21 UNL     1      49.398  52.877  16.565  1.00  0.00     0.198 C 
HETATM   40  O3  UNL     1      49.457  53.399  15.299  1.00  0.00    -0.388 OA
HETATM   41  C22 UNL     1      49.965  54.669  15.194  1.00  0.00     0.198 C 
HETATM   42  C23 UNL     1      51.221  54.894  16.007  1.00  0.00     0.298 C 
ENDBRANCH  36  37
ENDBRANCH  35  36
ENDBRANCH  34  35
ENDBRANCH  27  34
ENDBRANCH   5  24
TORSDOF 8
ENDMDL
