MODEL 1
REMARK VINA RESULT: -13.416456780      0.000      0.000
REMARK  8 active torsions:
REMARK  status: ('A' for Active; 'I' for Inactive)
REMARK    1  A    between atoms: C5_5  and  N1_6 
REMARK    2  A    between atoms: C6_9  and  C7_10 
REMARK    3  A    between atoms: C12_15  and  N3_16 
REMARK       I    between atoms: N3_16  and  C13_18 
REMARK       I    between atoms: C13_18  and  N4_20 
REMARK    4  A    between atoms: N4_20  and  C14_22 
REMARK    5  A    between atoms: C17_25  and  O2_26 
REMARK    6  A    between atoms: O2_26  and  C18_27 
REMARK    7  A    between atoms: C18_27  and  C19_28 
REMARK    8  A    between atoms: C19_28  and  N5_29 
ROOT
HETATM    1  N3  UNL     1      55.766  47.048   9.354  1.00  0.00    -0.293 N 
ATOM      2  H3  UNL     1      56.778  46.998   9.463  1.00  0.00     0.172 HD
HETATM    3  C13 UNL     1      55.095  47.903  10.259  1.00  0.00     0.326 C 
HETATM    4  O1  UNL     1      53.888  48.016  10.263  1.00  0.00    -0.247 OA
HETATM    5  N4  UNL     1      55.850  48.665  11.208  1.00  0.00    -0.308 N 
ATOM      6  H4  UNL     1      56.863  48.551  11.175  1.00  0.00     0.170 HD
ENDROOT
BRANCH   1   7
HETATM    7  C12 UNL     1      55.221  46.252   8.316  1.00  0.00     0.133 A 
HETATM    8  N1  UNL     1      55.320  44.962   8.037  1.00  0.00    -0.240 N 
HETATM    9  N2  UNL     1      54.606  44.762   6.888  1.00  0.00    -0.295 N 
HETATM   10  C6  UNL     1      54.072  45.865   6.447  1.00  0.00     0.037 A 
ATOM     11  H2  UNL     1      54.504  43.857   6.431  1.00  0.00     0.187 HD
HETATM   12  C11 UNL     1      54.421  46.858   7.308  1.00  0.00     0.077 A 
BRANCH   8  13
HETATM   13  C5  UNL     1      55.958  43.879   8.695  1.00  0.00     0.058 A 
HETATM   14  C4  UNL     1      56.585  42.877   7.983  1.00  0.00     0.032 A 
HETATM   15  C3  UNL     1      57.161  41.790   8.609  1.00  0.00     0.009 A 
HETATM   16  C2  UNL     1      57.135  41.657   9.978  1.00  0.00    -0.062 A 
HETATM   17  C1  UNL     1      57.759  40.479  10.661  1.00  0.00     0.048 C 
HETATM   18  C31 UNL     1      56.516  42.643  10.717  1.00  0.00     0.009 A 
HETATM   19  C30 UNL     1      55.940  43.729  10.088  1.00  0.00     0.032 A 
ENDBRANCH   8  13
BRANCH  10  20
HETATM   20  C7  UNL     1      53.210  46.090   5.224  1.00  0.00    -0.007 C 
HETATM   21  C8  UNL     1      52.928  44.674   4.708  1.00  0.00     0.021 C 
HETATM   22  C9  UNL     1      51.910  46.734   5.606  1.00  0.00     0.021 C 
HETATM   23  C10 UNL     1      53.983  46.903   4.221  1.00  0.00     0.021 C 
ENDBRANCH  10  20
ENDBRANCH   1   7
BRANCH   5  24
HETATM   24  C14 UNL     1      55.362  49.543  12.168  1.00  0.00     0.047 A 
HETATM   25  C15 UNL     1      54.169  49.322  12.806  1.00  0.00     0.033 A 
HETATM   26  C16 UNL     1      53.705  50.200  13.797  1.00  0.00     0.040 A 
HETATM   27  C17 UNL     1      54.427  51.301  14.157  1.00  0.00     0.080 A 
HETATM   28  C24 UNL     1      55.633  51.533  13.519  1.00  0.00     0.010 A 
HETATM   29  C25 UNL     1      56.376  52.660  13.874  1.00  0.00     0.015 A 
HETATM   30  C29 UNL     1      56.101  50.673  12.538  1.00  0.00     0.004 A 
HETATM   31  C26 UNL     1      57.559  52.895  13.244  1.00  0.00     0.001 A 
HETATM   32  C27 UNL     1      58.065  52.070  12.265  1.00  0.00     0.001 A 
HETATM   33  C28 UNL     1      57.295  50.947  11.929  1.00  0.00     0.014 A 
BRANCH  27  34
HETATM   34  O2  UNL     1      54.018  52.184  15.111  1.00  0.00    -0.349 OA
BRANCH  34  35
HETATM   35  C18 UNL     1      52.736  52.216  15.724  1.00  0.00     0.206 C 
BRANCH  35  36
HETATM   36  C19 UNL     1      52.151  53.565  15.371  1.00  0.00     0.299 C 
BRANCH  36  37
HETATM   37  N5  UNL     1      50.923  53.528  14.657  1.00  0.00     0.094 N 
HETATM   38  C20 UNL     1      50.559  54.811  14.076  1.00  0.00     0.298 C 
HETATM   39  C21 UNL     1      50.474  55.890  15.126  1.00  0.00     0.198 C 
HETATM   40  O3  UNL     1      50.543  55.405  16.406  1.00  0.00    -0.388 OA
HETATM   41  C22 UNL     1      49.773  54.303  16.675  1.00  0.00     0.198 C 
HETATM   42  C23 UNL     1      49.847  53.231  15.611  1.00  0.00     0.298 C 
ENDBRANCH  36  37
ENDBRANCH  35  36
ENDBRANCH  34  35
ENDBRANCH  27  34
ENDBRANCH   5  24
TORSDOF 8
ENDMDL
