MODEL 9
REMARK VINA RESULT: -9.342003164      8.705     11.553
REMARK  8 active torsions:
REMARK  status: ('A' for Active; 'I' for Inactive)
REMARK    1  A    between atoms: C5_5  and  N1_6 
REMARK    2  A    between atoms: C6_9  and  C7_10 
REMARK    3  A    between atoms: C12_15  and  N3_16 
REMARK       I    between atoms: N3_16  and  C13_18 
REMARK       I    between atoms: C13_18  and  N4_20 
REMARK    4  A    between atoms: N4_20  and  C14_22 
REMARK    5  A    between atoms: C17_25  and  O2_26 
REMARK    6  A    between atoms: O2_26  and  C18_27 
REMARK    7  A    between atoms: C18_27  and  C19_28 
REMARK    8  A    between atoms: C19_28  and  N5_29 
ROOT
HETATM    1  N3  UNL     1      53.883  40.067   8.241  1.00  0.00    -0.293 N 
ATOM      2  H3  UNL     1      54.598  40.707   8.586  1.00  0.00     0.172 HD
HETATM    3  C13 UNL     1      53.117  39.412   9.232  1.00  0.00     0.326 C 
HETATM    4  O1  UNL     1      52.267  38.594   8.952  1.00  0.00    -0.247 OA
HETATM    5  N4  UNL     1      53.340  39.712  10.615  1.00  0.00    -0.308 N 
ATOM      6  H4  UNL     1      54.059  40.407  10.815  1.00  0.00     0.170 HD
ENDROOT
BRANCH   1   7
HETATM    7  C12 UNL     1      53.792  39.955   6.831  1.00  0.00     0.133 A 
HETATM    8  N1  UNL     1      53.441  40.815   5.889  1.00  0.00    -0.240 N 
HETATM    9  N2  UNL     1      53.509  40.137   4.704  1.00  0.00    -0.295 N 
HETATM   10  C6  UNL     1      53.886  38.901   4.870  1.00  0.00     0.037 A 
ATOM     11  H2  UNL     1      53.291  40.550   3.797  1.00  0.00     0.187 HD
HETATM   12  C11 UNL     1      54.085  38.713   6.201  1.00  0.00     0.077 A 
BRANCH   8  13
HETATM   13  C5  UNL     1      53.076  42.187   5.922  1.00  0.00     0.058 A 
HETATM   14  C4  UNL     1      51.983  42.655   5.223  1.00  0.00     0.032 A 
HETATM   15  C3  UNL     1      51.651  43.994   5.203  1.00  0.00     0.009 A 
HETATM   16  C2  UNL     1      52.400  44.927   5.883  1.00  0.00    -0.062 A 
HETATM   17  C1  UNL     1      52.042  46.381   5.863  1.00  0.00     0.048 C 
HETATM   18  C31 UNL     1      53.499  44.489   6.592  1.00  0.00     0.009 A 
HETATM   19  C30 UNL     1      53.829  43.148   6.609  1.00  0.00     0.032 A 
ENDBRANCH   8  13
BRANCH  10  20
HETATM   20  C7  UNL     1      54.094  37.816   3.836  1.00  0.00    -0.007 C 
HETATM   21  C8  UNL     1      54.061  38.569   2.501  1.00  0.00     0.021 C 
HETATM   22  C9  UNL     1      55.443  37.181   4.001  1.00  0.00     0.021 C 
HETATM   23  C10 UNL     1      52.972  36.819   3.939  1.00  0.00     0.021 C 
ENDBRANCH  10  20
ENDBRANCH   1   7
BRANCH   5  24
HETATM   24  C14 UNL     1      52.690  39.165  11.714  1.00  0.00     0.047 A 
HETATM   25  C15 UNL     1      51.428  39.560  12.074  1.00  0.00     0.033 A 
HETATM   26  C16 UNL     1      50.771  38.975  13.167  1.00  0.00     0.040 A 
HETATM   27  C17 UNL     1      51.368  37.996  13.906  1.00  0.00     0.080 A 
HETATM   28  C24 UNL     1      52.643  37.590  13.552  1.00  0.00     0.010 A 
HETATM   29  C25 UNL     1      53.267  36.594  14.304  1.00  0.00     0.015 A 
HETATM   30  C29 UNL     1      53.302  38.161  12.474  1.00  0.00     0.004 A 
HETATM   31  C26 UNL     1      54.523  36.198  13.963  1.00  0.00     0.001 A 
HETATM   32  C27 UNL     1      55.216  36.735  12.902  1.00  0.00     0.001 A 
HETATM   33  C28 UNL     1      54.564  37.734  12.165  1.00  0.00     0.014 A 
BRANCH  27  34
HETATM   34  O2  UNL     1      50.773  37.399  14.977  1.00  0.00    -0.349 OA
BRANCH  34  35
HETATM   35  C18 UNL     1      49.471  37.682  15.474  1.00  0.00     0.206 C 
BRANCH  35  36
HETATM   36  C19 UNL     1      49.653  37.967  16.948  1.00  0.00     0.299 C 
BRANCH  36  37
HETATM   37  N5  UNL     1      50.971  38.322  17.340  1.00  0.00     0.094 N 
HETATM   38  C20 UNL     1      51.231  38.092  18.753  1.00  0.00     0.298 C 
HETATM   39  C21 UNL     1      50.251  38.837  19.624  1.00  0.00     0.198 C 
HETATM   40  O3  UNL     1      49.474  39.726  18.927  1.00  0.00    -0.388 OA
HETATM   41  C22 UNL     1      50.132  40.520  18.023  1.00  0.00     0.198 C 
HETATM   42  C23 UNL     1      51.128  39.772  17.163  1.00  0.00     0.298 C 
ENDBRANCH  36  37
ENDBRANCH  35  36
ENDBRANCH  34  35
ENDBRANCH  27  34
ENDBRANCH   5  24
TORSDOF 8
ENDMDL
