MODEL 8
REMARK VINA RESULT: -9.354406692      8.597     11.979
REMARK  8 active torsions:
REMARK  status: ('A' for Active; 'I' for Inactive)
REMARK    1  A    between atoms: C5_5  and  N1_6 
REMARK    2  A    between atoms: C6_9  and  C7_10 
REMARK    3  A    between atoms: C12_15  and  N3_16 
REMARK       I    between atoms: N3_16  and  C13_18 
REMARK       I    between atoms: C13_18  and  N4_20 
REMARK    4  A    between atoms: N4_20  and  C14_22 
REMARK    5  A    between atoms: C17_25  and  O2_26 
REMARK    6  A    between atoms: O2_26  and  C18_27 
REMARK    7  A    between atoms: C18_27  and  C19_28 
REMARK    8  A    between atoms: C19_28  and  N5_29 
ROOT
HETATM    1  N3  UNL     1      52.110  39.533   7.411  1.00  0.00    -0.293 N 
ATOM      2  H3  UNL     1      51.116  39.760   7.416  1.00  0.00     0.172 HD
HETATM    3  C13 UNL     1      52.660  39.166   8.661  1.00  0.00     0.326 C 
HETATM    4  O1  UNL     1      53.839  38.915   8.796  1.00  0.00    -0.247 OA
HETATM    5  N4  UNL     1      51.812  39.082   9.812  1.00  0.00    -0.308 N 
ATOM      6  H4  UNL     1      50.826  39.294   9.663  1.00  0.00     0.170 HD
ENDROOT
BRANCH   1   7
HETATM    7  C12 UNL     1      52.753  39.628   6.152  1.00  0.00     0.133 A 
HETATM    8  N1  UNL     1      53.147  40.663   5.428  1.00  0.00    -0.240 N 
HETATM    9  N2  UNL     1      53.679  40.147   4.279  1.00  0.00    -0.295 N 
HETATM   10  C6  UNL     1      53.633  38.846   4.260  1.00  0.00     0.037 A 
ATOM     11  H2  UNL     1      54.066  40.715   3.525  1.00  0.00     0.187 HD
HETATM   12  C11 UNL     1      53.055  38.444   5.423  1.00  0.00     0.077 A 
BRANCH   8  13
HETATM   13  C5  UNL     1      53.128  42.064   5.656  1.00  0.00     0.058 A 
HETATM   14  C4  UNL     1      54.034  42.664   6.505  1.00  0.00     0.032 A 
HETATM   15  C3  UNL     1      53.990  44.016   6.779  1.00  0.00     0.009 A 
HETATM   16  C2  UNL     1      53.035  44.829   6.214  1.00  0.00    -0.062 A 
HETATM   17  C1  UNL     1      52.985  46.297   6.509  1.00  0.00     0.048 C 
HETATM   18  C31 UNL     1      52.115  44.258   5.361  1.00  0.00     0.009 A 
HETATM   19  C30 UNL     1      52.161  42.904   5.089  1.00  0.00     0.032 A 
ENDBRANCH   8  13
BRANCH  10  20
HETATM   20  C7  UNL     1      54.111  37.885   3.193  1.00  0.00    -0.007 C 
HETATM   21  C8  UNL     1      55.524  37.502   3.650  1.00  0.00     0.021 C 
HETATM   22  C9  UNL     1      53.257  36.652   3.173  1.00  0.00     0.021 C 
HETATM   23  C10 UNL     1      54.130  38.595   1.867  1.00  0.00     0.021 C 
ENDBRANCH  10  20
ENDBRANCH   1   7
BRANCH   5  24
HETATM   24  C14 UNL     1      52.179  38.746  11.110  1.00  0.00     0.047 A 
HETATM   25  C15 UNL     1      52.581  39.695  12.013  1.00  0.00     0.033 A 
HETATM   26  C16 UNL     1      52.916  39.345  13.329  1.00  0.00     0.040 A 
HETATM   27  C17 UNL     1      52.852  38.049  13.752  1.00  0.00     0.080 A 
HETATM   28  C24 UNL     1      52.447  37.082  12.847  1.00  0.00     0.010 A 
HETATM   29  C25 UNL     1      52.383  35.753  13.266  1.00  0.00     0.015 A 
HETATM   30  C29 UNL     1      52.113  37.417  11.544  1.00  0.00     0.004 A 
HETATM   31  C26 UNL     1      51.992  34.799  12.377  1.00  0.00     0.001 A 
HETATM   32  C27 UNL     1      51.652  35.083  11.075  1.00  0.00     0.001 A 
HETATM   33  C28 UNL     1      51.725  36.427  10.683  1.00  0.00     0.014 A 
BRANCH  27  34
HETATM   34  O2  UNL     1      53.169  37.658  15.019  1.00  0.00    -0.349 OA
BRANCH  34  35
HETATM   35  C18 UNL     1      52.555  38.122  16.214  1.00  0.00     0.206 C 
BRANCH  35  36
HETATM   36  C19 UNL     1      51.129  37.622  16.157  1.00  0.00     0.299 C 
BRANCH  36  37
HETATM   37  N5  UNL     1      50.170  38.443  16.808  1.00  0.00     0.094 N 
HETATM   38  C20 UNL     1      48.845  37.845  16.863  1.00  0.00     0.298 C 
HETATM   39  C21 UNL     1      48.333  37.506  15.485  1.00  0.00     0.198 C 
HETATM   40  O3  UNL     1      49.111  38.017  14.479  1.00  0.00    -0.388 OA
HETATM   41  C22 UNL     1      49.500  39.324  14.623  1.00  0.00     0.198 C 
HETATM   42  C23 UNL     1      49.996  39.664  16.012  1.00  0.00     0.298 C 
ENDBRANCH  36  37
ENDBRANCH  35  36
ENDBRANCH  34  35
ENDBRANCH  27  34
ENDBRANCH   5  24
TORSDOF 8
ENDMDL
