MODEL 5
REMARK VINA RESULT: -9.563096266      8.581     11.943
REMARK  8 active torsions:
REMARK  status: ('A' for Active; 'I' for Inactive)
REMARK    1  A    between atoms: C5_5  and  N1_6 
REMARK    2  A    between atoms: C6_9  and  C7_10 
REMARK    3  A    between atoms: C12_15  and  N3_16 
REMARK       I    between atoms: N3_16  and  C13_18 
REMARK       I    between atoms: C13_18  and  N4_20 
REMARK    4  A    between atoms: N4_20  and  C14_22 
REMARK    5  A    between atoms: C17_25  and  O2_26 
REMARK    6  A    between atoms: O2_26  and  C18_27 
REMARK    7  A    between atoms: C18_27  and  C19_28 
REMARK    8  A    between atoms: C19_28  and  N5_29 
ROOT
HETATM    1  N3  UNL     1      52.042  39.445   7.370  1.00  0.00    -0.293 N 
ATOM      2  H3  UNL     1      51.053  39.690   7.342  1.00  0.00     0.172 HD
HETATM    3  C13 UNL     1      52.540  39.052   8.633  1.00  0.00     0.326 C 
HETATM    4  O1  UNL     1      53.709  38.779   8.808  1.00  0.00    -0.247 OA
HETATM    5  N4  UNL     1      51.650  38.969   9.752  1.00  0.00    -0.308 N 
ATOM      6  H4  UNL     1      50.674  39.200   9.571  1.00  0.00     0.170 HD
ENDROOT
BRANCH   1   7
HETATM    7  C12 UNL     1      52.732  39.545   6.136  1.00  0.00     0.133 A 
HETATM    8  N1  UNL     1      53.120  40.583   5.413  1.00  0.00    -0.240 N 
HETATM    9  N2  UNL     1      53.715  40.071   4.294  1.00  0.00    -0.295 N 
HETATM   10  C6  UNL     1      53.714  38.769   4.292  1.00  0.00     0.037 A 
ATOM     11  H2  UNL     1      54.113  40.642   3.548  1.00  0.00     0.187 HD
HETATM   12  C11 UNL     1      53.103  38.363   5.437  1.00  0.00     0.077 A 
BRANCH   8  13
HETATM   13  C5  UNL     1      53.045  41.986   5.620  1.00  0.00     0.058 A 
HETATM   14  C4  UNL     1      53.951  42.641   6.428  1.00  0.00     0.032 A 
HETATM   15  C3  UNL     1      53.854  43.994   6.681  1.00  0.00     0.009 A 
HETATM   16  C2  UNL     1      52.844  44.753   6.137  1.00  0.00    -0.062 A 
HETATM   17  C1  UNL     1      52.737  46.222   6.409  1.00  0.00     0.048 C 
HETATM   18  C31 UNL     1      51.923  44.127   5.324  1.00  0.00     0.009 A 
HETATM   19  C30 UNL     1      52.022  42.772   5.073  1.00  0.00     0.032 A 
ENDBRANCH   8  13
BRANCH  10  20
HETATM   20  C7  UNL     1      54.267  37.811   3.260  1.00  0.00    -0.007 C 
HETATM   21  C8  UNL     1      54.139  38.580   1.940  1.00  0.00     0.021 C 
HETATM   22  C9  UNL     1      55.718  37.535   3.521  1.00  0.00     0.021 C 
HETATM   23  C10 UNL     1      53.434  36.558   3.256  1.00  0.00     0.021 C 
ENDBRANCH  10  20
ENDBRANCH   1   7
BRANCH   5  24
HETATM   24  C14 UNL     1      51.963  38.609  11.057  1.00  0.00     0.047 A 
HETATM   25  C15 UNL     1      52.375  39.535  11.980  1.00  0.00     0.033 A 
HETATM   26  C16 UNL     1      52.655  39.163  13.303  1.00  0.00     0.040 A 
HETATM   27  C17 UNL     1      52.527  37.868  13.713  1.00  0.00     0.080 A 
HETATM   28  C24 UNL     1      52.113  36.924  12.789  1.00  0.00     0.010 A 
HETATM   29  C25 UNL     1      51.984  35.595  13.194  1.00  0.00     0.015 A 
HETATM   30  C29 UNL     1      51.832  37.281  11.479  1.00  0.00     0.004 A 
HETATM   31  C26 UNL     1      51.583  34.664  12.286  1.00  0.00     0.001 A 
HETATM   32  C27 UNL     1      51.294  34.970  10.976  1.00  0.00     0.001 A 
HETATM   33  C28 UNL     1      51.432  36.313  10.598  1.00  0.00     0.014 A 
BRANCH  27  34
HETATM   34  O2  UNL     1      52.790  37.456  14.986  1.00  0.00    -0.349 OA
BRANCH  34  35
HETATM   35  C18 UNL     1      53.177  38.290  16.069  1.00  0.00     0.206 C 
BRANCH  35  36
HETATM   36  C19 UNL     1      52.216  37.968  17.192  1.00  0.00     0.299 C 
BRANCH  36  37
HETATM   37  N5  UNL     1      50.904  38.491  17.037  1.00  0.00     0.094 N 
HETATM   38  C20 UNL     1      50.862  39.945  17.047  1.00  0.00     0.298 C 
HETATM   39  C21 UNL     1      51.460  40.508  18.312  1.00  0.00     0.198 C 
HETATM   40  O3  UNL     1      51.715  39.552  19.261  1.00  0.00    -0.388 OA
HETATM   41  C22 UNL     1      50.719  38.635  19.475  1.00  0.00     0.198 C 
HETATM   42  C23 UNL     1      50.109  38.086  18.204  1.00  0.00     0.298 C 
ENDBRANCH  36  37
ENDBRANCH  35  36
ENDBRANCH  34  35
ENDBRANCH  27  34
ENDBRANCH   5  24
TORSDOF 8
ENDMDL
