MODEL 2
REMARK VINA RESULT: -6.175453922      0.858      1.475
REMARK  8 active torsions:
REMARK  status: ('A' for Active; 'I' for Inactive)
REMARK    1  A    between atoms: C2_2  and  C3_3 
REMARK    2  A    between atoms: C3_3  and  C4_4 
REMARK    3  A    between atoms: C4_4  and  C5_5 
REMARK    4  A    between atoms: C5_5  and  C6_6 
REMARK    5  A    between atoms: C6_6  and  C7_7 
REMARK    6  A    between atoms: C7_7  and  C8_8 
REMARK    7  A    between atoms: C8_8  and  C9_9 
REMARK    8  A    between atoms: C9_9  and  C10_10 
ROOT
HETATM    1  C6  UNL     1      12.379  -4.326   0.611  1.00  0.00     0.000 C 
ENDROOT
BRANCH   1   2
HETATM    2  C5  UNL     1      13.143  -3.239  -0.163  1.00  0.00     0.000 C 
BRANCH   2   3
HETATM    3  C4  UNL     1      14.447  -3.734  -0.671  1.00  0.00     0.000 C 
BRANCH   3   4
HETATM    4  C3  UNL     1      14.756  -5.168  -0.505  1.00  0.00    -0.000 C 
BRANCH   4   5
HETATM    5  C2  UNL     1      16.165  -5.610  -0.508  1.00  0.00    -0.005 C 
HETATM    6  C1  UNL     1      17.148  -4.815  -1.277  1.00  0.00     0.005 C 
ENDBRANCH   4   5
ENDBRANCH   3   4
ENDBRANCH   2   3
ENDBRANCH   1   2
BRANCH   1   7
HETATM    7  C7  UNL     1      11.030  -3.823   1.070  1.00  0.00     0.001 C 
BRANCH   7   8
HETATM    8  C8  UNL     1      10.160  -3.428  -0.101  1.00  0.00     0.010 C 
BRANCH   8   9
HETATM    9  C9  UNL     1       9.435  -2.122   0.112  1.00  0.00     0.113 C 
BRANCH   9  10
HETATM   10  C10 UNL     1       8.528  -2.111   1.251  1.00  0.00     0.172 C 
HETATM   11  O1  UNL     1       7.642  -2.975   1.382  1.00  0.00    -0.648 OA
HETATM   12  O2  UNL     1       8.638  -1.127   2.215  1.00  0.00    -0.648 OA
ENDBRANCH   9  10
ENDBRANCH   8   9
ENDBRANCH   7   8
ENDBRANCH   1   7
TORSDOF 8
ENDMDL
