MODEL 8
REMARK VINA RESULT: -5.988651039      1.075      1.573
REMARK  8 active torsions:
REMARK  status: ('A' for Active; 'I' for Inactive)
REMARK    1  A    between atoms: C2_2  and  C3_3 
REMARK    2  A    between atoms: C3_3  and  C4_4 
REMARK    3  A    between atoms: C4_4  and  C5_5 
REMARK    4  A    between atoms: C5_5  and  C6_6 
REMARK    5  A    between atoms: C6_6  and  C7_7 
REMARK    6  A    between atoms: C7_7  and  C8_8 
REMARK    7  A    between atoms: C8_8  and  C9_9 
REMARK    8  A    between atoms: C9_9  and  C10_10 
ROOT
HETATM    1  C6  UNL     1      12.241  -2.443  -0.095  1.00  0.00     0.000 C 
ENDROOT
BRANCH   1   2
HETATM    2  C5  UNL     1      13.581  -3.104  -0.457  1.00  0.00     0.000 C 
BRANCH   2   3
HETATM    3  C4  UNL     1      13.618  -4.535  -0.058  1.00  0.00     0.000 C 
BRANCH   3   4
HETATM    4  C3  UNL     1      14.833  -5.311  -0.378  1.00  0.00    -0.000 C 
BRANCH   4   5
HETATM    5  C2  UNL     1      15.906  -4.681  -1.172  1.00  0.00    -0.005 C 
HETATM    6  C1  UNL     1      17.281  -5.214  -1.041  1.00  0.00     0.005 C 
ENDBRANCH   4   5
ENDBRANCH   3   4
ENDBRANCH   2   3
ENDBRANCH   1   2
BRANCH   1   7
HETATM    7  C7  UNL     1      11.229  -3.472   0.354  1.00  0.00     0.001 C 
BRANCH   7   8
HETATM    8  C8  UNL     1       9.847  -3.151  -0.165  1.00  0.00     0.010 C 
BRANCH   8   9
HETATM    9  C9  UNL     1       8.875  -2.779   0.926  1.00  0.00     0.113 C 
BRANCH   9  10
HETATM   10  C10 UNL     1       8.878  -1.367   1.285  1.00  0.00     0.172 C 
HETATM   11  O1  UNL     1       8.531  -0.986   2.418  1.00  0.00    -0.648 OA
HETATM   12  O2  UNL     1       9.270  -0.418   0.360  1.00  0.00    -0.648 OA
ENDBRANCH   9  10
ENDBRANCH   8   9
ENDBRANCH   7   8
ENDBRANCH   1   7
TORSDOF 8
ENDMDL
