MODEL 3
REMARK VINA RESULT: -6.139253407      0.924      1.287
REMARK  8 active torsions:
REMARK  status: ('A' for Active; 'I' for Inactive)
REMARK    1  A    between atoms: C2_2  and  C3_3 
REMARK    2  A    between atoms: C3_3  and  C4_4 
REMARK    3  A    between atoms: C4_4  and  C5_5 
REMARK    4  A    between atoms: C5_5  and  C6_6 
REMARK    5  A    between atoms: C6_6  and  C7_7 
REMARK    6  A    between atoms: C7_7  and  C8_8 
REMARK    7  A    between atoms: C8_8  and  C9_9 
REMARK    8  A    between atoms: C9_9  and  C10_10 
ROOT
HETATM    1  C6  UNL     1      12.277  -4.245   0.698  1.00  0.00     0.000 C 
ENDROOT
BRANCH   1   2
HETATM    2  C5  UNL     1      13.531  -4.980   0.196  1.00  0.00     0.000 C 
BRANCH   2   3
HETATM    3  C4  UNL     1      14.415  -4.088  -0.598  1.00  0.00     0.000 C 
BRANCH   3   4
HETATM    4  C3  UNL     1      15.401  -4.716  -1.499  1.00  0.00    -0.000 C 
BRANCH   4   5
HETATM    5  C2  UNL     1      16.629  -5.305  -0.930  1.00  0.00    -0.005 C 
HETATM    6  C1  UNL     1      17.898  -5.138  -1.675  1.00  0.00     0.005 C 
ENDBRANCH   4   5
ENDBRANCH   3   4
ENDBRANCH   2   3
ENDBRANCH   1   2
BRANCH   1   7
HETATM    7  C7  UNL     1      12.198  -2.849   0.124  1.00  0.00     0.001 C 
BRANCH   7   8
HETATM    8  C8  UNL     1      10.776  -2.478  -0.231  1.00  0.00     0.010 C 
BRANCH   8   9
HETATM    9  C9  UNL     1       9.747  -3.268   0.539  1.00  0.00     0.113 C 
BRANCH   9  10
HETATM   10  C10 UNL     1       8.719  -2.461   1.181  1.00  0.00     0.172 C 
HETATM   11  O1  UNL     1       8.958  -1.307   1.583  1.00  0.00    -0.648 OA
HETATM   12  O2  UNL     1       7.447  -2.971   1.356  1.00  0.00    -0.648 OA
ENDBRANCH   9  10
ENDBRANCH   8   9
ENDBRANCH   7   8
ENDBRANCH   1   7
TORSDOF 8
ENDMDL
