MODEL 2
REMARK VINA RESULT: -4.938215828      0.957      1.694
REMARK  6 active torsions:
REMARK  status: ('A' for Active; 'I' for Inactive)
REMARK    1  A    between atoms: C2_2  and  C3_3 
REMARK    2  A    between atoms: C3_3  and  C4_4 
REMARK    3  A    between atoms: C4_4  and  C5_5 
REMARK    4  A    between atoms: C5_5  and  C6_6 
REMARK    5  A    between atoms: C6_6  and  C7_7 
REMARK    6  A    between atoms: C7_7  and  C8_8 
ROOT
HETATM    1  C5  UNL     1     -10.100  -8.139 -17.877  1.00  0.00     0.001 C 
ENDROOT
BRANCH   1   2
HETATM    2  C4  UNL     1     -10.260  -9.283 -18.837  1.00  0.00     0.000 C 
BRANCH   2   3
HETATM    3  C3  UNL     1     -11.683  -9.693 -19.027  1.00  0.00    -0.000 C 
BRANCH   3   4
HETATM    4  C2  UNL     1     -11.807 -10.894 -19.956  1.00  0.00    -0.005 C 
HETATM    5  C1  UNL     1     -13.074 -11.627 -19.602  1.00  0.00     0.005 C 
ENDBRANCH   3   4
ENDBRANCH   2   3
ENDBRANCH   1   2
BRANCH   1   6
HETATM    6  C6  UNL     1      -8.671  -7.841 -17.647  1.00  0.00     0.010 C 
BRANCH   6   7
HETATM    7  C7  UNL     1      -8.055  -6.919 -18.664  1.00  0.00     0.113 C 
BRANCH   7   8
HETATM    8  C8  UNL     1      -6.779  -6.323 -18.274  1.00  0.00     0.172 C 
HETATM    9  O1  UNL     1      -6.810  -5.549 -17.263  1.00  0.00    -0.648 OA
HETATM   10  O2  UNL     1      -5.557  -6.497 -18.862  1.00  0.00    -0.648 OA
ENDBRANCH   7   8
ENDBRANCH   6   7
ENDBRANCH   1   6
TORSDOF 6
ENDMDL
