MODEL 5
REMARK VINA RESULT: -9.182826574      1.305      1.930
REMARK  3 active torsions:
REMARK  status: ('A' for Active; 'I' for Inactive)
REMARK    1  A    between atoms: C1_2  and  C2_4 
REMARK    2  A    between atoms: C4_6  and  C5_7 
REMARK    3  A    between atoms: C13_16  and  O3_17 
ROOT
HETATM    1  C2  UNL     1       7.904  -4.620  17.001  1.00  0.00     0.076 A 
HETATM    2  C3  UNL     1       7.634  -4.901  15.654  1.00  0.00     0.033 A 
HETATM    3  C4  UNL     1       6.481  -5.514  15.225  1.00  0.00    -0.023 A 
HETATM    4  C11 UNL     1       5.517  -5.885  16.136  1.00  0.00     0.039 A 
HETATM    5  C12 UNL     1       5.760  -5.622  17.451  1.00  0.00     0.069 A 
HETATM    6 CL1  UNL     1       4.531  -6.094  18.630  1.00  0.00    -0.081 Cl
HETATM    7  C13 UNL     1       6.941  -4.992  17.909  1.00  0.00     0.104 A 
ENDROOT
BRANCH   3   8
HETATM    8  C5  UNL     1       6.227  -5.792  13.805  1.00  0.00    -0.026 A 
HETATM    9  C6  UNL     1       7.246  -5.574  12.913  1.00  0.00     0.012 A 
HETATM   10  C7  UNL     1       7.012  -5.829  11.574  1.00  0.00     0.001 A 
HETATM   11  C8  UNL     1       5.788  -6.289  11.149  1.00  0.00     0.000 A 
HETATM   12  C9  UNL     1       4.760  -6.507  12.053  1.00  0.00     0.001 A 
HETATM   13  C10 UNL     1       4.976  -6.259  13.396  1.00  0.00     0.012 A 
ENDBRANCH   3   8
BRANCH   1  14
HETATM   14  C1  UNL     1       9.148  -3.971  17.372  1.00  0.00     0.212 C 
HETATM   15  O1  UNL     1       9.984  -3.715  16.421  1.00  0.00    -0.644 OA
HETATM   16  O2  UNL     1       9.461  -3.628  18.667  1.00  0.00    -0.644 OA
ENDBRANCH   1  14
BRANCH   7  17
HETATM   17  O3  UNL     1       7.061  -4.787  19.255  1.00  0.00    -0.358 OA
ATOM     18  H3  UNL     1       6.766  -5.412  19.905  1.00  0.00     0.217 HD
ENDBRANCH   7  17
TORSDOF 3
ENDMDL
