MODEL 1
REMARK VINA RESULT: -9.661427698      0.000      0.000
REMARK  3 active torsions:
REMARK  status: ('A' for Active; 'I' for Inactive)
REMARK    1  A    between atoms: C1_2  and  C2_4 
REMARK    2  A    between atoms: C4_6  and  C5_7 
REMARK    3  A    between atoms: C13_16  and  O3_17 
ROOT
HETATM    1  C2  UNL     1       6.284  -4.873  17.616  1.00  0.00     0.076 A 
HETATM    2  C3  UNL     1       6.431  -4.952  16.225  1.00  0.00     0.033 A 
HETATM    3  C4  UNL     1       5.727  -5.833  15.439  1.00  0.00    -0.023 A 
HETATM    4  C11 UNL     1       4.821  -6.698  16.013  1.00  0.00     0.039 A 
HETATM    5  C12 UNL     1       4.664  -6.637  17.365  1.00  0.00     0.069 A 
HETATM    6 CL1  UNL     1       3.504  -7.741  18.113  1.00  0.00    -0.081 Cl
HETATM    7  C13 UNL     1       5.380  -5.736  18.188  1.00  0.00     0.104 A 
ENDROOT
BRANCH   3   8
HETATM    8  C5  UNL     1       5.901  -5.890  13.981  1.00  0.00    -0.026 A 
HETATM    9  C6  UNL     1       4.889  -6.434  13.232  1.00  0.00     0.012 A 
HETATM   10  C7  UNL     1       5.049  -6.495  11.859  1.00  0.00     0.001 A 
HETATM   11  C8  UNL     1       6.194  -6.023  11.263  1.00  0.00     0.000 A 
HETATM   12  C9  UNL     1       7.214  -5.475  12.023  1.00  0.00     0.001 A 
HETATM   13  C10 UNL     1       7.072  -5.404  13.396  1.00  0.00     0.012 A 
ENDBRANCH   3   8
BRANCH   1  14
HETATM   14  C1  UNL     1       7.067  -3.914  18.375  1.00  0.00     0.212 C 
HETATM   15  O1  UNL     1       7.893  -3.175  17.714  1.00  0.00    -0.644 OA
HETATM   16  O2  UNL     1       6.964  -3.770  19.740  1.00  0.00    -0.644 OA
ENDBRANCH   1  14
BRANCH   7  17
HETATM   17  O3  UNL     1       5.129  -5.778  19.530  1.00  0.00    -0.358 OA
ATOM     18  H3  UNL     1       4.440  -6.306  19.915  1.00  0.00     0.217 HD
ENDBRANCH   7  17
TORSDOF 3
ENDMDL
