MODEL 4
REMARK VINA RESULT: -9.245828131      1.316      1.571
REMARK  3 active torsions:
REMARK  status: ('A' for Active; 'I' for Inactive)
REMARK    1  A    between atoms: C1_2  and  C2_4 
REMARK    2  A    between atoms: C4_6  and  C5_7 
REMARK    3  A    between atoms: C13_16  and  O3_17 
ROOT
HETATM    1  C2  UNL     1       7.903  -4.620  16.970  1.00  0.00     0.076 A 
HETATM    2  C3  UNL     1       7.635  -4.903  15.624  1.00  0.00     0.033 A 
HETATM    3  C4  UNL     1       6.479  -5.509  15.194  1.00  0.00    -0.023 A 
HETATM    4  C11 UNL     1       5.511  -5.873  16.104  1.00  0.00     0.039 A 
HETATM    5  C12 UNL     1       5.753  -5.608  17.418  1.00  0.00     0.069 A 
HETATM    6 CL1  UNL     1       4.518  -6.069  18.596  1.00  0.00    -0.081 Cl
HETATM    7  C13 UNL     1       6.937  -4.983  17.877  1.00  0.00     0.104 A 
ENDROOT
BRANCH   3   8
HETATM    8  C5  UNL     1       6.226  -5.790  13.774  1.00  0.00    -0.026 A 
HETATM    9  C6  UNL     1       4.981  -6.242  13.418  1.00  0.00     0.012 A 
HETATM   10  C7  UNL     1       4.738  -6.513  12.084  1.00  0.00     0.001 A 
HETATM   11  C8  UNL     1       5.719  -6.333  11.139  1.00  0.00     0.000 A 
HETATM   12  C9  UNL     1       6.976  -5.875  11.502  1.00  0.00     0.001 A 
HETATM   13  C10 UNL     1       7.238  -5.599  12.831  1.00  0.00     0.012 A 
ENDBRANCH   3   8
BRANCH   1  14
HETATM   14  C1  UNL     1       9.151  -3.977  17.342  1.00  0.00     0.212 C 
HETATM   15  O1  UNL     1       9.992  -3.732  16.394  1.00  0.00    -0.644 OA
HETATM   16  O2  UNL     1       9.461  -3.629  18.637  1.00  0.00    -0.644 OA
ENDBRANCH   1  14
BRANCH   7  17
HETATM   17  O3  UNL     1       7.055  -4.775  19.222  1.00  0.00    -0.358 OA
ATOM     18  H3  UNL     1       7.302  -5.457  19.836  1.00  0.00     0.217 HD
ENDBRANCH   7  17
TORSDOF 3
ENDMDL
