MODEL 2
REMARK VINA RESULT: -9.660209432      0.041      1.169
REMARK  3 active torsions:
REMARK  status: ('A' for Active; 'I' for Inactive)
REMARK    1  A    between atoms: C1_2  and  C2_4 
REMARK    2  A    between atoms: C4_6  and  C5_7 
REMARK    3  A    between atoms: C13_16  and  O3_17 
ROOT
HETATM    1  C2  UNL     1       6.280  -4.893  17.607  1.00  0.00     0.076 A 
HETATM    2  C3  UNL     1       6.428  -4.975  16.216  1.00  0.00     0.033 A 
HETATM    3  C4  UNL     1       5.717  -5.851  15.429  1.00  0.00    -0.023 A 
HETATM    4  C11 UNL     1       4.803  -6.707  16.003  1.00  0.00     0.039 A 
HETATM    5  C12 UNL     1       4.645  -6.644  17.354  1.00  0.00     0.069 A 
HETATM    6 CL1  UNL     1       3.474  -7.737  18.102  1.00  0.00    -0.081 Cl
HETATM    7  C13 UNL     1       5.367  -5.748  18.178  1.00  0.00     0.104 A 
ENDROOT
BRANCH   3   8
HETATM    8  C5  UNL     1       5.893  -5.910  13.972  1.00  0.00    -0.026 A 
HETATM    9  C6  UNL     1       7.059  -5.416  13.443  1.00  0.00     0.012 A 
HETATM   10  C7  UNL     1       7.229  -5.465  12.071  1.00  0.00     0.001 A 
HETATM   11  C8  UNL     1       6.255  -5.994  11.260  1.00  0.00     0.000 A 
HETATM   12  C9  UNL     1       5.079  -6.492  11.797  1.00  0.00     0.001 A 
HETATM   13  C10 UNL     1       4.890  -6.453  13.167  1.00  0.00     0.012 A 
ENDBRANCH   3   8
BRANCH   1  14
HETATM   14  C1  UNL     1       7.070  -3.940  18.366  1.00  0.00     0.212 C 
HETATM   15  O1  UNL     1       7.875  -3.182  17.700  1.00  0.00    -0.644 OA
HETATM   16  O2  UNL     1       6.995  -3.822  19.735  1.00  0.00    -0.644 OA
ENDBRANCH   1  14
BRANCH   7  17
HETATM   17  O3  UNL     1       5.114  -5.787  19.520  1.00  0.00    -0.358 OA
ATOM     18  H3  UNL     1       5.128  -6.588  20.030  1.00  0.00     0.217 HD
ENDBRANCH   7  17
TORSDOF 3
ENDMDL
