MODEL 6
REMARK VINA RESULT: -9.033964614      4.010      7.458
REMARK  3 active torsions:
REMARK  status: ('A' for Active; 'I' for Inactive)
REMARK    1  A    between atoms: C1_2  and  C2_4 
REMARK    2  A    between atoms: C4_6  and  C5_7 
REMARK    3  A    between atoms: C13_16  and  O3_17 
ROOT
HETATM    1  C2  UNL     1       8.703  -4.262  18.029  1.00  0.00     0.076 A 
HETATM    2  C3  UNL     1       9.101  -3.950  19.336  1.00  0.00     0.033 A 
HETATM    3  C4  UNL     1       8.271  -4.060  20.427  1.00  0.00    -0.023 A 
HETATM    4  C11 UNL     1       6.975  -4.497  20.266  1.00  0.00     0.039 A 
HETATM    5  C12 UNL     1       6.567  -4.804  19.003  1.00  0.00     0.069 A 
HETATM    6 CL1  UNL     1       4.906  -5.366  18.784  1.00  0.00    -0.081 Cl
HETATM    7  C13 UNL     1       7.408  -4.697  17.870  1.00  0.00     0.104 A 
ENDROOT
BRANCH   3   8
HETATM    8  C5  UNL     1       8.720  -3.728  21.786  1.00  0.00    -0.026 A 
HETATM    9  C6  UNL     1       8.851  -2.403  22.115  1.00  0.00     0.012 A 
HETATM   10  C7  UNL     1       9.279  -2.083  23.391  1.00  0.00     0.001 A 
HETATM   11  C8  UNL     1       9.564  -3.069  24.305  1.00  0.00     0.000 A 
HETATM   12  C9  UNL     1       9.431  -4.407  23.969  1.00  0.00     0.001 A 
HETATM   13  C10 UNL     1       9.005  -4.746  22.698  1.00  0.00     0.012 A 
ENDBRANCH   3   8
BRANCH   1  14
HETATM   14  C1  UNL     1       9.641  -4.117  16.930  1.00  0.00     0.212 C 
HETATM   15  O1  UNL     1       9.756  -5.115  16.121  1.00  0.00    -0.644 OA
HETATM   16  O2  UNL     1      10.393  -2.982  16.728  1.00  0.00    -0.644 OA
ENDBRANCH   1  14
BRANCH   7  17
HETATM   17  O3  UNL     1       6.875  -5.037  16.659  1.00  0.00    -0.358 OA
ATOM     18  H3  UNL     1       6.328  -5.801  16.526  1.00  0.00     0.217 HD
ENDBRANCH   7  17
TORSDOF 3
ENDMDL
