MODEL 11
REMARK VINA RESULT: -8.646288753      3.981      4.828
REMARK  3 active torsions:
REMARK  status: ('A' for Active; 'I' for Inactive)
REMARK    1  A    between atoms: C1_2  and  C2_4 
REMARK    2  A    between atoms: C4_6  and  C5_7 
REMARK    3  A    between atoms: C13_16  and  O3_17 
ROOT
HETATM    1  C2  UNL     1       8.373  -3.830  18.658  1.00  0.00     0.076 A 
HETATM    2  C3  UNL     1       7.246  -4.472  18.128  1.00  0.00     0.033 A 
HETATM    3  C4  UNL     1       6.309  -5.117  18.900  1.00  0.00    -0.023 A 
HETATM    4  C11 UNL     1       6.452  -5.156  20.270  1.00  0.00     0.039 A 
HETATM    5  C12 UNL     1       7.542  -4.538  20.805  1.00  0.00     0.069 A 
HETATM    6 CL1  UNL     1       7.737  -4.580  22.561  1.00  0.00    -0.081 Cl
HETATM    7  C13 UNL     1       8.515  -3.869  20.025  1.00  0.00     0.104 A 
ENDROOT
BRANCH   3   8
HETATM    8  C5  UNL     1       5.136  -5.779  18.314  1.00  0.00    -0.026 A 
HETATM    9  C6  UNL     1       4.352  -5.055  17.452  1.00  0.00     0.012 A 
HETATM   10  C7  UNL     1       3.242  -5.670  16.900  1.00  0.00     0.001 A 
HETATM   11  C8  UNL     1       2.934  -6.973  17.208  1.00  0.00     0.000 A 
HETATM   12  C9  UNL     1       3.729  -7.702  18.080  1.00  0.00     0.001 A 
HETATM   13  C10 UNL     1       4.842  -7.104  18.641  1.00  0.00     0.012 A 
ENDBRANCH   3   8
BRANCH   1  14
HETATM   14  C1  UNL     1       9.316  -3.171  17.772  1.00  0.00     0.212 C 
HETATM   15  O1  UNL     1       9.615  -1.944  18.040  1.00  0.00    -0.644 OA
HETATM   16  O2  UNL     1       9.887  -3.792  16.685  1.00  0.00    -0.644 OA
ENDBRANCH   1  14
BRANCH   7  17
HETATM   17  O3  UNL     1       9.561  -3.291  20.687  1.00  0.00    -0.358 OA
ATOM     18  H3  UNL     1       9.459  -2.562  21.286  1.00  0.00     0.217 HD
ENDBRANCH   7  17
TORSDOF 3
ENDMDL
