MODEL 7
REMARK VINA RESULT: -9.028025034      4.005      7.421
REMARK  3 active torsions:
REMARK  status: ('A' for Active; 'I' for Inactive)
REMARK    1  A    between atoms: C1_2  and  C2_4 
REMARK    2  A    between atoms: C4_6  and  C5_7 
REMARK    3  A    between atoms: C13_16  and  O3_17 
ROOT
HETATM    1  C2  UNL     1       8.706  -4.279  18.020  1.00  0.00     0.076 A 
HETATM    2  C3  UNL     1       9.104  -3.959  19.325  1.00  0.00     0.033 A 
HETATM    3  C4  UNL     1       8.274  -4.061  20.416  1.00  0.00    -0.023 A 
HETATM    4  C11 UNL     1       6.977  -4.497  20.258  1.00  0.00     0.039 A 
HETATM    5  C12 UNL     1       6.569  -4.812  18.997  1.00  0.00     0.069 A 
HETATM    6 CL1  UNL     1       4.907  -5.373  18.781  1.00  0.00    -0.081 Cl
HETATM    7  C13 UNL     1       7.411  -4.714  17.863  1.00  0.00     0.104 A 
ENDROOT
BRANCH   3   8
HETATM    8  C5  UNL     1       8.723  -3.721  21.773  1.00  0.00    -0.026 A 
HETATM    9  C6  UNL     1       9.002  -4.749  22.636  1.00  0.00     0.012 A 
HETATM   10  C7  UNL     1       9.421  -4.435  23.917  1.00  0.00     0.001 A 
HETATM   11  C8  UNL     1       9.553  -3.126  24.313  1.00  0.00     0.000 A 
HETATM   12  C9  UNL     1       9.270  -2.089  23.438  1.00  0.00     0.001 A 
HETATM   13  C10 UNL     1       8.851  -2.383  22.153  1.00  0.00     0.012 A 
ENDBRANCH   3   8
BRANCH   1  14
HETATM   14  C1  UNL     1       9.644  -4.143  16.920  1.00  0.00     0.212 C 
HETATM   15  O1  UNL     1       9.763  -5.150  16.121  1.00  0.00    -0.644 OA
HETATM   16  O2  UNL     1      10.394  -3.009  16.707  1.00  0.00    -0.644 OA
ENDBRANCH   1  14
BRANCH   7  17
HETATM   17  O3  UNL     1       6.877  -5.061  16.654  1.00  0.00    -0.358 OA
ATOM     18  H3  UNL     1       7.052  -5.890  16.226  1.00  0.00     0.217 HD
ENDBRANCH   7  17
TORSDOF 3
ENDMDL
