MODEL 5
REMARK VINA RESULT: -9.297668885      2.452      5.885
REMARK  13 active torsions:
REMARK  status: ('A' for Active; 'I' for Inactive)
REMARK    1  A    between atoms: C2_2  and  C4_4 
REMARK    2  A    between atoms: C4_4  and  N1_5 
REMARK    3  A    between atoms: N1_5  and  C5_6 
REMARK    4  A    between atoms: N1_5  and  S1_28 
REMARK    5  A    between atoms: C5_6  and  C6_7 
REMARK    6  A    between atoms: C6_7  and  O1_8 
REMARK    7  A    between atoms: C6_7  and  C7_10 
REMARK    8  A    between atoms: C7_10  and  C8_11 
REMARK    9  A    between atoms: C7_10  and  N2_18 
REMARK   10  A    between atoms: C8_11  and  C9_12 
REMARK       I    between atoms: N2_18  and  C15_20 
REMARK   11  A    between atoms: C15_20  and  O3_22 
REMARK   12  A    between atoms: O3_22  and  C16_23 
REMARK   13  A    between atoms: S1_28  and  C20_31 
ROOT
HETATM    1  C6  UNL     1      17.330  21.102  17.219  1.00  0.00     0.160 C 
ENDROOT
BRANCH   1   2
HETATM    2  C5  UNL     1      17.772  22.507  17.062  1.00  0.00     0.174 C 
BRANCH   2   3
HETATM    3  N1  UNL     1      17.089  23.335  16.142  1.00  0.00    -0.283 N 
BRANCH   3   4
HETATM    4  C4  UNL     1      16.817  22.802  14.869  1.00  0.00     0.080 C 
BRANCH   4   5
HETATM    5  C2  UNL     1      15.534  22.024  14.735  1.00  0.00     0.017 C 
HETATM    6  C1  UNL     1      15.237  21.505  13.372  1.00  0.00     0.015 C 
HETATM    7  C3  UNL     1      14.363  22.787  15.333  1.00  0.00     0.015 C 
ENDBRANCH   4   5
ENDBRANCH   3   4
BRANCH   3   8
HETATM    8  S1  UNL     1      17.580  24.943  16.111  1.00  0.00     0.264 S 
HETATM    9  O5  UNL     1      16.873  25.697  15.011  1.00  0.00    -0.200 OA
HETATM   10  O6  UNL     1      17.122  25.636  17.408  1.00  0.00    -0.200 OA
BRANCH   8  11
HETATM   11  C20 UNL     1      19.302  25.205  15.951  1.00  0.00     0.080 A 
HETATM   12  C21 UNL     1      20.084  24.582  15.006  1.00  0.00     0.027 A 
HETATM   13  C22 UNL     1      21.450  24.840  14.916  1.00  0.00     0.028 A 
HETATM   14  C23 UNL     1      22.081  25.726  15.764  1.00  0.00     0.046 A 
HETATM   15  N3  UNL     1      23.480  25.973  15.653  1.00  0.00    -0.102 NA
HETATM   16  C24 UNL     1      21.300  26.352  16.712  1.00  0.00     0.028 A 
HETATM   17  C25 UNL     1      19.949  26.101  16.805  1.00  0.00     0.027 A 
ENDBRANCH   8  11
ENDBRANCH   3   8
ENDBRANCH   2   3
ENDBRANCH   1   2
BRANCH   1  18
HETATM   18  O1  UNL     1      18.308  20.147  17.015  1.00  0.00    -0.392 OA
ATOM     19  H1  UNL     1      17.990  19.280  16.794  1.00  0.00     0.210 HD
ENDBRANCH   1  18
BRANCH   1  20
HETATM   20  C7  UNL     1      16.757  20.844  18.629  1.00  0.00     0.121 C 
BRANCH  20  21
HETATM   21  C8  UNL     1      15.268  21.071  18.560  1.00  0.00     0.066 C 
BRANCH  21  22
HETATM   22  C9  UNL     1      14.526  20.042  19.349  1.00  0.00    -0.056 A 
HETATM   23  C10 UNL     1      13.325  19.542  18.904  1.00  0.00     0.007 A 
HETATM   24  C11 UNL     1      12.631  18.579  19.644  1.00  0.00     0.001 A 
HETATM   25  C12 UNL     1      13.163  18.133  20.828  1.00  0.00     0.000 A 
HETATM   26  C13 UNL     1      14.356  18.614  21.293  1.00  0.00     0.001 A 
HETATM   27  C14 UNL     1      15.023  19.566  20.541  1.00  0.00     0.007 A 
ENDBRANCH  21  22
ENDBRANCH  20  21
BRANCH  20  28
HETATM   28  N2  UNL     1      17.282  21.969  19.423  1.00  0.00    -0.329 N 
HETATM   29  C15 UNL     1      18.510  21.861  20.103  1.00  0.00     0.361 C 
HETATM   30  O2  UNL     1      19.133  20.769  20.007  1.00  0.00    -0.238 OA
ATOM     31  H2  UNL     1      16.749  22.836  19.482  1.00  0.00     0.165 HD
BRANCH  29  32
HETATM   32  O3  UNL     1      19.065  22.890  20.869  1.00  0.00    -0.296 OA
BRANCH  32  33
HETATM   33  C16 UNL     1      19.701  23.995  20.233  1.00  0.00     0.159 C 
HETATM   34  C17 UNL     1      20.508  24.809  21.226  1.00  0.00     0.061 C 
HETATM   35  C18 UNL     1      21.938  24.510  20.867  1.00  0.00     0.170 C 
HETATM   36  O4  UNL     1      21.856  24.359  19.474  1.00  0.00    -0.389 OA
HETATM   37  C19 UNL     1      20.781  23.464  19.321  1.00  0.00     0.200 C 
ENDBRANCH  32  33
ENDBRANCH  29  32
ENDBRANCH  20  28
ENDBRANCH   1  20
TORSDOF 13
ENDMDL
