MODEL 4
REMARK VINA RESULT: -9.330568376      1.547      4.828
REMARK  13 active torsions:
REMARK  status: ('A' for Active; 'I' for Inactive)
REMARK    1  A    between atoms: C2_2  and  C4_4 
REMARK    2  A    between atoms: C4_4  and  N1_5 
REMARK    3  A    between atoms: N1_5  and  C5_6 
REMARK    4  A    between atoms: N1_5  and  S1_28 
REMARK    5  A    between atoms: C5_6  and  C6_7 
REMARK    6  A    between atoms: C6_7  and  O1_8 
REMARK    7  A    between atoms: C6_7  and  C7_10 
REMARK    8  A    between atoms: C7_10  and  C8_11 
REMARK    9  A    between atoms: C7_10  and  N2_18 
REMARK   10  A    between atoms: C8_11  and  C9_12 
REMARK       I    between atoms: N2_18  and  C15_20 
REMARK   11  A    between atoms: C15_20  and  O3_22 
REMARK   12  A    between atoms: O3_22  and  C16_23 
REMARK   13  A    between atoms: S1_28  and  C20_31 
ROOT
HETATM    1  C6  UNL     1      15.123  22.455  18.673  1.00  0.00     0.160 C 
ENDROOT
BRANCH   1   2
HETATM    2  C5  UNL     1      16.057  22.713  17.552  1.00  0.00     0.174 C 
BRANCH   2   3
HETATM    3  N1  UNL     1      17.441  22.795  17.827  1.00  0.00    -0.283 N 
BRANCH   3   4
HETATM    4  C4  UNL     1      17.842  23.624  18.891  1.00  0.00     0.080 C 
BRANCH   4   5
HETATM    5  C2  UNL     1      18.807  23.020  19.877  1.00  0.00     0.017 C 
HETATM    6  C1  UNL     1      18.785  21.534  19.969  1.00  0.00     0.015 C 
HETATM    7  C3  UNL     1      18.692  23.687  21.238  1.00  0.00     0.015 C 
ENDBRANCH   4   5
ENDBRANCH   3   4
BRANCH   3   8
HETATM    8  S1  UNL     1      18.444  22.892  16.480  1.00  0.00     0.264 S 
HETATM    9  O5  UNL     1      19.615  21.950  16.616  1.00  0.00    -0.200 OA
HETATM   10  O6  UNL     1      17.680  22.379  15.245  1.00  0.00    -0.200 OA
BRANCH   8  11
HETATM   11  C20 UNL     1      19.050  24.488  16.102  1.00  0.00     0.080 A 
HETATM   12  C21 UNL     1      19.877  25.207  16.934  1.00  0.00     0.027 A 
HETATM   13  C22 UNL     1      20.341  26.470  16.574  1.00  0.00     0.028 A 
HETATM   14  C23 UNL     1      19.997  27.058  15.375  1.00  0.00     0.046 A 
HETATM   15  N3  UNL     1      20.484  28.351  15.029  1.00  0.00    -0.102 NA
HETATM   16  C24 UNL     1      19.168  26.340  14.539  1.00  0.00     0.028 A 
HETATM   17  C25 UNL     1      18.707  25.091  14.889  1.00  0.00     0.027 A 
ENDBRANCH   8  11
ENDBRANCH   3   8
ENDBRANCH   2   3
ENDBRANCH   1   2
BRANCH   1  18
HETATM   18  O1  UNL     1      14.110  23.383  18.824  1.00  0.00    -0.392 OA
ATOM     19  H1  UNL     1      13.533  23.238  19.564  1.00  0.00     0.210 HD
ENDBRANCH   1  18
BRANCH   1  20
HETATM   20  C7  UNL     1      14.437  21.080  18.532  1.00  0.00     0.121 C 
BRANCH  20  21
HETATM   21  C8  UNL     1      15.283  20.076  19.274  1.00  0.00     0.066 C 
BRANCH  21  22
HETATM   22  C9  UNL     1      14.436  19.139  20.073  1.00  0.00    -0.056 A 
HETATM   23  C10 UNL     1      14.543  19.084  21.442  1.00  0.00     0.007 A 
HETATM   24  C11 UNL     1      13.750  18.205  22.188  1.00  0.00     0.001 A 
HETATM   25  C12 UNL     1      12.856  17.393  21.538  1.00  0.00     0.000 A 
HETATM   26  C13 UNL     1      12.730  17.429  20.176  1.00  0.00     0.001 A 
HETATM   27  C14 UNL     1      13.526  18.307  19.461  1.00  0.00     0.007 A 
ENDBRANCH  21  22
ENDBRANCH  20  21
BRANCH  20  28
HETATM   28  N2  UNL     1      14.612  20.754  17.106  1.00  0.00    -0.329 N 
HETATM   29  C15 UNL     1      13.537  20.262  16.341  1.00  0.00     0.361 C 
HETATM   30  O2  UNL     1      12.430  20.111  16.925  1.00  0.00    -0.238 OA
ATOM     31  H2  UNL     1      15.523  20.885  16.668  1.00  0.00     0.165 HD
BRANCH  29  32
HETATM   32  O3  UNL     1      13.636  19.938  14.985  1.00  0.00    -0.296 OA
BRANCH  32  33
HETATM   33  C16 UNL     1      13.421  20.935  13.991  1.00  0.00     0.159 C 
HETATM   34  C17 UNL     1      14.586  21.903  13.923  1.00  0.00     0.061 C 
HETATM   35  C18 UNL     1      15.266  21.566  12.625  1.00  0.00     0.170 C 
HETATM   36  O4  UNL     1      14.177  21.197  11.821  1.00  0.00    -0.389 OA
HETATM   37  C19 UNL     1      13.488  20.278  12.633  1.00  0.00     0.200 C 
ENDBRANCH  32  33
ENDBRANCH  29  32
ENDBRANCH  20  28
ENDBRANCH   1  20
TORSDOF 13
ENDMDL
