MODEL 1
REMARK VINA RESULT: -9.767996450      0.000      0.000
REMARK  13 active torsions:
REMARK  status: ('A' for Active; 'I' for Inactive)
REMARK    1  A    between atoms: C2_2  and  C4_4 
REMARK    2  A    between atoms: C4_4  and  N1_5 
REMARK    3  A    between atoms: N1_5  and  C5_6 
REMARK    4  A    between atoms: N1_5  and  S1_28 
REMARK    5  A    between atoms: C5_6  and  C6_7 
REMARK    6  A    between atoms: C6_7  and  O1_8 
REMARK    7  A    between atoms: C6_7  and  C7_10 
REMARK    8  A    between atoms: C7_10  and  C8_11 
REMARK    9  A    between atoms: C7_10  and  N2_18 
REMARK   10  A    between atoms: C8_11  and  C9_12 
REMARK       I    between atoms: N2_18  and  C15_20 
REMARK   11  A    between atoms: C15_20  and  O3_22 
REMARK   12  A    between atoms: O3_22  and  C16_23 
REMARK   13  A    between atoms: S1_28  and  C20_31 
ROOT
HETATM    1  C6  UNL     1      15.744  23.561  18.196  1.00  0.00     0.160 C 
ENDROOT
BRANCH   1   2
HETATM    2  C5  UNL     1      16.857  24.397  17.688  1.00  0.00     0.174 C 
BRANCH   2   3
HETATM    3  N1  UNL     1      18.174  23.888  17.754  1.00  0.00    -0.283 N 
BRANCH   3   4
HETATM    4  C4  UNL     1      18.950  24.243  18.873  1.00  0.00     0.080 C 
BRANCH   4   5
HETATM    5  C2  UNL     1      19.221  23.146  19.868  1.00  0.00     0.017 C 
HETATM    6  C1  UNL     1      18.745  21.791  19.476  1.00  0.00     0.015 C 
HETATM    7  C3  UNL     1      18.760  23.541  21.262  1.00  0.00     0.015 C 
ENDBRANCH   4   5
ENDBRANCH   3   4
BRANCH   3   8
HETATM    8  S1  UNL     1      19.030  23.899  16.306  1.00  0.00     0.264 S 
HETATM    9  O5  UNL     1      20.077  22.813  16.295  1.00  0.00    -0.200 OA
HETATM   10  O6  UNL     1      18.077  23.527  15.155  1.00  0.00    -0.200 OA
BRANCH   8  11
HETATM   11  C20 UNL     1      19.793  25.417  15.892  1.00  0.00     0.080 A 
HETATM   12  C21 UNL     1      20.753  26.026  16.668  1.00  0.00     0.027 A 
HETATM   13  C22 UNL     1      21.338  27.229  16.280  1.00  0.00     0.028 A 
HETATM   14  C23 UNL     1      20.986  27.866  15.108  1.00  0.00     0.046 A 
HETATM   15  N3  UNL     1      21.598  29.096  14.733  1.00  0.00    -0.102 NA
HETATM   16  C24 UNL     1      20.025  27.258  14.328  1.00  0.00     0.028 A 
HETATM   17  C25 UNL     1      19.444  26.068  14.706  1.00  0.00     0.027 A 
ENDBRANCH   8  11
ENDBRANCH   3   8
ENDBRANCH   2   3
ENDBRANCH   1   2
BRANCH   1  18
HETATM   18  O1  UNL     1      14.596  24.250  18.539  1.00  0.00    -0.392 OA
ATOM     19  H1  UNL     1      13.783  23.857  18.244  1.00  0.00     0.210 HD
ENDBRANCH   1  18
BRANCH   1  20
HETATM   20  C7  UNL     1      15.321  22.496  17.163  1.00  0.00     0.121 C 
BRANCH  20  21
HETATM   21  C8  UNL     1      14.647  23.215  16.022  1.00  0.00     0.066 C 
BRANCH  21  22
HETATM   22  C9  UNL     1      14.326  22.277  14.904  1.00  0.00    -0.056 A 
HETATM   23  C10 UNL     1      15.319  21.775  14.096  1.00  0.00     0.007 A 
HETATM   24  C11 UNL     1      15.016  20.898  13.050  1.00  0.00     0.001 A 
HETATM   25  C12 UNL     1      13.709  20.538  12.833  1.00  0.00     0.000 A 
HETATM   26  C13 UNL     1      12.703  21.024  13.622  1.00  0.00     0.001 A 
HETATM   27  C14 UNL     1      13.029  21.891  14.652  1.00  0.00     0.007 A 
ENDBRANCH  21  22
ENDBRANCH  20  21
BRANCH  20  28
HETATM   28  N2  UNL     1      14.242  21.763  17.848  1.00  0.00    -0.329 N 
HETATM   29  C15 UNL     1      14.443  20.448  18.310  1.00  0.00     0.361 C 
HETATM   30  O2  UNL     1      15.573  19.929  18.110  1.00  0.00    -0.238 OA
ATOM     31  H2  UNL     1      13.338  22.214  17.989  1.00  0.00     0.165 HD
BRANCH  29  32
HETATM   32  O3  UNL     1      13.463  19.702  18.970  1.00  0.00    -0.296 OA
BRANCH  32  33
HETATM   33  C16 UNL     1      13.790  18.445  19.554  1.00  0.00     0.159 C 
HETATM   34  C17 UNL     1      14.287  18.613  20.977  1.00  0.00     0.061 C 
HETATM   35  C18 UNL     1      13.167  18.072  21.823  1.00  0.00     0.170 C 
HETATM   36  O4  UNL     1      12.673  17.038  21.013  1.00  0.00    -0.389 OA
HETATM   37  C19 UNL     1      12.511  17.669  19.766  1.00  0.00     0.200 C 
ENDBRANCH  32  33
ENDBRANCH  29  32
ENDBRANCH  20  28
ENDBRANCH   1  20
TORSDOF 13
ENDMDL
