MODEL 2
REMARK VINA RESULT: -9.575004033      1.049      1.100
REMARK  13 active torsions:
REMARK  status: ('A' for Active; 'I' for Inactive)
REMARK    1  A    between atoms: C2_2  and  C4_4 
REMARK    2  A    between atoms: C4_4  and  N1_5 
REMARK    3  A    between atoms: N1_5  and  C5_6 
REMARK    4  A    between atoms: N1_5  and  S1_28 
REMARK    5  A    between atoms: C5_6  and  C6_7 
REMARK    6  A    between atoms: C6_7  and  O1_8 
REMARK    7  A    between atoms: C6_7  and  C7_10 
REMARK    8  A    between atoms: C7_10  and  C8_11 
REMARK    9  A    between atoms: C7_10  and  N2_18 
REMARK   10  A    between atoms: C8_11  and  C9_12 
REMARK       I    between atoms: N2_18  and  C15_20 
REMARK   11  A    between atoms: C15_20  and  O3_22 
REMARK   12  A    between atoms: O3_22  and  C16_23 
REMARK   13  A    between atoms: S1_28  and  C20_31 
ROOT
HETATM    1  C6  UNL     1      16.445  24.202  18.294  1.00  0.00     0.160 C 
ENDROOT
BRANCH   1   2
HETATM    2  C5  UNL     1      17.452  24.823  17.402  1.00  0.00     0.174 C 
BRANCH   2   3
HETATM    3  N1  UNL     1      18.767  24.305  17.399  1.00  0.00    -0.283 N 
BRANCH   3   4
HETATM    4  C4  UNL     1      19.605  24.658  18.473  1.00  0.00     0.080 C 
BRANCH   4   5
HETATM    5  C2  UNL     1      19.901  23.569  19.470  1.00  0.00     0.017 C 
HETATM    6  C1  UNL     1      19.329  22.233  19.150  1.00  0.00     0.015 C 
HETATM    7  C3  UNL     1      19.574  24.016  20.886  1.00  0.00     0.015 C 
ENDBRANCH   4   5
ENDBRANCH   3   4
BRANCH   3   8
HETATM    8  S1  UNL     1      19.544  24.306  15.907  1.00  0.00     0.264 S 
HETATM    9  O5  UNL     1      20.449  23.107  15.773  1.00  0.00    -0.200 OA
HETATM   10  O6  UNL     1      18.496  24.124  14.793  1.00  0.00    -0.200 OA
BRANCH   8  11
HETATM   11  C20 UNL     1      20.465  25.746  15.536  1.00  0.00     0.080 A 
HETATM   12  C21 UNL     1      21.829  25.841  15.692  1.00  0.00     0.027 A 
HETATM   13  C22 UNL     1      22.512  27.010  15.367  1.00  0.00     0.028 A 
HETATM   14  C23 UNL     1      21.861  28.122  14.875  1.00  0.00     0.046 A 
HETATM   15  N3  UNL     1      22.582  29.307  14.550  1.00  0.00    -0.102 NA
HETATM   16  C24 UNL     1      20.494  28.030  14.717  1.00  0.00     0.028 A 
HETATM   17  C25 UNL     1      19.813  26.877  15.037  1.00  0.00     0.027 A 
ENDBRANCH   8  11
ENDBRANCH   3   8
ENDBRANCH   2   3
ENDBRANCH   1   2
BRANCH   1  18
HETATM   18  O1  UNL     1      15.383  25.014  18.643  1.00  0.00    -0.392 OA
ATOM     19  H1  UNL     1      15.039  24.881  19.518  1.00  0.00     0.210 HD
ENDBRANCH   1  18
BRANCH   1  20
HETATM   20  C7  UNL     1      15.835  22.934  17.661  1.00  0.00     0.121 C 
BRANCH  20  21
HETATM   21  C8  UNL     1      14.587  23.352  16.926  1.00  0.00     0.066 C 
BRANCH  21  22
HETATM   22  C9  UNL     1      14.511  22.710  15.579  1.00  0.00    -0.056 A 
HETATM   23  C10 UNL     1      15.633  22.189  14.980  1.00  0.00     0.007 A 
HETATM   24  C11 UNL     1      15.559  21.588  13.719  1.00  0.00     0.001 A 
HETATM   25  C12 UNL     1      14.347  21.522  13.078  1.00  0.00     0.000 A 
HETATM   26  C13 UNL     1      13.215  22.033  13.652  1.00  0.00     0.001 A 
HETATM   27  C14 UNL     1      13.315  22.621  14.901  1.00  0.00     0.007 A 
ENDBRANCH  21  22
ENDBRANCH  20  21
BRANCH  20  28
HETATM   28  N2  UNL     1      15.358  22.165  18.824  1.00  0.00    -0.329 N 
HETATM   29  C15 UNL     1      15.695  20.807  18.979  1.00  0.00     0.361 C 
HETATM   30  O2  UNL     1      16.412  20.281  18.086  1.00  0.00    -0.238 OA
ATOM     31  H2  UNL     1      14.776  22.623  19.526  1.00  0.00     0.165 HD
BRANCH  29  32
HETATM   32  O3  UNL     1      15.279  20.025  20.060  1.00  0.00    -0.296 OA
BRANCH  32  33
HETATM   33  C16 UNL     1      14.597  18.795  19.836  1.00  0.00     0.159 C 
HETATM   34  C17 UNL     1      14.223  18.128  21.146  1.00  0.00     0.061 C 
HETATM   35  C18 UNL     1      12.729  18.285  21.224  1.00  0.00     0.170 C 
HETATM   36  O4  UNL     1      12.363  18.194  19.872  1.00  0.00    -0.389 OA
HETATM   37  C19 UNL     1      13.239  19.101  19.250  1.00  0.00     0.200 C 
ENDBRANCH  32  33
ENDBRANCH  29  32
ENDBRANCH  20  28
ENDBRANCH   1  20
TORSDOF 13
ENDMDL
