MODEL 4
REMARK VINA RESULT: -9.529539499      2.749      6.624
REMARK  13 active torsions:
REMARK  status: ('A' for Active; 'I' for Inactive)
REMARK    1  A    between atoms: C2_2  and  C4_4 
REMARK    2  A    between atoms: C4_4  and  N1_5 
REMARK    3  A    between atoms: N1_5  and  C5_6 
REMARK    4  A    between atoms: N1_5  and  S1_28 
REMARK    5  A    between atoms: C5_6  and  C6_7 
REMARK    6  A    between atoms: C6_7  and  O1_8 
REMARK    7  A    between atoms: C6_7  and  C7_10 
REMARK    8  A    between atoms: C7_10  and  C8_11 
REMARK    9  A    between atoms: C7_10  and  N2_18 
REMARK   10  A    between atoms: C8_11  and  C9_12 
REMARK       I    between atoms: N2_18  and  C15_20 
REMARK   11  A    between atoms: C15_20  and  O3_22 
REMARK   12  A    between atoms: O3_22  and  C16_23 
REMARK   13  A    between atoms: S1_28  and  C20_31 
ROOT
HETATM    1  C6  UNL     1      16.733  24.543  17.789  1.00  0.00     0.160 C 
ENDROOT
BRANCH   1   2
HETATM    2  C5  UNL     1      18.020  24.348  18.496  1.00  0.00     0.174 C 
BRANCH   2   3
HETATM    3  N1  UNL     1      18.078  23.419  19.559  1.00  0.00    -0.283 N 
BRANCH   3   4
HETATM    4  C4  UNL     1      18.959  23.701  20.619  1.00  0.00     0.080 C 
BRANCH   4   5
HETATM    5  C2  UNL     1      20.134  24.583  20.289  1.00  0.00     0.017 C 
HETATM    6  C1  UNL     1      21.209  23.946  19.480  1.00  0.00     0.015 C 
HETATM    7  C3  UNL     1      20.675  25.268  21.534  1.00  0.00     0.015 C 
ENDBRANCH   4   5
ENDBRANCH   3   4
BRANCH   3   8
HETATM    8  S1  UNL     1      18.059  21.799  19.108  1.00  0.00     0.264 S 
HETATM    9  O5  UNL     1      18.642  21.620  17.728  1.00  0.00    -0.200 OA
HETATM   10  O6  UNL     1      19.005  21.008  20.031  1.00  0.00    -0.200 OA
BRANCH   8  11
HETATM   11  C20 UNL     1      16.494  21.018  19.160  1.00  0.00     0.080 A 
HETATM   12  C21 UNL     1      15.825  20.575  18.043  1.00  0.00     0.027 A 
HETATM   13  C22 UNL     1      14.586  19.946  18.146  1.00  0.00     0.028 A 
HETATM   14  C23 UNL     1      13.973  19.739  19.365  1.00  0.00     0.046 A 
HETATM   15  N3  UNL     1      12.706  19.095  19.445  1.00  0.00    -0.102 NA
HETATM   16  C24 UNL     1      14.642  20.183  20.486  1.00  0.00     0.028 A 
HETATM   17  C25 UNL     1      15.867  20.804  20.390  1.00  0.00     0.027 A 
ENDBRANCH   8  11
ENDBRANCH   3   8
ENDBRANCH   2   3
ENDBRANCH   1   2
BRANCH   1  18
HETATM   18  O1  UNL     1      16.227  25.829  17.825  1.00  0.00    -0.392 OA
ATOM     19  H1  UNL     1      16.812  26.505  17.507  1.00  0.00     0.210 HD
ENDBRANCH   1  18
BRANCH   1  20
HETATM   20  C7  UNL     1      16.843  24.159  16.299  1.00  0.00     0.121 C 
BRANCH  20  21
HETATM   21  C8  UNL     1      17.108  25.425  15.525  1.00  0.00     0.066 C 
BRANCH  21  22
HETATM   22  C9  UNL     1      18.553  25.547  15.164  1.00  0.00    -0.056 A 
HETATM   23  C10 UNL     1      19.133  26.780  14.980  1.00  0.00     0.007 A 
HETATM   24  C11 UNL     1      20.486  26.892  14.641  1.00  0.00     0.001 A 
HETATM   25  C12 UNL     1      21.236  25.752  14.493  1.00  0.00     0.000 A 
HETATM   26  C13 UNL     1      20.683  24.514  14.670  1.00  0.00     0.001 A 
HETATM   27  C14 UNL     1      19.342  24.430  15.005  1.00  0.00     0.007 A 
ENDBRANCH  21  22
ENDBRANCH  20  21
BRANCH  20  28
HETATM   28  N2  UNL     1      15.467  23.770  15.942  1.00  0.00    -0.329 N 
HETATM   29  C15 UNL     1      15.218  22.605  15.192  1.00  0.00     0.361 C 
HETATM   30  O2  UNL     1      16.214  21.918  14.839  1.00  0.00    -0.238 OA
ATOM     31  H2  UNL     1      14.686  24.353  16.243  1.00  0.00     0.165 HD
BRANCH  29  32
HETATM   32  O3  UNL     1      13.938  22.179  14.826  1.00  0.00    -0.296 OA
BRANCH  32  33
HETATM   33  C16 UNL     1      13.623  20.790  14.801  1.00  0.00     0.159 C 
HETATM   34  C17 UNL     1      12.142  20.559  15.026  1.00  0.00     0.061 C 
HETATM   35  C18 UNL     1      11.632  20.117  13.682  1.00  0.00     0.170 C 
HETATM   36  O4  UNL     1      12.729  19.397  13.184  1.00  0.00    -0.389 OA
HETATM   37  C19 UNL     1      13.802  20.285  13.390  1.00  0.00     0.200 C 
ENDBRANCH  32  33
ENDBRANCH  29  32
ENDBRANCH  20  28
ENDBRANCH   1  20
TORSDOF 13
ENDMDL
