MODEL 1
REMARK VINA RESULT: -9.790870262      0.000      0.000
REMARK  13 active torsions:
REMARK  status: ('A' for Active; 'I' for Inactive)
REMARK    1  A    between atoms: C2_2  and  C4_4 
REMARK    2  A    between atoms: C4_4  and  N1_5 
REMARK    3  A    between atoms: N1_5  and  C5_6 
REMARK    4  A    between atoms: N1_5  and  S1_28 
REMARK    5  A    between atoms: C5_6  and  C6_7 
REMARK    6  A    between atoms: C6_7  and  O1_8 
REMARK    7  A    between atoms: C6_7  and  C7_10 
REMARK    8  A    between atoms: C7_10  and  C8_11 
REMARK    9  A    between atoms: C7_10  and  N2_18 
REMARK   10  A    between atoms: C8_11  and  C9_12 
REMARK       I    between atoms: N2_18  and  C15_20 
REMARK   11  A    between atoms: C15_20  and  O3_22 
REMARK   12  A    between atoms: O3_22  and  C16_23 
REMARK   13  A    between atoms: S1_28  and  C20_31 
ROOT
HETATM    1  C6  UNL     1      15.346  23.693  18.245  1.00  0.00     0.160 C 
ENDROOT
BRANCH   1   2
HETATM    2  C5  UNL     1      16.453  24.495  17.675  1.00  0.00     0.174 C 
BRANCH   2   3
HETATM    3  N1  UNL     1      17.774  24.006  17.785  1.00  0.00    -0.283 N 
BRANCH   3   4
HETATM    4  C4  UNL     1      18.514  24.389  18.919  1.00  0.00     0.080 C 
BRANCH   4   5
HETATM    5  C2  UNL     1      18.437  23.464  20.105  1.00  0.00     0.017 C 
HETATM    6  C1  UNL     1      19.259  23.859  21.282  1.00  0.00     0.015 C 
HETATM    7  C3  UNL     1      18.672  22.019  19.693  1.00  0.00     0.015 C 
ENDBRANCH   4   5
ENDBRANCH   3   4
BRANCH   3   8
HETATM    8  S1  UNL     1      18.670  24.007  16.362  1.00  0.00     0.264 S 
HETATM    9  O5  UNL     1      19.732  22.936  16.397  1.00  0.00    -0.200 OA
HETATM   10  O6  UNL     1      17.755  23.603  15.190  1.00  0.00    -0.200 OA
BRANCH   8  11
HETATM   11  C20 UNL     1      19.423  25.530  15.945  1.00  0.00     0.080 A 
HETATM   12  C21 UNL     1      20.339  26.173  16.745  1.00  0.00     0.027 A 
HETATM   13  C22 UNL     1      20.918  27.378  16.355  1.00  0.00     0.028 A 
HETATM   14  C23 UNL     1      20.605  27.982  15.154  1.00  0.00     0.046 A 
HETATM   15  N3  UNL     1      21.210  29.215  14.778  1.00  0.00    -0.102 NA
HETATM   16  C24 UNL     1      19.687  27.340  14.350  1.00  0.00     0.028 A 
HETATM   17  C25 UNL     1      19.112  26.148  14.731  1.00  0.00     0.027 A 
ENDBRANCH   8  11
ENDBRANCH   3   8
ENDBRANCH   2   3
ENDBRANCH   1   2
BRANCH   1  18
HETATM   18  O1  UNL     1      14.176  24.387  18.488  1.00  0.00    -0.392 OA
ATOM     19  H1  UNL     1      13.376  23.925  18.265  1.00  0.00     0.210 HD
ENDBRANCH   1  18
BRANCH   1  20
HETATM   20  C7  UNL     1      14.971  22.513  17.324  1.00  0.00     0.121 C 
BRANCH  20  21
HETATM   21  C8  UNL     1      14.227  23.081  16.143  1.00  0.00     0.066 C 
BRANCH  21  22
HETATM   22  C9  UNL     1      14.035  22.051  15.077  1.00  0.00    -0.056 A 
HETATM   23  C10 UNL     1      14.957  21.897  14.069  1.00  0.00     0.007 A 
HETATM   24  C11 UNL     1      14.774  20.934  13.072  1.00  0.00     0.001 A 
HETATM   25  C12 UNL     1      13.659  20.135  13.108  1.00  0.00     0.000 A 
HETATM   26  C13 UNL     1      12.726  20.268  14.100  1.00  0.00     0.001 A 
HETATM   27  C14 UNL     1      12.930  21.229  15.075  1.00  0.00     0.007 A 
ENDBRANCH  21  22
ENDBRANCH  20  21
BRANCH  20  28
HETATM   28  N2  UNL     1      13.956  21.780  18.102  1.00  0.00    -0.329 N 
HETATM   29  C15 UNL     1      14.155  20.432  18.459  1.00  0.00     0.361 C 
HETATM   30  O2  UNL     1      15.226  19.884  18.084  1.00  0.00    -0.238 OA
ATOM     31  H2  UNL     1      13.099  22.255  18.385  1.00  0.00     0.165 HD
BRANCH  29  32
HETATM   32  O3  UNL     1      13.235  19.684  19.198  1.00  0.00    -0.296 OA
BRANCH  32  33
HETATM   33  C16 UNL     1      13.592  18.399  19.699  1.00  0.00     0.159 C 
HETATM   34  C17 UNL     1      14.242  18.504  21.065  1.00  0.00     0.061 C 
HETATM   35  C18 UNL     1      13.206  17.954  22.007  1.00  0.00     0.170 C 
HETATM   36  O4  UNL     1      12.603  16.961  21.219  1.00  0.00    -0.389 OA
HETATM   37  C19 UNL     1      12.325  17.642  20.019  1.00  0.00     0.200 C 
ENDBRANCH  32  33
ENDBRANCH  29  32
ENDBRANCH  20  28
ENDBRANCH   1  20
TORSDOF 13
ENDMDL
