MODEL 5
REMARK VINA RESULT: -9.337136267      2.616      7.982
REMARK  13 active torsions:
REMARK  status: ('A' for Active; 'I' for Inactive)
REMARK    1  A    between atoms: C2_2  and  C4_4 
REMARK    2  A    between atoms: C4_4  and  N1_5 
REMARK    3  A    between atoms: N1_5  and  C5_6 
REMARK    4  A    between atoms: N1_5  and  S1_28 
REMARK    5  A    between atoms: C5_6  and  C6_7 
REMARK    6  A    between atoms: C6_7  and  O1_8 
REMARK    7  A    between atoms: C6_7  and  C7_10 
REMARK    8  A    between atoms: C7_10  and  C8_11 
REMARK    9  A    between atoms: C7_10  and  N2_18 
REMARK   10  A    between atoms: C8_11  and  C9_12 
REMARK       I    between atoms: N2_18  and  C15_20 
REMARK   11  A    between atoms: C15_20  and  O3_22 
REMARK   12  A    between atoms: O3_22  and  C16_23 
REMARK   13  A    between atoms: S1_28  and  C20_31 
ROOT
HETATM    1  C6  UNL     1      16.939  24.665  17.447  1.00  0.00     0.160 C 
ENDROOT
BRANCH   1   2
HETATM    2  C5  UNL     1      18.210  24.290  18.108  1.00  0.00     0.174 C 
BRANCH   2   3
HETATM    3  N1  UNL     1      18.164  23.446  19.240  1.00  0.00    -0.283 N 
BRANCH   3   4
HETATM    4  C4  UNL     1      18.984  23.783  20.333  1.00  0.00     0.080 C 
BRANCH   4   5
HETATM    5  C2  UNL     1      20.176  24.650  20.026  1.00  0.00     0.017 C 
HETATM    6  C1  UNL     1      21.352  23.943  19.448  1.00  0.00     0.015 C 
HETATM    7  C3  UNL     1      20.549  25.515  21.220  1.00  0.00     0.015 C 
ENDBRANCH   4   5
ENDBRANCH   3   4
BRANCH   3   8
HETATM    8  S1  UNL     1      18.115  21.797  18.914  1.00  0.00     0.264 S 
HETATM    9  O5  UNL     1      18.740  21.497  17.574  1.00  0.00    -0.200 OA
HETATM   10  O6  UNL     1      19.007  21.056  19.929  1.00  0.00    -0.200 OA
BRANCH   8  11
HETATM   11  C20 UNL     1      16.528  21.063  18.969  1.00  0.00     0.080 A 
HETATM   12  C21 UNL     1      15.815  20.702  17.849  1.00  0.00     0.027 A 
HETATM   13  C22 UNL     1      14.560  20.107  17.954  1.00  0.00     0.028 A 
HETATM   14  C23 UNL     1      13.974  19.852  19.177  1.00  0.00     0.046 A 
HETATM   15  N3  UNL     1      12.690  19.243  19.258  1.00  0.00    -0.102 NA
HETATM   16  C24 UNL     1      14.687  20.212  20.301  1.00  0.00     0.028 A 
HETATM   17  C25 UNL     1      15.928  20.800  20.203  1.00  0.00     0.027 A 
ENDBRANCH   8  11
ENDBRANCH   3   8
ENDBRANCH   2   3
ENDBRANCH   1   2
BRANCH   1  18
HETATM   18  O1  UNL     1      16.400  25.875  17.843  1.00  0.00    -0.392 OA
ATOM     19  H1  UNL     1      15.969  25.870  18.689  1.00  0.00     0.210 HD
ENDBRANCH   1  18
BRANCH   1  20
HETATM   20  C7  UNL     1      17.100  24.742  15.913  1.00  0.00     0.121 C 
BRANCH  20  21
HETATM   21  C8  UNL     1      17.107  23.328  15.390  1.00  0.00     0.066 C 
BRANCH  21  22
HETATM   22  C9  UNL     1      15.719  22.839  15.129  1.00  0.00    -0.056 A 
HETATM   23  C10 UNL     1      15.492  21.766  14.301  1.00  0.00     0.007 A 
HETATM   24  C11 UNL     1      14.192  21.311  14.058  1.00  0.00     0.001 A 
HETATM   25  C12 UNL     1      13.135  21.948  14.659  1.00  0.00     0.000 A 
HETATM   26  C13 UNL     1      13.334  23.019  15.487  1.00  0.00     0.001 A 
HETATM   27  C14 UNL     1      14.631  23.450  15.711  1.00  0.00     0.007 A 
ENDBRANCH  21  22
ENDBRANCH  20  21
BRANCH  20  28
HETATM   28  N2  UNL     1      18.480  25.225  15.737  1.00  0.00    -0.329 N 
HETATM   29  C15 UNL     1      18.787  26.194  14.762  1.00  0.00     0.361 C 
HETATM   30  O2  UNL     1      17.839  26.621  14.050  1.00  0.00    -0.238 OA
ATOM     31  H2  UNL     1      19.223  24.854  16.329  1.00  0.00     0.165 HD
BRANCH  29  32
HETATM   32  O3  UNL     1      20.073  26.697  14.548  1.00  0.00    -0.296 OA
BRANCH  32  33
HETATM   33  C16 UNL     1      20.387  28.040  14.902  1.00  0.00     0.159 C 
HETATM   34  C17 UNL     1      21.382  28.088  16.045  1.00  0.00     0.061 C 
HETATM   35  C18 UNL     1      22.657  28.561  15.402  1.00  0.00     0.170 C 
HETATM   36  O4  UNL     1      22.170  29.431  14.413  1.00  0.00    -0.389 OA
HETATM   37  C19 UNL     1      21.183  28.657  13.777  1.00  0.00     0.200 C 
ENDBRANCH  32  33
ENDBRANCH  29  32
ENDBRANCH  20  28
ENDBRANCH   1  20
TORSDOF 13
ENDMDL
