MODEL 3
REMARK VINA RESULT: -9.565034193      2.708      5.502
REMARK  13 active torsions:
REMARK  status: ('A' for Active; 'I' for Inactive)
REMARK    1  A    between atoms: C2_2  and  C4_4 
REMARK    2  A    between atoms: C4_4  and  N1_5 
REMARK    3  A    between atoms: N1_5  and  C5_6 
REMARK    4  A    between atoms: N1_5  and  S1_28 
REMARK    5  A    between atoms: C5_6  and  C6_7 
REMARK    6  A    between atoms: C6_7  and  O1_8 
REMARK    7  A    between atoms: C6_7  and  C7_10 
REMARK    8  A    between atoms: C7_10  and  C8_11 
REMARK    9  A    between atoms: C7_10  and  N2_18 
REMARK   10  A    between atoms: C8_11  and  C9_12 
REMARK       I    between atoms: N2_18  and  C15_20 
REMARK   11  A    between atoms: C15_20  and  O3_22 
REMARK   12  A    between atoms: O3_22  and  C16_23 
REMARK   13  A    between atoms: S1_28  and  C20_31 
ROOT
HETATM    1  C6  UNL     1      16.089  24.515  17.854  1.00  0.00     0.160 C 
ENDROOT
BRANCH   1   2
HETATM    2  C5  UNL     1      16.521  23.507  18.851  1.00  0.00     0.174 C 
BRANCH   2   3
HETATM    3  N1  UNL     1      17.140  22.322  18.395  1.00  0.00    -0.283 N 
BRANCH   3   4
HETATM    4  C4  UNL     1      16.453  21.112  18.601  1.00  0.00     0.080 C 
BRANCH   4   5
HETATM    5  C2  UNL     1      15.136  21.211  19.324  1.00  0.00     0.017 C 
HETATM    6  C1  UNL     1      14.973  20.299  20.490  1.00  0.00     0.015 C 
HETATM    7  C3  UNL     1      13.968  21.126  18.355  1.00  0.00     0.015 C 
ENDBRANCH   4   5
ENDBRANCH   3   4
BRANCH   3   8
HETATM    8  S1  UNL     1      18.796  22.215  18.670  1.00  0.00     0.264 S 
HETATM    9  O5  UNL     1      19.114  21.051  19.575  1.00  0.00    -0.200 OA
HETATM   10  O6  UNL     1      19.506  21.879  17.346  1.00  0.00    -0.200 OA
BRANCH   8  11
HETATM   11  C20 UNL     1      19.547  23.654  19.323  1.00  0.00     0.080 A 
HETATM   12  C21 UNL     1      20.069  24.662  18.546  1.00  0.00     0.027 A 
HETATM   13  C22 UNL     1      20.643  25.793  19.122  1.00  0.00     0.028 A 
HETATM   14  C23 UNL     1      20.716  25.956  20.490  1.00  0.00     0.046 A 
HETATM   15  N3  UNL     1      21.309  27.121  21.055  1.00  0.00    -0.102 NA
HETATM   16  C24 UNL     1      20.194  24.948  21.271  1.00  0.00     0.028 A 
HETATM   17  C25 UNL     1      19.624  23.828  20.707  1.00  0.00     0.027 A 
ENDBRANCH   8  11
ENDBRANCH   3   8
ENDBRANCH   2   3
ENDBRANCH   1   2
BRANCH   1  18
HETATM   18  O1  UNL     1      16.495  25.811  18.108  1.00  0.00    -0.392 OA
ATOM     19  H1  UNL     1      16.313  26.130  18.984  1.00  0.00     0.210 HD
ENDBRANCH   1  18
BRANCH   1  20
HETATM   20  C7  UNL     1      16.600  24.166  16.441  1.00  0.00     0.121 C 
BRANCH  20  21
HETATM   21  C8  UNL     1      17.001  25.457  15.775  1.00  0.00     0.066 C 
BRANCH  21  22
HETATM   22  C9  UNL     1      18.455  25.460  15.427  1.00  0.00    -0.056 A 
HETATM   23  C10 UNL     1      19.093  24.301  15.053  1.00  0.00     0.007 A 
HETATM   24  C11 UNL     1      20.454  24.305  14.729  1.00  0.00     0.001 A 
HETATM   25  C12 UNL     1      21.153  25.485  14.786  1.00  0.00     0.000 A 
HETATM   26  C13 UNL     1      20.541  26.651  15.155  1.00  0.00     0.001 A 
HETATM   27  C14 UNL     1      19.194  26.620  15.471  1.00  0.00     0.007 A 
ENDBRANCH  21  22
ENDBRANCH  20  21
BRANCH  20  28
HETATM   28  N2  UNL     1      15.384  23.729  15.734  1.00  0.00    -0.329 N 
HETATM   29  C15 UNL     1      15.341  22.487  15.072  1.00  0.00     0.361 C 
HETATM   30  O2  UNL     1      16.379  21.774  15.106  1.00  0.00    -0.238 OA
ATOM     31  H2  UNL     1      14.563  24.334  15.723  1.00  0.00     0.165 HD
BRANCH  29  32
HETATM   32  O3  UNL     1      14.218  22.013  14.388  1.00  0.00    -0.296 OA
BRANCH  32  33
HETATM   33  C16 UNL     1      13.698  20.718  14.671  1.00  0.00     0.159 C 
HETATM   34  C17 UNL     1      12.214  20.776  14.977  1.00  0.00     0.061 C 
HETATM   35  C18 UNL     1      11.567  20.148  13.772  1.00  0.00     0.170 C 
HETATM   36  O4  UNL     1      12.515  19.176  13.415  1.00  0.00    -0.389 OA
HETATM   37  C19 UNL     1      13.717  19.906  13.398  1.00  0.00     0.200 C 
ENDBRANCH  32  33
ENDBRANCH  29  32
ENDBRANCH  20  28
ENDBRANCH   1  20
TORSDOF 13
ENDMDL
