MODEL 2
REMARK VINA RESULT: -9.613614250      0.363      1.005
REMARK  13 active torsions:
REMARK  status: ('A' for Active; 'I' for Inactive)
REMARK    1  A    between atoms: C2_2  and  C4_4 
REMARK    2  A    between atoms: C4_4  and  N1_5 
REMARK    3  A    between atoms: N1_5  and  C5_6 
REMARK    4  A    between atoms: N1_5  and  S1_28 
REMARK    5  A    between atoms: C5_6  and  C6_7 
REMARK    6  A    between atoms: C6_7  and  O1_8 
REMARK    7  A    between atoms: C6_7  and  C7_10 
REMARK    8  A    between atoms: C7_10  and  C8_11 
REMARK    9  A    between atoms: C7_10  and  N2_18 
REMARK   10  A    between atoms: C8_11  and  C9_12 
REMARK       I    between atoms: N2_18  and  C15_20 
REMARK   11  A    between atoms: C15_20  and  O3_22 
REMARK   12  A    between atoms: O3_22  and  C16_23 
REMARK   13  A    between atoms: S1_28  and  C20_31 
ROOT
HETATM    1  C6  UNL     1      15.503  23.791  18.168  1.00  0.00     0.160 C 
ENDROOT
BRANCH   1   2
HETATM    2  C5  UNL     1      16.594  24.565  17.530  1.00  0.00     0.174 C 
BRANCH   2   3
HETATM    3  N1  UNL     1      17.920  24.092  17.645  1.00  0.00    -0.283 N 
BRANCH   3   4
HETATM    4  C4  UNL     1      18.690  24.576  18.719  1.00  0.00     0.080 C 
BRANCH   4   5
HETATM    5  C2  UNL     1      19.108  23.560  19.748  1.00  0.00     0.017 C 
HETATM    6  C1  UNL     1      18.582  22.183  19.542  1.00  0.00     0.015 C 
HETATM    7  C3  UNL     1      18.857  24.070  21.159  1.00  0.00     0.015 C 
ENDBRANCH   4   5
ENDBRANCH   3   4
BRANCH   3   8
HETATM    8  S1  UNL     1      18.775  23.969  16.202  1.00  0.00     0.264 S 
HETATM    9  O5  UNL     1      19.828  22.892  16.293  1.00  0.00    -0.200 OA
HETATM   10  O6  UNL     1      17.823  23.483  15.093  1.00  0.00    -0.200 OA
BRANCH   8  11
HETATM   11  C20 UNL     1      19.530  25.444  15.643  1.00  0.00     0.080 A 
HETATM   12  C21 UNL     1      18.882  26.396  14.892  1.00  0.00     0.027 A 
HETATM   13  C22 UNL     1      19.531  27.560  14.486  1.00  0.00     0.028 A 
HETATM   14  C23 UNL     1      20.846  27.814  14.816  1.00  0.00     0.046 A 
HETATM   15  N3  UNL     1      21.488  29.011  14.389  1.00  0.00    -0.102 NA
HETATM   16  C24 UNL     1      21.499  26.861  15.570  1.00  0.00     0.028 A 
HETATM   17  C25 UNL     1      20.862  25.709  15.973  1.00  0.00     0.027 A 
ENDBRANCH   8  11
ENDBRANCH   3   8
ENDBRANCH   2   3
ENDBRANCH   1   2
BRANCH   1  18
HETATM   18  O1  UNL     1      14.355  24.507  18.448  1.00  0.00    -0.392 OA
ATOM     19  H1  UNL     1      14.043  24.441  19.343  1.00  0.00     0.210 HD
ENDBRANCH   1  18
BRANCH   1  20
HETATM   20  C7  UNL     1      15.070  22.597  17.290  1.00  0.00     0.121 C 
BRANCH  20  21
HETATM   21  C8  UNL     1      14.292  23.153  16.125  1.00  0.00     0.066 C 
BRANCH  21  22
HETATM   22  C9  UNL     1      14.053  22.107  15.084  1.00  0.00    -0.056 A 
HETATM   23  C10 UNL     1      14.979  21.869  14.096  1.00  0.00     0.007 A 
HETATM   24  C11 UNL     1      14.753  20.890  13.123  1.00  0.00     0.001 A 
HETATM   25  C12 UNL     1      13.591  20.161  13.163  1.00  0.00     0.000 A 
HETATM   26  C13 UNL     1      12.653  20.379  14.136  1.00  0.00     0.001 A 
HETATM   27  C14 UNL     1      12.901  21.353  15.087  1.00  0.00     0.007 A 
ENDBRANCH  21  22
ENDBRANCH  20  21
BRANCH  20  28
HETATM   28  N2  UNL     1      14.072  21.904  18.124  1.00  0.00    -0.329 N 
HETATM   29  C15 UNL     1      14.229  20.544  18.456  1.00  0.00     0.361 C 
HETATM   30  O2  UNL     1      15.248  19.952  18.010  1.00  0.00    -0.238 OA
ATOM     31  H2  UNL     1      13.258  22.415  18.464  1.00  0.00     0.165 HD
BRANCH  29  32
HETATM   32  O3  UNL     1      13.323  19.831  19.245  1.00  0.00    -0.296 OA
BRANCH  32  33
HETATM   33  C16 UNL     1      13.615  18.496  19.647  1.00  0.00     0.159 C 
HETATM   34  C17 UNL     1      14.291  18.468  21.004  1.00  0.00     0.061 C 
HETATM   35  C18 UNL     1      13.241  17.909  21.925  1.00  0.00     0.170 C 
HETATM   36  O4  UNL     1      12.573  17.009  21.080  1.00  0.00    -0.389 OA
HETATM   37  C19 UNL     1      12.314  17.788  19.938  1.00  0.00     0.200 C 
ENDBRANCH  32  33
ENDBRANCH  29  32
ENDBRANCH  20  28
ENDBRANCH   1  20
TORSDOF 13
ENDMDL
