MODEL 2
REMARK VINA RESULT: -9.125763837      2.762      8.676
REMARK  13 active torsions:
REMARK  status: ('A' for Active; 'I' for Inactive)
REMARK    1  A    between atoms: C2_2  and  C4_4 
REMARK    2  A    between atoms: C4_4  and  N1_5 
REMARK    3  A    between atoms: N1_5  and  C5_6 
REMARK    4  A    between atoms: N1_5  and  S1_28 
REMARK    5  A    between atoms: C5_6  and  C6_7 
REMARK    6  A    between atoms: C6_7  and  O1_8 
REMARK    7  A    between atoms: C6_7  and  C7_10 
REMARK    8  A    between atoms: C7_10  and  C8_11 
REMARK    9  A    between atoms: C7_10  and  N2_18 
REMARK   10  A    between atoms: C8_11  and  C9_12 
REMARK       I    between atoms: N2_18  and  C15_20 
REMARK   11  A    between atoms: C15_20  and  O3_22 
REMARK   12  A    between atoms: O3_22  and  C16_23 
REMARK   13  A    between atoms: S1_28  and  C20_31 
ROOT
HETATM    1  C6  UNL     1      18.625  24.813  16.000  1.00  0.00     0.160 C 
ENDROOT
BRANCH   1   2
HETATM    2  C5  UNL     1      18.687  23.701  16.978  1.00  0.00     0.174 C 
BRANCH   2   3
HETATM    3  N1  UNL     1      17.479  23.201  17.515  1.00  0.00    -0.283 N 
BRANCH   3   4
HETATM    4  C4  UNL     1      17.324  23.246  18.913  1.00  0.00     0.080 C 
BRANCH   4   5
HETATM    5  C2  UNL     1      18.591  23.168  19.724  1.00  0.00     0.017 C 
HETATM    6  C1  UNL     1      19.057  21.793  20.056  1.00  0.00     0.015 C 
HETATM    7  C3  UNL     1      18.516  24.065  20.949  1.00  0.00     0.015 C 
ENDBRANCH   4   5
ENDBRANCH   3   4
BRANCH   3   8
HETATM    8  S1  UNL     1      16.907  21.782  16.817  1.00  0.00     0.264 S 
HETATM    9  O5  UNL     1      16.480  22.022  15.389  1.00  0.00    -0.200 OA
HETATM   10  O6  UNL     1      18.064  20.771  16.708  1.00  0.00    -0.200 OA
BRANCH   8  11
HETATM   11  C20 UNL     1      15.596  20.997  17.668  1.00  0.00     0.080 A 
HETATM   12  C21 UNL     1      14.276  21.094  17.293  1.00  0.00     0.027 A 
HETATM   13  C22 UNL     1      13.274  20.434  18.001  1.00  0.00     0.028 A 
HETATM   14  C23 UNL     1      13.554  19.656  19.105  1.00  0.00     0.046 A 
HETATM   15  N3  UNL     1      12.512  18.992  19.814  1.00  0.00    -0.102 NA
HETATM   16  C24 UNL     1      14.876  19.557  19.484  1.00  0.00     0.028 A 
HETATM   17  C25 UNL     1      15.871  20.207  18.787  1.00  0.00     0.027 A 
ENDBRANCH   8  11
ENDBRANCH   3   8
ENDBRANCH   2   3
ENDBRANCH   1   2
BRANCH   1  18
HETATM   18  O1  UNL     1      17.428  25.503  15.964  1.00  0.00    -0.392 OA
ATOM     19  H1  UNL     1      17.082  25.761  16.809  1.00  0.00     0.210 HD
ENDBRANCH   1  18
BRANCH   1  20
HETATM   20  C7  UNL     1      19.725  25.861  16.267  1.00  0.00     0.121 C 
BRANCH  20  21
HETATM   21  C8  UNL     1      20.803  25.658  15.233  1.00  0.00     0.066 C 
BRANCH  21  22
HETATM   22  C9  UNL     1      21.437  26.956  14.848  1.00  0.00    -0.056 A 
HETATM   23  C10 UNL     1      20.861  27.771  13.903  1.00  0.00     0.007 A 
HETATM   24  C11 UNL     1      21.456  28.984  13.544  1.00  0.00     0.001 A 
HETATM   25  C12 UNL     1      22.630  29.359  14.148  1.00  0.00     0.000 A 
HETATM   26  C13 UNL     1      23.224  28.566  15.091  1.00  0.00     0.001 A 
HETATM   27  C14 UNL     1      22.614  27.370  15.429  1.00  0.00     0.007 A 
ENDBRANCH  21  22
ENDBRANCH  20  21
BRANCH  20  28
HETATM   28  N2  UNL     1      20.322  25.417  17.538  1.00  0.00    -0.329 N 
HETATM   29  C15 UNL     1      20.793  26.351  18.481  1.00  0.00     0.361 C 
HETATM   30  O2  UNL     1      20.687  27.573  18.190  1.00  0.00    -0.238 OA
ATOM     31  H2  UNL     1      20.395  24.419  17.739  1.00  0.00     0.165 HD
BRANCH  29  32
HETATM   32  O3  UNL     1      21.365  25.995  19.705  1.00  0.00    -0.296 OA
BRANCH  32  33
HETATM   33  C16 UNL     1      22.068  24.764  19.839  1.00  0.00     0.159 C 
HETATM   34  C17 UNL     1      23.492  24.888  19.331  1.00  0.00     0.061 C 
HETATM   35  C18 UNL     1      24.330  24.846  20.579  1.00  0.00     0.170 C 
HETATM   36  O4  UNL     1      23.591  23.970  21.389  1.00  0.00    -0.389 OA
HETATM   37  C19 UNL     1      22.289  24.497  21.308  1.00  0.00     0.200 C 
ENDBRANCH  32  33
ENDBRANCH  29  32
ENDBRANCH  20  28
ENDBRANCH   1  20
TORSDOF 13
ENDMDL
