MODEL 3
REMARK VINA RESULT: -9.105025313      0.704      1.216
REMARK  13 active torsions:
REMARK  status: ('A' for Active; 'I' for Inactive)
REMARK    1  A    between atoms: C2_2  and  C4_4 
REMARK    2  A    between atoms: C4_4  and  N1_5 
REMARK    3  A    between atoms: N1_5  and  C5_6 
REMARK    4  A    between atoms: N1_5  and  S1_28 
REMARK    5  A    between atoms: C5_6  and  C6_7 
REMARK    6  A    between atoms: C6_7  and  O1_8 
REMARK    7  A    between atoms: C6_7  and  C7_10 
REMARK    8  A    between atoms: C7_10  and  C8_11 
REMARK    9  A    between atoms: C7_10  and  N2_18 
REMARK   10  A    between atoms: C8_11  and  C9_12 
REMARK       I    between atoms: N2_18  and  C15_20 
REMARK   11  A    between atoms: C15_20  and  O3_22 
REMARK   12  A    between atoms: O3_22  and  C16_23 
REMARK   13  A    between atoms: S1_28  and  C20_31 
ROOT
HETATM    1  C6  UNL     1      15.311  23.771  18.036  1.00  0.00     0.160 C 
ENDROOT
BRANCH   1   2
HETATM    2  C5  UNL     1      16.375  24.599  17.422  1.00  0.00     0.174 C 
BRANCH   2   3
HETATM    3  N1  UNL     1      17.710  24.138  17.474  1.00  0.00    -0.283 N 
BRANCH   3   4
HETATM    4  C4  UNL     1      18.520  24.613  18.522  1.00  0.00     0.080 C 
BRANCH   4   5
HETATM    5  C2  UNL     1      18.859  23.619  19.601  1.00  0.00     0.017 C 
HETATM    6  C1  UNL     1      18.482  22.207  19.316  1.00  0.00     0.015 C 
HETATM    7  C3  UNL     1      18.361  24.089  20.959  1.00  0.00     0.015 C 
ENDBRANCH   4   5
ENDBRANCH   3   4
BRANCH   3   8
HETATM    8  S1  UNL     1      18.504  24.048  15.994  1.00  0.00     0.264 S 
HETATM    9  O5  UNL     1      19.503  22.916  15.990  1.00  0.00    -0.200 OA
HETATM   10  O6  UNL     1      17.489  23.668  14.899  1.00  0.00    -0.200 OA
BRANCH   8  11
HETATM   11  C20 UNL     1      19.314  25.510  15.481  1.00  0.00     0.080 A 
HETATM   12  C21 UNL     1      20.493  25.963  16.028  1.00  0.00     0.027 A 
HETATM   13  C22 UNL     1      21.101  27.129  15.569  1.00  0.00     0.028 A 
HETATM   14  C23 UNL     1      20.556  27.882  14.550  1.00  0.00     0.046 A 
HETATM   15  N3  UNL     1      21.196  29.072  14.099  1.00  0.00    -0.102 NA
HETATM   16  C24 UNL     1      19.375  27.432  13.999  1.00  0.00     0.028 A 
HETATM   17  C25 UNL     1      18.769  26.279  14.449  1.00  0.00     0.027 A 
ENDBRANCH   8  11
ENDBRANCH   3   8
ENDBRANCH   2   3
ENDBRANCH   1   2
BRANCH   1  18
HETATM   18  O1  UNL     1      14.140  24.439  18.335  1.00  0.00    -0.392 OA
ATOM     19  H1  UNL     1      13.502  24.478  17.632  1.00  0.00     0.210 HD
ENDBRANCH   1  18
BRANCH   1  20
HETATM   20  C7  UNL     1      14.919  22.589  17.124  1.00  0.00     0.121 C 
BRANCH  20  21
HETATM   21  C8  UNL     1      14.181  23.159  15.940  1.00  0.00     0.066 C 
BRANCH  21  22
HETATM   22  C9  UNL     1      13.772  22.083  14.987  1.00  0.00    -0.056 A 
HETATM   23  C10 UNL     1      12.497  21.569  15.005  1.00  0.00     0.007 A 
HETATM   24  C11 UNL     1      12.117  20.562  14.113  1.00  0.00     0.001 A 
HETATM   25  C12 UNL     1      13.034  20.086  13.209  1.00  0.00     0.000 A 
HETATM   26  C13 UNL     1      14.309  20.580  13.170  1.00  0.00     0.001 A 
HETATM   27  C14 UNL     1      14.660  21.577  14.064  1.00  0.00     0.007 A 
ENDBRANCH  21  22
ENDBRANCH  20  21
BRANCH  20  28
HETATM   28  N2  UNL     1      13.897  21.875  17.909  1.00  0.00    -0.329 N 
HETATM   29  C15 UNL     1      14.059  20.516  18.240  1.00  0.00     0.361 C 
HETATM   30  O2  UNL     1      15.105  19.942  17.835  1.00  0.00    -0.238 OA
ATOM     31  H2  UNL     1      13.060  22.372  18.216  1.00  0.00     0.165 HD
BRANCH  29  32
HETATM   32  O3  UNL     1      13.130  19.784  18.984  1.00  0.00    -0.296 OA
BRANCH  32  33
HETATM   33  C16 UNL     1      13.468  18.496  19.488  1.00  0.00     0.159 C 
HETATM   34  C17 UNL     1      14.142  18.595  20.842  1.00  0.00     0.061 C 
HETATM   35  C18 UNL     1      13.111  18.073  21.804  1.00  0.00     0.170 C 
HETATM   36  O4  UNL     1      12.475  17.088  21.032  1.00  0.00    -0.389 OA
HETATM   37  C19 UNL     1      12.191  17.768  19.833  1.00  0.00     0.200 C 
ENDBRANCH  32  33
ENDBRANCH  29  32
ENDBRANCH  20  28
ENDBRANCH   1  20
TORSDOF 13
ENDMDL
