MODEL 1
REMARK VINA RESULT: -9.154699738      0.000      0.000
REMARK  13 active torsions:
REMARK  status: ('A' for Active; 'I' for Inactive)
REMARK    1  A    between atoms: C2_2  and  C4_4 
REMARK    2  A    between atoms: C4_4  and  N1_5 
REMARK    3  A    between atoms: N1_5  and  C5_6 
REMARK    4  A    between atoms: N1_5  and  S1_28 
REMARK    5  A    between atoms: C5_6  and  C6_7 
REMARK    6  A    between atoms: C6_7  and  O1_8 
REMARK    7  A    between atoms: C6_7  and  C7_10 
REMARK    8  A    between atoms: C7_10  and  C8_11 
REMARK    9  A    between atoms: C7_10  and  N2_18 
REMARK   10  A    between atoms: C8_11  and  C9_12 
REMARK       I    between atoms: N2_18  and  C15_20 
REMARK   11  A    between atoms: C15_20  and  O3_22 
REMARK   12  A    between atoms: O3_22  and  C16_23 
REMARK   13  A    between atoms: S1_28  and  C20_31 
ROOT
HETATM    1  C6  UNL     1      15.521  23.830  18.152  1.00  0.00     0.160 C 
ENDROOT
BRANCH   1   2
HETATM    2  C5  UNL     1      16.575  24.746  17.658  1.00  0.00     0.174 C 
BRANCH   2   3
HETATM    3  N1  UNL     1      17.908  24.282  17.606  1.00  0.00    -0.283 N 
BRANCH   3   4
HETATM    4  C4  UNL     1      18.774  24.679  18.641  1.00  0.00     0.080 C 
BRANCH   4   5
HETATM    5  C2  UNL     1      19.019  23.666  19.728  1.00  0.00     0.017 C 
HETATM    6  C1  UNL     1      18.749  22.250  19.359  1.00  0.00     0.015 C 
HETATM    7  C3  UNL     1      18.328  24.069  21.022  1.00  0.00     0.015 C 
ENDBRANCH   4   5
ENDBRANCH   3   4
BRANCH   3   8
HETATM    8  S1  UNL     1      18.623  24.297  16.083  1.00  0.00     0.264 S 
HETATM    9  O5  UNL     1      19.556  23.123  15.917  1.00  0.00    -0.200 OA
HETATM   10  O6  UNL     1      17.536  24.079  15.014  1.00  0.00    -0.200 OA
BRANCH   8  11
HETATM   11  C20 UNL     1      19.486  25.761  15.669  1.00  0.00     0.080 A 
HETATM   12  C21 UNL     1      20.456  26.326  16.465  1.00  0.00     0.027 A 
HETATM   13  C22 UNL     1      21.122  27.487  16.077  1.00  0.00     0.028 A 
HETATM   14  C23 UNL     1      20.843  28.122  14.884  1.00  0.00     0.046 A 
HETATM   15  N3  UNL     1      21.537  29.309  14.510  1.00  0.00    -0.102 NA
HETATM   16  C24 UNL     1      19.871  27.559  14.085  1.00  0.00     0.028 A 
HETATM   17  C25 UNL     1      19.211  26.411  14.463  1.00  0.00     0.027 A 
ENDBRANCH   8  11
ENDBRANCH   3   8
ENDBRANCH   2   3
ENDBRANCH   1   2
BRANCH   1  18
HETATM   18  O1  UNL     1      14.283  24.410  18.362  1.00  0.00    -0.392 OA
ATOM     19  H1  UNL     1      13.554  23.978  17.932  1.00  0.00     0.210 HD
ENDBRANCH   1  18
BRANCH   1  20
HETATM   20  C7  UNL     1      15.292  22.654  17.179  1.00  0.00     0.121 C 
BRANCH  20  21
HETATM   21  C8  UNL     1      14.154  23.037  16.269  1.00  0.00     0.066 C 
BRANCH  21  22
HETATM   22  C9  UNL     1      13.961  22.024  15.187  1.00  0.00    -0.056 A 
HETATM   23  C10 UNL     1      14.851  21.927  14.143  1.00  0.00     0.007 A 
HETATM   24  C11 UNL     1      14.668  20.979  13.131  1.00  0.00     0.001 A 
HETATM   25  C12 UNL     1      13.586  20.137  13.189  1.00  0.00     0.000 A 
HETATM   26  C13 UNL     1      12.686  20.213  14.217  1.00  0.00     0.001 A 
HETATM   27  C14 UNL     1      12.889  21.160  15.206  1.00  0.00     0.007 A 
ENDBRANCH  21  22
ENDBRANCH  20  21
BRANCH  20  28
HETATM   28  N2  UNL     1      14.753  21.592  18.046  1.00  0.00    -0.329 N 
HETATM   29  C15 UNL     1      15.464  20.393  18.246  1.00  0.00     0.361 C 
HETATM   30  O2  UNL     1      16.569  20.268  17.654  1.00  0.00    -0.238 OA
ATOM     31  H2  UNL     1      13.853  21.726  18.506  1.00  0.00     0.165 HD
BRANCH  29  32
HETATM   32  O3  UNL     1      15.010  19.350  19.058  1.00  0.00    -0.296 OA
BRANCH  32  33
HETATM   33  C16 UNL     1      13.859  19.527  19.878  1.00  0.00     0.159 C 
HETATM   34  C17 UNL     1      12.644  18.852  19.272  1.00  0.00     0.061 C 
HETATM   35  C18 UNL     1      12.398  17.668  20.167  1.00  0.00     0.170 C 
HETATM   36  O4  UNL     1      12.788  18.172  21.418  1.00  0.00    -0.389 OA
HETATM   37  C19 UNL     1      14.050  18.732  21.148  1.00  0.00     0.200 C 
ENDBRANCH  32  33
ENDBRANCH  29  32
ENDBRANCH  20  28
ENDBRANCH   1  20
TORSDOF 13
ENDMDL
