MODEL 5
REMARK VINA RESULT: -9.063130938      2.638      6.547
REMARK  13 active torsions:
REMARK  status: ('A' for Active; 'I' for Inactive)
REMARK    1  A    between atoms: C2_2  and  C4_4 
REMARK    2  A    between atoms: C4_4  and  N1_5 
REMARK    3  A    between atoms: N1_5  and  C5_6 
REMARK    4  A    between atoms: N1_5  and  S1_28 
REMARK    5  A    between atoms: C5_6  and  C6_7 
REMARK    6  A    between atoms: C6_7  and  O1_8 
REMARK    7  A    between atoms: C6_7  and  C7_10 
REMARK    8  A    between atoms: C7_10  and  C8_11 
REMARK    9  A    between atoms: C7_10  and  N2_18 
REMARK   10  A    between atoms: C8_11  and  C9_12 
REMARK       I    between atoms: N2_18  and  C15_20 
REMARK   11  A    between atoms: C15_20  and  O3_22 
REMARK   12  A    between atoms: O3_22  and  C16_23 
REMARK   13  A    between atoms: S1_28  and  C20_31 
ROOT
HETATM    1  C6  UNL     1      16.277  24.126  18.294  1.00  0.00     0.160 C 
ENDROOT
BRANCH   1   2
HETATM    2  C5  UNL     1      17.519  24.298  19.082  1.00  0.00     0.174 C 
BRANCH   2   3
HETATM    3  N1  UNL     1      17.911  23.268  19.966  1.00  0.00    -0.283 N 
BRANCH   3   4
HETATM    4  C4  UNL     1      18.989  23.532  20.832  1.00  0.00     0.080 C 
BRANCH   4   5
HETATM    5  C2  UNL     1      20.056  24.452  20.301  1.00  0.00     0.017 C 
HETATM    6  C1  UNL     1      21.127  23.799  19.499  1.00  0.00     0.015 C 
HETATM    7  C3  UNL     1      20.616  25.339  21.402  1.00  0.00     0.015 C 
ENDBRANCH   4   5
ENDBRANCH   3   4
BRANCH   3   8
HETATM    8  S1  UNL     1      17.934  21.719  19.311  1.00  0.00     0.264 S 
HETATM    9  O5  UNL     1      18.479  21.740  17.905  1.00  0.00    -0.200 OA
HETATM   10  O6  UNL     1      18.935  20.853  20.099  1.00  0.00    -0.200 OA
BRANCH   8  11
HETATM   11  C20 UNL     1      16.400  20.879  19.304  1.00  0.00     0.080 A 
HETATM   12  C21 UNL     1      15.652  20.645  20.435  1.00  0.00     0.027 A 
HETATM   13  C22 UNL     1      14.429  19.983  20.367  1.00  0.00     0.028 A 
HETATM   14  C23 UNL     1      13.910  19.532  19.171  1.00  0.00     0.046 A 
HETATM   15  N3  UNL     1      12.657  18.857  19.127  1.00  0.00    -0.102 NA
HETATM   16  C24 UNL     1      14.657  19.765  18.035  1.00  0.00     0.028 A 
HETATM   17  C25 UNL     1      15.867  20.420  18.097  1.00  0.00     0.027 A 
ENDBRANCH   8  11
ENDBRANCH   3   8
ENDBRANCH   2   3
ENDBRANCH   1   2
BRANCH   1  18
HETATM   18  O1  UNL     1      15.353  25.146  18.414  1.00  0.00    -0.392 OA
ATOM     19  H1  UNL     1      15.524  25.915  17.884  1.00  0.00     0.210 HD
ENDBRANCH   1  18
BRANCH   1  20
HETATM   20  C7  UNL     1      16.579  23.987  16.787  1.00  0.00     0.121 C 
BRANCH  20  21
HETATM   21  C8  UNL     1      16.909  25.361  16.264  1.00  0.00     0.066 C 
BRANCH  21  22
HETATM   22  C9  UNL     1      18.308  25.420  15.739  1.00  0.00    -0.056 A 
HETATM   23  C10 UNL     1      19.307  26.030  16.458  1.00  0.00     0.007 A 
HETATM   24  C11 UNL     1      20.615  26.084  15.965  1.00  0.00     0.001 A 
HETATM   25  C12 UNL     1      20.895  25.518  14.747  1.00  0.00     0.000 A 
HETATM   26  C13 UNL     1      19.918  24.904  14.011  1.00  0.00     0.001 A 
HETATM   27  C14 UNL     1      18.633  24.864  14.522  1.00  0.00     0.007 A 
ENDBRANCH  21  22
ENDBRANCH  20  21
BRANCH  20  28
HETATM   28  N2  UNL     1      15.267  23.657  16.203  1.00  0.00    -0.329 N 
HETATM   29  C15 UNL     1      15.136  22.620  15.260  1.00  0.00     0.361 C 
HETATM   30  O2  UNL     1      16.181  21.994  14.937  1.00  0.00    -0.238 OA
ATOM     31  H2  UNL     1      14.443  24.188  16.485  1.00  0.00     0.165 HD
BRANCH  29  32
HETATM   32  O3  UNL     1      13.921  22.256  14.673  1.00  0.00    -0.296 OA
BRANCH  32  33
HETATM   33  C16 UNL     1      13.394  20.947  14.866  1.00  0.00     0.159 C 
HETATM   34  C17 UNL     1      11.885  20.978  15.010  1.00  0.00     0.061 C 
HETATM   35  C18 UNL     1      11.382  20.374  13.728  1.00  0.00     0.170 C 
HETATM   36  O4  UNL     1      12.377  19.424  13.451  1.00  0.00    -0.389 OA
HETATM   37  C19 UNL     1      13.563  20.170  13.582  1.00  0.00     0.200 C 
ENDBRANCH  32  33
ENDBRANCH  29  32
ENDBRANCH  20  28
ENDBRANCH   1  20
TORSDOF 13
ENDMDL
