MODEL 4
REMARK VINA RESULT: -9.086851385      2.596      8.654
REMARK  13 active torsions:
REMARK  status: ('A' for Active; 'I' for Inactive)
REMARK    1  A    between atoms: C2_2  and  C4_4 
REMARK    2  A    between atoms: C4_4  and  N1_5 
REMARK    3  A    between atoms: N1_5  and  C5_6 
REMARK    4  A    between atoms: N1_5  and  S1_28 
REMARK    5  A    between atoms: C5_6  and  C6_7 
REMARK    6  A    between atoms: C6_7  and  O1_8 
REMARK    7  A    between atoms: C6_7  and  C7_10 
REMARK    8  A    between atoms: C7_10  and  C8_11 
REMARK    9  A    between atoms: C7_10  and  N2_18 
REMARK   10  A    between atoms: C8_11  and  C9_12 
REMARK       I    between atoms: N2_18  and  C15_20 
REMARK   11  A    between atoms: C15_20  and  O3_22 
REMARK   12  A    between atoms: O3_22  and  C16_23 
REMARK   13  A    between atoms: S1_28  and  C20_31 
ROOT
HETATM    1  C6  UNL     1      18.155  24.025  15.334  1.00  0.00     0.160 C 
ENDROOT
BRANCH   1   2
HETATM    2  C5  UNL     1      17.075  23.931  16.343  1.00  0.00     0.174 C 
BRANCH   2   3
HETATM    3  N1  UNL     1      16.382  22.707  16.484  1.00  0.00    -0.283 N 
BRANCH   3   4
HETATM    4  C4  UNL     1      14.981  22.764  16.595  1.00  0.00     0.080 C 
BRANCH   4   5
HETATM    5  C2  UNL     1      14.200  22.253  15.413  1.00  0.00     0.017 C 
HETATM    6  C1  UNL     1      15.015  21.757  14.270  1.00  0.00     0.015 C 
HETATM    7  C3  UNL     1      13.142  23.255  14.977  1.00  0.00     0.015 C 
ENDBRANCH   4   5
ENDBRANCH   3   4
BRANCH   3   8
HETATM    8  S1  UNL     1      17.096  21.584  17.513  1.00  0.00     0.264 S 
HETATM    9  O5  UNL     1      17.929  20.596  16.733  1.00  0.00    -0.200 OA
HETATM   10  O6  UNL     1      18.108  22.306  18.423  1.00  0.00    -0.200 OA
BRANCH   8  11
HETATM   11  C20 UNL     1      15.996  20.698  18.544  1.00  0.00     0.080 A 
HETATM   12  C21 UNL     1      15.457  19.475  18.213  1.00  0.00     0.027 A 
HETATM   13  C22 UNL     1      14.596  18.808  19.081  1.00  0.00     0.028 A 
HETATM   14  C23 UNL     1      14.244  19.335  20.306  1.00  0.00     0.046 A 
HETATM   15  N3  UNL     1      13.361  18.634  21.176  1.00  0.00    -0.102 NA
HETATM   16  C24 UNL     1      14.782  20.560  20.641  1.00  0.00     0.028 A 
HETATM   17  C25 UNL     1      15.634  21.224  19.786  1.00  0.00     0.027 A 
ENDBRANCH   8  11
ENDBRANCH   3   8
ENDBRANCH   2   3
ENDBRANCH   1   2
BRANCH   1  18
HETATM   18  O1  UNL     1      17.754  24.421  14.072  1.00  0.00    -0.392 OA
ATOM     19  H1  UNL     1      18.080  23.889  13.356  1.00  0.00     0.210 HD
ENDBRANCH   1  18
BRANCH   1  20
HETATM   20  C7  UNL     1      19.254  25.016  15.773  1.00  0.00     0.121 C 
BRANCH  20  21
HETATM   21  C8  UNL     1      20.297  25.044  14.686  1.00  0.00     0.066 C 
BRANCH  21  22
HETATM   22  C9  UNL     1      20.946  26.388  14.592  1.00  0.00    -0.056 A 
HETATM   23  C10 UNL     1      20.412  27.376  13.799  1.00  0.00     0.007 A 
HETATM   24  C11 UNL     1      21.021  28.632  13.712  1.00  0.00     0.001 A 
HETATM   25  C12 UNL     1      22.165  28.873  14.431  1.00  0.00     0.000 A 
HETATM   26  C13 UNL     1      22.717  27.907  15.226  1.00  0.00     0.001 A 
HETATM   27  C14 UNL     1      22.095  26.672  15.296  1.00  0.00     0.007 A 
ENDBRANCH  21  22
ENDBRANCH  20  21
BRANCH  20  28
HETATM   28  N2  UNL     1      19.898  24.333  16.909  1.00  0.00    -0.329 N 
HETATM   29  C15 UNL     1      20.259  25.045  18.069  1.00  0.00     0.361 C 
HETATM   30  O2  UNL     1      20.014  26.281  18.091  1.00  0.00    -0.238 OA
ATOM     31  H2  UNL     1      20.085  23.332  16.854  1.00  0.00     0.165 HD
BRANCH  29  32
HETATM   32  O3  UNL     1      20.868  24.456  19.180  1.00  0.00    -0.296 OA
BRANCH  32  33
HETATM   33  C16 UNL     1      21.589  25.256  20.112  1.00  0.00     0.159 C 
HETATM   34  C17 UNL     1      21.293  24.837  21.539  1.00  0.00     0.061 C 
HETATM   35  C18 UNL     1      22.562  24.171  21.996  1.00  0.00     0.170 C 
HETATM   36  O4  UNL     1      23.536  24.919  21.315  1.00  0.00    -0.389 OA
HETATM   37  C19 UNL     1      23.057  24.923  19.993  1.00  0.00     0.200 C 
ENDBRANCH  32  33
ENDBRANCH  29  32
ENDBRANCH  20  28
ENDBRANCH   1  20
TORSDOF 13
ENDMDL
