MODEL 5
REMARK VINA RESULT: -8.954903316      2.772      7.758
REMARK  13 active torsions:
REMARK  status: ('A' for Active; 'I' for Inactive)
REMARK    1  A    between atoms: C2_2  and  C4_4 
REMARK    2  A    between atoms: C4_4  and  N1_5 
REMARK    3  A    between atoms: N1_5  and  C5_6 
REMARK    4  A    between atoms: N1_5  and  S1_28 
REMARK    5  A    between atoms: C5_6  and  C6_7 
REMARK    6  A    between atoms: C6_7  and  O1_8 
REMARK    7  A    between atoms: C6_7  and  C7_10 
REMARK    8  A    between atoms: C7_10  and  C8_11 
REMARK    9  A    between atoms: C7_10  and  N2_18 
REMARK   10  A    between atoms: C8_11  and  C9_12 
REMARK       I    between atoms: N2_18  and  C15_20 
REMARK   11  A    between atoms: C15_20  and  O3_22 
REMARK   12  A    between atoms: O3_22  and  C16_23 
REMARK   13  A    between atoms: S1_28  and  C20_31 
ROOT
HETATM    1  C6  UNL     1     -16.872 -18.188 -17.270  1.00  0.00     0.160 C 
ENDROOT
BRANCH   1   2
HETATM    2  C5  UNL     1     -18.145 -18.612 -17.898  1.00  0.00     0.174 C 
BRANCH   2   3
HETATM    3  N1  UNL     1     -18.137 -18.994 -19.259  1.00  0.00    -0.283 N 
BRANCH   3   4
HETATM    4  C4  UNL     1     -19.142 -18.460 -20.087  1.00  0.00     0.080 C 
BRANCH   4   5
HETATM    5  C2  UNL     1     -20.556 -18.595 -19.586  1.00  0.00     0.017 C 
HETATM    6  C1  UNL     1     -21.505 -19.266 -20.516  1.00  0.00     0.015 C 
HETATM    7  C3  UNL     1     -21.088 -17.266 -19.074  1.00  0.00     0.015 C 
ENDBRANCH   4   5
ENDBRANCH   3   4
BRANCH   3   8
HETATM    8  S1  UNL     1     -17.807 -20.616 -19.556  1.00  0.00     0.264 S 
HETATM    9  O5  UNL     1     -18.963 -21.485 -19.127  1.00  0.00    -0.200 OA
HETATM   10  O6  UNL     1     -17.701 -20.839 -21.076  1.00  0.00    -0.200 OA
BRANCH   8  11
HETATM   11  C20 UNL     1     -16.342 -21.234 -18.827  1.00  0.00     0.080 A 
HETATM   12  C21 UNL     1     -16.326 -22.196 -17.843  1.00  0.00     0.027 A 
HETATM   13  C22 UNL     1     -15.126 -22.661 -17.309  1.00  0.00     0.028 A 
HETATM   14  C23 UNL     1     -13.904 -22.184 -17.736  1.00  0.00     0.046 A 
HETATM   15  N3  UNL     1     -12.692 -22.675 -17.174  1.00  0.00    -0.102 NA
HETATM   16  C24 UNL     1     -13.917 -21.219 -18.721  1.00  0.00     0.028 A 
HETATM   17  C25 UNL     1     -15.100 -20.756 -19.254  1.00  0.00     0.027 A 
ENDBRANCH   8  11
ENDBRANCH   3   8
ENDBRANCH   2   3
ENDBRANCH   1   2
BRANCH   1  18
HETATM   18  O1  UNL     1     -16.376 -16.972 -17.701  1.00  0.00    -0.392 OA
ATOM     19  H1  UNL     1     -16.023 -16.413 -17.019  1.00  0.00     0.210 HD
ENDBRANCH   1  18
BRANCH   1  20
HETATM   20  C7  UNL     1     -17.006 -18.085 -15.736  1.00  0.00     0.121 C 
BRANCH  20  21
HETATM   21  C8  UNL     1     -17.021 -19.490 -15.189  1.00  0.00     0.066 C 
BRANCH  21  22
HETATM   22  C9  UNL     1     -15.642 -19.955 -14.850  1.00  0.00    -0.056 A 
HETATM   23  C10 UNL     1     -15.444 -21.018 -14.001  1.00  0.00     0.007 A 
HETATM   24  C11 UNL     1     -14.153 -21.452 -13.685  1.00  0.00     0.001 A 
HETATM   25  C12 UNL     1     -13.075 -20.803 -14.233  1.00  0.00     0.000 A 
HETATM   26  C13 UNL     1     -13.245 -19.742 -15.080  1.00  0.00     0.001 A 
HETATM   27  C14 UNL     1     -14.533 -19.333 -15.378  1.00  0.00     0.007 A 
ENDBRANCH  21  22
ENDBRANCH  20  21
BRANCH  20  28
HETATM   28  N2  UNL     1     -18.376 -17.581 -15.543  1.00  0.00    -0.329 N 
HETATM   29  C15 UNL     1     -18.684 -16.714 -14.478  1.00  0.00     0.361 C 
HETATM   30  O2  UNL     1     -17.745 -16.394 -13.700  1.00  0.00    -0.238 OA
ATOM     31  H2  UNL     1     -19.112 -17.864 -16.191  1.00  0.00     0.165 HD
BRANCH  29  32
HETATM   32  O3  UNL     1     -19.961 -16.198 -14.244  1.00  0.00    -0.296 OA
BRANCH  32  33
HETATM   33  C16 UNL     1     -20.311 -14.902 -14.721  1.00  0.00     0.159 C 
HETATM   34  C17 UNL     1     -21.253 -14.990 -15.906  1.00  0.00     0.061 C 
HETATM   35  C18 UNL     1     -22.574 -14.522 -15.361  1.00  0.00     0.170 C 
HETATM   36  O4  UNL     1     -22.169 -13.555 -14.428  1.00  0.00    -0.389 OA
HETATM   37  C19 UNL     1     -21.183 -14.231 -13.687  1.00  0.00     0.200 C 
ENDBRANCH  32  33
ENDBRANCH  29  32
ENDBRANCH  20  28
ENDBRANCH   1  20
TORSDOF 13
ENDMDL
