MODEL 1
REMARK VINA RESULT: -9.182444222      0.000      0.000
REMARK  13 active torsions:
REMARK  status: ('A' for Active; 'I' for Inactive)
REMARK    1  A    between atoms: C2_2  and  C4_4 
REMARK    2  A    between atoms: C4_4  and  N1_5 
REMARK    3  A    between atoms: N1_5  and  C5_6 
REMARK    4  A    between atoms: N1_5  and  S1_28 
REMARK    5  A    between atoms: C5_6  and  C6_7 
REMARK    6  A    between atoms: C6_7  and  O1_8 
REMARK    7  A    between atoms: C6_7  and  C7_10 
REMARK    8  A    between atoms: C7_10  and  C8_11 
REMARK    9  A    between atoms: C7_10  and  N2_18 
REMARK   10  A    between atoms: C8_11  and  C9_12 
REMARK       I    between atoms: N2_18  and  C15_20 
REMARK   11  A    between atoms: C15_20  and  O3_22 
REMARK   12  A    between atoms: O3_22  and  C16_23 
REMARK   13  A    between atoms: S1_28  and  C20_31 
ROOT
HETATM    1  C6  UNL     1     -15.015 -19.171 -18.092  1.00  0.00     0.160 C 
ENDROOT
BRANCH   1   2
HETATM    2  C5  UNL     1     -16.180 -18.343 -17.704  1.00  0.00     0.174 C 
BRANCH   2   3
HETATM    3  N1  UNL     1     -17.474 -18.901 -17.805  1.00  0.00    -0.283 N 
BRANCH   3   4
HETATM    4  C4  UNL     1     -18.238 -18.566 -18.939  1.00  0.00     0.080 C 
BRANCH   4   5
HETATM    5  C2  UNL     1     -18.245 -19.575 -20.057  1.00  0.00     0.017 C 
HETATM    6  C1  UNL     1     -19.432 -19.531 -20.953  1.00  0.00     0.015 C 
HETATM    7  C3  UNL     1     -17.963 -20.976 -19.536  1.00  0.00     0.015 C 
ENDBRANCH   4   5
ENDBRANCH   3   4
BRANCH   3   8
HETATM    8  S1  UNL     1     -18.363 -18.937 -16.378  1.00  0.00     0.264 S 
HETATM    9  O5  UNL     1     -19.386 -20.046 -16.412  1.00  0.00    -0.200 OA
HETATM   10  O6  UNL     1     -17.429 -19.312 -15.212  1.00  0.00    -0.200 OA
BRANCH   8  11
HETATM   11  C20 UNL     1     -19.169 -17.445 -15.952  1.00  0.00     0.080 A 
HETATM   12  C21 UNL     1     -20.096 -16.822 -16.755  1.00  0.00     0.027 A 
HETATM   13  C22 UNL     1     -20.718 -15.640 -16.358  1.00  0.00     0.028 A 
HETATM   14  C23 UNL     1     -20.436 -15.040 -15.148  1.00  0.00     0.046 A 
HETATM   15  N3  UNL     1     -21.084 -13.832 -14.764  1.00  0.00    -0.102 NA
HETATM   16  C24 UNL     1     -19.507 -15.662 -14.341  1.00  0.00     0.028 A 
HETATM   17  C25 UNL     1     -18.890 -16.830 -14.729  1.00  0.00     0.027 A 
ENDBRANCH   8  11
ENDBRANCH   3   8
ENDBRANCH   2   3
ENDBRANCH   1   2
BRANCH   1  18
HETATM   18  O1  UNL     1     -13.810 -18.498 -18.169  1.00  0.00    -0.392 OA
ATOM     19  H1  UNL     1     -13.537 -18.252 -19.045  1.00  0.00     0.210 HD
ENDBRANCH   1  18
BRANCH   1  20
HETATM   20  C7  UNL     1     -14.799 -20.339 -17.107  1.00  0.00     0.121 C 
BRANCH  20  21
HETATM   21  C8  UNL     1     -13.890 -19.843 -16.011  1.00  0.00     0.066 C 
BRANCH  21  22
HETATM   22  C9  UNL     1     -13.803 -20.829 -14.891  1.00  0.00    -0.056 A 
HETATM   23  C10 UNL     1     -14.762 -20.867 -13.907  1.00  0.00     0.007 A 
HETATM   24  C11 UNL     1     -14.679 -21.790 -12.860  1.00  0.00     0.001 A 
HETATM   25  C12 UNL     1     -13.623 -22.666 -12.821  1.00  0.00     0.000 A 
HETATM   26  C13 UNL     1     -12.655 -22.649 -13.787  1.00  0.00     0.001 A 
HETATM   27  C14 UNL     1     -12.761 -21.726 -14.814  1.00  0.00     0.007 A 
ENDBRANCH  21  22
ENDBRANCH  20  21
BRANCH  20  28
HETATM   28  N2  UNL     1     -13.986 -21.294 -17.880  1.00  0.00    -0.329 N 
HETATM   29  C15 UNL     1     -14.436 -22.610 -18.103  1.00  0.00     0.361 C 
HETATM   30  O2  UNL     1     -15.551 -22.933 -17.614  1.00  0.00    -0.238 OA
ATOM     31  H2  UNL     1     -13.086 -20.999 -18.257  1.00  0.00     0.165 HD
BRANCH  29  32
HETATM   32  O3  UNL     1     -13.716 -23.561 -18.831  1.00  0.00    -0.296 OA
BRANCH  32  33
HETATM   33  C16 UNL     1     -12.344 -23.339 -19.143  1.00  0.00     0.159 C 
HETATM   34  C17 UNL     1     -11.438 -23.886 -18.058  1.00  0.00     0.061 C 
HETATM   35  C18 UNL     1     -10.797 -25.092 -18.689  1.00  0.00     0.170 C 
HETATM   36  O4  UNL     1     -10.683 -24.685 -20.028  1.00  0.00    -0.389 OA
HETATM   37  C19 UNL     1     -11.975 -24.211 -20.320  1.00  0.00     0.200 C 
ENDBRANCH  32  33
ENDBRANCH  29  32
ENDBRANCH  20  28
ENDBRANCH   1  20
TORSDOF 13
ENDMDL
