MODEL 4
REMARK VINA RESULT: -8.992012575      2.885      9.012
REMARK  13 active torsions:
REMARK  status: ('A' for Active; 'I' for Inactive)
REMARK    1  A    between atoms: C2_2  and  C4_4 
REMARK    2  A    between atoms: C4_4  and  N1_5 
REMARK    3  A    between atoms: N1_5  and  C5_6 
REMARK    4  A    between atoms: N1_5  and  S1_28 
REMARK    5  A    between atoms: C5_6  and  C6_7 
REMARK    6  A    between atoms: C6_7  and  O1_8 
REMARK    7  A    between atoms: C6_7  and  C7_10 
REMARK    8  A    between atoms: C7_10  and  C8_11 
REMARK    9  A    between atoms: C7_10  and  N2_18 
REMARK   10  A    between atoms: C8_11  and  C9_12 
REMARK       I    between atoms: N2_18  and  C15_20 
REMARK   11  A    between atoms: C15_20  and  O3_22 
REMARK   12  A    between atoms: O3_22  and  C16_23 
REMARK   13  A    between atoms: S1_28  and  C20_31 
ROOT
HETATM    1  C6  UNL     1     -18.884 -18.604 -16.252  1.00  0.00     0.160 C 
ENDROOT
BRANCH   1   2
HETATM    2  C5  UNL     1     -17.808 -18.633 -17.271  1.00  0.00     0.174 C 
BRANCH   2   3
HETATM    3  N1  UNL     1     -17.498 -19.862 -17.896  1.00  0.00    -0.283 N 
BRANCH   3   4
HETATM    4  C4  UNL     1     -18.437 -20.381 -18.806  1.00  0.00     0.080 C 
BRANCH   4   5
HETATM    5  C2  UNL     1     -18.094 -20.240 -20.266  1.00  0.00     0.017 C 
HETATM    6  C1  UNL     1     -18.432 -18.928 -20.882  1.00  0.00     0.015 C 
HETATM    7  C3  UNL     1     -18.628 -21.413 -21.072  1.00  0.00     0.015 C 
ENDBRANCH   4   5
ENDBRANCH   3   4
BRANCH   3   8
HETATM    8  S1  UNL     1     -16.805 -21.027 -16.901  1.00  0.00     0.264 S 
HETATM    9  O5  UNL     1     -16.527 -20.464 -15.529  1.00  0.00    -0.200 OA
HETATM   10  O6  UNL     1     -17.828 -22.152 -16.654  1.00  0.00    -0.200 OA
BRANCH   8  11
HETATM   11  C20 UNL     1     -15.342 -21.767 -17.510  1.00  0.00     0.080 A 
HETATM   12  C21 UNL     1     -14.198 -21.924 -16.762  1.00  0.00     0.027 A 
HETATM   13  C22 UNL     1     -13.065 -22.534 -17.296  1.00  0.00     0.028 A 
HETATM   14  C23 UNL     1     -13.035 -23.009 -18.591  1.00  0.00     0.046 A 
HETATM   15  N3  UNL     1     -11.865 -23.629 -19.114  1.00  0.00    -0.102 NA
HETATM   16  C24 UNL     1     -14.181 -22.854 -19.343  1.00  0.00     0.028 A 
HETATM   17  C25 UNL     1     -15.303 -22.252 -18.820  1.00  0.00     0.027 A 
ENDBRANCH   8  11
ENDBRANCH   3   8
ENDBRANCH   2   3
ENDBRANCH   1   2
BRANCH   1  18
HETATM   18  O1  UNL     1     -18.463 -18.399 -14.952  1.00  0.00    -0.392 OA
ATOM     19  H1  UNL     1     -19.094 -18.625 -14.280  1.00  0.00     0.210 HD
ENDBRANCH   1  18
BRANCH   1  20
HETATM   20  C7  UNL     1     -19.919 -17.499 -16.555  1.00  0.00     0.121 C 
BRANCH  20  21
HETATM   21  C8  UNL     1     -20.992 -17.586 -15.500  1.00  0.00     0.066 C 
BRANCH  21  22
HETATM   22  C9  UNL     1     -21.518 -16.232 -15.149  1.00  0.00    -0.056 A 
HETATM   23  C10 UNL     1     -22.670 -15.750 -15.725  1.00  0.00     0.007 A 
HETATM   24  C11 UNL     1     -23.160 -14.482 -15.395  1.00  0.00     0.001 A 
HETATM   25  C12 UNL     1     -22.477 -13.716 -14.485  1.00  0.00     0.000 A 
HETATM   26  C13 UNL     1     -21.328 -14.171 -13.898  1.00  0.00     0.001 A 
HETATM   27  C14 UNL     1     -20.864 -15.430 -14.241  1.00  0.00     0.007 A 
ENDBRANCH  21  22
ENDBRANCH  20  21
BRANCH  20  28
HETATM   28  N2  UNL     1     -20.561 -17.962 -17.798  1.00  0.00    -0.329 N 
HETATM   29  C15 UNL     1     -20.984 -17.042 -18.777  1.00  0.00     0.361 C 
HETATM   30  O2  UNL     1     -20.795 -15.819 -18.544  1.00  0.00    -0.238 OA
ATOM     31  H2  UNL     1     -20.700 -18.960 -17.951  1.00  0.00     0.165 HD
BRANCH  29  32
HETATM   32  O3  UNL     1     -21.594 -17.416 -19.977  1.00  0.00    -0.296 OA
BRANCH  32  33
HETATM   33  C16 UNL     1     -22.544 -18.477 -20.001  1.00  0.00     0.159 C 
HETATM   34  C17 UNL     1     -23.887 -18.023 -19.461  1.00  0.00     0.061 C 
HETATM   35  C18 UNL     1     -24.770 -17.967 -20.677  1.00  0.00     0.170 C 
HETATM   36  O4  UNL     1     -24.266 -19.029 -21.444  1.00  0.00    -0.389 OA
HETATM   37  C19 UNL     1     -22.880 -18.786 -21.440  1.00  0.00     0.200 C 
ENDBRANCH  32  33
ENDBRANCH  29  32
ENDBRANCH  20  28
ENDBRANCH   1  20
TORSDOF 13
ENDMDL
