MODEL 8
REMARK VINA RESULT: -8.939630475      0.998      1.332
REMARK  13 active torsions:
REMARK  status: ('A' for Active; 'I' for Inactive)
REMARK    1  A    between atoms: C2_2  and  C4_4 
REMARK    2  A    between atoms: C4_4  and  N1_5 
REMARK    3  A    between atoms: N1_5  and  C5_6 
REMARK    4  A    between atoms: N1_5  and  S1_28 
REMARK    5  A    between atoms: C5_6  and  C6_7 
REMARK    6  A    between atoms: C6_7  and  O1_8 
REMARK    7  A    between atoms: C6_7  and  C7_10 
REMARK    8  A    between atoms: C7_10  and  C8_11 
REMARK    9  A    between atoms: C7_10  and  N2_18 
REMARK   10  A    between atoms: C8_11  and  C9_12 
REMARK       I    between atoms: N2_18  and  C15_20 
REMARK   11  A    between atoms: C15_20  and  O3_22 
REMARK   12  A    between atoms: O3_22  and  C16_23 
REMARK   13  A    between atoms: S1_28  and  C20_31 
ROOT
HETATM    1  C6  UNL     1     -15.543 -19.069 -17.817  1.00  0.00     0.160 C 
ENDROOT
BRANCH   1   2
HETATM    2  C5  UNL     1     -16.487 -18.164 -17.120  1.00  0.00     0.174 C 
BRANCH   2   3
HETATM    3  N1  UNL     1     -17.875 -18.371 -17.289  1.00  0.00    -0.283 N 
BRANCH   3   4
HETATM    4  C4  UNL     1     -18.517 -17.652 -18.314  1.00  0.00     0.080 C 
BRANCH   4   5
HETATM    5  C2  UNL     1     -19.194 -18.475 -19.378  1.00  0.00     0.017 C 
HETATM    6  C1  UNL     1     -18.467 -18.574 -20.673  1.00  0.00     0.015 C 
HETATM    7  C3  UNL     1     -20.645 -18.056 -19.558  1.00  0.00     0.015 C 
ENDBRANCH   4   5
ENDBRANCH   3   4
BRANCH   3   8
HETATM    8  S1  UNL     1     -18.771 -18.471 -15.869  1.00  0.00     0.264 S 
HETATM    9  O5  UNL     1     -19.677 -19.678 -15.891  1.00  0.00    -0.200 OA
HETATM   10  O6  UNL     1     -17.817 -18.727 -14.687  1.00  0.00    -0.200 OA
BRANCH   8  11
HETATM   11  C20 UNL     1     -19.729 -17.060 -15.480  1.00  0.00     0.080 A 
HETATM   12  C21 UNL     1     -21.022 -16.873 -15.911  1.00  0.00     0.027 A 
HETATM   13  C22 UNL     1     -21.743 -15.734 -15.558  1.00  0.00     0.028 A 
HETATM   14  C23 UNL     1     -21.200 -14.746 -14.763  1.00  0.00     0.046 A 
HETATM   15  N3  UNL     1     -21.957 -13.590 -14.416  1.00  0.00    -0.102 NA
HETATM   16  C24 UNL     1     -19.904 -14.931 -14.329  1.00  0.00     0.028 A 
HETATM   17  C25 UNL     1     -19.187 -16.054 -14.676  1.00  0.00     0.027 A 
ENDBRANCH   8  11
ENDBRANCH   3   8
ENDBRANCH   2   3
ENDBRANCH   1   2
BRANCH   1  18
HETATM   18  O1  UNL     1     -14.387 -18.473 -18.283  1.00  0.00    -0.392 OA
ATOM     19  H1  UNL     1     -13.730 -19.069 -18.621  1.00  0.00     0.210 HD
ENDBRANCH   1  18
BRANCH   1  20
HETATM   20  C7  UNL     1     -15.097 -20.231 -16.905  1.00  0.00     0.121 C 
BRANCH  20  21
HETATM   21  C8  UNL     1     -14.467 -19.625 -15.677  1.00  0.00     0.066 C 
BRANCH  21  22
HETATM   22  C9  UNL     1     -14.284 -20.647 -14.601  1.00  0.00    -0.056 A 
HETATM   23  C10 UNL     1     -15.185 -20.755 -13.569  1.00  0.00     0.007 A 
HETATM   24  C11 UNL     1     -15.012 -21.711 -12.563  1.00  0.00     0.001 A 
HETATM   25  C12 UNL     1     -13.926 -22.548 -12.615  1.00  0.00     0.000 A 
HETATM   26  C13 UNL     1     -13.014 -22.461 -13.631  1.00  0.00     0.001 A 
HETATM   27  C14 UNL     1     -13.209 -21.507 -14.615  1.00  0.00     0.007 A 
ENDBRANCH  21  22
ENDBRANCH  20  21
BRANCH  20  28
HETATM   28  N2  UNL     1     -13.982 -20.843 -17.648  1.00  0.00    -0.329 N 
HETATM   29  C15 UNL     1     -14.057 -22.176 -18.095  1.00  0.00     0.361 C 
HETATM   30  O2  UNL     1     -15.108 -22.818 -17.830  1.00  0.00    -0.238 OA
ATOM     31  H2  UNL     1     -13.145 -20.293 -17.842  1.00  0.00     0.165 HD
BRANCH  29  32
HETATM   32  O3  UNL     1     -13.037 -22.812 -18.809  1.00  0.00    -0.296 OA
BRANCH  32  33
HETATM   33  C16 UNL     1     -13.116 -24.207 -19.085  1.00  0.00     0.159 C 
HETATM   34  C17 UNL     1     -13.668 -24.461 -20.474  1.00  0.00     0.061 C 
HETATM   35  C18 UNL     1     -12.481 -24.953 -21.256  1.00  0.00     0.170 C 
HETATM   36  O4  UNL     1     -11.771 -25.664 -20.276  1.00  0.00    -0.389 OA
HETATM   37  C19 UNL     1     -11.713 -24.750 -19.209  1.00  0.00     0.200 C 
ENDBRANCH  32  33
ENDBRANCH  29  32
ENDBRANCH  20  28
ENDBRANCH   1  20
TORSDOF 13
ENDMDL
