MODEL 2
REMARK VINA RESULT: -9.053736687      2.444      8.165
REMARK  13 active torsions:
REMARK  status: ('A' for Active; 'I' for Inactive)
REMARK    1  A    between atoms: C2_2  and  C4_4 
REMARK    2  A    between atoms: C4_4  and  N1_5 
REMARK    3  A    between atoms: N1_5  and  C5_6 
REMARK    4  A    between atoms: N1_5  and  S1_28 
REMARK    5  A    between atoms: C5_6  and  C6_7 
REMARK    6  A    between atoms: C6_7  and  O1_8 
REMARK    7  A    between atoms: C6_7  and  C7_10 
REMARK    8  A    between atoms: C7_10  and  C8_11 
REMARK    9  A    between atoms: C7_10  and  N2_18 
REMARK   10  A    between atoms: C8_11  and  C9_12 
REMARK       I    between atoms: N2_18  and  C15_20 
REMARK   11  A    between atoms: C15_20  and  O3_22 
REMARK   12  A    between atoms: O3_22  and  C16_23 
REMARK   13  A    between atoms: S1_28  and  C20_31 
ROOT
HETATM    1  C6  UNL     1     -17.110 -18.595 -15.152  1.00  0.00     0.160 C 
ENDROOT
BRANCH   1   2
HETATM    2  C5  UNL     1     -16.981 -20.041 -15.447  1.00  0.00     0.174 C 
BRANCH   2   3
HETATM    3  N1  UNL     1     -15.692 -20.578 -15.662  1.00  0.00    -0.283 N 
BRANCH   3   4
HETATM    4  C4  UNL     1     -14.761 -20.469 -14.612  1.00  0.00     0.080 C 
BRANCH   4   5
HETATM    5  C2  UNL     1     -14.601 -21.684 -13.737  1.00  0.00     0.017 C 
HETATM    6  C1  UNL     1     -14.987 -21.504 -12.311  1.00  0.00     0.015 C 
HETATM    7  C3  UNL     1     -13.216 -22.294 -13.891  1.00  0.00     0.015 C 
ENDBRANCH   4   5
ENDBRANCH   3   4
BRANCH   3   8
HETATM    8  S1  UNL     1     -15.032 -20.294 -17.182  1.00  0.00     0.264 S 
HETATM    9  O5  UNL     1     -16.061 -19.696 -18.110  1.00  0.00    -0.200 OA
HETATM   10  O6  UNL     1     -13.943 -19.211 -17.065  1.00  0.00    -0.200 OA
BRANCH   8  11
HETATM   11  C20 UNL     1     -14.314 -21.684 -17.966  1.00  0.00     0.080 A 
HETATM   12  C21 UNL     1     -14.885 -22.338 -19.032  1.00  0.00     0.027 A 
HETATM   13  C22 UNL     1     -14.260 -23.432 -19.626  1.00  0.00     0.028 A 
HETATM   14  C23 UNL     1     -13.046 -23.910 -19.177  1.00  0.00     0.046 A 
HETATM   15  N3  UNL     1     -12.427 -25.031 -19.800  1.00  0.00    -0.102 NA
HETATM   16  C24 UNL     1     -12.471 -23.256 -18.108  1.00  0.00     0.028 A 
HETATM   17  C25 UNL     1     -13.085 -22.174 -17.517  1.00  0.00     0.027 A 
ENDBRANCH   8  11
ENDBRANCH   3   8
ENDBRANCH   2   3
ENDBRANCH   1   2
BRANCH   1  18
HETATM   18  O1  UNL     1     -16.091 -17.798 -15.638  1.00  0.00    -0.392 OA
ATOM     19  H1  UNL     1     -16.212 -17.477 -16.524  1.00  0.00     0.210 HD
ENDBRANCH   1  18
BRANCH   1  20
HETATM   20  C7  UNL     1     -18.423 -18.017 -15.722  1.00  0.00     0.121 C 
BRANCH  20  21
HETATM   21  C8  UNL     1     -19.435 -18.010 -14.604  1.00  0.00     0.066 C 
BRANCH  21  22
HETATM   22  C9  UNL     1     -20.326 -16.812 -14.688  1.00  0.00    -0.056 A 
HETATM   23  C10 UNL     1     -19.984 -15.633 -14.070  1.00  0.00     0.007 A 
HETATM   24  C11 UNL     1     -20.819 -14.514 -14.149  1.00  0.00     0.001 A 
HETATM   25  C12 UNL     1     -21.993 -14.603 -14.854  1.00  0.00     0.000 A 
HETATM   26  C13 UNL     1     -22.357 -15.765 -15.478  1.00  0.00     0.001 A 
HETATM   27  C14 UNL     1     -21.512 -16.857 -15.385  1.00  0.00     0.007 A 
ENDBRANCH  21  22
ENDBRANCH  20  21
BRANCH  20  28
HETATM   28  N2  UNL     1     -18.884 -19.063 -16.651  1.00  0.00    -0.329 N 
HETATM   29  C15 UNL     1     -19.419 -18.727 -17.909  1.00  0.00     0.361 C 
HETATM   30  O2  UNL     1     -19.491 -17.503 -18.201  1.00  0.00    -0.238 OA
ATOM     31  H2  UNL     1     -18.813 -20.044 -16.380  1.00  0.00     0.165 HD
BRANCH  29  32
HETATM   32  O3  UNL     1     -19.869 -19.670 -18.837  1.00  0.00    -0.296 OA
BRANCH  32  33
HETATM   33  C16 UNL     1     -19.370 -19.660 -20.171  1.00  0.00     0.159 C 
HETATM   34  C17 UNL     1     -18.249 -20.665 -20.347  1.00  0.00     0.061 C 
HETATM   35  C18 UNL     1     -18.860 -21.751 -21.190  1.00  0.00     0.170 C 
HETATM   36  O4  UNL     1     -19.733 -21.018 -22.009  1.00  0.00    -0.389 OA
HETATM   37  C19 UNL     1     -20.434 -20.223 -21.083  1.00  0.00     0.200 C 
ENDBRANCH  32  33
ENDBRANCH  29  32
ENDBRANCH  20  28
ENDBRANCH   1  20
TORSDOF 13
ENDMDL
