MODEL 9
REMARK VINA RESULT: -8.898484791      1.033      1.134
REMARK  13 active torsions:
REMARK  status: ('A' for Active; 'I' for Inactive)
REMARK    1  A    between atoms: C2_2  and  C4_4 
REMARK    2  A    between atoms: C4_4  and  N1_5 
REMARK    3  A    between atoms: N1_5  and  C5_6 
REMARK    4  A    between atoms: N1_5  and  S1_28 
REMARK    5  A    between atoms: C5_6  and  C6_7 
REMARK    6  A    between atoms: C6_7  and  O1_8 
REMARK    7  A    between atoms: C6_7  and  C7_10 
REMARK    8  A    between atoms: C7_10  and  C8_11 
REMARK    9  A    between atoms: C7_10  and  N2_18 
REMARK   10  A    between atoms: C8_11  and  C9_12 
REMARK       I    between atoms: N2_18  and  C15_20 
REMARK   11  A    between atoms: C15_20  and  O3_22 
REMARK   12  A    between atoms: O3_22  and  C16_23 
REMARK   13  A    between atoms: S1_28  and  C20_31 
ROOT
HETATM    1  C6  UNL     1     -15.238 -19.256 -18.266  1.00  0.00     0.160 C 
ENDROOT
BRANCH   1   2
HETATM    2  C5  UNL     1     -16.585 -18.645 -18.175  1.00  0.00     0.174 C 
BRANCH   2   3
HETATM    3  N1  UNL     1     -17.530 -19.213 -17.292  1.00  0.00    -0.283 N 
BRANCH   3   4
HETATM    4  C4  UNL     1     -18.612 -19.910 -17.862  1.00  0.00     0.080 C 
BRANCH   4   5
HETATM    5  C2  UNL     1     -18.758 -19.801 -19.357  1.00  0.00     0.017 C 
HETATM    6  C1  UNL     1     -19.987 -19.110 -19.834  1.00  0.00     0.015 C 
HETATM    7  C3  UNL     1     -18.553 -21.149 -20.029  1.00  0.00     0.015 C 
ENDBRANCH   4   5
ENDBRANCH   3   4
BRANCH   3   8
HETATM    8  S1  UNL     1     -17.959 -18.258 -15.975  1.00  0.00     0.264 S 
HETATM    9  O5  UNL     1     -18.030 -19.085 -14.715  1.00  0.00    -0.200 OA
HETATM   10  O6  UNL     1     -16.837 -17.239 -15.704  1.00  0.00    -0.200 OA
BRANCH   8  11
HETATM   11  C20 UNL     1     -19.455 -17.366 -16.144  1.00  0.00     0.080 A 
HETATM   12  C21 UNL     1     -19.738 -16.547 -17.213  1.00  0.00     0.027 A 
HETATM   13  C22 UNL     1     -20.953 -15.872 -17.302  1.00  0.00     0.028 A 
HETATM   14  C23 UNL     1     -21.925 -15.990 -16.330  1.00  0.00     0.046 A 
HETATM   15  N3  UNL     1     -23.159 -15.288 -16.443  1.00  0.00    -0.102 NA
HETATM   16  C24 UNL     1     -21.644 -16.810 -15.257  1.00  0.00     0.028 A 
HETATM   17  C25 UNL     1     -20.444 -17.481 -15.165  1.00  0.00     0.027 A 
ENDBRANCH   8  11
ENDBRANCH   3   8
ENDBRANCH   2   3
ENDBRANCH   1   2
BRANCH   1  18
HETATM   18  O1  UNL     1     -14.179 -18.380 -18.124  1.00  0.00    -0.392 OA
ATOM     19  H1  UNL     1     -14.096 -17.728 -18.809  1.00  0.00     0.210 HD
ENDBRANCH   1  18
BRANCH   1  20
HETATM   20  C7  UNL     1     -15.042 -20.353 -17.198  1.00  0.00     0.121 C 
BRANCH  20  21
HETATM   21  C8  UNL     1     -14.204 -19.763 -16.093  1.00  0.00     0.066 C 
BRANCH  21  22
HETATM   22  C9  UNL     1     -14.117 -20.690 -14.924  1.00  0.00    -0.056 A 
HETATM   23  C10 UNL     1     -15.083 -20.685 -13.946  1.00  0.00     0.007 A 
HETATM   24  C11 UNL     1     -15.000 -21.553 -12.852  1.00  0.00     0.001 A 
HETATM   25  C12 UNL     1     -13.938 -22.417 -12.762  1.00  0.00     0.000 A 
HETATM   26  C13 UNL     1     -12.964 -22.442 -13.722  1.00  0.00     0.001 A 
HETATM   27  C14 UNL     1     -13.070 -21.573 -14.794  1.00  0.00     0.007 A 
ENDBRANCH  21  22
ENDBRANCH  20  21
BRANCH  20  28
HETATM   28  N2  UNL     1     -14.166 -21.331 -17.867  1.00  0.00    -0.329 N 
HETATM   29  C15 UNL     1     -14.586 -22.660 -18.064  1.00  0.00     0.361 C 
HETATM   30  O2  UNL     1     -15.731 -22.976 -17.643  1.00  0.00    -0.238 OA
ATOM     31  H2  UNL     1     -13.244 -21.040 -18.191  1.00  0.00     0.165 HD
BRANCH  29  32
HETATM   32  O3  UNL     1     -13.805 -23.633 -18.694  1.00  0.00    -0.296 OA
BRANCH  32  33
HETATM   33  C16 UNL     1     -12.474 -23.333 -19.101  1.00  0.00     0.159 C 
HETATM   34  C17 UNL     1     -11.462 -23.869 -18.107  1.00  0.00     0.061 C 
HETATM   35  C18 UNL     1     -10.816 -25.021 -18.828  1.00  0.00     0.170 C 
HETATM   36  O4  UNL     1     -10.824 -24.566 -20.155  1.00  0.00    -0.389 OA
HETATM   37  C19 UNL     1     -12.156 -24.147 -20.332  1.00  0.00     0.200 C 
ENDBRANCH  32  33
ENDBRANCH  29  32
ENDBRANCH  20  28
ENDBRANCH   1  20
TORSDOF 13
ENDMDL
