MODEL 3
REMARK VINA RESULT: -9.116271036      2.689      6.115
REMARK  13 active torsions:
REMARK  status: ('A' for Active; 'I' for Inactive)
REMARK    1  A    between atoms: C2_2  and  C4_4 
REMARK    2  A    between atoms: C4_4  and  N1_5 
REMARK    3  A    between atoms: N1_5  and  C5_6 
REMARK    4  A    between atoms: N1_5  and  S1_28 
REMARK    5  A    between atoms: C5_6  and  C6_7 
REMARK    6  A    between atoms: C6_7  and  O1_8 
REMARK    7  A    between atoms: C6_7  and  C7_10 
REMARK    8  A    between atoms: C7_10  and  C8_11 
REMARK    9  A    between atoms: C7_10  and  N2_18 
REMARK   10  A    between atoms: C8_11  and  C9_12 
REMARK       I    between atoms: N2_18  and  C15_20 
REMARK   11  A    between atoms: C15_20  and  O3_22 
REMARK   12  A    between atoms: O3_22  and  C16_23 
REMARK   13  A    between atoms: S1_28  and  C20_31 
ROOT
HETATM    1  C6  UNL     1      14.157  19.847  17.585  1.00  0.00     0.160 C 
ENDROOT
BRANCH   1   2
HETATM    2  C5  UNL     1      12.838  19.199  17.393  1.00  0.00     0.174 C 
BRANCH   2   3
HETATM    3  N1  UNL     1      11.687  20.014  17.309  1.00  0.00    -0.283 N 
BRANCH   3   4
HETATM    4  C4  UNL     1      10.891  20.133  18.463  1.00  0.00     0.080 C 
BRANCH   4   5
HETATM    5  C2  UNL     1      10.902  21.477  19.141  1.00  0.00     0.017 C 
HETATM    6  C1  UNL     1      12.121  21.785  19.938  1.00  0.00     0.015 C 
HETATM    7  C3  UNL     1       9.621  21.706  19.929  1.00  0.00     0.015 C 
ENDBRANCH   4   5
ENDBRANCH   3   4
BRANCH   3   8
HETATM    8  S1  UNL     1      10.799  19.871  15.887  1.00  0.00     0.264 S 
HETATM    9  O5  UNL     1       9.732  20.935  15.813  1.00  0.00    -0.200 OA
HETATM   10  O6  UNL     1      11.719  20.164  14.687  1.00  0.00    -0.200 OA
BRANCH   8  11
HETATM   11  C20 UNL     1      10.055  18.312  15.615  1.00  0.00     0.080 A 
HETATM   12  C21 UNL     1       9.287  17.659  16.552  1.00  0.00     0.027 A 
HETATM   13  C22 UNL     1       8.707  16.423  16.274  1.00  0.00     0.028 A 
HETATM   14  C23 UNL     1       8.872  15.798  15.056  1.00  0.00     0.046 A 
HETATM   15  N3  UNL     1       8.269  14.534  14.796  1.00  0.00    -0.102 NA
HETATM   16  C24 UNL     1       9.640  16.450  14.115  1.00  0.00     0.028 A 
HETATM   17  C25 UNL     1      10.216  17.672  14.384  1.00  0.00     0.027 A 
ENDBRANCH   8  11
ENDBRANCH   3   8
ENDBRANCH   2   3
ENDBRANCH   1   2
BRANCH   1  18
HETATM   18  O1  UNL     1      15.249  19.006  17.488  1.00  0.00    -0.392 OA
ATOM     19  H1  UNL     1      15.993  19.359  17.014  1.00  0.00     0.210 HD
ENDBRANCH   1  18
BRANCH   1  20
HETATM   20  C7  UNL     1      14.385  20.978  16.560  1.00  0.00     0.121 C 
BRANCH  20  21
HETATM   21  C8  UNL     1      15.305  20.441  15.493  1.00  0.00     0.066 C 
BRANCH  21  22
HETATM   22  C9  UNL     1      15.632  21.491  14.480  1.00  0.00    -0.056 A 
HETATM   23  C10 UNL     1      14.645  22.070  13.720  1.00  0.00     0.007 A 
HETATM   24  C11 UNL     1      14.953  23.052  12.772  1.00  0.00     0.001 A 
HETATM   25  C12 UNL     1      16.260  23.436  12.607  1.00  0.00     0.000 A 
HETATM   26  C13 UNL     1      17.262  22.875  13.351  1.00  0.00     0.001 A 
HETATM   27  C14 UNL     1      16.930  21.906  14.282  1.00  0.00     0.007 A 
ENDBRANCH  21  22
ENDBRANCH  20  21
BRANCH  20  28
HETATM   28  N2  UNL     1      15.191  21.960  17.305  1.00  0.00    -0.329 N 
HETATM   29  C15 UNL     1      14.685  23.242  17.591  1.00  0.00     0.361 C 
HETATM   30  O2  UNL     1      13.524  23.512  17.182  1.00  0.00    -0.238 OA
ATOM     31  H2  UNL     1      16.129  21.708  17.618  1.00  0.00     0.165 HD
BRANCH  29  32
HETATM   32  O3  UNL     1      15.396  24.216  18.298  1.00  0.00    -0.296 OA
BRANCH  32  33
HETATM   33  C16 UNL     1      16.767  24.010  18.623  1.00  0.00     0.159 C 
HETATM   34  C17 UNL     1      17.676  24.566  17.544  1.00  0.00     0.061 C 
HETATM   35  C18 UNL     1      18.298  25.779  18.179  1.00  0.00     0.170 C 
HETATM   36  O4  UNL     1      18.405  25.376  19.519  1.00  0.00    -0.389 OA
HETATM   37  C19 UNL     1      17.116  24.887  19.801  1.00  0.00     0.200 C 
ENDBRANCH  32  33
ENDBRANCH  29  32
ENDBRANCH  20  28
ENDBRANCH   1  20
TORSDOF 13
ENDMDL
