MODEL 14
REMARK VINA RESULT: -8.808882676      2.751      6.162
REMARK  13 active torsions:
REMARK  status: ('A' for Active; 'I' for Inactive)
REMARK    1  A    between atoms: C2_2  and  C4_4 
REMARK    2  A    between atoms: C4_4  and  N1_5 
REMARK    3  A    between atoms: N1_5  and  C5_6 
REMARK    4  A    between atoms: N1_5  and  S1_28 
REMARK    5  A    between atoms: C5_6  and  C6_7 
REMARK    6  A    between atoms: C6_7  and  O1_8 
REMARK    7  A    between atoms: C6_7  and  C7_10 
REMARK    8  A    between atoms: C7_10  and  C8_11 
REMARK    9  A    between atoms: C7_10  and  N2_18 
REMARK   10  A    between atoms: C8_11  and  C9_12 
REMARK       I    between atoms: N2_18  and  C15_20 
REMARK   11  A    between atoms: C15_20  and  O3_22 
REMARK   12  A    between atoms: O3_22  and  C16_23 
REMARK   13  A    between atoms: S1_28  and  C20_31 
ROOT
HETATM    1  C6  UNL     1      13.962  19.820  17.677  1.00  0.00     0.160 C 
ENDROOT
BRANCH   1   2
HETATM    2  C5  UNL     1      12.812  18.961  17.308  1.00  0.00     0.174 C 
BRANCH   2   3
HETATM    3  N1  UNL     1      11.521  19.533  17.271  1.00  0.00    -0.283 N 
BRANCH   3   4
HETATM    4  C4  UNL     1      10.686  19.319  18.383  1.00  0.00     0.080 C 
BRANCH   4   5
HETATM    5  C2  UNL     1      10.483  20.498  19.298  1.00  0.00     0.017 C 
HETATM    6  C1  UNL     1       9.104  20.667  19.832  1.00  0.00     0.015 C 
HETATM    7  C3  UNL     1      11.025  21.776  18.677  1.00  0.00     0.015 C 
ENDBRANCH   4   5
ENDBRANCH   3   4
BRANCH   3   8
HETATM    8  S1  UNL     1      10.721  19.427  15.796  1.00  0.00     0.264 S 
HETATM    9  O5  UNL     1       9.749  20.568  15.630  1.00  0.00    -0.200 OA
HETATM   10  O6  UNL     1      11.739  19.620  14.656  1.00  0.00    -0.200 OA
BRANCH   8  11
HETATM   11  C20 UNL     1       9.876  17.924  15.501  1.00  0.00     0.080 A 
HETATM   12  C21 UNL     1       9.028  17.334  16.410  1.00  0.00     0.027 A 
HETATM   13  C22 UNL     1       8.370  16.143  16.115  1.00  0.00     0.028 A 
HETATM   14  C23 UNL     1       8.534  15.500  14.906  1.00  0.00     0.046 A 
HETATM   15  N3  UNL     1       7.850  14.282  14.628  1.00  0.00    -0.102 NA
HETATM   16  C24 UNL     1       9.382  16.089  13.992  1.00  0.00     0.028 A 
HETATM   17  C25 UNL     1      10.036  17.267  14.279  1.00  0.00     0.027 A 
ENDBRANCH   8  11
ENDBRANCH   3   8
ENDBRANCH   2   3
ENDBRANCH   1   2
BRANCH   1  18
HETATM   18  O1  UNL     1      15.169  19.163  17.823  1.00  0.00    -0.392 OA
ATOM     19  H1  UNL     1      15.577  19.250  18.676  1.00  0.00     0.210 HD
ENDBRANCH   1  18
BRANCH   1  20
HETATM   20  C7  UNL     1      14.194  20.932  16.631  1.00  0.00     0.121 C 
BRANCH  20  21
HETATM   21  C8  UNL     1      15.086  20.362  15.558  1.00  0.00     0.066 C 
BRANCH  21  22
HETATM   22  C9  UNL     1      15.456  21.402  14.551  1.00  0.00    -0.056 A 
HETATM   23  C10 UNL     1      16.758  21.818  14.410  1.00  0.00     0.007 A 
HETATM   24  C11 UNL     1      17.102  22.793  13.468  1.00  0.00     0.001 A 
HETATM   25  C12 UNL     1      16.121  23.335  12.677  1.00  0.00     0.000 A 
HETATM   26  C13 UNL     1      14.817  22.939  12.797  1.00  0.00     0.001 A 
HETATM   27  C14 UNL     1      14.503  21.973  13.737  1.00  0.00     0.007 A 
ENDBRANCH  21  22
ENDBRANCH  20  21
BRANCH  20  28
HETATM   28  N2  UNL     1      15.031  21.909  17.349  1.00  0.00    -0.329 N 
HETATM   29  C15 UNL     1      14.616  23.246  17.494  1.00  0.00     0.361 C 
HETATM   30  O2  UNL     1      13.510  23.569  16.984  1.00  0.00    -0.238 OA
ATOM     31  H2  UNL     1      15.922  21.612  17.747  1.00  0.00     0.165 HD
BRANCH  29  32
HETATM   32  O3  UNL     1      15.360  24.219  18.167  1.00  0.00    -0.296 OA
BRANCH  32  33
HETATM   33  C16 UNL     1      16.698  23.948  18.572  1.00  0.00     0.159 C 
HETATM   34  C17 UNL     1      17.694  24.450  17.545  1.00  0.00     0.061 C 
HETATM   35  C18 UNL     1      18.338  25.636  18.209  1.00  0.00     0.170 C 
HETATM   36  O4  UNL     1      18.348  25.238  19.555  1.00  0.00    -0.389 OA
HETATM   37  C19 UNL     1      17.022  24.816  19.764  1.00  0.00     0.200 C 
ENDBRANCH  32  33
ENDBRANCH  29  32
ENDBRANCH  20  28
ENDBRANCH   1  20
TORSDOF 13
ENDMDL
