MODEL 1
REMARK VINA RESULT: -9.271037930      0.000      0.000
REMARK  13 active torsions:
REMARK  status: ('A' for Active; 'I' for Inactive)
REMARK    1  A    between atoms: C2_2  and  C4_4 
REMARK    2  A    between atoms: C4_4  and  N1_5 
REMARK    3  A    between atoms: N1_5  and  C5_6 
REMARK    4  A    between atoms: N1_5  and  S1_28 
REMARK    5  A    between atoms: C5_6  and  C6_7 
REMARK    6  A    between atoms: C6_7  and  O1_8 
REMARK    7  A    between atoms: C6_7  and  C7_10 
REMARK    8  A    between atoms: C7_10  and  C8_11 
REMARK    9  A    between atoms: C7_10  and  N2_18 
REMARK   10  A    between atoms: C8_11  and  C9_12 
REMARK       I    between atoms: N2_18  and  C15_20 
REMARK   11  A    between atoms: C15_20  and  O3_22 
REMARK   12  A    between atoms: O3_22  and  C16_23 
REMARK   13  A    between atoms: S1_28  and  C20_31 
ROOT
HETATM    1  C6  UNL     1      12.962  19.397  17.789  1.00  0.00     0.160 C 
ENDROOT
BRANCH   1   2
HETATM    2  C5  UNL     1      11.688  19.142  18.500  1.00  0.00     0.174 C 
BRANCH   2   3
HETATM    3  N1  UNL     1      11.247  20.079  19.461  1.00  0.00    -0.283 N 
BRANCH   3   4
HETATM    4  C4  UNL     1      10.201  19.687  20.316  1.00  0.00     0.080 C 
BRANCH   4   5
HETATM    5  C2  UNL     1       9.018  19.026  19.658  1.00  0.00     0.017 C 
HETATM    6  C1  UNL     1       7.813  19.885  19.492  1.00  0.00     0.015 C 
HETATM    7  C3  UNL     1       8.694  17.695  20.317  1.00  0.00     0.015 C 
ENDBRANCH   4   5
ENDBRANCH   3   4
BRANCH   3   8
HETATM    8  S1  UNL     1      11.120  21.667  18.921  1.00  0.00     0.264 S 
HETATM    9  O5  UNL     1      10.479  21.719  17.556  1.00  0.00    -0.200 OA
HETATM   10  O6  UNL     1      10.144  22.433  19.834  1.00  0.00    -0.200 OA
BRANCH   8  11
HETATM   11  C20 UNL     1      12.617  22.570  18.871  1.00  0.00     0.080 A 
HETATM   12  C21 UNL     1      13.001  23.352  17.807  1.00  0.00     0.027 A 
HETATM   13  C22 UNL     1      14.200  24.061  17.828  1.00  0.00     0.028 A 
HETATM   14  C23 UNL     1      15.055  24.014  18.909  1.00  0.00     0.046 A 
HETATM   15  N3  UNL     1      16.276  24.748  18.907  1.00  0.00    -0.102 NA
HETATM   16  C24 UNL     1      14.673  23.231  19.978  1.00  0.00     0.028 A 
HETATM   17  C25 UNL     1      13.489  22.528  19.962  1.00  0.00     0.027 A 
ENDBRANCH   8  11
ENDBRANCH   3   8
ENDBRANCH   2   3
ENDBRANCH   1   2
BRANCH   1  18
HETATM   18  O1  UNL     1      13.914  18.402  17.903  1.00  0.00    -0.392 OA
ATOM     19  H1  UNL     1      14.448  18.259  17.131  1.00  0.00     0.210 HD
ENDBRANCH   1  18
BRANCH   1  20
HETATM   20  C7  UNL     1      12.732  19.609  16.277  1.00  0.00     0.121 C 
BRANCH  20  21
HETATM   21  C8  UNL     1      12.340  18.277  15.689  1.00  0.00     0.066 C 
BRANCH  21  22
HETATM   22  C9  UNL     1      11.051  18.374  14.940  1.00  0.00    -0.056 A 
HETATM   23  C10 UNL     1      10.907  17.791  13.703  1.00  0.00     0.007 A 
HETATM   24  C11 UNL     1       9.700  17.883  13.004  1.00  0.00     0.001 A 
HETATM   25  C12 UNL     1       8.650  18.565  13.566  1.00  0.00     0.000 A 
HETATM   26  C13 UNL     1       8.767  19.155  14.795  1.00  0.00     0.001 A 
HETATM   27  C14 UNL     1       9.972  19.049  15.467  1.00  0.00     0.007 A 
ENDBRANCH  21  22
ENDBRANCH  20  21
BRANCH  20  28
HETATM   28  N2  UNL     1      14.085  19.876  15.759  1.00  0.00    -0.329 N 
HETATM   29  C15 UNL     1      14.325  20.956  14.888  1.00  0.00     0.361 C 
HETATM   30  O2  UNL     1      13.339  21.675  14.570  1.00  0.00    -0.238 OA
ATOM     31  H2  UNL     1      14.859  19.271  16.034  1.00  0.00     0.165 HD
BRANCH  29  32
HETATM   32  O3  UNL     1      15.583  21.265  14.365  1.00  0.00    -0.296 OA
BRANCH  32  33
HETATM   33  C16 UNL     1      16.004  22.622  14.262  1.00  0.00     0.159 C 
HETATM   34  C17 UNL     1      16.537  23.134  15.586  1.00  0.00     0.061 C 
HETATM   35  C18 UNL     1      18.020  23.253  15.363  1.00  0.00     0.170 C 
HETATM   36  O4  UNL     1      18.075  23.623  14.010  1.00  0.00    -0.389 OA
HETATM   37  C19 UNL     1      17.239  22.674  13.393  1.00  0.00     0.200 C 
ENDBRANCH  32  33
ENDBRANCH  29  32
ENDBRANCH  20  28
ENDBRANCH   1  20
TORSDOF 13
ENDMDL
