MODEL 4
REMARK VINA RESULT: -9.015485627      2.487      6.492
REMARK  13 active torsions:
REMARK  status: ('A' for Active; 'I' for Inactive)
REMARK    1  A    between atoms: C2_2  and  C4_4 
REMARK    2  A    between atoms: C4_4  and  N1_5 
REMARK    3  A    between atoms: N1_5  and  C5_6 
REMARK    4  A    between atoms: N1_5  and  S1_28 
REMARK    5  A    between atoms: C5_6  and  C6_7 
REMARK    6  A    between atoms: C6_7  and  O1_8 
REMARK    7  A    between atoms: C6_7  and  C7_10 
REMARK    8  A    between atoms: C7_10  and  C8_11 
REMARK    9  A    between atoms: C7_10  and  N2_18 
REMARK   10  A    between atoms: C8_11  and  C9_12 
REMARK       I    between atoms: N2_18  and  C15_20 
REMARK   11  A    between atoms: C15_20  and  O3_22 
REMARK   12  A    between atoms: O3_22  and  C16_23 
REMARK   13  A    between atoms: S1_28  and  C20_31 
ROOT
HETATM    1  C6  UNL     1      13.574  19.879  17.267  1.00  0.00     0.160 C 
ENDROOT
BRANCH   1   2
HETATM    2  C5  UNL     1      14.627  20.478  16.414  1.00  0.00     0.174 C 
BRANCH   2   3
HETATM    3  N1  UNL     1      14.507  20.370  15.011  1.00  0.00    -0.283 N 
BRANCH   3   4
HETATM    4  C4  UNL     1      15.633  20.707  14.237  1.00  0.00     0.080 C 
BRANCH   4   5
HETATM    5  C2  UNL     1      16.410  21.916  14.686  1.00  0.00     0.017 C 
HETATM    6  C1  UNL     1      15.753  23.229  14.441  1.00  0.00     0.015 C 
HETATM    7  C3  UNL     1      17.839  21.877  14.167  1.00  0.00     0.015 C 
ENDBRANCH   4   5
ENDBRANCH   3   4
BRANCH   3   8
HETATM    8  S1  UNL     1      13.054  20.913  14.362  1.00  0.00     0.264 S 
HETATM    9  O5  UNL     1      12.515  22.078  15.156  1.00  0.00    -0.200 OA
HETATM   10  O6  UNL     1      13.313  21.491  12.958  1.00  0.00    -0.200 OA
BRANCH   8  11
HETATM   11  C20 UNL     1      11.795  19.707  14.214  1.00  0.00     0.080 A 
HETATM   12  C21 UNL     1      10.600  19.763  14.894  1.00  0.00     0.027 A 
HETATM   13  C22 UNL     1       9.628  18.781  14.726  1.00  0.00     0.028 A 
HETATM   14  C23 UNL     1       9.813  17.710  13.876  1.00  0.00     0.046 A 
HETATM   15  N3  UNL     1       8.804  16.717  13.721  1.00  0.00    -0.102 NA
HETATM   16  C24 UNL     1      11.009  17.651  13.193  1.00  0.00     0.028 A 
HETATM   17  C25 UNL     1      11.974  18.620  13.355  1.00  0.00     0.027 A 
ENDBRANCH   8  11
ENDBRANCH   3   8
ENDBRANCH   2   3
ENDBRANCH   1   2
BRANCH   1  18
HETATM   18  O1  UNL     1      13.930  18.710  17.913  1.00  0.00    -0.392 OA
ATOM     19  H1  UNL     1      13.624  18.631  18.809  1.00  0.00     0.210 HD
ENDBRANCH   1  18
BRANCH   1  20
HETATM   20  C7  UNL     1      13.110  20.859  18.365  1.00  0.00     0.121 C 
BRANCH  20  21
HETATM   21  C8  UNL     1      11.674  21.214  18.075  1.00  0.00     0.066 C 
BRANCH  21  22
HETATM   22  C9  UNL     1      10.735  20.273  18.758  1.00  0.00    -0.056 A 
HETATM   23  C10 UNL     1       9.515  19.965  18.203  1.00  0.00     0.007 A 
HETATM   24  C11 UNL     1       8.638  19.085  18.844  1.00  0.00     0.001 A 
HETATM   25  C12 UNL     1       9.007  18.524  20.041  1.00  0.00     0.000 A 
HETATM   26  C13 UNL     1      10.214  18.814  20.615  1.00  0.00     0.001 A 
HETATM   27  C14 UNL     1      11.065  19.688  19.960  1.00  0.00     0.007 A 
ENDBRANCH  21  22
ENDBRANCH  20  21
BRANCH  20  28
HETATM   28  N2  UNL     1      13.876  22.085  18.077  1.00  0.00    -0.329 N 
HETATM   29  C15 UNL     1      14.279  22.945  19.116  1.00  0.00     0.361 C 
HETATM   30  O2  UNL     1      13.956  22.627  20.291  1.00  0.00    -0.238 OA
ATOM     31  H2  UNL     1      14.116  22.313  17.112  1.00  0.00     0.165 HD
BRANCH  29  32
HETATM   32  O3  UNL     1      15.010  24.118  18.909  1.00  0.00    -0.296 OA
BRANCH  32  33
HETATM   33  C16 UNL     1      16.433  24.079  18.859  1.00  0.00     0.159 C 
HETATM   34  C17 UNL     1      16.970  25.007  17.787  1.00  0.00     0.061 C 
HETATM   35  C18 UNL     1      17.597  26.135  18.561  1.00  0.00     0.170 C 
HETATM   36  O4  UNL     1      18.086  25.466  19.693  1.00  0.00    -0.389 OA
HETATM   37  C19 UNL     1      16.973  24.716  20.117  1.00  0.00     0.200 C 
ENDBRANCH  32  33
ENDBRANCH  29  32
ENDBRANCH  20  28
ENDBRANCH   1  20
TORSDOF 13
ENDMDL
