MODEL 2
REMARK VINA RESULT: -9.121795004      2.827      5.981
REMARK  13 active torsions:
REMARK  status: ('A' for Active; 'I' for Inactive)
REMARK    1  A    between atoms: C2_2  and  C4_4 
REMARK    2  A    between atoms: C4_4  and  N1_5 
REMARK    3  A    between atoms: N1_5  and  C5_6 
REMARK    4  A    between atoms: N1_5  and  S1_28 
REMARK    5  A    between atoms: C5_6  and  C6_7 
REMARK    6  A    between atoms: C6_7  and  O1_8 
REMARK    7  A    between atoms: C6_7  and  C7_10 
REMARK    8  A    between atoms: C7_10  and  C8_11 
REMARK    9  A    between atoms: C7_10  and  N2_18 
REMARK   10  A    between atoms: C8_11  and  C9_12 
REMARK       I    between atoms: N2_18  and  C15_20 
REMARK   11  A    between atoms: C15_20  and  O3_22 
REMARK   12  A    between atoms: O3_22  and  C16_23 
REMARK   13  A    between atoms: S1_28  and  C20_31 
ROOT
HETATM    1  C6  UNL     1      12.219  18.665  16.722  1.00  0.00     0.160 C 
ENDROOT
BRANCH   1   2
HETATM    2  C5  UNL     1      11.007  19.088  17.463  1.00  0.00     0.174 C 
BRANCH   2   3
HETATM    3  N1  UNL     1      11.154  19.968  18.559  1.00  0.00    -0.283 N 
BRANCH   3   4
HETATM    4  C4  UNL     1      10.357  19.728  19.693  1.00  0.00     0.080 C 
BRANCH   4   5
HETATM    5  C2  UNL     1       9.000  19.126  19.436  1.00  0.00     0.017 C 
HETATM    6  C1  UNL     1       7.849  20.061  19.561  1.00  0.00     0.015 C 
HETATM    7  C3  UNL     1       8.802  17.852  20.242  1.00  0.00     0.015 C 
ENDBRANCH   4   5
ENDBRANCH   3   4
BRANCH   3   8
HETATM    8  S1  UNL     1      11.299  21.597  18.167  1.00  0.00     0.264 S 
HETATM    9  O5  UNL     1      10.569  21.906  16.884  1.00  0.00    -0.200 OA
HETATM   10  O6  UNL     1      10.574  22.438  19.234  1.00  0.00    -0.200 OA
BRANCH   8  11
HETATM   11  C20 UNL     1      12.936  22.200  18.040  1.00  0.00     0.080 A 
HETATM   12  C21 UNL     1      14.053  21.408  18.168  1.00  0.00     0.027 A 
HETATM   13  C22 UNL     1      15.334  21.941  18.042  1.00  0.00     0.028 A 
HETATM   14  C23 UNL     1      15.544  23.280  17.784  1.00  0.00     0.046 A 
HETATM   15  N3  UNL     1      16.863  23.802  17.661  1.00  0.00    -0.102 NA
HETATM   16  C24 UNL     1      14.426  24.077  17.655  1.00  0.00     0.028 A 
HETATM   17  C25 UNL     1      13.157  23.555  17.778  1.00  0.00     0.027 A 
ENDBRANCH   8  11
ENDBRANCH   3   8
ENDBRANCH   2   3
ENDBRANCH   1   2
BRANCH   1  18
HETATM   18  O1  UNL     1      12.797  17.487  17.156  1.00  0.00    -0.392 OA
ATOM     19  H1  UNL     1      13.256  16.990  16.490  1.00  0.00     0.210 HD
ENDBRANCH   1  18
BRANCH   1  20
HETATM   20  C7  UNL     1      11.925  18.479  15.218  1.00  0.00     0.121 C 
BRANCH  20  21
HETATM   21  C8  UNL     1      11.909  19.849  14.589  1.00  0.00     0.066 C 
BRANCH  21  22
HETATM   22  C9  UNL     1      13.287  20.421  14.501  1.00  0.00    -0.056 A 
HETATM   23  C10 UNL     1      13.484  21.780  14.432  1.00  0.00     0.007 A 
HETATM   24  C11 UNL     1      14.774  22.314  14.350  1.00  0.00     0.001 A 
HETATM   25  C12 UNL     1      15.851  21.464  14.339  1.00  0.00     0.000 A 
HETATM   26  C13 UNL     1      15.682  20.108  14.406  1.00  0.00     0.001 A 
HETATM   27  C14 UNL     1      14.395  19.605  14.487  1.00  0.00     0.007 A 
ENDBRANCH  21  22
ENDBRANCH  20  21
BRANCH  20  28
HETATM   28  N2  UNL     1      10.523  18.027  15.196  1.00  0.00    -0.329 N 
HETATM   29  C15 UNL     1      10.077  17.106  14.228  1.00  0.00     0.361 C 
HETATM   30  O2  UNL     1      10.920  16.693  13.388  1.00  0.00    -0.238 OA
ATOM     31  H2  UNL     1       9.867  18.386  15.889  1.00  0.00     0.165 HD
BRANCH  29  32
HETATM   32  O3  UNL     1       8.763  16.635  14.156  1.00  0.00    -0.296 OA
BRANCH  32  33
HETATM   33  C16 UNL     1       8.453  15.308  14.566  1.00  0.00     0.159 C 
HETATM   34  C17 UNL     1       7.455  15.306  15.709  1.00  0.00     0.061 C 
HETATM   35  C18 UNL     1       6.183  14.801  15.084  1.00  0.00     0.170 C 
HETATM   36  O4  UNL     1       6.675  13.891  14.135  1.00  0.00    -0.389 OA
HETATM   37  C19 UNL     1       7.661  14.640  13.467  1.00  0.00     0.200 C 
ENDBRANCH  32  33
ENDBRANCH  29  32
ENDBRANCH  20  28
ENDBRANCH   1  20
TORSDOF 13
ENDMDL
