MODEL 4
REMARK VINA RESULT: -8.996157219      2.299      6.310
REMARK  13 active torsions:
REMARK  status: ('A' for Active; 'I' for Inactive)
REMARK    1  A    between atoms: C2_2  and  C4_4 
REMARK    2  A    between atoms: C4_4  and  N1_5 
REMARK    3  A    between atoms: N1_5  and  C5_6 
REMARK    4  A    between atoms: N1_5  and  S1_28 
REMARK    5  A    between atoms: C5_6  and  C6_7 
REMARK    6  A    between atoms: C6_7  and  O1_8 
REMARK    7  A    between atoms: C6_7  and  C7_10 
REMARK    8  A    between atoms: C7_10  and  C8_11 
REMARK    9  A    between atoms: C7_10  and  N2_18 
REMARK   10  A    between atoms: C8_11  and  C9_12 
REMARK       I    between atoms: N2_18  and  C15_20 
REMARK   11  A    between atoms: C15_20  and  O3_22 
REMARK   12  A    between atoms: O3_22  and  C16_23 
REMARK   13  A    between atoms: S1_28  and  C20_31 
ROOT
HETATM    1  C6  UNL     1      14.217  19.980  17.736  1.00  0.00     0.160 C 
ENDROOT
BRANCH   1   2
HETATM    2  C5  UNL     1      14.969  20.618  16.630  1.00  0.00     0.174 C 
BRANCH   2   3
HETATM    3  N1  UNL     1      14.670  20.243  15.301  1.00  0.00    -0.283 N 
BRANCH   3   4
HETATM    4  C4  UNL     1      15.661  20.466  14.327  1.00  0.00     0.080 C 
BRANCH   4   5
HETATM    5  C2  UNL     1      16.477  21.722  14.485  1.00  0.00     0.017 C 
HETATM    6  C1  UNL     1      15.998  22.901  13.713  1.00  0.00     0.015 C 
HETATM    7  C3  UNL     1      17.957  21.448  14.266  1.00  0.00     0.015 C 
ENDBRANCH   4   5
ENDBRANCH   3   4
BRANCH   3   8
HETATM    8  S1  UNL     1      13.114  20.604  14.777  1.00  0.00     0.264 S 
HETATM    9  O5  UNL     1      12.603  21.860  15.439  1.00  0.00    -0.200 OA
HETATM   10  O6  UNL     1      13.154  20.949  13.276  1.00  0.00    -0.200 OA
BRANCH   8  11
HETATM   11  C20 UNL     1      11.930  19.335  14.996  1.00  0.00     0.080 A 
HETATM   12  C21 UNL     1      12.203  17.998  14.823  1.00  0.00     0.027 A 
HETATM   13  C22 UNL     1      11.223  17.029  15.025  1.00  0.00     0.028 A 
HETATM   14  C23 UNL     1       9.939  17.360  15.407  1.00  0.00     0.046 A 
HETATM   15  N3  UNL     1       8.954  16.351  15.607  1.00  0.00    -0.102 NA
HETATM   16  C24 UNL     1       9.662  18.699  15.580  1.00  0.00     0.028 A 
HETATM   17  C25 UNL     1      10.627  19.661  15.382  1.00  0.00     0.027 A 
ENDBRANCH   8  11
ENDBRANCH   3   8
ENDBRANCH   2   3
ENDBRANCH   1   2
BRANCH   1  18
HETATM   18  O1  UNL     1      14.992  19.431  18.739  1.00  0.00    -0.392 OA
ATOM     19  H1  UNL     1      15.542  20.045  19.211  1.00  0.00     0.210 HD
ENDBRANCH   1  18
BRANCH   1  20
HETATM   20  C7  UNL     1      13.262  20.981  18.421  1.00  0.00     0.121 C 
BRANCH  20  21
HETATM   21  C8  UNL     1      13.884  21.368  19.739  1.00  0.00     0.066 C 
BRANCH  21  22
HETATM   22  C9  UNL     1      14.356  22.786  19.721  1.00  0.00    -0.056 A 
HETATM   23  C10 UNL     1      15.022  23.322  20.797  1.00  0.00     0.007 A 
HETATM   24  C11 UNL     1      15.462  24.650  20.778  1.00  0.00     0.001 A 
HETATM   25  C12 UNL     1      15.223  25.419  19.667  1.00  0.00     0.000 A 
HETATM   26  C13 UNL     1      14.562  24.910  18.583  1.00  0.00     0.001 A 
HETATM   27  C14 UNL     1      14.137  23.593  18.627  1.00  0.00     0.007 A 
ENDBRANCH  21  22
ENDBRANCH  20  21
BRANCH  20  28
HETATM   28  N2  UNL     1      12.094  20.155  18.773  1.00  0.00    -0.329 N 
HETATM   29  C15 UNL     1      10.787  20.664  18.651  1.00  0.00     0.361 C 
HETATM   30  O2  UNL     1      10.661  21.848  18.237  1.00  0.00    -0.238 OA
ATOM     31  H2  UNL     1      12.234  19.203  19.109  1.00  0.00     0.165 HD
BRANCH  29  32
HETATM   32  O3  UNL     1       9.639  19.932  18.964  1.00  0.00    -0.296 OA
BRANCH  32  33
HETATM   33  C16 UNL     1       9.749  18.633  19.537  1.00  0.00     0.159 C 
HETATM   34  C17 UNL     1       9.458  18.662  21.025  1.00  0.00     0.061 C 
HETATM   35  C18 UNL     1       8.122  17.982  21.150  1.00  0.00     0.170 C 
HETATM   36  O4  UNL     1       8.194  17.024  20.127  1.00  0.00    -0.389 OA
HETATM   37  C19 UNL     1       8.613  17.784  19.019  1.00  0.00     0.200 C 
ENDBRANCH  32  33
ENDBRANCH  29  32
ENDBRANCH  20  28
ENDBRANCH   1  20
TORSDOF 13
ENDMDL
