MODEL 5
REMARK VINA RESULT: -8.994260532      0.808      1.264
REMARK  13 active torsions:
REMARK  status: ('A' for Active; 'I' for Inactive)
REMARK    1  A    between atoms: C2_2  and  C4_4 
REMARK    2  A    between atoms: C4_4  and  N1_5 
REMARK    3  A    between atoms: N1_5  and  C5_6 
REMARK    4  A    between atoms: N1_5  and  S1_28 
REMARK    5  A    between atoms: C5_6  and  C6_7 
REMARK    6  A    between atoms: C6_7  and  O1_8 
REMARK    7  A    between atoms: C6_7  and  C7_10 
REMARK    8  A    between atoms: C7_10  and  C8_11 
REMARK    9  A    between atoms: C7_10  and  N2_18 
REMARK   10  A    between atoms: C8_11  and  C9_12 
REMARK       I    between atoms: N2_18  and  C15_20 
REMARK   11  A    between atoms: C15_20  and  O3_22 
REMARK   12  A    between atoms: O3_22  and  C16_23 
REMARK   13  A    between atoms: S1_28  and  C20_31 
ROOT
HETATM    1  C6  UNL     1      13.137  19.017  18.066  1.00  0.00     0.160 C 
ENDROOT
BRANCH   1   2
HETATM    2  C5  UNL     1      12.093  18.217  17.385  1.00  0.00     0.174 C 
BRANCH   2   3
HETATM    3  N1  UNL     1      10.775  18.724  17.331  1.00  0.00    -0.283 N 
BRANCH   3   4
HETATM    4  C4  UNL     1       9.912  18.396  18.393  1.00  0.00     0.080 C 
BRANCH   4   5
HETATM    5  C2  UNL     1       9.787  19.422  19.488  1.00  0.00     0.017 C 
HETATM    6  C1  UNL     1      10.174  20.810  19.115  1.00  0.00     0.015 C 
HETATM    7  C3  UNL     1      10.469  18.952  20.763  1.00  0.00     0.015 C 
ENDBRANCH   4   5
ENDBRANCH   3   4
BRANCH   3   8
HETATM    8  S1  UNL     1      10.039  18.673  15.820  1.00  0.00     0.264 S 
HETATM    9  O5  UNL     1       9.157  19.880  15.613  1.00  0.00    -0.200 OA
HETATM   10  O6  UNL     1      11.119  18.795  14.729  1.00  0.00    -0.200 OA
BRANCH   8  11
HETATM   11  C20 UNL     1       9.105  17.234  15.483  1.00  0.00     0.080 A 
HETATM   12  C21 UNL     1       7.799  17.060  15.881  1.00  0.00     0.027 A 
HETATM   13  C22 UNL     1       7.099  15.896  15.572  1.00  0.00     0.028 A 
HETATM   14  C23 UNL     1       7.676  14.868  14.855  1.00  0.00     0.046 A 
HETATM   15  N3  UNL     1       6.939  13.687  14.552  1.00  0.00    -0.102 NA
HETATM   16  C24 UNL     1       8.984  15.039  14.454  1.00  0.00     0.028 A 
HETATM   17  C25 UNL     1       9.681  16.188  14.758  1.00  0.00     0.027 A 
ENDBRANCH   8  11
ENDBRANCH   3   8
ENDBRANCH   2   3
ENDBRANCH   1   2
BRANCH   1  18
HETATM   18  O1  UNL     1      14.315  18.346  18.337  1.00  0.00    -0.392 OA
ATOM     19  H1  UNL     1      14.827  18.101  17.575  1.00  0.00     0.210 HD
ENDBRANCH   1  18
BRANCH   1  20
HETATM   20  C7  UNL     1      13.524  20.262  17.240  1.00  0.00     0.121 C 
BRANCH  20  21
HETATM   21  C8  UNL     1      14.668  19.869  16.341  1.00  0.00     0.066 C 
BRANCH  21  22
HETATM   22  C9  UNL     1      14.811  20.820  15.197  1.00  0.00    -0.056 A 
HETATM   23  C10 UNL     1      15.799  21.776  15.192  1.00  0.00     0.007 A 
HETATM   24  C11 UNL     1      15.929  22.666  14.121  1.00  0.00     0.001 A 
HETATM   25  C12 UNL     1      15.057  22.576  13.065  1.00  0.00     0.000 A 
HETATM   26  C13 UNL     1      14.066  21.634  13.046  1.00  0.00     0.001 A 
HETATM   27  C14 UNL     1      13.958  20.765  14.118  1.00  0.00     0.007 A 
ENDBRANCH  21  22
ENDBRANCH  20  21
BRANCH  20  28
HETATM   28  N2  UNL     1      14.114  21.168  18.241  1.00  0.00    -0.329 N 
HETATM   29  C15 UNL     1      13.707  22.513  18.326  1.00  0.00     0.361 C 
HETATM   30  O2  UNL     1      12.827  22.905  17.513  1.00  0.00    -0.238 OA
ATOM     31  H2  UNL     1      14.827  20.816  18.881  1.00  0.00     0.165 HD
BRANCH  29  32
HETATM   32  O3  UNL     1      14.223  23.421  19.255  1.00  0.00    -0.296 OA
BRANCH  32  33
HETATM   33  C16 UNL     1      15.247  24.334  18.873  1.00  0.00     0.159 C 
HETATM   34  C17 UNL     1      15.699  25.175  20.051  1.00  0.00     0.061 C 
HETATM   35  C18 UNL     1      17.073  24.652  20.369  1.00  0.00     0.170 C 
HETATM   36  O4  UNL     1      17.550  24.314  19.093  1.00  0.00    -0.389 OA
HETATM   37  C19 UNL     1      16.497  23.547  18.561  1.00  0.00     0.200 C 
ENDBRANCH  32  33
ENDBRANCH  29  32
ENDBRANCH  20  28
ENDBRANCH   1  20
TORSDOF 13
ENDMDL
