MODEL 3
REMARK VINA RESULT: -9.029030545      2.790      8.291
REMARK  13 active torsions:
REMARK  status: ('A' for Active; 'I' for Inactive)
REMARK    1  A    between atoms: C2_2  and  C4_4 
REMARK    2  A    between atoms: C4_4  and  N1_5 
REMARK    3  A    between atoms: N1_5  and  C5_6 
REMARK    4  A    between atoms: N1_5  and  S1_28 
REMARK    5  A    between atoms: C5_6  and  C6_7 
REMARK    6  A    between atoms: C6_7  and  O1_8 
REMARK    7  A    between atoms: C6_7  and  C7_10 
REMARK    8  A    between atoms: C7_10  and  C8_11 
REMARK    9  A    between atoms: C7_10  and  N2_18 
REMARK   10  A    between atoms: C8_11  and  C9_12 
REMARK       I    between atoms: N2_18  and  C15_20 
REMARK   11  A    between atoms: C15_20  and  O3_22 
REMARK   12  A    between atoms: O3_22  and  C16_23 
REMARK   13  A    between atoms: S1_28  and  C20_31 
ROOT
HETATM    1  C6  UNL     1      11.820  21.240  18.019  1.00  0.00     0.160 C 
ENDROOT
BRANCH   1   2
HETATM    2  C5  UNL     1      12.408  21.905  16.832  1.00  0.00     0.174 C 
BRANCH   2   3
HETATM    3  N1  UNL     1      13.801  21.804  16.618  1.00  0.00    -0.283 N 
BRANCH   3   4
HETATM    4  C4  UNL     1      14.592  22.912  16.970  1.00  0.00     0.080 C 
BRANCH   4   5
HETATM    5  C2  UNL     1      15.379  22.787  18.248  1.00  0.00     0.017 C 
HETATM    6  C1  UNL     1      14.663  23.196  19.487  1.00  0.00     0.015 C 
HETATM    7  C3  UNL     1      16.742  23.449  18.122  1.00  0.00     0.015 C 
ENDBRANCH   4   5
ENDBRANCH   3   4
BRANCH   3   8
HETATM    8  S1  UNL     1      14.262  21.075  15.174  1.00  0.00     0.264 S 
HETATM    9  O5  UNL     1      14.586  19.618  15.389  1.00  0.00    -0.200 OA
HETATM   10  O6  UNL     1      13.062  21.064  14.209  1.00  0.00    -0.200 OA
BRANCH   8  11
HETATM   11  C20 UNL     1      15.603  21.830  14.342  1.00  0.00     0.080 A 
HETATM   12  C21 UNL     1      16.916  21.459  14.517  1.00  0.00     0.027 A 
HETATM   13  C22 UNL     1      17.943  22.087  13.816  1.00  0.00     0.028 A 
HETATM   14  C23 UNL     1      17.695  23.105  12.917  1.00  0.00     0.046 A 
HETATM   15  N3  UNL     1      18.762  23.732  12.213  1.00  0.00    -0.102 NA
HETATM   16  C24 UNL     1      16.380  23.479  12.740  1.00  0.00     0.028 A 
HETATM   17  C25 UNL     1      15.361  22.861  13.431  1.00  0.00     0.027 A 
ENDBRANCH   8  11
ENDBRANCH   3   8
ENDBRANCH   2   3
ENDBRANCH   1   2
BRANCH   1  18
HETATM   18  O1  UNL     1      10.947  22.014  18.760  1.00  0.00    -0.392 OA
ATOM     19  H1  UNL     1      11.250  22.249  19.629  1.00  0.00     0.210 HD
ENDBRANCH   1  18
BRANCH   1  20
HETATM   20  C7  UNL     1      11.044  19.965  17.625  1.00  0.00     0.121 C 
BRANCH  20  21
HETATM   21  C8  UNL     1      10.274  20.275  16.367  1.00  0.00     0.066 C 
BRANCH  21  22
HETATM   22  C9  UNL     1      10.149  19.067  15.496  1.00  0.00    -0.056 A 
HETATM   23  C10 UNL     1      11.245  18.289  15.206  1.00  0.00     0.007 A 
HETATM   24  C11 UNL     1      11.126  17.159  14.390  1.00  0.00     0.001 A 
HETATM   25  C12 UNL     1       9.896  16.830  13.877  1.00  0.00     0.000 A 
HETATM   26  C13 UNL     1       8.791  17.588  14.150  1.00  0.00     0.001 A 
HETATM   27  C14 UNL     1       8.935  18.700  14.960  1.00  0.00     0.007 A 
ENDBRANCH  21  22
ENDBRANCH  20  21
BRANCH  20  28
HETATM   28  N2  UNL     1      10.024  19.844  18.682  1.00  0.00    -0.329 N 
HETATM   29  C15 UNL     1      10.182  18.923  19.735  1.00  0.00     0.361 C 
HETATM   30  O2  UNL     1      11.221  18.211  19.733  1.00  0.00    -0.238 OA
ATOM     31  H2  UNL     1       9.193  20.434  18.649  1.00  0.00     0.165 HD
BRANCH  29  32
HETATM   32  O3  UNL     1       9.255  18.763  20.769  1.00  0.00    -0.296 OA
BRANCH  32  33
HETATM   33  C16 UNL     1       8.210  17.802  20.654  1.00  0.00     0.159 C 
HETATM   34  C17 UNL     1       6.891  18.365  21.146  1.00  0.00     0.061 C 
HETATM   35  C18 UNL     1       6.082  18.553  19.892  1.00  0.00     0.170 C 
HETATM   36  O4  UNL     1       6.522  17.475  19.107  1.00  0.00    -0.389 OA
HETATM   37  C19 UNL     1       7.922  17.581  19.189  1.00  0.00     0.200 C 
ENDBRANCH  32  33
ENDBRANCH  29  32
ENDBRANCH  20  28
ENDBRANCH   1  20
TORSDOF 13
ENDMDL
