MODEL 7
REMARK VINA RESULT: -8.954890268      2.342      9.584
REMARK  13 active torsions:
REMARK  status: ('A' for Active; 'I' for Inactive)
REMARK    1  A    between atoms: C2_2  and  C4_4 
REMARK    2  A    between atoms: C4_4  and  N1_5 
REMARK    3  A    between atoms: N1_5  and  C5_6 
REMARK    4  A    between atoms: N1_5  and  S1_28 
REMARK    5  A    between atoms: C5_6  and  C6_7 
REMARK    6  A    between atoms: C6_7  and  O1_8 
REMARK    7  A    between atoms: C6_7  and  C7_10 
REMARK    8  A    between atoms: C7_10  and  C8_11 
REMARK    9  A    between atoms: C7_10  and  N2_18 
REMARK   10  A    between atoms: C8_11  and  C9_12 
REMARK       I    between atoms: N2_18  and  C15_20 
REMARK   11  A    between atoms: C15_20  and  O3_22 
REMARK   12  A    between atoms: O3_22  and  C16_23 
REMARK   13  A    between atoms: S1_28  and  C20_31 
ROOT
HETATM    1  C6  UNL     1      11.975  19.402  15.614  1.00  0.00     0.160 C 
ENDROOT
BRANCH   1   2
HETATM    2  C5  UNL     1      12.103  20.838  15.955  1.00  0.00     0.174 C 
BRANCH   2   3
HETATM    3  N1  UNL     1      13.376  21.341  16.306  1.00  0.00    -0.283 N 
BRANCH   3   4
HETATM    4  C4  UNL     1      14.441  21.081  15.424  1.00  0.00     0.080 C 
BRANCH   4   5
HETATM    5  C2  UNL     1      14.571  22.010  14.246  1.00  0.00     0.017 C 
HETATM    6  C1  UNL     1      14.086  21.470  12.946  1.00  0.00     0.015 C 
HETATM    7  C3  UNL     1      15.976  22.582  14.147  1.00  0.00     0.015 C 
ENDBRANCH   4   5
ENDBRANCH   3   4
BRANCH   3   8
HETATM    8  S1  UNL     1      13.792  21.197  17.929  1.00  0.00     0.264 S 
HETATM    9  O5  UNL     1      12.562  21.003  18.781  1.00  0.00    -0.200 OA
HETATM   10  O6  UNL     1      14.605  19.904  18.128  1.00  0.00    -0.200 OA
BRANCH   8  11
HETATM   11  C20 UNL     1      14.728  22.519  18.590  1.00  0.00     0.080 A 
HETATM   12  C21 UNL     1      15.902  22.974  18.036  1.00  0.00     0.027 A 
HETATM   13  C22 UNL     1      16.598  24.041  18.598  1.00  0.00     0.028 A 
HETATM   14  C23 UNL     1      16.148  24.690  19.730  1.00  0.00     0.046 A 
HETATM   15  N3  UNL     1      16.879  25.778  20.287  1.00  0.00    -0.102 NA
HETATM   16  C24 UNL     1      14.972  24.235  20.288  1.00  0.00     0.028 A 
HETATM   17  C25 UNL     1      14.279  23.181  19.736  1.00  0.00     0.027 A 
ENDBRANCH   8  11
ENDBRANCH   3   8
ENDBRANCH   2   3
ENDBRANCH   1   2
BRANCH   1  18
HETATM   18  O1  UNL     1      13.049  18.610  15.972  1.00  0.00    -0.392 OA
ATOM     19  H1  UNL     1      12.901  17.674  15.912  1.00  0.00     0.210 HD
ENDBRANCH   1  18
BRANCH   1  20
HETATM   20  C7  UNL     1      10.729  18.774  16.275  1.00  0.00     0.121 C 
BRANCH  20  21
HETATM   21  C8  UNL     1      11.173  18.155  17.576  1.00  0.00     0.066 C 
BRANCH  21  22
HETATM   22  C9  UNL     1      10.147  18.347  18.646  1.00  0.00    -0.056 A 
HETATM   23  C10 UNL     1      10.517  18.673  19.929  1.00  0.00     0.007 A 
HETATM   24  C11 UNL     1       9.556  18.852  20.929  1.00  0.00     0.001 A 
HETATM   25  C12 UNL     1       8.228  18.700  20.616  1.00  0.00     0.000 A 
HETATM   26  C13 UNL     1       7.834  18.375  19.347  1.00  0.00     0.001 A 
HETATM   27  C14 UNL     1       8.805  18.204  18.376  1.00  0.00     0.007 A 
ENDBRANCH  21  22
ENDBRANCH  20  21
BRANCH  20  28
HETATM   28  N2  UNL     1      10.411  17.636  15.395  1.00  0.00    -0.329 N 
HETATM   29  C15 UNL     1       9.214  17.609  14.655  1.00  0.00     0.361 C 
HETATM   30  O2  UNL     1       8.432  18.589  14.780  1.00  0.00    -0.238 OA
ATOM     31  H2  UNL     1      11.067  16.858  15.322  1.00  0.00     0.165 HD
BRANCH  29  32
HETATM   32  O3  UNL     1       8.856  16.563  13.800  1.00  0.00    -0.296 OA
BRANCH  32  33
HETATM   33  C16 UNL     1       8.727  15.236  14.303  1.00  0.00     0.159 C 
HETATM   34  C17 UNL     1       7.982  15.220  15.624  1.00  0.00     0.061 C 
HETATM   35  C18 UNL     1       6.648  14.612  15.285  1.00  0.00     0.170 C 
HETATM   36  O4  UNL     1       7.001  13.695  14.282  1.00  0.00    -0.389 OA
HETATM   37  C19 UNL     1       7.779  14.476  13.407  1.00  0.00     0.200 C 
ENDBRANCH  32  33
ENDBRANCH  29  32
ENDBRANCH  20  28
ENDBRANCH   1  20
TORSDOF 13
ENDMDL
