MODEL 1
REMARK VINA RESULT: -9.287093999      0.000      0.000
REMARK  13 active torsions:
REMARK  status: ('A' for Active; 'I' for Inactive)
REMARK    1  A    between atoms: C2_2  and  C4_4 
REMARK    2  A    between atoms: C4_4  and  N1_5 
REMARK    3  A    between atoms: N1_5  and  C5_6 
REMARK    4  A    between atoms: N1_5  and  S1_28 
REMARK    5  A    between atoms: C5_6  and  C6_7 
REMARK    6  A    between atoms: C6_7  and  O1_8 
REMARK    7  A    between atoms: C6_7  and  C7_10 
REMARK    8  A    between atoms: C7_10  and  C8_11 
REMARK    9  A    between atoms: C7_10  and  N2_18 
REMARK   10  A    between atoms: C8_11  and  C9_12 
REMARK       I    between atoms: N2_18  and  C15_20 
REMARK   11  A    between atoms: C15_20  and  O3_22 
REMARK   12  A    between atoms: O3_22  and  C16_23 
REMARK   13  A    between atoms: S1_28  and  C20_31 
ROOT
HETATM    1  C6  UNL     1      13.649  19.415  17.956  1.00  0.00     0.160 C 
ENDROOT
BRANCH   1   2
HETATM    2  C5  UNL     1      12.549  18.514  17.539  1.00  0.00     0.174 C 
BRANCH   2   3
HETATM    3  N1  UNL     1      11.226  19.010  17.545  1.00  0.00    -0.283 N 
BRANCH   3   4
HETATM    4  C4  UNL     1      10.411  18.668  18.640  1.00  0.00     0.080 C 
BRANCH   4   5
HETATM    5  C2  UNL     1       9.887  19.815  19.463  1.00  0.00     0.017 C 
HETATM    6  C1  UNL     1      10.570  21.121  19.251  1.00  0.00     0.015 C 
HETATM    7  C3  UNL     1       9.795  19.442  20.934  1.00  0.00     0.015 C 
ENDBRANCH   4   5
ENDBRANCH   3   4
BRANCH   3   8
HETATM    8  S1  UNL     1      10.425  18.963  16.067  1.00  0.00     0.264 S 
HETATM    9  O5  UNL     1       9.449  20.107  15.949  1.00  0.00    -0.200 OA
HETATM   10  O6  UNL     1      11.442  19.207  14.936  1.00  0.00    -0.200 OA
BRANCH   8  11
HETATM   11  C20 UNL     1       9.584  17.471  15.710  1.00  0.00     0.080 A 
HETATM   12  C21 UNL     1       8.647  16.905  16.544  1.00  0.00     0.027 A 
HETATM   13  C22 UNL     1       7.998  15.722  16.201  1.00  0.00     0.028 A 
HETATM   14  C23 UNL     1       8.261  15.063  15.018  1.00  0.00     0.046 A 
HETATM   15  N3  UNL     1       7.584  13.853  14.690  1.00  0.00    -0.102 NA
HETATM   16  C24 UNL     1       9.199  15.627  14.180  1.00  0.00     0.028 A 
HETATM   17  C25 UNL     1       9.844  16.798  14.514  1.00  0.00     0.027 A 
ENDBRANCH   8  11
ENDBRANCH   3   8
ENDBRANCH   2   3
ENDBRANCH   1   2
BRANCH   1  18
HETATM   18  O1  UNL     1      14.864  18.798  18.187  1.00  0.00    -0.392 OA
ATOM     19  H1  UNL     1      15.546  19.360  18.533  1.00  0.00     0.210 HD
ENDBRANCH   1  18
BRANCH   1  20
HETATM   20  C7  UNL     1      13.911  20.513  16.904  1.00  0.00     0.121 C 
BRANCH  20  21
HETATM   21  C8  UNL     1      14.800  19.917  15.843  1.00  0.00     0.066 C 
BRANCH  21  22
HETATM   22  C9  UNL     1      15.177  20.937  14.817  1.00  0.00    -0.056 A 
HETATM   23  C10 UNL     1      14.260  21.387  13.897  1.00  0.00     0.007 A 
HETATM   24  C11 UNL     1      14.615  22.340  12.938  1.00  0.00     0.001 A 
HETATM   25  C12 UNL     1      15.897  22.829  12.921  1.00  0.00     0.000 A 
HETATM   26  C13 UNL     1      16.829  22.398  13.825  1.00  0.00     0.001 A 
HETATM   27  C14 UNL     1      16.452  21.454  14.765  1.00  0.00     0.007 A 
ENDBRANCH  21  22
ENDBRANCH  20  21
BRANCH  20  28
HETATM   28  N2  UNL     1      14.760  21.480  17.621  1.00  0.00    -0.329 N 
HETATM   29  C15 UNL     1      14.295  22.779  17.903  1.00  0.00     0.361 C 
HETATM   30  O2  UNL     1      13.134  23.076  17.515  1.00  0.00    -0.238 OA
ATOM     31  H2  UNL     1      15.697  21.205  17.917  1.00  0.00     0.165 HD
BRANCH  29  32
HETATM   32  O3  UNL     1      15.049  23.740  18.583  1.00  0.00    -0.296 OA
BRANCH  32  33
HETATM   33  C16 UNL     1      16.395  23.465  18.955  1.00  0.00     0.159 C 
HETATM   34  C17 UNL     1      17.370  23.996  17.922  1.00  0.00     0.061 C 
HETATM   35  C18 UNL     1      18.022  25.169  18.601  1.00  0.00     0.170 C 
HETATM   36  O4  UNL     1      18.059  24.739  19.937  1.00  0.00    -0.389 OA
HETATM   37  C19 UNL     1      16.739  24.307  20.161  1.00  0.00     0.200 C 
ENDBRANCH  32  33
ENDBRANCH  29  32
ENDBRANCH  20  28
ENDBRANCH   1  20
TORSDOF 13
ENDMDL
