MODEL 1
REMARK VINA RESULT: -9.650575834      0.000      0.000
REMARK  13 active torsions:
REMARK  status: ('A' for Active; 'I' for Inactive)
REMARK    1  A    between atoms: C2_2  and  C4_4 
REMARK    2  A    between atoms: C4_4  and  N1_5 
REMARK    3  A    between atoms: N1_5  and  C5_6 
REMARK    4  A    between atoms: N1_5  and  S1_28 
REMARK    5  A    between atoms: C5_6  and  C6_7 
REMARK    6  A    between atoms: C6_7  and  O1_8 
REMARK    7  A    between atoms: C6_7  and  C7_10 
REMARK    8  A    between atoms: C7_10  and  C8_11 
REMARK    9  A    between atoms: C7_10  and  N2_18 
REMARK   10  A    between atoms: C8_11  and  C9_12 
REMARK       I    between atoms: N2_18  and  C15_20 
REMARK   11  A    between atoms: C15_20  and  O3_22 
REMARK   12  A    between atoms: O3_22  and  C16_23 
REMARK   13  A    between atoms: S1_28  and  C20_31 
ROOT
HETATM    1  C6  UNL     1      13.618  19.824  18.078  1.00  0.00     0.160 C 
ENDROOT
BRANCH   1   2
HETATM    2  C5  UNL     1      12.520  18.929  17.647  1.00  0.00     0.174 C 
BRANCH   2   3
HETATM    3  N1  UNL     1      11.188  19.394  17.739  1.00  0.00    -0.283 N 
BRANCH   3   4
HETATM    4  C4  UNL     1      10.443  19.003  18.866  1.00  0.00     0.080 C 
BRANCH   4   5
HETATM    5  C2  UNL     1       9.955  20.114  19.758  1.00  0.00     0.017 C 
HETATM    6  C1  UNL     1      10.528  21.460  19.479  1.00  0.00     0.015 C 
HETATM    7  C3  UNL     1      10.064  19.731  21.225  1.00  0.00     0.015 C 
ENDBRANCH   4   5
ENDBRANCH   3   4
BRANCH   3   8
HETATM    8  S1  UNL     1      10.310  19.369  16.305  1.00  0.00     0.264 S 
HETATM    9  O5  UNL     1       9.238  20.431  16.316  1.00  0.00    -0.200 OA
HETATM   10  O6  UNL     1      11.235  19.768  15.140  1.00  0.00    -0.200 OA
BRANCH   8  11
HETATM   11  C20 UNL     1       9.575  17.835  15.896  1.00  0.00     0.080 A 
HETATM   12  C21 UNL     1       8.688  17.172  16.713  1.00  0.00     0.027 A 
HETATM   13  C22 UNL     1       8.122  15.959  16.328  1.00  0.00     0.028 A 
HETATM   14  C23 UNL     1       8.421  15.366  15.119  1.00  0.00     0.046 A 
HETATM   15  N3  UNL     1       7.830  14.125  14.748  1.00  0.00    -0.102 NA
HETATM   16  C24 UNL     1       9.309  16.029  14.298  1.00  0.00     0.028 A 
HETATM   17  C25 UNL     1       9.871  17.229  14.673  1.00  0.00     0.027 A 
ENDBRANCH   8  11
ENDBRANCH   3   8
ENDBRANCH   2   3
ENDBRANCH   1   2
BRANCH   1  18
HETATM   18  O1  UNL     1      14.840  19.209  18.275  1.00  0.00    -0.392 OA
ATOM     19  H1  UNL     1      15.383  19.591  18.955  1.00  0.00     0.210 HD
ENDBRANCH   1  18
BRANCH   1  20
HETATM   20  C7  UNL     1      13.859  20.955  17.056  1.00  0.00     0.121 C 
BRANCH  20  21
HETATM   21  C8  UNL     1      14.781  20.414  15.993  1.00  0.00     0.066 C 
BRANCH  21  22
HETATM   22  C9  UNL     1      14.929  21.380  14.862  1.00  0.00    -0.056 A 
HETATM   23  C10 UNL     1      13.947  21.508  13.909  1.00  0.00     0.007 A 
HETATM   24  C11 UNL     1      14.088  22.411  12.851  1.00  0.00     0.001 A 
HETATM   25  C12 UNL     1      15.224  23.177  12.771  1.00  0.00     0.000 A 
HETATM   26  C13 UNL     1      16.217  23.069  13.706  1.00  0.00     0.001 A 
HETATM   27  C14 UNL     1      16.052  22.167  14.744  1.00  0.00     0.007 A 
ENDBRANCH  21  22
ENDBRANCH  20  21
BRANCH  20  28
HETATM   28  N2  UNL     1      14.668  21.930  17.808  1.00  0.00    -0.329 N 
HETATM   29  C15 UNL     1      14.147  23.194  18.146  1.00  0.00     0.361 C 
HETATM   30  O2  UNL     1      12.971  23.454  17.776  1.00  0.00    -0.238 OA
ATOM     31  H2  UNL     1      15.619  21.687  18.088  1.00  0.00     0.165 HD
BRANCH  29  32
HETATM   32  O3  UNL     1      14.860  24.160  18.861  1.00  0.00    -0.296 OA
BRANCH  32  33
HETATM   33  C16 UNL     1      16.229  23.944  19.191  1.00  0.00     0.159 C 
HETATM   34  C17 UNL     1      17.145  24.456  18.097  1.00  0.00     0.061 C 
HETATM   35  C18 UNL     1      17.784  25.679  18.696  1.00  0.00     0.170 C 
HETATM   36  O4  UNL     1      17.886  25.313  20.047  1.00  0.00    -0.389 OA
HETATM   37  C19 UNL     1      16.591  24.851  20.343  1.00  0.00     0.200 C 
ENDBRANCH  32  33
ENDBRANCH  29  32
ENDBRANCH  20  28
ENDBRANCH   1  20
TORSDOF 13
ENDMDL
