MODEL 4
REMARK VINA RESULT: -9.097176501      2.463      6.075
REMARK  13 active torsions:
REMARK  status: ('A' for Active; 'I' for Inactive)
REMARK    1  A    between atoms: C2_2  and  C4_4 
REMARK    2  A    between atoms: C4_4  and  N1_5 
REMARK    3  A    between atoms: N1_5  and  C5_6 
REMARK    4  A    between atoms: N1_5  and  S1_28 
REMARK    5  A    between atoms: C5_6  and  C6_7 
REMARK    6  A    between atoms: C6_7  and  O1_8 
REMARK    7  A    between atoms: C6_7  and  C7_10 
REMARK    8  A    between atoms: C7_10  and  C8_11 
REMARK    9  A    between atoms: C7_10  and  N2_18 
REMARK   10  A    between atoms: C8_11  and  C9_12 
REMARK       I    between atoms: N2_18  and  C15_20 
REMARK   11  A    between atoms: C15_20  and  O3_22 
REMARK   12  A    between atoms: O3_22  and  C16_23 
REMARK   13  A    between atoms: S1_28  and  C20_31 
ROOT
HETATM    1  C6  UNL     1      11.805  22.028  17.187  1.00  0.00     0.160 C 
ENDROOT
BRANCH   1   2
HETATM    2  C5  UNL     1      11.342  20.637  16.977  1.00  0.00     0.174 C 
BRANCH   2   3
HETATM    3  N1  UNL     1      12.007  19.836  16.021  1.00  0.00    -0.283 N 
BRANCH   3   4
HETATM    4  C4  UNL     1      12.218  20.391  14.746  1.00  0.00     0.080 C 
BRANCH   4   5
HETATM    5  C2  UNL     1      13.487  21.182  14.567  1.00  0.00     0.017 C 
HETATM    6  C1  UNL     1      13.772  21.633  13.177  1.00  0.00     0.015 C 
HETATM    7  C3  UNL     1      14.673  20.471  15.200  1.00  0.00     0.015 C 
ENDBRANCH   4   5
ENDBRANCH   3   4
BRANCH   3   8
HETATM    8  S1  UNL     1      11.553  18.217  15.988  1.00  0.00     0.264 S 
HETATM    9  O5  UNL     1      12.292  17.476  14.902  1.00  0.00    -0.200 OA
HETATM   10  O6  UNL     1      12.006  17.539  17.294  1.00  0.00    -0.200 OA
BRANCH   8  11
HETATM   11  C20 UNL     1       9.840  17.917  15.803  1.00  0.00     0.080 A 
HETATM   12  C21 UNL     1       9.066  18.490  14.819  1.00  0.00     0.027 A 
HETATM   13  C22 UNL     1       7.708  18.203  14.711  1.00  0.00     0.028 A 
HETATM   14  C23 UNL     1       7.075  17.337  15.579  1.00  0.00     0.046 A 
HETATM   15  N3  UNL     1       5.684  17.060  15.449  1.00  0.00    -0.102 NA
HETATM   16  C24 UNL     1       7.847  16.762  16.566  1.00  0.00     0.028 A 
HETATM   17  C25 UNL     1       9.191  17.042  16.677  1.00  0.00     0.027 A 
ENDBRANCH   8  11
ENDBRANCH   3   8
ENDBRANCH   2   3
ENDBRANCH   1   2
BRANCH   1  18
HETATM   18  O1  UNL     1      10.855  23.008  16.969  1.00  0.00    -0.392 OA
ATOM     19  H1  UNL     1      10.150  23.039  17.606  1.00  0.00     0.210 HD
ENDBRANCH   1  18
BRANCH   1  20
HETATM   20  C7  UNL     1      12.328  22.239  18.624  1.00  0.00     0.121 C 
BRANCH  20  21
HETATM   21  C8  UNL     1      13.818  22.013  18.599  1.00  0.00     0.066 C 
BRANCH  21  22
HETATM   22  C9  UNL     1      14.553  23.180  19.176  1.00  0.00    -0.056 A 
HETATM   23  C10 UNL     1      15.712  23.640  18.598  1.00  0.00     0.007 A 
HETATM   24  C11 UNL     1      16.399  24.731  19.139  1.00  0.00     0.001 A 
HETATM   25  C12 UNL     1      15.902  25.346  20.261  1.00  0.00     0.000 A 
HETATM   26  C13 UNL     1      14.751  24.908  20.855  1.00  0.00     0.001 A 
HETATM   27  C14 UNL     1      14.090  23.826  20.300  1.00  0.00     0.007 A 
ENDBRANCH  21  22
ENDBRANCH  20  21
BRANCH  20  28
HETATM   28  N2  UNL     1      11.775  21.091  19.362  1.00  0.00    -0.329 N 
HETATM   29  C15 UNL     1      10.513  21.171  19.982  1.00  0.00     0.361 C 
HETATM   30  O2  UNL     1       9.885  22.259  19.882  1.00  0.00    -0.238 OA
ATOM     31  H2  UNL     1      12.314  20.227  19.426  1.00  0.00     0.165 HD
BRANCH  29  32
HETATM   32  O3  UNL     1       9.931  20.117  20.692  1.00  0.00    -0.296 OA
BRANCH  32  33
HETATM   33  C16 UNL     1       9.333  19.027  19.998  1.00  0.00     0.159 C 
HETATM   34  C17 UNL     1       8.704  18.041  20.963  1.00  0.00     0.061 C 
HETATM   35  C18 UNL     1       7.225  18.233  20.771  1.00  0.00     0.170 C 
HETATM   36  O4  UNL     1       7.153  18.534  19.401  1.00  0.00    -0.389 OA
HETATM   37  C19 UNL     1       8.125  19.540  19.252  1.00  0.00     0.200 C 
ENDBRANCH  32  33
ENDBRANCH  29  32
ENDBRANCH  20  28
ENDBRANCH   1  20
TORSDOF 13
ENDMDL
