MODEL 2
REMARK VINA RESULT: -9.224070696      2.750      7.736
REMARK  13 active torsions:
REMARK  status: ('A' for Active; 'I' for Inactive)
REMARK    1  A    between atoms: C2_2  and  C4_4 
REMARK    2  A    between atoms: C4_4  and  N1_5 
REMARK    3  A    between atoms: N1_5  and  C5_6 
REMARK    4  A    between atoms: N1_5  and  S1_28 
REMARK    5  A    between atoms: C5_6  and  C6_7 
REMARK    6  A    between atoms: C6_7  and  O1_8 
REMARK    7  A    between atoms: C6_7  and  C7_10 
REMARK    8  A    between atoms: C7_10  and  C8_11 
REMARK    9  A    between atoms: C7_10  and  N2_18 
REMARK   10  A    between atoms: C8_11  and  C9_12 
REMARK       I    between atoms: N2_18  and  C15_20 
REMARK   11  A    between atoms: C15_20  and  O3_22 
REMARK   12  A    between atoms: O3_22  and  C16_23 
REMARK   13  A    between atoms: S1_28  and  C20_31 
ROOT
HETATM    1  C6  UNL     1      11.699  18.596  17.163  1.00  0.00     0.160 C 
ENDROOT
BRANCH   1   2
HETATM    2  C5  UNL     1      10.329  18.720  17.714  1.00  0.00     0.174 C 
BRANCH   2   3
HETATM    3  N1  UNL     1      10.101  19.633  18.769  1.00  0.00    -0.283 N 
BRANCH   3   4
HETATM    4  C4  UNL     1       8.978  19.412  19.586  1.00  0.00     0.080 C 
BRANCH   4   5
HETATM    5  C2  UNL     1       9.231  18.683  20.879  1.00  0.00     0.017 C 
HETATM    6  C1  UNL     1       8.015  18.301  21.650  1.00  0.00     0.015 C 
HETATM    7  C3  UNL     1      10.252  19.416  21.735  1.00  0.00     0.015 C 
ENDBRANCH   4   5
ENDBRANCH   3   4
BRANCH   3   8
HETATM    8  S1  UNL     1      10.356  21.253  18.394  1.00  0.00     0.264 S 
HETATM    9  O5  UNL     1       9.688  21.612  17.090  1.00  0.00    -0.200 OA
HETATM   10  O6  UNL     1       9.648  22.131  19.443  1.00  0.00    -0.200 OA
BRANCH   8  11
HETATM   11  C20 UNL     1      12.029  21.758  18.323  1.00  0.00     0.080 A 
HETATM   12  C21 UNL     1      13.046  21.130  19.006  1.00  0.00     0.027 A 
HETATM   13  C22 UNL     1      14.363  21.568  18.901  1.00  0.00     0.028 A 
HETATM   14  C23 UNL     1      14.713  22.645  18.112  1.00  0.00     0.046 A 
HETATM   15  N3  UNL     1      16.067  23.074  18.021  1.00  0.00    -0.102 NA
HETATM   16  C24 UNL     1      13.696  23.276  17.426  1.00  0.00     0.028 A 
HETATM   17  C25 UNL     1      12.392  22.847  17.527  1.00  0.00     0.027 A 
ENDBRANCH   8  11
ENDBRANCH   3   8
ENDBRANCH   2   3
ENDBRANCH   1   2
BRANCH   1  18
HETATM   18  O1  UNL     1      12.436  17.531  17.643  1.00  0.00    -0.392 OA
ATOM     19  H1  UNL     1      13.378  17.624  17.574  1.00  0.00     0.210 HD
ENDBRANCH   1  18
BRANCH   1  20
HETATM   20  C7  UNL     1      11.678  18.455  15.626  1.00  0.00     0.121 C 
BRANCH  20  21
HETATM   21  C8  UNL     1      11.655  19.846  15.046  1.00  0.00     0.066 C 
BRANCH  21  22
HETATM   22  C9  UNL     1      13.039  20.388  14.882  1.00  0.00    -0.056 A 
HETATM   23  C10 UNL     1      13.288  21.443  14.037  1.00  0.00     0.007 A 
HETATM   24  C11 UNL     1      14.584  21.948  13.885  1.00  0.00     0.001 A 
HETATM   25  C12 UNL     1      15.612  21.379  14.593  1.00  0.00     0.000 A 
HETATM   26  C13 UNL     1      15.390  20.329  15.441  1.00  0.00     0.001 A 
HETATM   27  C14 UNL     1      14.099  19.848  15.573  1.00  0.00     0.007 A 
ENDBRANCH  21  22
ENDBRANCH  20  21
BRANCH  20  28
HETATM   28  N2  UNL     1      10.342  17.900  15.350  1.00  0.00    -0.329 N 
HETATM   29  C15 UNL     1      10.144  16.981  14.302  1.00  0.00     0.361 C 
HETATM   30  O2  UNL     1      11.150  16.660  13.614  1.00  0.00    -0.238 OA
ATOM     31  H2  UNL     1       9.549  18.185  15.926  1.00  0.00     0.165 HD
BRANCH  29  32
HETATM   32  O3  UNL     1       8.905  16.414  13.992  1.00  0.00    -0.296 OA
BRANCH  32  33
HETATM   33  C16 UNL     1       8.535  15.153  14.539  1.00  0.00     0.159 C 
HETATM   34  C17 UNL     1       7.669  15.321  15.772  1.00  0.00     0.061 C 
HETATM   35  C18 UNL     1       6.301  14.887  15.322  1.00  0.00     0.170 C 
HETATM   36  O4  UNL     1       6.613  13.871  14.405  1.00  0.00    -0.389 OA
HETATM   37  C19 UNL     1       7.579  14.479  13.583  1.00  0.00     0.200 C 
ENDBRANCH  32  33
ENDBRANCH  29  32
ENDBRANCH  20  28
ENDBRANCH   1  20
TORSDOF 13
ENDMDL
