MODEL 18
REMARK VINA RESULT: -8.868561598      1.617      2.155
REMARK  13 active torsions:
REMARK  status: ('A' for Active; 'I' for Inactive)
REMARK    1  A    between atoms: C2_2  and  C4_4 
REMARK    2  A    between atoms: C4_4  and  N1_5 
REMARK    3  A    between atoms: N1_5  and  C5_6 
REMARK    4  A    between atoms: N1_5  and  S1_28 
REMARK    5  A    between atoms: C5_6  and  C6_7 
REMARK    6  A    between atoms: C6_7  and  O1_8 
REMARK    7  A    between atoms: C6_7  and  C7_10 
REMARK    8  A    between atoms: C7_10  and  C8_11 
REMARK    9  A    between atoms: C7_10  and  N2_18 
REMARK   10  A    between atoms: C8_11  and  C9_12 
REMARK       I    between atoms: N2_18  and  C15_20 
REMARK   11  A    between atoms: C15_20  and  O3_22 
REMARK   12  A    between atoms: O3_22  and  C16_23 
REMARK   13  A    between atoms: S1_28  and  C20_31 
ROOT
HETATM    1  C6  UNL     1      12.213  18.907  17.855  1.00  0.00     0.160 C 
ENDROOT
BRANCH   1   2
HETATM    2  C5  UNL     1      11.495  18.126  16.820  1.00  0.00     0.174 C 
BRANCH   2   3
HETATM    3  N1  UNL     1      10.084  18.186  16.781  1.00  0.00    -0.283 N 
BRANCH   3   4
HETATM    4  C4  UNL     1       9.379  17.570  17.831  1.00  0.00     0.080 C 
BRANCH   4   5
HETATM    5  C2  UNL     1       8.493  18.468  18.653  1.00  0.00     0.017 C 
HETATM    6  C1  UNL     1       9.139  19.100  19.836  1.00  0.00     0.015 C 
HETATM    7  C3  UNL     1       7.186  17.776  19.008  1.00  0.00     0.015 C 
ENDBRANCH   4   5
ENDBRANCH   3   4
BRANCH   3   8
HETATM    8  S1  UNL     1       9.389  17.946  15.268  1.00  0.00     0.264 S 
HETATM    9  O5  UNL     1       8.792  19.228  14.743  1.00  0.00    -0.200 OA
HETATM   10  O6  UNL     1      10.495  17.594  14.256  1.00  0.00    -0.200 OA
BRANCH   8  11
HETATM   11  C20 UNL     1       8.176  16.689  15.186  1.00  0.00     0.080 A 
HETATM   12  C21 UNL     1       8.454  15.379  14.870  1.00  0.00     0.027 A 
HETATM   13  C22 UNL     1       7.448  14.416  14.833  1.00  0.00     0.028 A 
HETATM   14  C23 UNL     1       6.132  14.726  15.109  1.00  0.00     0.046 A 
HETATM   15  N3  UNL     1       5.121  13.724  15.064  1.00  0.00    -0.102 NA
HETATM   16  C24 UNL     1       5.850  16.038  15.426  1.00  0.00     0.028 A 
HETATM   17  C25 UNL     1       6.841  16.994  15.464  1.00  0.00     0.027 A 
ENDBRANCH   8  11
ENDBRANCH   3   8
ENDBRANCH   2   3
ENDBRANCH   1   2
BRANCH   1  18
HETATM   18  O1  UNL     1      13.240  18.239  18.494  1.00  0.00    -0.392 OA
ATOM     19  H1  UNL     1      13.184  18.218  19.442  1.00  0.00     0.210 HD
ENDBRANCH   1  18
BRANCH   1  20
HETATM   20  C7  UNL     1      12.829  20.193  17.266  1.00  0.00     0.121 C 
BRANCH  20  21
HETATM   21  C8  UNL     1      13.972  19.778  16.374  1.00  0.00     0.066 C 
BRANCH  21  22
HETATM   22  C9  UNL     1      14.196  20.773  15.282  1.00  0.00    -0.056 A 
HETATM   23  C10 UNL     1      13.314  20.882  14.233  1.00  0.00     0.007 A 
HETATM   24  C11 UNL     1      13.527  21.814  13.212  1.00  0.00     0.001 A 
HETATM   25  C12 UNL     1      14.631  22.627  13.265  1.00  0.00     0.000 A 
HETATM   26  C13 UNL     1      15.524  22.539  14.298  1.00  0.00     0.001 A 
HETATM   27  C14 UNL     1      15.291  21.608  15.296  1.00  0.00     0.007 A 
ENDBRANCH  21  22
ENDBRANCH  20  21
BRANCH  20  28
HETATM   28  N2  UNL     1      13.462  20.835  18.431  1.00  0.00    -0.329 N 
HETATM   29  C15 UNL     1      13.352  22.223  18.639  1.00  0.00     0.361 C 
HETATM   30  O2  UNL     1      12.697  22.886  17.791  1.00  0.00    -0.238 OA
ATOM     31  H2  UNL     1      13.988  20.266  19.095  1.00  0.00     0.165 HD
BRANCH  29  32
HETATM   32  O3  UNL     1      13.924  22.891  19.725  1.00  0.00    -0.296 OA
BRANCH  32  33
HETATM   33  C16 UNL     1      14.437  24.210  19.567  1.00  0.00     0.159 C 
HETATM   34  C17 UNL     1      14.589  24.903  20.907  1.00  0.00     0.061 C 
HETATM   35  C18 UNL     1      16.076  24.964  21.122  1.00  0.00     0.170 C 
HETATM   36  O4  UNL     1      16.546  25.129  19.810  1.00  0.00    -0.389 OA
HETATM   37  C19 UNL     1      15.872  24.114  19.108  1.00  0.00     0.200 C 
ENDBRANCH  32  33
ENDBRANCH  29  32
ENDBRANCH  20  28
ENDBRANCH   1  20
TORSDOF 13
ENDMDL
