MODEL 6
REMARK VINA RESULT: -9.043576422      1.251      1.537
REMARK  13 active torsions:
REMARK  status: ('A' for Active; 'I' for Inactive)
REMARK    1  A    between atoms: C2_2  and  C4_4 
REMARK    2  A    between atoms: C4_4  and  N1_5 
REMARK    3  A    between atoms: N1_5  and  C5_6 
REMARK    4  A    between atoms: N1_5  and  S1_28 
REMARK    5  A    between atoms: C5_6  and  C6_7 
REMARK    6  A    between atoms: C6_7  and  O1_8 
REMARK    7  A    between atoms: C6_7  and  C7_10 
REMARK    8  A    between atoms: C7_10  and  C8_11 
REMARK    9  A    between atoms: C7_10  and  N2_18 
REMARK   10  A    between atoms: C8_11  and  C9_12 
REMARK       I    between atoms: N2_18  and  C15_20 
REMARK   11  A    between atoms: C15_20  and  O3_22 
REMARK   12  A    between atoms: O3_22  and  C16_23 
REMARK   13  A    between atoms: S1_28  and  C20_31 
ROOT
HETATM    1  C6  UNL     1      12.504  18.976  18.190  1.00  0.00     0.160 C 
ENDROOT
BRANCH   1   2
HETATM    2  C5  UNL     1      11.548  18.242  17.329  1.00  0.00     0.174 C 
BRANCH   2   3
HETATM    3  N1  UNL     1      10.216  18.707  17.241  1.00  0.00    -0.283 N 
BRANCH   3   4
HETATM    4  C4  UNL     1       9.338  18.356  18.283  1.00  0.00     0.080 C 
BRANCH   4   5
HETATM    5  C2  UNL     1       9.012  19.444  19.272  1.00  0.00     0.017 C 
HETATM    6  C1  UNL     1       9.558  20.791  18.949  1.00  0.00     0.015 C 
HETATM    7  C3  UNL     1       9.339  19.012  20.693  1.00  0.00     0.015 C 
ENDBRANCH   4   5
ENDBRANCH   3   4
BRANCH   3   8
HETATM    8  S1  UNL     1       9.519  18.628  15.713  1.00  0.00     0.264 S 
HETATM    9  O5  UNL     1       8.668  19.846  15.449  1.00  0.00    -0.200 OA
HETATM   10  O6  UNL     1      10.629  18.697  14.648  1.00  0.00    -0.200 OA
BRANCH   8  11
HETATM   11  C20 UNL     1       8.565  17.198  15.391  1.00  0.00     0.080 A 
HETATM   12  C21 UNL     1       7.207  17.123  15.603  1.00  0.00     0.027 A 
HETATM   13  C22 UNL     1       6.495  15.961  15.315  1.00  0.00     0.028 A 
HETATM   14  C23 UNL     1       7.112  14.836  14.806  1.00  0.00     0.046 A 
HETATM   15  N3  UNL     1       6.363  13.659  14.520  1.00  0.00    -0.102 NA
HETATM   16  C24 UNL     1       8.472  14.908  14.593  1.00  0.00     0.028 A 
HETATM   17  C25 UNL     1       9.181  16.055  14.876  1.00  0.00     0.027 A 
ENDBRANCH   8  11
ENDBRANCH   3   8
ENDBRANCH   2   3
ENDBRANCH   1   2
BRANCH   1  18
HETATM   18  O1  UNL     1      13.648  18.281  18.531  1.00  0.00    -0.392 OA
ATOM     19  H1  UNL     1      14.453  18.786  18.509  1.00  0.00     0.210 HD
ENDBRANCH   1  18
BRANCH   1  20
HETATM   20  C7  UNL     1      12.972  20.287  17.525  1.00  0.00     0.121 C 
BRANCH  20  21
HETATM   21  C8  UNL     1      14.174  19.958  16.676  1.00  0.00     0.066 C 
BRANCH  21  22
HETATM   22  C9  UNL     1      14.307  20.911  15.532  1.00  0.00    -0.056 A 
HETATM   23  C10 UNL     1      13.483  20.816  14.435  1.00  0.00     0.007 A 
HETATM   24  C11 UNL     1      13.610  21.708  13.365  1.00  0.00     0.001 A 
HETATM   25  C12 UNL     1      14.570  22.687  13.419  1.00  0.00     0.000 A 
HETATM   26  C13 UNL     1      15.402  22.803  14.499  1.00  0.00     0.001 A 
HETATM   27  C14 UNL     1      15.256  21.908  15.544  1.00  0.00     0.007 A 
ENDBRANCH  21  22
ENDBRANCH  20  21
BRANCH  20  28
HETATM   28  N2  UNL     1      13.500  21.075  18.652  1.00  0.00    -0.329 N 
HETATM   29  C15 UNL     1      13.226  22.452  18.762  1.00  0.00     0.361 C 
HETATM   30  O2  UNL     1      12.520  22.977  17.860  1.00  0.00    -0.238 OA
ATOM     31  H2  UNL     1      14.072  20.617  19.362  1.00  0.00     0.165 HD
BRANCH  29  32
HETATM   32  O3  UNL     1      13.693  23.253  19.808  1.00  0.00    -0.296 OA
BRANCH  32  33
HETATM   33  C16 UNL     1      14.433  24.437  19.530  1.00  0.00     0.159 C 
HETATM   34  C17 UNL     1      14.851  25.136  20.809  1.00  0.00     0.061 C 
HETATM   35  C18 UNL     1      16.336  24.908  20.883  1.00  0.00     0.170 C 
HETATM   36  O4  UNL     1      16.694  24.928  19.525  1.00  0.00    -0.389 OA
HETATM   37  C19 UNL     1      15.768  24.041  18.946  1.00  0.00     0.200 C 
ENDBRANCH  32  33
ENDBRANCH  29  32
ENDBRANCH  20  28
ENDBRANCH   1  20
TORSDOF 13
ENDMDL
