MODEL 6
REMARK VINA RESULT: -6.256083096      1.199      2.678
REMARK  0 active torsions:
REMARK  status: ('A' for Active; 'I' for Inactive)
ROOT
HETATM    1  C1  UNL     1       6.329  27.097  13.485  1.00  0.00     0.016 C 
HETATM    2  C2  UNL     1       4.977  27.510  13.912  1.00  0.00    -0.029 C 
HETATM    3  C3  UNL     1       5.022  28.350  15.143  1.00  0.00     0.016 C 
HETATM    4  C4  UNL     1       3.971  26.382  13.987  1.00  0.00     0.001 C 
HETATM    5  C5  UNL     1       3.910  25.951  12.545  1.00  0.00     0.007 C 
HETATM    6  C6  UNL     1       3.884  27.263  11.782  1.00  0.00     0.018 C 
HETATM    7  C7  UNL     1       4.216  28.292  12.828  1.00  0.00     0.024 C 
HETATM    8  C8  UNL     1       4.904  29.487  12.360  1.00  0.00     0.024 C 
HETATM    9  C9  UNL     1       2.962  28.525  13.603  1.00  0.00     0.136 C 
HETATM   10  O1  UNL     1       2.289  29.510  13.711  1.00  0.00    -0.297 OA
HETATM   11  C10 UNL     1       2.707  27.185  14.254  1.00  0.00     0.084 C 
ENDROOT
TORSDOF 0
ENDMDL
