MODEL 13
REMARK VINA RESULT: -6.206935624      1.405      2.732
REMARK  0 active torsions:
REMARK  status: ('A' for Active; 'I' for Inactive)
ROOT
HETATM    1  C1  UNL     1       3.379  27.249  15.059  1.00  0.00     0.016 C 
HETATM    2  C2  UNL     1       3.552  28.114  13.875  1.00  0.00    -0.029 C 
HETATM    3  C3  UNL     1       2.952  29.462  14.086  1.00  0.00     0.016 C 
HETATM    4  C4  UNL     1       3.149  27.472  12.565  1.00  0.00     0.001 C 
HETATM    5  C5  UNL     1       4.136  26.338  12.482  1.00  0.00     0.007 C 
HETATM    6  C6  UNL     1       5.443  26.970  12.922  1.00  0.00     0.018 C 
HETATM    7  C7  UNL     1       5.026  28.305  13.479  1.00  0.00     0.024 C 
HETATM    8  C8  UNL     1       5.863  28.851  14.538  1.00  0.00     0.024 C 
HETATM    9  C9  UNL     1       4.797  29.197  12.305  1.00  0.00     0.136 C 
HETATM   10  O1  UNL     1       5.367  30.194  11.966  1.00  0.00    -0.297 OA
HETATM   11  C10 UNL     1       3.633  28.542  11.598  1.00  0.00     0.084 C 
ENDROOT
TORSDOF 0
ENDMDL
