MODEL 1
REMARK VINA RESULT: -8.767174176      0.000      0.000
REMARK  15 active torsions:
REMARK  status: ('A' for Active; 'I' for Inactive)
REMARK       I    between atoms: C2_2  and  N1_4 
REMARK    1  A    between atoms: N1_4  and  C3_6 
REMARK    2  A    between atoms: C4_7  and  O2_8 
REMARK    3  A    between atoms: C5_11  and  C6_12 
REMARK    4  A    between atoms: C6_12  and  O4_13 
REMARK    5  A    between atoms: C7_15  and  O5_16 
REMARK    6  A    between atoms: C8_18  and  O6_19 
REMARK    7  A    between atoms: O6_19  and  C9_20 
REMARK    8  A    between atoms: C9_20  and  C11_22 
REMARK       I    between atoms: C11_22  and  N2_24 
REMARK    9  A    between atoms: N2_24  and  C12_26 
REMARK   10  A    between atoms: C12_26  and  C14_28 
REMARK       I    between atoms: C14_28  and  N3_30 
REMARK   11  A    between atoms: N3_30  and  C15_32 
REMARK   12  A    between atoms: C15_32  and  C16_33 
REMARK   13  A    between atoms: C15_32  and  C19_38 
REMARK   14  A    between atoms: C16_33  and  C17_34 
REMARK   15  A    between atoms: C17_34  and  C18_35 
ROOT
HETATM    1  C9  UNL     1     -20.021 -18.537 -24.835  1.00  0.00     0.209 C 
HETATM    2  C10 UNL     1     -21.498 -18.377 -25.164  1.00  0.00     0.050 C 
ENDROOT
BRANCH   1   3
HETATM    3  O6  UNL     1     -19.298 -17.411 -25.191  1.00  0.00    -0.367 OA
BRANCH   3   4
HETATM    4  C8  UNL     1     -18.026 -17.369 -24.663  1.00  0.00     0.181 C 
HETATM    5  C3  UNL     1     -17.557 -16.011 -24.220  1.00  0.00     0.171 C 
HETATM    6  C4  UNL     1     -16.221 -16.249 -23.497  1.00  0.00     0.282 C 
HETATM    7  O3  UNL     1     -15.827 -17.562 -23.537  1.00  0.00    -0.349 OA
HETATM    8  C5  UNL     1     -15.699 -18.082 -24.798  1.00  0.00     0.179 C 
HETATM    9  C7  UNL     1     -17.003 -18.038 -25.562  1.00  0.00     0.180 C 
BRANCH   5  10
HETATM   10  N1  UNL     1     -18.520 -15.467 -23.293  1.00  0.00    -0.349 N 
HETATM   11  C2  UNL     1     -19.494 -14.504 -23.649  1.00  0.00     0.214 C 
HETATM   12  C1  UNL     1     -20.474 -13.964 -22.663  1.00  0.00     0.117 C 
HETATM   13  O1  UNL     1     -19.548 -14.082 -24.817  1.00  0.00    -0.274 OA
ATOM     14  H1  UNL     1     -18.499 -15.795 -22.328  1.00  0.00     0.163 HD
ENDBRANCH   5  10
BRANCH   6  15
HETATM   15  O2  UNL     1     -16.427 -15.907 -22.164  1.00  0.00    -0.369 OA
ATOM     16  H2  UNL     1     -16.912 -16.624 -21.773  1.00  0.00     0.212 HD
ENDBRANCH   6  15
BRANCH   8  17
HETATM   17  C6  UNL     1     -14.602 -17.419 -25.602  1.00  0.00     0.198 C 
BRANCH  17  18
HETATM   18  O4  UNL     1     -15.110 -16.826 -26.756  1.00  0.00    -0.398 OA
ATOM     19  H4  UNL     1     -14.763 -17.242 -27.537  1.00  0.00     0.209 HD
ENDBRANCH  17  18
ENDBRANCH   8  17
BRANCH   9  20
HETATM   20  O5  UNL     1     -17.480 -19.354 -25.769  1.00  0.00    -0.390 OA
ATOM     21  H5  UNL     1     -18.235 -19.335 -26.344  1.00  0.00     0.210 HD
ENDBRANCH   9  20
ENDBRANCH   3   4
ENDBRANCH   1   3
BRANCH   1  22
HETATM   22  C11 UNL     1     -19.912 -18.700 -23.367  1.00  0.00     0.247 C 
HETATM   23  O7  UNL     1     -20.053 -17.788 -22.524  1.00  0.00    -0.271 OA
HETATM   24  N2  UNL     1     -19.621 -20.001 -22.807  1.00  0.00    -0.346 N 
ATOM     25  H2  UNL     1     -19.495 -20.793 -23.437  1.00  0.00     0.163 HD
BRANCH  24  26
HETATM   26  C12 UNL     1     -19.503 -20.212 -21.381  1.00  0.00     0.172 C 
HETATM   27  C13 UNL     1     -20.107 -21.533 -20.956  1.00  0.00     0.042 C 
BRANCH  26  28
HETATM   28  C14 UNL     1     -18.087 -20.196 -20.938  1.00  0.00     0.240 C 
HETATM   29  O8  UNL     1     -17.272 -19.391 -21.427  1.00  0.00    -0.271 OA
HETATM   30  N3  UNL     1     -17.607 -21.091 -19.942  1.00  0.00    -0.345 N 
ATOM     31  H3  UNL     1     -18.248 -21.763 -19.520  1.00  0.00     0.163 HD
BRANCH  30  32
HETATM   32  C15 UNL     1     -16.203 -21.065 -19.511  1.00  0.00     0.186 C 
BRANCH  32  33
HETATM   33  C16 UNL     1     -15.416 -22.147 -20.191  1.00  0.00     0.045 C 
BRANCH  33  34
HETATM   34  C17 UNL     1     -14.609 -21.714 -21.362  1.00  0.00     0.102 C 
BRANCH  34  35
HETATM   35  C18 UNL     1     -14.994 -22.298 -22.655  1.00  0.00     0.231 C 
HETATM   36  N4  UNL     1     -15.711 -21.520 -23.591  1.00  0.00    -0.062 NA
HETATM   37  O9  UNL     1     -14.694 -23.470 -22.934  1.00  0.00    -0.277 OA
ENDBRANCH  34  35
ENDBRANCH  33  34
ENDBRANCH  32  33
BRANCH  32  38
HETATM   38  C19 UNL     1     -16.106 -21.126 -18.039  1.00  0.00     0.196 C 
HETATM   39  O10 UNL     1     -14.985 -21.269 -17.448  1.00  0.00    -0.646 OA
HETATM   40  O11 UNL     1     -17.211 -21.031 -17.210  1.00  0.00    -0.646 OA
ENDBRANCH  32  38
ENDBRANCH  30  32
ENDBRANCH  26  28
ENDBRANCH  24  26
ENDBRANCH   1  22
TORSDOF 15
ENDMDL
