MODEL 2
REMARK VINA RESULT: -8.625611171      2.124      4.683
REMARK  15 active torsions:
REMARK  status: ('A' for Active; 'I' for Inactive)
REMARK       I    between atoms: C2_2  and  N1_4 
REMARK    1  A    between atoms: N1_4  and  C3_6 
REMARK    2  A    between atoms: C4_7  and  O2_8 
REMARK    3  A    between atoms: C5_11  and  C6_12 
REMARK    4  A    between atoms: C6_12  and  O4_13 
REMARK    5  A    between atoms: C7_15  and  O5_16 
REMARK    6  A    between atoms: C8_18  and  O6_19 
REMARK    7  A    between atoms: O6_19  and  C9_20 
REMARK    8  A    between atoms: C9_20  and  C11_22 
REMARK       I    between atoms: C11_22  and  N2_24 
REMARK    9  A    between atoms: N2_24  and  C12_26 
REMARK   10  A    between atoms: C12_26  and  C14_28 
REMARK       I    between atoms: C14_28  and  N3_30 
REMARK   11  A    between atoms: N3_30  and  C15_32 
REMARK   12  A    between atoms: C15_32  and  C16_33 
REMARK   13  A    between atoms: C15_32  and  C19_38 
REMARK   14  A    between atoms: C16_33  and  C17_34 
REMARK   15  A    between atoms: C17_34  and  C18_35 
ROOT
HETATM    1  C9  UNL     1     -16.852 -18.738 -25.246  1.00  0.00     0.209 C 
HETATM    2  C10 UNL     1     -16.471 -19.033 -26.690  1.00  0.00     0.050 C 
ENDROOT
BRANCH   1   3
HETATM    3  O6  UNL     1     -18.167 -18.314 -25.146  1.00  0.00    -0.367 OA
BRANCH   3   4
HETATM    4  C8  UNL     1     -18.404 -17.461 -24.091  1.00  0.00     0.181 C 
HETATM    5  C3  UNL     1     -19.555 -17.841 -23.202  1.00  0.00     0.171 C 
HETATM    6  C4  UNL     1     -19.495 -16.873 -22.008  1.00  0.00     0.282 C 
HETATM    7  O3  UNL     1     -18.501 -15.937 -22.139  1.00  0.00    -0.349 OA
HETATM    8  C5  UNL     1     -18.582 -15.172 -23.273  1.00  0.00     0.179 C 
HETATM    9  C7  UNL     1     -18.500 -16.011 -24.528  1.00  0.00     0.180 C 
BRANCH   5  10
HETATM   10  N1  UNL     1     -19.358 -19.194 -22.740  1.00  0.00    -0.349 N 
HETATM   11  C2  UNL     1     -20.413 -20.115 -22.536  1.00  0.00     0.214 C 
HETATM   12  C1  UNL     1     -20.172 -21.506 -22.056  1.00  0.00     0.117 C 
HETATM   13  O1  UNL     1     -21.586 -19.769 -22.758  1.00  0.00    -0.274 OA
ATOM     14  H1  UNL     1     -18.405 -19.504 -22.549  1.00  0.00     0.163 HD
ENDBRANCH   5  10
BRANCH   6  15
HETATM   15  O2  UNL     1     -19.207 -17.646 -20.888  1.00  0.00    -0.369 OA
ATOM     16  H2  UNL     1     -18.463 -17.237 -20.462  1.00  0.00     0.212 HD
ENDBRANCH   6  15
BRANCH   8  17
HETATM   17  C6  UNL     1     -19.818 -14.299 -23.309  1.00  0.00     0.198 C 
BRANCH  17  18
HETATM   18  O4  UNL     1     -19.851 -13.425 -22.225  1.00  0.00    -0.398 OA
ATOM     19  H4  UNL     1     -20.216 -12.584 -22.471  1.00  0.00     0.209 HD
ENDBRANCH  17  18
ENDBRANCH   8  17
BRANCH   9  20
HETATM   20  O5  UNL     1     -17.291 -15.737 -25.209  1.00  0.00    -0.390 OA
ATOM     21  H5  UNL     1     -17.344 -16.060 -26.100  1.00  0.00     0.210 HD
ENDBRANCH   9  20
ENDBRANCH   3   4
ENDBRANCH   1   3
BRANCH   1  22
HETATM   22  C11 UNL     1     -16.724 -20.004 -24.490  1.00  0.00     0.247 C 
HETATM   23  O7  UNL     1     -17.440 -21.017 -24.645  1.00  0.00    -0.271 OA
HETATM   24  N2  UNL     1     -15.703 -20.137 -23.475  1.00  0.00    -0.346 N 
ATOM     25  H2  UNL     1     -15.080 -19.349 -23.295  1.00  0.00     0.163 HD
BRANCH  24  26
HETATM   26  C12 UNL     1     -15.539 -21.351 -22.707  1.00  0.00     0.172 C 
HETATM   27  C13 UNL     1     -14.101 -21.824 -22.702  1.00  0.00     0.042 C 
BRANCH  26  28
HETATM   28  C14 UNL     1     -15.964 -21.173 -21.297  1.00  0.00     0.240 C 
HETATM   29  O8  UNL     1     -16.923 -20.434 -21.007  1.00  0.00    -0.271 OA
HETATM   30  N3  UNL     1     -15.299 -21.835 -20.228  1.00  0.00    -0.345 N 
ATOM     31  H3  UNL     1     -14.510 -22.449 -20.431  1.00  0.00     0.163 HD
BRANCH  30  32
HETATM   32  C15 UNL     1     -15.730 -21.651 -18.836  1.00  0.00     0.186 C 
BRANCH  32  33
HETATM   33  C16 UNL     1     -14.551 -21.651 -17.908  1.00  0.00     0.045 C 
BRANCH  33  34
HETATM   34  C17 UNL     1     -14.846 -21.290 -16.496  1.00  0.00     0.102 C 
BRANCH  34  35
HETATM   35  C18 UNL     1     -14.141 -22.076 -15.474  1.00  0.00     0.231 C 
HETATM   36  N4  UNL     1     -13.792 -23.418 -15.738  1.00  0.00    -0.062 NA
HETATM   37  O9  UNL     1     -13.847 -21.570 -14.378  1.00  0.00    -0.277 OA
ENDBRANCH  34  35
ENDBRANCH  33  34
ENDBRANCH  32  33
BRANCH  32  38
HETATM   38  C19 UNL     1     -16.748 -22.655 -18.467  1.00  0.00     0.196 C 
HETATM   39  O10 UNL     1     -17.996 -22.423 -18.602  1.00  0.00    -0.646 OA
HETATM   40  O11 UNL     1     -16.424 -23.900 -17.956  1.00  0.00    -0.646 OA
ENDBRANCH  32  38
ENDBRANCH  30  32
ENDBRANCH  26  28
ENDBRANCH  24  26
ENDBRANCH   1  22
TORSDOF 15
ENDMDL
