MODEL 3
REMARK VINA RESULT: -8.499720967      2.004      7.570
REMARK  15 active torsions:
REMARK  status: ('A' for Active; 'I' for Inactive)
REMARK       I    between atoms: C2_2  and  N1_4 
REMARK    1  A    between atoms: N1_4  and  C3_6 
REMARK    2  A    between atoms: C4_7  and  O2_8 
REMARK    3  A    between atoms: C5_11  and  C6_12 
REMARK    4  A    between atoms: C6_12  and  O4_13 
REMARK    5  A    between atoms: C7_15  and  O5_16 
REMARK    6  A    between atoms: C8_18  and  O6_19 
REMARK    7  A    between atoms: O6_19  and  C9_20 
REMARK    8  A    between atoms: C9_20  and  C11_22 
REMARK       I    between atoms: C11_22  and  N2_24 
REMARK    9  A    between atoms: N2_24  and  C12_26 
REMARK   10  A    between atoms: C12_26  and  C14_28 
REMARK       I    between atoms: C14_28  and  N3_30 
REMARK   11  A    between atoms: N3_30  and  C15_32 
REMARK   12  A    between atoms: C15_32  and  C16_33 
REMARK   13  A    between atoms: C15_32  and  C19_38 
REMARK   14  A    between atoms: C16_33  and  C17_34 
REMARK   15  A    between atoms: C17_34  and  C18_35 
ROOT
HETATM    1  C9  UNL     1     -15.481 -21.026 -22.676  1.00  0.00     0.209 C 
HETATM    2  C10 UNL     1     -14.194 -21.718 -23.103  1.00  0.00     0.050 C 
ENDROOT
BRANCH   1   3
HETATM    3  O6  UNL     1     -15.394 -20.552 -21.377  1.00  0.00    -0.367 OA
BRANCH   3   4
HETATM    4  C8  UNL     1     -16.184 -21.234 -20.477  1.00  0.00     0.181 C 
HETATM    5  C3  UNL     1     -17.510 -20.595 -20.172  1.00  0.00     0.171 C 
HETATM    6  C4  UNL     1     -18.278 -21.619 -19.319  1.00  0.00     0.282 C 
HETATM    7  O3  UNL     1     -17.529 -22.732 -19.033  1.00  0.00    -0.349 OA
HETATM    8  C5  UNL     1     -16.348 -22.477 -18.387  1.00  0.00     0.179 C 
HETATM    9  C7  UNL     1     -15.438 -21.589 -19.205  1.00  0.00     0.180 C 
BRANCH   5  10
HETATM   10  N1  UNL     1     -18.214 -20.371 -21.412  1.00  0.00    -0.349 N 
HETATM   11  C2  UNL     1     -19.289 -19.461 -21.550  1.00  0.00     0.214 C 
HETATM   12  C1  UNL     1     -19.994 -19.256 -22.848  1.00  0.00     0.117 C 
HETATM   13  O1  UNL     1     -19.672 -18.803 -20.567  1.00  0.00    -0.274 OA
ATOM     14  H1  UNL     1     -17.921 -20.898 -22.234  1.00  0.00     0.163 HD
ENDBRANCH   5  10
BRANCH   6  15
HETATM   15  O2  UNL     1     -19.371 -22.025 -20.079  1.00  0.00    -0.369 OA
ATOM     16  H2  UNL     1     -19.915 -22.553 -19.507  1.00  0.00     0.212 HD
ENDBRANCH   6  15
BRANCH   8  17
HETATM   17  C6  UNL     1     -16.546 -21.889 -17.006  1.00  0.00     0.198 C 
BRANCH  17  18
HETATM   18  O4  UNL     1     -16.191 -22.801 -16.014  1.00  0.00    -0.398 OA
ATOM     19  H4  UNL     1     -16.646 -22.620 -15.201  1.00  0.00     0.209 HD
ENDBRANCH  17  18
ENDBRANCH   8  17
BRANCH   9  20
HETATM   20  O5  UNL     1     -14.302 -22.323 -19.621  1.00  0.00    -0.390 OA
ATOM     21  H5  UNL     1     -14.213 -22.268 -20.565  1.00  0.00     0.210 HD
ENDBRANCH   9  20
ENDBRANCH   3   4
ENDBRANCH   1   3
BRANCH   1  22
HETATM   22  C11 UNL     1     -15.673 -19.863 -23.571  1.00  0.00     0.247 C 
HETATM   23  O7  UNL     1     -15.426 -18.673 -23.277  1.00  0.00    -0.271 OA
HETATM   24  N2  UNL     1     -16.184 -20.060 -24.909  1.00  0.00    -0.346 N 
ATOM     25  H2  UNL     1     -16.406 -21.007 -25.219  1.00  0.00     0.163 HD
BRANCH  24  26
HETATM   26  C12 UNL     1     -16.391 -18.957 -25.821  1.00  0.00     0.172 C 
HETATM   27  C13 UNL     1     -16.575 -19.432 -27.247  1.00  0.00     0.042 C 
BRANCH  26  28
HETATM   28  C14 UNL     1     -17.583 -18.154 -25.453  1.00  0.00     0.240 C 
HETATM   29  O8  UNL     1     -18.718 -18.472 -25.857  1.00  0.00    -0.271 OA
HETATM   30  N3  UNL     1     -17.480 -17.000 -24.629  1.00  0.00    -0.345 N 
ATOM     31  H3  UNL     1     -16.566 -16.712 -24.280  1.00  0.00     0.163 HD
BRANCH  30  32
HETATM   32  C15 UNL     1     -18.669 -16.214 -24.271  1.00  0.00     0.186 C 
BRANCH  32  33
HETATM   33  C16 UNL     1     -18.801 -15.012 -25.160  1.00  0.00     0.045 C 
BRANCH  33  34
HETATM   34  C17 UNL     1     -20.187 -14.674 -25.579  1.00  0.00     0.102 C 
BRANCH  34  35
HETATM   35  C18 UNL     1     -20.574 -13.264 -25.432  1.00  0.00     0.231 C 
HETATM   36  N4  UNL     1     -20.966 -12.521 -26.567  1.00  0.00    -0.062 NA
HETATM   37  O9  UNL     1     -20.561 -12.717 -24.316  1.00  0.00    -0.277 OA
ENDBRANCH  34  35
ENDBRANCH  33  34
ENDBRANCH  32  33
BRANCH  32  38
HETATM   38  C19 UNL     1     -18.652 -15.865 -22.836  1.00  0.00     0.196 C 
HETATM   39  O10 UNL     1     -17.565 -15.833 -22.168  1.00  0.00    -0.646 OA
HETATM   40  O11 UNL     1     -19.798 -15.553 -22.126  1.00  0.00    -0.646 OA
ENDBRANCH  32  38
ENDBRANCH  30  32
ENDBRANCH  26  28
ENDBRANCH  24  26
ENDBRANCH   1  22
TORSDOF 15
ENDMDL
