MODEL 3
REMARK VINA RESULT: -8.977565816      1.208      1.280
REMARK  6 active torsions:
REMARK  status: ('A' for Active; 'I' for Inactive)
REMARK       I    between atoms: C1_2  and  N1_3 
REMARK    1  A    between atoms: C1_2  and  C15_29 
REMARK    2  A    between atoms: N1_3  and  C2_5 
REMARK    3  A    between atoms: C2_5  and  C3_6 
REMARK    4  A    between atoms: C4_9  and  N3_10 
REMARK    5  A    between atoms: N3_10  and  C5_12 
REMARK    6  A    between atoms: C7_14  and  C8_15 
ROOT
HETATM    1  C3  UNL     1     -15.267   6.132   9.630  1.00  0.00     0.116 A 
HETATM    2  N2  UNL     1     -16.195   5.499  10.373  1.00  0.00    -0.328 N 
ATOM      3  H2  UNL     1     -16.179   4.480  10.416  1.00  0.00     0.169 HD
HETATM    4  C4  UNL     1     -17.149   6.166  11.066  1.00  0.00     0.137 A 
HETATM    5  C11 UNL     1     -17.130   7.546  10.976  1.00  0.00     0.100 A 
HETATM    6  C12 UNL     1     -17.953   8.495  11.552  1.00  0.00     0.037 A 
HETATM    7  C13 UNL     1     -17.528   9.751  11.159  1.00  0.00     0.022 A 
HETATM    8  C14 UNL     1     -16.440   9.517  10.340  1.00  0.00     0.117 A 
HETATM    9  N6  UNL     1     -16.206   8.193  10.235  1.00  0.00    -0.263 N 
HETATM   10  N7  UNL     1     -15.309   7.473   9.589  1.00  0.00    -0.281 N 
ATOM     11  H7  UNL     1     -14.610   7.961   9.028  1.00  0.00     0.189 HD
ENDROOT
BRANCH   1  12
HETATM   12  C2  UNL     1     -14.219   5.364   8.865  1.00  0.00     0.200 C 
BRANCH  12  13
HETATM   13  N1  UNL     1     -13.654   4.394   9.804  1.00  0.00    -0.350 N 
HETATM   14  C1  UNL     1     -14.198   3.124  10.015  1.00  0.00     0.253 C 
HETATM   15  O1  UNL     1     -15.240   2.829   9.338  1.00  0.00    -0.268 OA
ATOM     16  H1  UNL     1     -12.822   4.659  10.332  1.00  0.00     0.163 HD
BRANCH  14  17
HETATM   17  C15 UNL     1     -13.623   2.176  10.949  1.00  0.00     0.047 A 
HETATM   18  C16 UNL     1     -14.326   1.115  11.446  1.00  0.00     0.023 A 
HETATM   19  C17 UNL     1     -13.693   0.262  12.340  1.00  0.00     0.062 A 
HETATM   20  C18 UNL     1     -12.388   0.453  12.737  1.00  0.00     0.188 A 
HETATM   21  F1  UNL     1     -11.769  -0.377  13.609  1.00  0.00    -0.186 F 
HETATM   22  N8  UNL     1     -11.753   1.528  12.202  1.00  0.00    -0.342 N 
HETATM   23  C19 UNL     1     -12.320   2.370  11.343  1.00  0.00     0.107 A 
ATOM     24  H8  UNL     1     -10.785   1.699  12.476  1.00  0.00     0.167 HD
ENDBRANCH  14  17
ENDBRANCH  12  13
ENDBRANCH   1  12
BRANCH   4  25
HETATM   25  N3  UNL     1     -18.131   5.543  11.856  1.00  0.00    -0.326 N 
ATOM     26  H3  UNL     1     -18.861   6.131  12.258  1.00  0.00     0.169 HD
BRANCH  25  27
HETATM   27  C5  UNL     1     -18.176   4.149  12.132  1.00  0.00     0.123 A 
HETATM   28  C6  UNL     1     -18.817   3.473  13.144  1.00  0.00     0.076 A 
HETATM   29  C7  UNL     1     -18.584   2.105  13.014  1.00  0.00     0.033 A 
HETATM   30  N4  UNL     1     -17.818   1.989  11.938  1.00  0.00    -0.303 N 
HETATM   31  N5  UNL     1     -17.570   3.173  11.411  1.00  0.00    -0.285 N 
ATOM     32  H4  UNL     1     -17.467   1.105  11.568  1.00  0.00     0.186 HD
ATOM     33  H5  UNL     1     -17.003   3.332  10.579  1.00  0.00     0.188 HD
BRANCH  29  34
HETATM   34  C8  UNL     1     -19.122   1.071  13.935  1.00  0.00     0.037 A 
HETATM   35  C9  UNL     1     -18.352  -0.153  14.209  1.00  0.00     0.011 A 
HETATM   36  C10 UNL     1     -19.457  -0.222  13.232  1.00  0.00     0.011 A 
ENDBRANCH  29  34
ENDBRANCH  25  27
ENDBRANCH   4  25
TORSDOF 6
ENDMDL
