MODEL 6
REMARK VINA RESULT: -8.789845988      2.293      5.209
REMARK  6 active torsions:
REMARK  status: ('A' for Active; 'I' for Inactive)
REMARK       I    between atoms: C1_2  and  N1_3 
REMARK    1  A    between atoms: C1_2  and  C15_29 
REMARK    2  A    between atoms: N1_3  and  C2_5 
REMARK    3  A    between atoms: C2_5  and  C3_6 
REMARK    4  A    between atoms: C4_9  and  N3_10 
REMARK    5  A    between atoms: N3_10  and  C5_12 
REMARK    6  A    between atoms: C7_14  and  C8_15 
ROOT
HETATM    1  C3  UNL     1     -17.372   6.874  11.297  1.00  0.00     0.116 A 
HETATM    2  N2  UNL     1     -16.629   6.113  10.470  1.00  0.00    -0.328 N 
ATOM      3  H2  UNL     1     -16.725   5.098  10.517  1.00  0.00     0.169 HD
HETATM    4  C4  UNL     1     -15.759   6.645   9.579  1.00  0.00     0.137 A 
HETATM    5  C11 UNL     1     -15.663   8.024   9.553  1.00  0.00     0.100 A 
HETATM    6  C12 UNL     1     -14.882   8.856   8.774  1.00  0.00     0.037 A 
HETATM    7  C13 UNL     1     -15.143  10.168   9.122  1.00  0.00     0.022 A 
HETATM    8  C14 UNL     1     -16.093  10.087  10.121  1.00  0.00     0.117 A 
HETATM    9  N6  UNL     1     -16.401   8.799  10.375  1.00  0.00    -0.263 N 
HETATM   10  N7  UNL     1     -17.228   8.206  11.217  1.00  0.00    -0.281 N 
ATOM     11  H7  UNL     1     -17.786   8.790  11.839  1.00  0.00     0.189 HD
ENDROOT
BRANCH   1  12
HETATM   12  C2  UNL     1     -18.330   6.254  12.282  1.00  0.00     0.200 C 
BRANCH  12  13
HETATM   13  N1  UNL     1     -18.160   4.806  12.166  1.00  0.00    -0.350 N 
HETATM   14  C1  UNL     1     -18.808   3.888  12.996  1.00  0.00     0.253 C 
HETATM   15  O1  UNL     1     -19.579   4.373  13.892  1.00  0.00    -0.268 OA
ATOM     16  H1  UNL     1     -17.536   4.449  11.442  1.00  0.00     0.163 HD
BRANCH  14  17
HETATM   17  C15 UNL     1     -18.627   2.455  12.865  1.00  0.00     0.047 A 
HETATM   18  C16 UNL     1     -19.145   1.564  13.761  1.00  0.00     0.023 A 
HETATM   19  C17 UNL     1     -18.915   0.210  13.555  1.00  0.00     0.062 A 
HETATM   20  C18 UNL     1     -18.189  -0.256  12.483  1.00  0.00     0.188 A 
HETATM   21  F1  UNL     1     -17.964  -1.575  12.280  1.00  0.00    -0.186 F 
HETATM   22  N8  UNL     1     -17.706   0.689  11.634  1.00  0.00    -0.342 N 
HETATM   23  C19 UNL     1     -17.901   1.994  11.792  1.00  0.00     0.107 A 
ATOM     24  H8  UNL     1     -17.162   0.378  10.829  1.00  0.00     0.167 HD
ENDBRANCH  14  17
ENDBRANCH  12  13
ENDBRANCH   1  12
BRANCH   4  25
HETATM   25  N3  UNL     1     -14.970   5.885   8.697  1.00  0.00    -0.326 N 
ATOM     26  H3  UNL     1     -15.039   6.090   7.700  1.00  0.00     0.169 HD
BRANCH  25  27
HETATM   27  C5  UNL     1     -14.081   4.851   9.100  1.00  0.00     0.123 A 
HETATM   28  C6  UNL     1     -14.357   3.580   9.550  1.00  0.00     0.076 A 
HETATM   29  C7  UNL     1     -13.165   2.912   9.826  1.00  0.00     0.033 A 
HETATM   30  N4  UNL     1     -12.209   3.786   9.540  1.00  0.00    -0.303 N 
HETATM   31  N5  UNL     1     -12.727   4.922   9.115  1.00  0.00    -0.285 N 
ATOM     32  H4  UNL     1     -11.209   3.604   9.636  1.00  0.00     0.186 HD
ATOM     33  H5  UNL     1     -12.185   5.740   8.837  1.00  0.00     0.188 HD
BRANCH  29  34
HETATM   34  C8  UNL     1     -13.082   1.519  10.332  1.00  0.00     0.037 A 
HETATM   35  C9  UNL     1     -13.966   1.068  11.419  1.00  0.00     0.011 A 
HETATM   36  C10 UNL     1     -12.576   1.440  11.752  1.00  0.00     0.011 A 
ENDBRANCH  29  34
ENDBRANCH  25  27
ENDBRANCH   4  25
TORSDOF 6
ENDMDL
