MODEL 2
REMARK VINA RESULT: -8.980216262      2.682      5.484
REMARK  6 active torsions:
REMARK  status: ('A' for Active; 'I' for Inactive)
REMARK       I    between atoms: C1_2  and  N1_3 
REMARK    1  A    between atoms: C1_2  and  C15_29 
REMARK    2  A    between atoms: N1_3  and  C2_5 
REMARK    3  A    between atoms: C2_5  and  C3_6 
REMARK    4  A    between atoms: C4_9  and  N3_10 
REMARK    5  A    between atoms: N3_10  and  C5_12 
REMARK    6  A    between atoms: C7_14  and  C8_15 
ROOT
HETATM    1  C3  UNL     1     -15.424   6.839   9.545  1.00  0.00     0.116 A 
HETATM    2  N2  UNL     1     -14.830   5.650   9.323  1.00  0.00    -0.328 N 
ATOM      3  H2  UNL     1     -15.296   4.801   9.643  1.00  0.00     0.169 HD
HETATM    4  C4  UNL     1     -13.637   5.541   8.691  1.00  0.00     0.137 A 
HETATM    5  C11 UNL     1     -13.044   6.719   8.277  1.00  0.00     0.100 A 
HETATM    6  C12 UNL     1     -11.850   6.941   7.619  1.00  0.00     0.037 A 
HETATM    7  C13 UNL     1     -11.693   8.301   7.425  1.00  0.00     0.022 A 
HETATM    8  C14 UNL     1     -12.821   8.871   7.983  1.00  0.00     0.117 A 
HETATM    9  N6  UNL     1     -13.627   7.917   8.493  1.00  0.00    -0.263 N 
HETATM   10  N7  UNL     1     -14.791   7.941   9.115  1.00  0.00    -0.281 N 
ATOM     11  H7  UNL     1     -15.233   8.846   9.279  1.00  0.00     0.189 HD
ENDROOT
BRANCH   1  12
HETATM   12  C2  UNL     1     -16.751   6.931  10.254  1.00  0.00     0.200 C 
BRANCH  12  13
HETATM   13  N1  UNL     1     -16.882   5.705  11.041  1.00  0.00    -0.350 N 
HETATM   14  C1  UNL     1     -17.417   4.519  10.531  1.00  0.00     0.253 C 
HETATM   15  O1  UNL     1     -17.803   4.544   9.314  1.00  0.00    -0.268 OA
ATOM     16  H1  UNL     1     -16.567   5.716  12.011  1.00  0.00     0.163 HD
BRANCH  14  17
HETATM   17  C15 UNL     1     -17.538   3.313  11.327  1.00  0.00     0.047 A 
HETATM   18  C16 UNL     1     -16.744   2.219  11.128  1.00  0.00     0.023 A 
HETATM   19  C17 UNL     1     -16.936   1.107  11.937  1.00  0.00     0.062 A 
HETATM   20  C18 UNL     1     -17.895   1.075  12.925  1.00  0.00     0.188 A 
HETATM   21  F1  UNL     1     -18.085  -0.008  13.714  1.00  0.00    -0.186 F 
HETATM   22  N8  UNL     1     -18.646   2.198  13.063  1.00  0.00    -0.342 N 
HETATM   23  C19 UNL     1     -18.497   3.285  12.311  1.00  0.00     0.107 A 
ATOM     24  H8  UNL     1     -19.367   2.208  13.785  1.00  0.00     0.167 HD
ENDBRANCH  14  17
ENDBRANCH  12  13
ENDBRANCH   1  12
BRANCH   4  25
HETATM   25  N3  UNL     1     -12.988   4.320   8.437  1.00  0.00    -0.326 N 
ATOM     26  H3  UNL     1     -12.444   4.240   7.578  1.00  0.00     0.169 HD
BRANCH  25  27
HETATM   27  C5  UNL     1     -13.037   3.188   9.297  1.00  0.00     0.123 A 
HETATM   28  C6  UNL     1     -12.503   3.014  10.553  1.00  0.00     0.076 A 
HETATM   29  C7  UNL     1     -12.808   1.735  11.018  1.00  0.00     0.033 A 
HETATM   30  N4  UNL     1     -13.511   1.175  10.044  1.00  0.00    -0.303 N 
HETATM   31  N5  UNL     1     -13.654   2.010   9.032  1.00  0.00    -0.285 N 
ATOM     32  H4  UNL     1     -13.891   0.228  10.072  1.00  0.00     0.186 HD
ATOM     33  H5  UNL     1     -14.158   1.799   8.171  1.00  0.00     0.188 HD
BRANCH  29  34
HETATM   34  C8  UNL     1     -12.389   1.201  12.339  1.00  0.00     0.037 A 
HETATM   35  C9  UNL     1     -11.757  -0.124  12.439  1.00  0.00     0.011 A 
HETATM   36  C10 UNL     1     -13.192  -0.003  12.764  1.00  0.00     0.011 A 
ENDBRANCH  29  34
ENDBRANCH  25  27
ENDBRANCH   4  25
TORSDOF 6
ENDMDL
