MODEL 5
REMARK VINA RESULT: -8.810919304      2.575      5.642
REMARK  6 active torsions:
REMARK  status: ('A' for Active; 'I' for Inactive)
REMARK       I    between atoms: C1_2  and  N1_3 
REMARK    1  A    between atoms: C1_2  and  C15_29 
REMARK    2  A    between atoms: N1_3  and  C2_5 
REMARK    3  A    between atoms: C2_5  and  C3_6 
REMARK    4  A    between atoms: C4_9  and  N3_10 
REMARK    5  A    between atoms: N3_10  and  C5_12 
REMARK    6  A    between atoms: C7_14  and  C8_15 
ROOT
HETATM    1  C3  UNL     1     -15.940   6.381   9.951  1.00  0.00     0.116 A 
HETATM    2  N2  UNL     1     -15.003   5.436  10.158  1.00  0.00    -0.328 N 
ATOM      3  H2  UNL     1     -15.182   4.709  10.851  1.00  0.00     0.169 HD
HETATM    4  C4  UNL     1     -13.831   5.415   9.478  1.00  0.00     0.137 A 
HETATM    5  C11 UNL     1     -13.634   6.420   8.550  1.00  0.00     0.100 A 
HETATM    6  C12 UNL     1     -12.565   6.673   7.712  1.00  0.00     0.037 A 
HETATM    7  C13 UNL     1     -12.841   7.803   6.964  1.00  0.00     0.022 A 
HETATM    8  C14 UNL     1     -14.094   8.207   7.382  1.00  0.00     0.117 A 
HETATM    9  N6  UNL     1     -14.565   7.374   8.333  1.00  0.00    -0.263 N 
HETATM   10  N7  UNL     1     -15.682   7.326   9.035  1.00  0.00    -0.281 N 
ATOM     11  H7  UNL     1     -16.386   8.046   8.872  1.00  0.00     0.189 HD
ENDROOT
BRANCH   1  12
HETATM   12  C2  UNL     1     -17.234   6.382  10.725  1.00  0.00     0.200 C 
BRANCH  12  13
HETATM   13  N1  UNL     1     -17.394   5.030  11.260  1.00  0.00    -0.350 N 
HETATM   14  C1  UNL     1     -18.303   4.708  12.272  1.00  0.00     0.253 C 
HETATM   15  O1  UNL     1     -19.011   5.667  12.731  1.00  0.00    -0.268 OA
ATOM     16  H1  UNL     1     -16.813   4.285  10.875  1.00  0.00     0.163 HD
BRANCH  14  17
HETATM   17  C15 UNL     1     -18.448   3.360  12.789  1.00  0.00     0.047 A 
HETATM   18  C16 UNL     1     -18.069   2.256  12.079  1.00  0.00     0.023 A 
HETATM   19  C17 UNL     1     -18.251   1.006  12.654  1.00  0.00     0.062 A 
HETATM   20  C18 UNL     1     -18.798   0.848  13.908  1.00  0.00     0.188 A 
HETATM   21  F1  UNL     1     -18.977  -0.370  14.471  1.00  0.00    -0.186 F 
HETATM   22  N8  UNL     1     -19.151   1.990  14.553  1.00  0.00    -0.342 N 
HETATM   23  C19 UNL     1     -18.994   3.207  14.041  1.00  0.00     0.107 A 
ATOM     24  H8  UNL     1     -19.560   1.909  15.484  1.00  0.00     0.167 HD
ENDBRANCH  14  17
ENDBRANCH  12  13
ENDBRANCH   1  12
BRANCH   4  25
HETATM   25  N3  UNL     1     -12.831   4.444   9.661  1.00  0.00    -0.326 N 
ATOM     26  H3  UNL     1     -11.870   4.703   9.438  1.00  0.00     0.169 HD
BRANCH  25  27
HETATM   27  C5  UNL     1     -13.067   3.125  10.137  1.00  0.00     0.123 A 
HETATM   28  C6  UNL     1     -12.657   2.524  11.304  1.00  0.00     0.076 A 
HETATM   29  C7  UNL     1     -13.130   1.213  11.348  1.00  0.00     0.033 A 
HETATM   30  N4  UNL     1     -13.807   1.056  10.219  1.00  0.00    -0.303 N 
HETATM   31  N5  UNL     1     -13.779   2.162   9.500  1.00  0.00    -0.285 N 
ATOM     32  H4  UNL     1     -14.283   0.197   9.943  1.00  0.00     0.186 HD
ATOM     33  H5  UNL     1     -14.231   2.278   8.593  1.00  0.00     0.188 HD
BRANCH  29  34
HETATM   34  C8  UNL     1     -12.878   0.267  12.464  1.00  0.00     0.037 A 
HETATM   35  C9  UNL     1     -11.915   0.607  13.524  1.00  0.00     0.011 A 
HETATM   36  C10 UNL     1     -11.481  -0.303  12.445  1.00  0.00     0.011 A 
ENDBRANCH  29  34
ENDBRANCH  25  27
ENDBRANCH   4  25
TORSDOF 6
ENDMDL
