MODEL 1
REMARK VINA RESULT: -10.204599769      0.000      0.000
REMARK  6 active torsions:
REMARK  status: ('A' for Active; 'I' for Inactive)
REMARK       I    between atoms: C1_2  and  N1_3 
REMARK    1  A    between atoms: C1_2  and  C15_29 
REMARK    2  A    between atoms: N1_3  and  C2_5 
REMARK    3  A    between atoms: C2_5  and  C3_6 
REMARK    4  A    between atoms: C4_9  and  N3_10 
REMARK    5  A    between atoms: N3_10  and  C5_12 
REMARK    6  A    between atoms: C7_14  and  C8_15 
ROOT
HETATM    1  C3  UNL     1     -16.184   5.353   9.855  1.00  0.00     0.116 A 
HETATM    2  N2  UNL     1     -17.057   4.914  10.782  1.00  0.00    -0.328 N 
ATOM      3  H2  UNL     1     -17.197   3.909  10.889  1.00  0.00     0.169 HD
HETATM    4  C4  UNL     1     -17.756   5.758  11.578  1.00  0.00     0.137 A 
HETATM    5  C11 UNL     1     -17.533   7.110  11.396  1.00  0.00     0.100 A 
HETATM    6  C12 UNL     1     -18.080   8.206  12.037  1.00  0.00     0.037 A 
HETATM    7  C13 UNL     1     -17.535   9.356  11.497  1.00  0.00     0.022 A 
HETATM    8  C14 UNL     1     -16.659   8.911  10.526  1.00  0.00     0.117 A 
HETATM    9  N6  UNL     1     -16.661   7.564  10.471  1.00  0.00    -0.263 N 
HETATM   10  N7  UNL     1     -16.017   6.678   9.733  1.00  0.00    -0.281 N 
ATOM     11  H7  UNL     1     -15.358   7.020   9.033  1.00  0.00     0.189 HD
ENDROOT
BRANCH   1  12
HETATM   12  C2  UNL     1     -15.422   4.390   8.979  1.00  0.00     0.200 C 
BRANCH  12  13
HETATM   13  N1  UNL     1     -14.552   3.625   9.871  1.00  0.00    -0.350 N 
HETATM   14  C1  UNL     1     -14.885   2.363  10.373  1.00  0.00     0.253 C 
HETATM   15  O1  UNL     1     -16.016   1.887  10.016  1.00  0.00    -0.268 OA
ATOM     16  H1  UNL     1     -13.656   4.032  10.140  1.00  0.00     0.163 HD
BRANCH  14  17
HETATM   17  C15 UNL     1     -14.008   1.619  11.256  1.00  0.00     0.047 A 
HETATM   18  C16 UNL     1     -14.444   0.563  12.005  1.00  0.00     0.023 A 
HETATM   19  C17 UNL     1     -13.531  -0.086  12.826  1.00  0.00     0.062 A 
HETATM   20  C18 UNL     1     -12.211   0.299  12.905  1.00  0.00     0.188 A 
HETATM   21  F1  UNL     1     -11.320  -0.332  13.704  1.00  0.00    -0.186 F 
HETATM   22  N8  UNL     1     -11.852   1.357  12.131  1.00  0.00    -0.342 N 
HETATM   23  C19 UNL     1     -12.692   2.008  11.332  1.00  0.00     0.107 A 
ATOM     24  H8  UNL     1     -10.882   1.670  12.166  1.00  0.00     0.167 HD
ENDBRANCH  14  17
ENDBRANCH  12  13
ENDBRANCH   1  12
BRANCH   4  25
HETATM   25  N3  UNL     1     -18.672   5.340  12.560  1.00  0.00    -0.326 N 
ATOM     26  H3  UNL     1     -19.336   6.028  12.915  1.00  0.00     0.169 HD
BRANCH  25  27
HETATM   27  C5  UNL     1     -18.736   4.022  13.090  1.00  0.00     0.123 A 
HETATM   28  C6  UNL     1     -18.424   2.819  12.500  1.00  0.00     0.076 A 
HETATM   29  C7  UNL     1     -18.639   1.782  13.406  1.00  0.00     0.033 A 
HETATM   30  N4  UNL     1     -19.071   2.377  14.510  1.00  0.00    -0.303 N 
HETATM   31  N5  UNL     1     -19.133   3.684  14.342  1.00  0.00    -0.285 N 
ATOM     32  H4  UNL     1     -19.321   1.890  15.372  1.00  0.00     0.186 HD
ATOM     33  H5  UNL     1     -19.438   4.348  15.054  1.00  0.00     0.188 HD
BRANCH  29  34
HETATM   34  C8  UNL     1     -18.407   0.346  13.109  1.00  0.00     0.037 A 
HETATM   35  C9  UNL     1     -18.374  -0.129  11.716  1.00  0.00     0.011 A 
HETATM   36  C10 UNL     1     -19.611  -0.327  12.498  1.00  0.00     0.011 A 
ENDBRANCH  29  34
ENDBRANCH  25  27
ENDBRANCH   4  25
TORSDOF 6
ENDMDL
