MODEL 3
REMARK VINA RESULT: -7.225287839      1.617      2.233
REMARK  9 active torsions:
REMARK  status: ('A' for Active; 'I' for Inactive)
REMARK    1  A    between atoms: O1_2  and  C2_3 
REMARK    2  A    between atoms: C5_6  and  S1_7 
REMARK    3  A    between atoms: S1_7  and  N1_10 
REMARK    4  A    between atoms: N1_10  and  C6_11 
REMARK    5  A    between atoms: N1_10  and  C8_15 
REMARK    6  A    between atoms: C6_11  and  C7_12 
REMARK    7  A    between atoms: C7_12  and  O4_13 
REMARK    8  A    between atoms: C8_15  and  C9_16 
REMARK       I    between atoms: C9_16  and  N2_18 
REMARK    9  A    between atoms: N2_18  and  O6_20 
ROOT
HETATM    1  N1  UNL     1      -1.414  -5.103  -3.522  1.00  0.00    -0.196 NA
ENDROOT
BRANCH   1   2
HETATM    2  S1  UNL     1      -1.302  -5.937  -4.995  1.00  0.00     0.244 S 
HETATM    3  O2  UNL     1      -0.311  -5.232  -5.882  1.00  0.00    -0.206 OA
HETATM    4  O3  UNL     1      -0.765  -7.342  -4.771  1.00  0.00    -0.206 OA
BRANCH   2   5
HETATM    5  C5  UNL     1      -2.771  -6.090  -5.885  1.00  0.00     0.074 A 
HETATM    6  C4  UNL     1      -2.795  -5.567  -7.163  1.00  0.00     0.027 A 
HETATM    7  C3  UNL     1      -3.918  -5.621  -7.975  1.00  0.00     0.038 A 
HETATM    8  C2  UNL     1      -5.061  -6.216  -7.509  1.00  0.00     0.068 A 
HETATM    9  C11 UNL     1      -5.040  -6.738  -6.234  1.00  0.00     0.038 A 
HETATM   10  C10 UNL     1      -3.926  -6.687  -5.421  1.00  0.00     0.027 A 
BRANCH   8  11
HETATM   11  O1  UNL     1      -6.207  -6.283  -8.311  1.00  0.00    -0.356 OA
HETATM   12  C1  UNL     1      -6.209  -6.992  -9.533  1.00  0.00     0.210 C 
ENDBRANCH   8  11
ENDBRANCH   2   5
ENDBRANCH   1   2
BRANCH   1  13
HETATM   13  C6  UNL     1      -1.621  -6.003  -2.415  1.00  0.00     0.134 C 
BRANCH  13  14
HETATM   14  C7  UNL     1      -0.378  -6.187  -1.574  1.00  0.00     0.179 C 
BRANCH  14  15
HETATM   15  O4  UNL     1       0.132  -7.457  -1.928  1.00  0.00    -0.400 OA
ATOM     16  H4  UNL     1       0.761  -7.674  -1.250  1.00  0.00     0.209 HD
ENDBRANCH  14  15
ENDBRANCH  13  14
ENDBRANCH   1  13
BRANCH   1  17
HETATM   17  C8  UNL     1      -2.548  -4.205  -3.587  1.00  0.00     0.212 C 
BRANCH  17  18
HETATM   18  C9  UNL     1      -2.146  -2.837  -3.998  1.00  0.00     0.255 C 
HETATM   19  O5  UNL     1      -1.847  -2.003  -3.107  1.00  0.00    -0.270 OA
HETATM   20  N2  UNL     1      -2.098  -2.470  -5.354  1.00  0.00    -0.236 N 
ATOM     21  H2  UNL     1      -2.342  -3.153  -6.072  1.00  0.00     0.197 HD
BRANCH  20  22
HETATM   22  O6  UNL     1      -1.727  -1.207  -5.720  1.00  0.00    -0.287 OA
ATOM     23  H6  UNL     1      -2.376  -0.518  -5.809  1.00  0.00     0.244 HD
ENDBRANCH  20  22
ENDBRANCH  17  18
ENDBRANCH   1  17
TORSDOF 9
ENDMDL
