MODEL 14
REMARK VINA RESULT: -7.016528770      1.700      2.115
REMARK  9 active torsions:
REMARK  status: ('A' for Active; 'I' for Inactive)
REMARK    1  A    between atoms: O1_2  and  C2_3 
REMARK    2  A    between atoms: C5_6  and  S1_7 
REMARK    3  A    between atoms: S1_7  and  N1_10 
REMARK    4  A    between atoms: N1_10  and  C6_11 
REMARK    5  A    between atoms: N1_10  and  C8_15 
REMARK    6  A    between atoms: C6_11  and  C7_12 
REMARK    7  A    between atoms: C7_12  and  O4_13 
REMARK    8  A    between atoms: C8_15  and  C9_16 
REMARK       I    between atoms: C9_16  and  N2_18 
REMARK    9  A    between atoms: N2_18  and  O6_20 
ROOT
HETATM    1  N1  UNL     1      -1.991  -4.294  -4.170  1.00  0.00    -0.196 NA
ENDROOT
BRANCH   1   2
HETATM    2  S1  UNL     1      -1.834  -5.621  -5.215  1.00  0.00     0.244 S 
HETATM    3  O2  UNL     1      -0.606  -5.433  -6.064  1.00  0.00    -0.206 OA
HETATM    4  O3  UNL     1      -1.624  -6.901  -4.422  1.00  0.00    -0.206 OA
BRANCH   2   5
HETATM    5  C5  UNL     1      -3.161  -5.897  -6.283  1.00  0.00     0.074 A 
HETATM    6  C4  UNL     1      -4.351  -6.312  -5.721  1.00  0.00     0.027 A 
HETATM    7  C3  UNL     1      -5.486  -6.572  -6.474  1.00  0.00     0.038 A 
HETATM    8  C2  UNL     1      -5.445  -6.415  -7.835  1.00  0.00     0.068 A 
HETATM    9  C11 UNL     1      -4.258  -6.001  -8.398  1.00  0.00     0.038 A 
HETATM   10  C10 UNL     1      -3.125  -5.741  -7.654  1.00  0.00     0.027 A 
BRANCH   8  11
HETATM   11  O1  UNL     1      -6.578  -6.672  -8.616  1.00  0.00    -0.356 OA
HETATM   12  C1  UNL     1      -6.484  -7.363  -9.845  1.00  0.00     0.210 C 
ENDBRANCH   8  11
ENDBRANCH   2   5
ENDBRANCH   1   2
BRANCH   1  13
HETATM   13  C6  UNL     1      -3.153  -4.415  -3.326  1.00  0.00     0.134 C 
BRANCH  13  14
HETATM   14  C7  UNL     1      -2.799  -4.728  -1.890  1.00  0.00     0.179 C 
BRANCH  14  15
HETATM   15  O4  UNL     1      -2.882  -6.135  -1.780  1.00  0.00    -0.400 OA
ATOM     16  H4  UNL     1      -2.032  -6.415  -1.463  1.00  0.00     0.209 HD
ENDBRANCH  14  15
ENDBRANCH  13  14
ENDBRANCH   1  13
BRANCH   1  17
HETATM   17  C8  UNL     1      -2.139  -3.095  -4.968  1.00  0.00     0.212 C 
BRANCH  17  18
HETATM   18  C9  UNL     1      -1.660  -1.889  -4.249  1.00  0.00     0.255 C 
HETATM   19  O5  UNL     1      -2.433  -0.904  -4.140  1.00  0.00    -0.270 OA
HETATM   20  N2  UNL     1      -0.369  -1.837  -3.696  1.00  0.00    -0.236 N 
ATOM     21  H2  UNL     1       0.253  -2.641  -3.789  1.00  0.00     0.197 HD
BRANCH  20  22
HETATM   22  O6  UNL     1       0.061  -0.721  -3.036  1.00  0.00    -0.287 OA
ATOM     23  H6  UNL     1       0.950  -0.403  -3.150  1.00  0.00     0.244 HD
ENDBRANCH  20  22
ENDBRANCH  17  18
ENDBRANCH   1  17
TORSDOF 9
ENDMDL
