MODEL 8
REMARK VINA RESULT: -7.154934849      2.444      4.488
REMARK  9 active torsions:
REMARK  status: ('A' for Active; 'I' for Inactive)
REMARK    1  A    between atoms: O1_2  and  C2_3 
REMARK    2  A    between atoms: C5_6  and  S1_7 
REMARK    3  A    between atoms: S1_7  and  N1_10 
REMARK    4  A    between atoms: N1_10  and  C6_11 
REMARK    5  A    between atoms: N1_10  and  C8_15 
REMARK    6  A    between atoms: C6_11  and  C7_12 
REMARK    7  A    between atoms: C7_12  and  O4_13 
REMARK    8  A    between atoms: C8_15  and  C9_16 
REMARK       I    between atoms: C9_16  and  N2_18 
REMARK    9  A    between atoms: N2_18  and  O6_20 
ROOT
HETATM    1  N1  UNL     1      -3.624  -6.433  -5.853  1.00  0.00    -0.196 NA
ENDROOT
BRANCH   1   2
HETATM    2  S1  UNL     1      -3.870  -6.317  -7.527  1.00  0.00     0.244 S 
HETATM    3  O2  UNL     1      -3.639  -4.894  -7.958  1.00  0.00    -0.206 OA
HETATM    4  O3  UNL     1      -2.856  -7.169  -8.274  1.00  0.00    -0.206 OA
BRANCH   2   5
HETATM    5  C5  UNL     1      -5.435  -6.777  -8.090  1.00  0.00     0.074 A 
HETATM    6  C4  UNL     1      -5.561  -7.085  -9.430  1.00  0.00     0.027 A 
HETATM    7  C3  UNL     1      -6.766  -7.461 -10.003  1.00  0.00     0.038 A 
HETATM    8  C2  UNL     1      -7.890  -7.539  -9.224  1.00  0.00     0.068 A 
HETATM    9  C11 UNL     1      -7.767  -7.233  -7.887  1.00  0.00     0.038 A 
HETATM   10  C10 UNL     1      -6.571  -6.857  -7.310  1.00  0.00     0.027 A 
BRANCH   8  11
HETATM   11  O1  UNL     1      -9.118  -7.917  -9.780  1.00  0.00    -0.356 OA
HETATM   12  C1  UNL     1      -9.217  -9.012 -10.669  1.00  0.00     0.210 C 
ENDBRANCH   8  11
ENDBRANCH   2   5
ENDBRANCH   1   2
BRANCH   1  13
HETATM   13  C6  UNL     1      -3.970  -5.208  -5.177  1.00  0.00     0.134 C 
BRANCH  13  14
HETATM   14  C7  UNL     1      -2.758  -4.382  -4.815  1.00  0.00     0.179 C 
BRANCH  14  15
HETATM   15  O4  UNL     1      -2.836  -3.224  -5.623  1.00  0.00    -0.400 OA
ATOM     16  H4  UNL     1      -3.316  -2.587  -5.107  1.00  0.00     0.209 HD
ENDBRANCH  14  15
ENDBRANCH  13  14
ENDBRANCH   1  13
BRANCH   1  17
HETATM   17  C8  UNL     1      -2.220  -6.697  -5.612  1.00  0.00     0.212 C 
BRANCH  17  18
HETATM   18  C9  UNL     1      -2.024  -7.776  -4.613  1.00  0.00     0.255 C 
HETATM   19  O5  UNL     1      -2.852  -8.720  -4.574  1.00  0.00    -0.270 OA
HETATM   20  N2  UNL     1      -0.936  -7.754  -3.723  1.00  0.00    -0.236 N 
ATOM     21  H2  UNL     1      -0.268  -6.984  -3.761  1.00  0.00     0.197 HD
BRANCH  20  22
HETATM   22  O6  UNL     1      -0.767  -8.753  -2.807  1.00  0.00    -0.287 OA
ATOM     23  H6  UNL     1       0.105  -9.036  -2.555  1.00  0.00     0.244 HD
ENDBRANCH  20  22
ENDBRANCH  17  18
ENDBRANCH   1  17
TORSDOF 9
ENDMDL
