MODEL 11
REMARK VINA RESULT: -7.068502863      4.077      8.360
REMARK  9 active torsions:
REMARK  status: ('A' for Active; 'I' for Inactive)
REMARK    1  A    between atoms: O1_2  and  C2_3 
REMARK    2  A    between atoms: C5_6  and  S1_7 
REMARK    3  A    between atoms: S1_7  and  N1_10 
REMARK    4  A    between atoms: N1_10  and  C6_11 
REMARK    5  A    between atoms: N1_10  and  C8_15 
REMARK    6  A    between atoms: C6_11  and  C7_12 
REMARK    7  A    between atoms: C7_12  and  O4_13 
REMARK    8  A    between atoms: C8_15  and  C9_16 
REMARK       I    between atoms: C9_16  and  N2_18 
REMARK    9  A    between atoms: N2_18  and  O6_20 
ROOT
HETATM    1  N1  UNL     1      -8.052  -8.329  -8.772  1.00  0.00    -0.196 NA
ENDROOT
BRANCH   1   2
HETATM    2  S1  UNL     1      -6.847  -7.243  -9.269  1.00  0.00     0.244 S 
HETATM    3  O2  UNL     1      -6.140  -7.813 -10.469  1.00  0.00    -0.206 OA
HETATM    4  O3  UNL     1      -7.467  -5.928  -9.712  1.00  0.00    -0.206 OA
BRANCH   2   5
HETATM    5  C5  UNL     1      -5.642  -6.868  -8.093  1.00  0.00     0.074 A 
HETATM    6  C4  UNL     1      -4.331  -6.823  -8.521  1.00  0.00     0.027 A 
HETATM    7  C3  UNL     1      -3.273  -6.539  -7.670  1.00  0.00     0.038 A 
HETATM    8  C2  UNL     1      -3.520  -6.287  -6.346  1.00  0.00     0.068 A 
HETATM    9  C11 UNL     1      -4.827  -6.331  -5.916  1.00  0.00     0.038 A 
HETATM   10  C10 UNL     1      -5.884  -6.614  -6.757  1.00  0.00     0.027 A 
BRANCH   8  11
HETATM   11  O1  UNL     1      -2.468  -5.998  -5.469  1.00  0.00    -0.356 OA
HETATM   12  C1  UNL     1      -1.234  -5.494  -5.939  1.00  0.00     0.210 C 
ENDBRANCH   8  11
ENDBRANCH   2   5
ENDBRANCH   1   2
BRANCH   1  13
HETATM   13  C6  UNL     1      -8.232  -9.397  -9.724  1.00  0.00     0.134 C 
BRANCH  13  14
HETATM   14  C7  UNL     1      -9.188  -9.030 -10.835  1.00  0.00     0.179 C 
BRANCH  14  15
HETATM   15  O4  UNL     1     -10.165 -10.052 -10.843  1.00  0.00    -0.400 OA
ATOM     16  H4  UNL     1     -10.058 -10.511 -10.019  1.00  0.00     0.209 HD
ENDBRANCH  14  15
ENDBRANCH  13  14
ENDBRANCH   1  13
BRANCH   1  17
HETATM   17  C8  UNL     1      -9.304  -7.609  -8.665  1.00  0.00     0.212 C 
BRANCH  17  18
HETATM   18  C9  UNL     1     -10.274  -8.314  -7.791  1.00  0.00     0.255 C 
HETATM   19  O5  UNL     1     -11.333  -8.759  -8.301  1.00  0.00    -0.270 OA
HETATM   20  N2  UNL     1     -10.025  -8.486  -6.419  1.00  0.00    -0.236 N 
ATOM     21  H2  UNL     1      -9.163  -8.122  -6.012  1.00  0.00     0.197 HD
BRANCH  20  22
HETATM   22  O6  UNL     1     -10.926  -9.137  -5.624  1.00  0.00    -0.287 OA
ATOM     23  H6  UNL     1     -10.795  -9.187  -4.685  1.00  0.00     0.244 HD
ENDBRANCH  20  22
ENDBRANCH  17  18
ENDBRANCH   1  17
TORSDOF 9
ENDMDL
