MODEL 9
REMARK VINA RESULT: -7.138643952      1.586      1.966
REMARK  9 active torsions:
REMARK  status: ('A' for Active; 'I' for Inactive)
REMARK    1  A    between atoms: O1_2  and  C2_3 
REMARK    2  A    between atoms: C5_6  and  S1_7 
REMARK    3  A    between atoms: S1_7  and  N1_10 
REMARK    4  A    between atoms: N1_10  and  C6_11 
REMARK    5  A    between atoms: N1_10  and  C8_15 
REMARK    6  A    between atoms: C6_11  and  C7_12 
REMARK    7  A    between atoms: C7_12  and  O4_13 
REMARK    8  A    between atoms: C8_15  and  C9_16 
REMARK       I    between atoms: C9_16  and  N2_18 
REMARK    9  A    between atoms: N2_18  and  O6_20 
ROOT
HETATM    1  N1  UNL     1      -1.601  -5.157  -3.631  1.00  0.00    -0.196 NA
ENDROOT
BRANCH   1   2
HETATM    2  S1  UNL     1      -1.385  -5.968  -5.105  1.00  0.00     0.244 S 
HETATM    3  O2  UNL     1      -0.281  -5.296  -5.876  1.00  0.00    -0.206 OA
HETATM    4  O3  UNL     1      -0.939  -7.401  -4.864  1.00  0.00    -0.206 OA
BRANCH   2   5
HETATM    5  C5  UNL     1      -2.767  -6.032  -6.136  1.00  0.00     0.074 A 
HETATM    6  C4  UNL     1      -3.900  -6.645  -5.641  1.00  0.00     0.027 A 
HETATM    7  C3  UNL     1      -5.070  -6.765  -6.375  1.00  0.00     0.038 A 
HETATM    8  C2  UNL     1      -5.125  -6.259  -7.647  1.00  0.00     0.068 A 
HETATM    9  C11 UNL     1      -3.996  -5.646  -8.144  1.00  0.00     0.038 A 
HETATM   10  C10 UNL     1      -2.828  -5.524  -7.419  1.00  0.00     0.027 A 
BRANCH   8  11
HETATM   11  O1  UNL     1      -6.295  -6.368  -8.407  1.00  0.00    -0.356 OA
HETATM   12  C1  UNL     1      -7.387  -7.151  -7.969  1.00  0.00     0.210 C 
ENDBRANCH   8  11
ENDBRANCH   2   5
ENDBRANCH   1   2
BRANCH   1  13
HETATM   13  C6  UNL     1      -1.833  -6.078  -2.546  1.00  0.00     0.134 C 
BRANCH  13  14
HETATM   14  C7  UNL     1      -0.640  -6.206  -1.626  1.00  0.00     0.179 C 
BRANCH  14  15
HETATM   15  O4  UNL     1       0.053  -7.356  -2.067  1.00  0.00    -0.400 OA
ATOM     16  H4  UNL     1       0.137  -7.257  -3.008  1.00  0.00     0.209 HD
ENDBRANCH  14  15
ENDBRANCH  13  14
ENDBRANCH   1  13
BRANCH   1  17
HETATM   17  C8  UNL     1      -2.760  -4.296  -3.744  1.00  0.00     0.212 C 
BRANCH  17  18
HETATM   18  C9  UNL     1      -2.385  -2.910  -4.114  1.00  0.00     0.255 C 
HETATM   19  O5  UNL     1      -2.363  -2.031  -3.216  1.00  0.00    -0.270 OA
HETATM   20  N2  UNL     1      -2.059  -2.573  -5.439  1.00  0.00    -0.236 N 
ATOM     21  H2  UNL     1      -2.079  -3.292  -6.162  1.00  0.00     0.197 HD
BRANCH  20  22
HETATM   22  O6  UNL     1      -1.715  -1.292  -5.767  1.00  0.00    -0.287 OA
ATOM     23  H6  UNL     1      -0.806  -1.014  -5.746  1.00  0.00     0.244 HD
ENDBRANCH  20  22
ENDBRANCH  17  18
ENDBRANCH   1  17
TORSDOF 9
ENDMDL
