MODEL 7
REMARK VINA RESULT: -9.158333362      8.582     12.814
REMARK  13 active torsions:
REMARK  status: ('A' for Active; 'I' for Inactive)
REMARK       I    between atoms: C2_2  and  N1_4 
REMARK    1  A    between atoms: N1_4  and  C3_6 
REMARK    2  A    between atoms: C3_6  and  C4_7 
REMARK    3  A    between atoms: C3_6  and  C6_11 
REMARK    4  A    between atoms: C4_7  and  C5_8 
REMARK       I    between atoms: C6_11  and  N2_13 
REMARK    5  A    between atoms: N2_13  and  C7_15 
REMARK    6  A    between atoms: C7_15  and  C8_16 
REMARK    7  A    between atoms: C7_15  and  P1_23 
REMARK    8  A    between atoms: C8_16  and  C9_17 
REMARK    9  A    between atoms: P1_23  and  C15_26 
REMARK   10  A    between atoms: C15_26  and  C16_27 
REMARK   11  A    between atoms: C16_27  and  C18_29 
REMARK       I    between atoms: C18_29  and  N3_31 
REMARK   12  A    between atoms: N3_31  and  C19_33 
REMARK   13  A    between atoms: C19_33  and  C21_35 
ROOT
HETATM    1  C7  UNL     1       8.104 -12.057 -25.006  1.00  0.00     0.184 C 
ENDROOT
BRANCH   1   2
HETATM    2  N2  UNL     1       8.717 -12.937 -24.006  1.00  0.00    -0.345 N 
HETATM    3  C6  UNL     1       8.431 -12.839 -22.613  1.00  0.00     0.241 C 
HETATM    4  O4  UNL     1       7.637 -11.990 -22.201  1.00  0.00    -0.271 OA
ATOM      5  H2  UNL     1       9.377 -13.649 -24.320  1.00  0.00     0.163 HD
BRANCH   3   6
HETATM    6  C3  UNL     1       9.087 -13.762 -21.628  1.00  0.00     0.186 C 
BRANCH   6   7
HETATM    7  N1  UNL     1       8.126 -14.510 -20.875  1.00  0.00    -0.348 N 
HETATM    8  C2  UNL     1       7.784 -14.236 -19.532  1.00  0.00     0.214 C 
HETATM    9  C1  UNL     1       6.770 -15.086 -18.849  1.00  0.00     0.117 C 
HETATM   10  O1  UNL     1       8.368 -13.264 -18.969  1.00  0.00    -0.274 OA
ATOM     11  H1  UNL     1       7.659 -15.291 -21.337  1.00  0.00     0.163 HD
ENDBRANCH   6   7
BRANCH   6  12
HETATM   12  C4  UNL     1      10.037 -14.726 -22.284  1.00  0.00     0.147 C 
BRANCH  12  13
HETATM   13  C5  UNL     1       9.314 -16.038 -22.356  1.00  0.00     0.175 C 
HETATM   14  O2  UNL     1       9.645 -17.007 -21.610  1.00  0.00    -0.648 OA
HETATM   15  O3  UNL     1       8.268 -16.240 -23.232  1.00  0.00    -0.648 OA
ENDBRANCH  12  13
ENDBRANCH   6  12
ENDBRANCH   3   6
ENDBRANCH   1   2
BRANCH   1  16
HETATM   16  C8  UNL     1       9.297 -11.387 -25.716  1.00  0.00     0.074 C 
BRANCH  16  17
HETATM   17  C9  UNL     1       9.136  -9.938 -25.763  1.00  0.00    -0.056 A 
HETATM   18  C10 UNL     1      10.219  -9.084 -25.782  1.00  0.00     0.007 A 
HETATM   19  C11 UNL     1      10.061  -7.705 -25.829  1.00  0.00     0.001 A 
HETATM   20  C12 UNL     1       8.812  -7.138 -25.858  1.00  0.00     0.000 A 
HETATM   21  C13 UNL     1       7.719  -7.979 -25.840  1.00  0.00     0.001 A 
HETATM   22  C14 UNL     1       7.887  -9.357 -25.793  1.00  0.00     0.007 A 
ENDBRANCH  16  17
ENDBRANCH   1  16
BRANCH   1  23
HETATM   23  P1  UNL     1       7.099 -13.071 -26.024  1.00  0.00     0.153 P 
HETATM   24  O5  UNL     1       7.379 -14.763 -26.006  1.00  0.00    -0.663 OA
HETATM   25  O6  UNL     1       8.100 -13.079 -27.188  1.00  0.00    -0.663 OA
BRANCH  23  26
HETATM   26  C15 UNL     1       5.748 -12.440 -26.883  1.00  0.00     0.088 C 
BRANCH  26  27
HETATM   27  C16 UNL     1       4.498 -12.010 -26.193  1.00  0.00     0.012 C 
HETATM   28  C17 UNL     1       3.429 -11.407 -27.060  1.00  0.00     0.054 C 
BRANCH  27  29
HETATM   29  C18 UNL     1       3.952 -12.942 -25.198  1.00  0.00     0.248 C 
HETATM   30  O7  UNL     1       3.045 -13.735 -25.555  1.00  0.00    -0.268 OA
HETATM   31  N3  UNL     1       4.353 -13.044 -23.844  1.00  0.00    -0.345 N 
ATOM     32  H3  UNL     1       5.087 -12.425 -23.500  1.00  0.00     0.163 HD
BRANCH  31  33
HETATM   33  C19 UNL     1       3.752 -14.008 -22.920  1.00  0.00     0.170 C 
HETATM   34  C20 UNL     1       4.932 -14.778 -22.310  1.00  0.00     0.042 C 
BRANCH  33  35
HETATM   35  C21 UNL     1       3.062 -13.350 -21.798  1.00  0.00     0.253 C 
HETATM   36  N4  UNL     1       3.609 -12.184 -21.233  1.00  0.00    -0.060 NA
HETATM   37  O8  UNL     1       2.002 -13.828 -21.360  1.00  0.00    -0.275 OA
ENDBRANCH  33  35
ENDBRANCH  31  33
ENDBRANCH  27  29
ENDBRANCH  26  27
ENDBRANCH  23  26
ENDBRANCH   1  23
TORSDOF 13
ENDMDL
