MODEL 11
REMARK VINA RESULT: -9.008900405      3.674     11.709
REMARK  13 active torsions:
REMARK  status: ('A' for Active; 'I' for Inactive)
REMARK       I    between atoms: C2_2  and  N1_4 
REMARK    1  A    between atoms: N1_4  and  C3_6 
REMARK    2  A    between atoms: C3_6  and  C4_7 
REMARK    3  A    between atoms: C3_6  and  C6_11 
REMARK    4  A    between atoms: C4_7  and  C5_8 
REMARK       I    between atoms: C6_11  and  N2_13 
REMARK    5  A    between atoms: N2_13  and  C7_15 
REMARK    6  A    between atoms: C7_15  and  C8_16 
REMARK    7  A    between atoms: C7_15  and  P1_23 
REMARK    8  A    between atoms: C8_16  and  C9_17 
REMARK    9  A    between atoms: P1_23  and  C15_26 
REMARK   10  A    between atoms: C15_26  and  C16_27 
REMARK   11  A    between atoms: C16_27  and  C18_29 
REMARK       I    between atoms: C18_29  and  N3_31 
REMARK   12  A    between atoms: N3_31  and  C19_33 
REMARK   13  A    between atoms: C19_33  and  C21_35 
ROOT
HETATM    1  C7  UNL     1       4.637 -15.164 -21.033  1.00  0.00     0.184 C 
ENDROOT
BRANCH   1   2
HETATM    2  N2  UNL     1       5.373 -14.198 -21.854  1.00  0.00    -0.345 N 
HETATM    3  C6  UNL     1       6.182 -14.584 -22.962  1.00  0.00     0.241 C 
HETATM    4  O4  UNL     1       6.285 -15.775 -23.269  1.00  0.00    -0.271 OA
ATOM      5  H2  UNL     1       5.304 -13.207 -21.622  1.00  0.00     0.163 HD
BRANCH   3   6
HETATM    6  C3  UNL     1       6.918 -13.558 -23.771  1.00  0.00     0.186 C 
BRANCH   6   7
HETATM    7  N1  UNL     1       6.117 -13.044 -24.840  1.00  0.00    -0.348 N 
HETATM    8  C2  UNL     1       6.082 -13.596 -26.140  1.00  0.00     0.214 C 
HETATM    9  C1  UNL     1       5.209 -12.973 -27.174  1.00  0.00     0.117 C 
HETATM   10  O1  UNL     1       6.807 -14.609 -26.362  1.00  0.00    -0.274 OA
ATOM     11  H1  UNL     1       5.535 -12.227 -24.652  1.00  0.00     0.163 HD
ENDBRANCH   6   7
BRANCH   6  12
HETATM   12  C4  UNL     1       7.400 -12.402 -22.936  1.00  0.00     0.147 C 
BRANCH  12  13
HETATM   13  C5  UNL     1       6.495 -11.251 -23.258  1.00  0.00     0.175 C 
HETATM   14  O2  UNL     1       5.380 -11.113 -22.672  1.00  0.00    -0.648 OA
HETATM   15  O3  UNL     1       6.837 -10.303 -24.201  1.00  0.00    -0.648 OA
ENDBRANCH  12  13
ENDBRANCH   6  12
ENDBRANCH   3   6
ENDBRANCH   1   2
BRANCH   1  16
HETATM   16  C8  UNL     1       5.183 -14.956 -19.607  1.00  0.00     0.074 C 
BRANCH  16  17
HETATM   17  C9  UNL     1       6.596 -15.310 -19.527  1.00  0.00    -0.056 A 
HETATM   18  C10 UNL     1       7.058 -16.554 -19.904  1.00  0.00     0.007 A 
HETATM   19  C11 UNL     1       8.405 -16.886 -19.828  1.00  0.00     0.001 A 
HETATM   20  C12 UNL     1       9.331 -15.982 -19.371  1.00  0.00     0.000 A 
HETATM   21  C13 UNL     1       8.883 -14.734 -18.992  1.00  0.00     0.001 A 
HETATM   22  C14 UNL     1       7.535 -14.410 -19.071  1.00  0.00     0.007 A 
ENDBRANCH  16  17
ENDBRANCH   1  16
BRANCH   1  23
HETATM   23  P1  UNL     1       2.932 -14.811 -21.242  1.00  0.00     0.153 P 
HETATM   24  O5  UNL     1       2.469 -13.176 -21.475  1.00  0.00    -0.663 OA
HETATM   25  O6  UNL     1       2.706 -14.497 -19.756  1.00  0.00    -0.663 OA
BRANCH  23  26
HETATM   26  C15 UNL     1       1.759 -16.060 -21.396  1.00  0.00     0.088 C 
BRANCH  26  27
HETATM   27  C16 UNL     1       0.820 -16.131 -22.554  1.00  0.00     0.012 C 
HETATM   28  C17 UNL     1       1.437 -16.064 -23.922  1.00  0.00     0.054 C 
BRANCH  27  29
HETATM   29  C18 UNL     1      -0.240 -17.143 -22.467  1.00  0.00     0.248 C 
HETATM   30  O7  UNL     1       0.030 -18.323 -22.803  1.00  0.00    -0.268 OA
HETATM   31  N3  UNL     1      -1.569 -16.923 -22.031  1.00  0.00    -0.345 N 
ATOM     32  H3  UNL     1      -1.843 -15.983 -21.745  1.00  0.00     0.163 HD
BRANCH  31  33
HETATM   33  C19 UNL     1      -2.564 -17.995 -21.976  1.00  0.00     0.170 C 
HETATM   34  C20 UNL     1      -3.580 -17.555 -20.913  1.00  0.00     0.042 C 
BRANCH  33  35
HETATM   35  C21 UNL     1      -3.312 -18.128 -23.236  1.00  0.00     0.253 C 
HETATM   36  N4  UNL     1      -3.445 -19.393 -23.836  1.00  0.00    -0.060 NA
HETATM   37  O8  UNL     1      -3.822 -17.123 -23.761  1.00  0.00    -0.275 OA
ENDBRANCH  33  35
ENDBRANCH  31  33
ENDBRANCH  27  29
ENDBRANCH  26  27
ENDBRANCH  23  26
ENDBRANCH   1  23
TORSDOF 13
ENDMDL
