MODEL 8
REMARK VINA RESULT: -9.091634163      5.917      9.073
REMARK  13 active torsions:
REMARK  status: ('A' for Active; 'I' for Inactive)
REMARK       I    between atoms: C2_2  and  N1_4 
REMARK    1  A    between atoms: N1_4  and  C3_6 
REMARK    2  A    between atoms: C3_6  and  C4_7 
REMARK    3  A    between atoms: C3_6  and  C6_11 
REMARK    4  A    between atoms: C4_7  and  C5_8 
REMARK       I    between atoms: C6_11  and  N2_13 
REMARK    5  A    between atoms: N2_13  and  C7_15 
REMARK    6  A    between atoms: C7_15  and  C8_16 
REMARK    7  A    between atoms: C7_15  and  P1_23 
REMARK    8  A    between atoms: C8_16  and  C9_17 
REMARK    9  A    between atoms: P1_23  and  C15_26 
REMARK   10  A    between atoms: C15_26  and  C16_27 
REMARK   11  A    between atoms: C16_27  and  C18_29 
REMARK       I    between atoms: C18_29  and  N3_31 
REMARK   12  A    between atoms: N3_31  and  C19_33 
REMARK   13  A    between atoms: C19_33  and  C21_35 
ROOT
HETATM    1  C7  UNL     1       4.929 -13.262 -25.471  1.00  0.00     0.184 C 
ENDROOT
BRANCH   1   2
HETATM    2  N2  UNL     1       4.665 -14.237 -24.409  1.00  0.00    -0.345 N 
HETATM    3  C6  UNL     1       3.424 -14.926 -24.283  1.00  0.00     0.241 C 
HETATM    4  O4  UNL     1       2.513 -14.716 -25.090  1.00  0.00    -0.271 OA
ATOM      5  H2  UNL     1       5.402 -14.431 -23.730  1.00  0.00     0.163 HD
BRANCH   3   6
HETATM    6  C3  UNL     1       3.202 -15.914 -23.177  1.00  0.00     0.186 C 
BRANCH   6   7
HETATM    7  N1  UNL     1       1.961 -16.613 -23.324  1.00  0.00    -0.348 N 
HETATM    8  C2  UNL     1       0.764 -16.248 -22.670  1.00  0.00     0.214 C 
HETATM    9  C1  UNL     1      -0.468 -17.054 -22.899  1.00  0.00     0.117 C 
HETATM   10  O1  UNL     1       0.801 -15.238 -21.909  1.00  0.00    -0.274 OA
ATOM     11  H1  UNL     1       1.940 -17.426 -23.940  1.00  0.00     0.163 HD
ENDBRANCH   6   7
BRANCH   6  12
HETATM   12  C4  UNL     1       4.312 -16.925 -23.075  1.00  0.00     0.147 C 
BRANCH  12  13
HETATM   13  C5  UNL     1       4.303 -17.409 -21.655  1.00  0.00     0.175 C 
HETATM   14  O2  UNL     1       3.355 -17.112 -20.870  1.00  0.00    -0.648 OA
HETATM   15  O3  UNL     1       5.322 -18.192 -21.152  1.00  0.00    -0.648 OA
ENDBRANCH  12  13
ENDBRANCH   6  12
ENDBRANCH   3   6
ENDBRANCH   1   2
BRANCH   1  16
HETATM   16  C8  UNL     1       4.256 -11.964 -24.982  1.00  0.00     0.074 C 
BRANCH  16  17
HETATM   17  C9  UNL     1       4.052 -11.028 -26.083  1.00  0.00    -0.056 A 
HETATM   18  C10 UNL     1       3.244 -11.334 -27.158  1.00  0.00     0.007 A 
HETATM   19  C11 UNL     1       3.051 -10.439 -28.203  1.00  0.00     0.001 A 
HETATM   20  C12 UNL     1       3.662  -9.210 -28.203  1.00  0.00     0.000 A 
HETATM   21  C13 UNL     1       4.472  -8.891 -27.133  1.00  0.00     0.001 A 
HETATM   22  C14 UNL     1       4.660  -9.792 -26.093  1.00  0.00     0.007 A 
ENDBRANCH  16  17
ENDBRANCH   1  16
BRANCH   1  23
HETATM   23  P1  UNL     1       6.669 -13.178 -25.663  1.00  0.00     0.153 P 
HETATM   24  O5  UNL     1       7.300 -13.020 -27.250  1.00  0.00    -0.663 OA
HETATM   25  O6  UNL     1       6.820 -14.683 -25.925  1.00  0.00    -0.663 OA
BRANCH  23  26
HETATM   26  C15 UNL     1       7.727 -13.070 -24.311  1.00  0.00     0.088 C 
BRANCH  26  27
HETATM   27  C16 UNL     1       8.527 -14.234 -23.831  1.00  0.00     0.012 C 
HETATM   28  C17 UNL     1      10.017 -14.046 -23.776  1.00  0.00     0.054 C 
BRANCH  27  29
HETATM   29  C18 UNL     1       8.008 -14.934 -22.649  1.00  0.00     0.248 C 
HETATM   30  O7  UNL     1       7.654 -16.134 -22.771  1.00  0.00    -0.268 OA
HETATM   31  N3  UNL     1       7.861 -14.385 -21.352  1.00  0.00    -0.345 N 
ATOM     32  H3  UNL     1       8.134 -13.414 -21.195  1.00  0.00     0.163 HD
BRANCH  31  33
HETATM   33  C19 UNL     1       7.333 -15.160 -20.228  1.00  0.00     0.170 C 
HETATM   34  C20 UNL     1       8.173 -14.741 -19.014  1.00  0.00     0.042 C 
BRANCH  33  35
HETATM   35  C21 UNL     1       5.940 -14.806 -19.912  1.00  0.00     0.253 C 
HETATM   36  N4  UNL     1       5.384 -15.202 -18.682  1.00  0.00    -0.060 NA
HETATM   37  O8  UNL     1       5.265 -14.160 -20.732  1.00  0.00    -0.275 OA
ENDBRANCH  33  35
ENDBRANCH  31  33
ENDBRANCH  27  29
ENDBRANCH  26  27
ENDBRANCH  23  26
ENDBRANCH   1  23
TORSDOF 13
ENDMDL
