MODEL 1
REMARK VINA RESULT: -9.781110265      0.000      0.000
REMARK  13 active torsions:
REMARK  status: ('A' for Active; 'I' for Inactive)
REMARK       I    between atoms: C2_2  and  N1_4 
REMARK    1  A    between atoms: N1_4  and  C3_6 
REMARK    2  A    between atoms: C3_6  and  C4_7 
REMARK    3  A    between atoms: C3_6  and  C6_11 
REMARK    4  A    between atoms: C4_7  and  C5_8 
REMARK       I    between atoms: C6_11  and  N2_13 
REMARK    5  A    between atoms: N2_13  and  C7_15 
REMARK    6  A    between atoms: C7_15  and  C8_16 
REMARK    7  A    between atoms: C7_15  and  P1_23 
REMARK    8  A    between atoms: C8_16  and  C9_17 
REMARK    9  A    between atoms: P1_23  and  C15_26 
REMARK   10  A    between atoms: C15_26  and  C16_27 
REMARK   11  A    between atoms: C16_27  and  C18_29 
REMARK       I    between atoms: C18_29  and  N3_31 
REMARK   12  A    between atoms: N3_31  and  C19_33 
REMARK   13  A    between atoms: C19_33  and  C21_35 
ROOT
HETATM    1  C7  UNL     1      -3.092 -17.095 -23.052  1.00  0.00     0.184 C 
ENDROOT
BRANCH   1   2
HETATM    2  N2  UNL     1      -3.814 -18.204 -22.422  1.00  0.00    -0.345 N 
HETATM    3  C6  UNL     1      -4.837 -18.939 -23.089  1.00  0.00     0.241 C 
HETATM    4  O4  UNL     1      -5.148 -18.654 -24.249  1.00  0.00    -0.271 OA
ATOM      5  H2  UNL     1      -3.575 -18.461 -21.464  1.00  0.00     0.163 HD
BRANCH   3   6
HETATM    6  C3  UNL     1      -5.549 -20.065 -22.400  1.00  0.00     0.186 C 
BRANCH   6   7
HETATM    7  N1  UNL     1      -6.585 -20.622 -23.216  1.00  0.00    -0.348 N 
HETATM    8  C2  UNL     1      -7.947 -20.669 -22.844  1.00  0.00     0.214 C 
HETATM    9  C1  UNL     1      -8.938 -21.276 -23.776  1.00  0.00     0.117 C 
HETATM   10  O1  UNL     1      -8.260 -20.185 -21.717  1.00  0.00    -0.274 OA
ATOM     11  H1  UNL     1      -6.324 -21.009 -24.123  1.00  0.00     0.163 HD
ENDBRANCH   6   7
BRANCH   6  12
HETATM   12  C4  UNL     1      -4.616 -21.172 -21.989  1.00  0.00     0.147 C 
BRANCH  12  13
HETATM   13  C5  UNL     1      -5.274 -21.860 -20.830  1.00  0.00     0.175 C 
HETATM   14  O2  UNL     1      -5.954 -22.916 -20.998  1.00  0.00    -0.648 OA
HETATM   15  O3  UNL     1      -5.166 -21.373 -19.544  1.00  0.00    -0.648 OA
ENDBRANCH  12  13
ENDBRANCH   6  12
ENDBRANCH   3   6
ENDBRANCH   1   2
BRANCH   1  16
HETATM   16  C8  UNL     1      -3.609 -15.835 -22.330  1.00  0.00     0.074 C 
BRANCH  16  17
HETATM   17  C9  UNL     1      -4.748 -15.255 -23.033  1.00  0.00    -0.056 A 
HETATM   18  C10 UNL     1      -4.734 -15.049 -24.397  1.00  0.00     0.007 A 
HETATM   19  C11 UNL     1      -5.821 -14.498 -25.063  1.00  0.00     0.001 A 
HETATM   20  C12 UNL     1      -6.956 -14.135 -24.383  1.00  0.00     0.000 A 
HETATM   21  C13 UNL     1      -6.984 -14.335 -23.018  1.00  0.00     0.001 A 
HETATM   22  C14 UNL     1      -5.893 -14.887 -22.361  1.00  0.00     0.007 A 
ENDBRANCH  16  17
ENDBRANCH   1  16
BRANCH   1  23
HETATM   23  P1  UNL     1      -1.382 -17.425 -22.852  1.00  0.00     0.153 P 
HETATM   24  O5  UNL     1      -0.861 -19.058 -22.924  1.00  0.00    -0.663 OA
HETATM   25  O6  UNL     1      -1.502 -17.697 -21.346  1.00  0.00    -0.663 OA
BRANCH  23  26
HETATM   26  C15 UNL     1      -0.217 -16.162 -22.769  1.00  0.00     0.088 C 
BRANCH  26  27
HETATM   27  C16 UNL     1       1.233 -16.399 -23.029  1.00  0.00     0.012 C 
HETATM   28  C17 UNL     1       1.774 -15.879 -24.330  1.00  0.00     0.054 C 
BRANCH  27  29
HETATM   29  C18 UNL     1       2.143 -16.146 -21.904  1.00  0.00     0.248 C 
HETATM   30  O7  UNL     1       2.353 -17.073 -21.083  1.00  0.00    -0.268 OA
HETATM   31  N3  UNL     1       2.828 -14.934 -21.642  1.00  0.00    -0.345 N 
ATOM     32  H3  UNL     1       2.695 -14.147 -22.278  1.00  0.00     0.163 HD
BRANCH  31  33
HETATM   33  C19 UNL     1       3.719 -14.770 -20.493  1.00  0.00     0.170 C 
HETATM   34  C20 UNL     1       5.063 -14.319 -21.080  1.00  0.00     0.042 C 
BRANCH  33  35
HETATM   35  C21 UNL     1       3.277 -13.694 -19.592  1.00  0.00     0.253 C 
HETATM   36  N4  UNL     1       2.928 -12.440 -20.125  1.00  0.00    -0.060 NA
HETATM   37  O8  UNL     1       3.215 -13.899 -18.367  1.00  0.00    -0.275 OA
ENDBRANCH  33  35
ENDBRANCH  31  33
ENDBRANCH  27  29
ENDBRANCH  26  27
ENDBRANCH  23  26
ENDBRANCH   1  23
TORSDOF 13
ENDMDL
