MODEL 6
REMARK VINA RESULT: -9.192718990      1.557      1.705
REMARK  13 active torsions:
REMARK  status: ('A' for Active; 'I' for Inactive)
REMARK       I    between atoms: C2_2  and  N1_4 
REMARK    1  A    between atoms: N1_4  and  C3_6 
REMARK    2  A    between atoms: C3_6  and  C4_7 
REMARK    3  A    between atoms: C3_6  and  C6_11 
REMARK    4  A    between atoms: C4_7  and  C5_8 
REMARK       I    between atoms: C6_11  and  N2_13 
REMARK    5  A    between atoms: N2_13  and  C7_15 
REMARK    6  A    between atoms: C7_15  and  C8_16 
REMARK    7  A    between atoms: C7_15  and  P1_23 
REMARK    8  A    between atoms: C8_16  and  C9_17 
REMARK    9  A    between atoms: P1_23  and  C15_26 
REMARK   10  A    between atoms: C15_26  and  C16_27 
REMARK   11  A    between atoms: C16_27  and  C18_29 
REMARK       I    between atoms: C18_29  and  N3_31 
REMARK   12  A    between atoms: N3_31  and  C19_33 
REMARK   13  A    between atoms: C19_33  and  C21_35 
ROOT
HETATM    1  C7  UNL     1      -2.755 -16.859 -23.021  1.00  0.00     0.184 C 
ENDROOT
BRANCH   1   2
HETATM    2  N2  UNL     1      -3.540 -17.729 -22.140  1.00  0.00    -0.345 N 
HETATM    3  C6  UNL     1      -4.112 -18.959 -22.578  1.00  0.00     0.241 C 
HETATM    4  O4  UNL     1      -3.955 -19.335 -23.743  1.00  0.00    -0.271 OA
ATOM      5  H2  UNL     1      -3.683 -17.441 -21.172  1.00  0.00     0.163 HD
BRANCH   3   6
HETATM    6  C3  UNL     1      -4.909 -19.813 -21.638  1.00  0.00     0.186 C 
BRANCH   6   7
HETATM    7  N1  UNL     1      -6.268 -19.373 -21.537  1.00  0.00    -0.348 N 
HETATM    8  C2  UNL     1      -6.698 -18.311 -20.711  1.00  0.00     0.214 C 
HETATM    9  C1  UNL     1      -8.141 -17.943 -20.687  1.00  0.00     0.117 C 
HETATM   10  O1  UNL     1      -5.818 -17.716 -20.023  1.00  0.00    -0.274 OA
ATOM     11  H1  UNL     1      -6.971 -19.857 -22.096  1.00  0.00     0.163 HD
ENDBRANCH   6   7
BRANCH   6  12
HETATM   12  C4  UNL     1      -4.905 -21.265 -22.032  1.00  0.00     0.147 C 
BRANCH  12  13
HETATM   13  C5  UNL     1      -5.335 -22.027 -20.814  1.00  0.00     0.175 C 
HETATM   14  O2  UNL     1      -5.922 -23.145 -20.918  1.00  0.00    -0.648 OA
HETATM   15  O3  UNL     1      -5.112 -21.543 -19.541  1.00  0.00    -0.648 OA
ENDBRANCH  12  13
ENDBRANCH   6  12
ENDBRANCH   3   6
ENDBRANCH   1   2
BRANCH   1  16
HETATM   16  C8  UNL     1      -3.181 -15.429 -22.635  1.00  0.00     0.074 C 
BRANCH  16  17
HETATM   17  C9  UNL     1      -4.512 -15.119 -23.145  1.00  0.00    -0.056 A 
HETATM   18  C10 UNL     1      -4.760 -14.976 -24.494  1.00  0.00     0.007 A 
HETATM   19  C11 UNL     1      -6.030 -14.684 -24.976  1.00  0.00     0.001 A 
HETATM   20  C12 UNL     1      -7.091 -14.524 -24.120  1.00  0.00     0.000 A 
HETATM   21  C13 UNL     1      -6.857 -14.665 -22.768  1.00  0.00     0.001 A 
HETATM   22  C14 UNL     1      -5.584 -14.958 -22.295  1.00  0.00     0.007 A 
ENDBRANCH  16  17
ENDBRANCH   1  16
BRANCH   1  23
HETATM   23  P1  UNL     1      -1.067 -17.241 -22.739  1.00  0.00     0.153 P 
HETATM   24  O5  UNL     1      -0.558 -18.863 -22.967  1.00  0.00    -0.663 OA
HETATM   25  O6  UNL     1      -1.301 -17.687 -21.289  1.00  0.00    -0.663 OA
BRANCH  23  26
HETATM   26  C15 UNL     1       0.100 -16.018 -22.422  1.00  0.00     0.088 C 
BRANCH  26  27
HETATM   27  C16 UNL     1       1.525 -16.149 -22.844  1.00  0.00     0.012 C 
HETATM   28  C17 UNL     1       1.789 -16.141 -24.323  1.00  0.00     0.054 C 
BRANCH  27  29
HETATM   29  C18 UNL     1       2.499 -15.343 -22.098  1.00  0.00     0.248 C 
HETATM   30  O7  UNL     1       2.594 -15.516 -20.857  1.00  0.00    -0.268 OA
HETATM   31  N3  UNL     1       3.366 -14.366 -22.645  1.00  0.00    -0.345 N 
ATOM     32  H3  UNL     1       3.332 -14.184 -23.648  1.00  0.00     0.163 HD
BRANCH  31  33
HETATM   33  C19 UNL     1       4.310 -13.607 -21.822  1.00  0.00     0.170 C 
HETATM   34  C20 UNL     1       5.519 -13.342 -22.729  1.00  0.00     0.042 C 
BRANCH  33  35
HETATM   35  C21 UNL     1       3.781 -12.288 -21.439  1.00  0.00     0.253 C 
HETATM   36  N4  UNL     1       2.964 -12.171 -20.300  1.00  0.00    -0.060 NA
HETATM   37  O8  UNL     1       4.060 -11.288 -22.122  1.00  0.00    -0.275 OA
ENDBRANCH  33  35
ENDBRANCH  31  33
ENDBRANCH  27  29
ENDBRANCH  26  27
ENDBRANCH  23  26
ENDBRANCH   1  23
TORSDOF 13
ENDMDL
