MODEL 2
REMARK VINA RESULT: -9.580902231      1.269      1.372
REMARK  13 active torsions:
REMARK  status: ('A' for Active; 'I' for Inactive)
REMARK       I    between atoms: C2_2  and  N1_4 
REMARK    1  A    between atoms: N1_4  and  C3_6 
REMARK    2  A    between atoms: C3_6  and  C4_7 
REMARK    3  A    between atoms: C3_6  and  C6_11 
REMARK    4  A    between atoms: C4_7  and  C5_8 
REMARK       I    between atoms: C6_11  and  N2_13 
REMARK    5  A    between atoms: N2_13  and  C7_15 
REMARK    6  A    between atoms: C7_15  and  C8_16 
REMARK    7  A    between atoms: C7_15  and  P1_23 
REMARK    8  A    between atoms: C8_16  and  C9_17 
REMARK    9  A    between atoms: P1_23  and  C15_26 
REMARK   10  A    between atoms: C15_26  and  C16_27 
REMARK   11  A    between atoms: C16_27  and  C18_29 
REMARK       I    between atoms: C18_29  and  N3_31 
REMARK   12  A    between atoms: N3_31  and  C19_33 
REMARK   13  A    between atoms: C19_33  and  C21_35 
ROOT
HETATM    1  C7  UNL     1      -2.622 -16.901 -23.109  1.00  0.00     0.184 C 
ENDROOT
BRANCH   1   2
HETATM    2  N2  UNL     1      -3.320 -17.826 -22.210  1.00  0.00    -0.345 N 
HETATM    3  C6  UNL     1      -4.059 -18.951 -22.680  1.00  0.00     0.241 C 
HETATM    4  O4  UNL     1      -4.131 -19.184 -23.890  1.00  0.00    -0.271 OA
ATOM      5  H2  UNL     1      -3.275 -17.657 -21.205  1.00  0.00     0.163 HD
BRANCH   3   6
HETATM    6  C3  UNL     1      -4.757 -19.867 -21.719  1.00  0.00     0.186 C 
BRANCH   6   7
HETATM    7  N1  UNL     1      -6.116 -19.475 -21.498  1.00  0.00    -0.348 N 
HETATM    8  C2  UNL     1      -6.506 -18.396 -20.674  1.00  0.00     0.214 C 
HETATM    9  C1  UNL     1      -7.954 -18.082 -20.518  1.00  0.00     0.117 C 
HETATM   10  O1  UNL     1      -5.588 -17.741 -20.100  1.00  0.00    -0.274 OA
ATOM     11  H1  UNL     1      -6.850 -20.008 -21.966  1.00  0.00     0.163 HD
ENDBRANCH   6   7
BRANCH   6  12
HETATM   12  C4  UNL     1      -4.741 -21.301 -22.173  1.00  0.00     0.147 C 
BRANCH  12  13
HETATM   13  C5  UNL     1      -5.463 -22.080 -21.115  1.00  0.00     0.175 C 
HETATM   14  O2  UNL     1      -6.546 -22.683 -21.373  1.00  0.00    -0.648 OA
HETATM   15  O3  UNL     1      -4.980 -22.168 -19.825  1.00  0.00    -0.648 OA
ENDBRANCH  12  13
ENDBRANCH   6  12
ENDBRANCH   3   6
ENDBRANCH   1   2
BRANCH   1  16
HETATM   16  C8  UNL     1      -3.013 -15.499 -22.603  1.00  0.00     0.074 C 
BRANCH  16  17
HETATM   17  C9  UNL     1      -4.290 -15.072 -23.165  1.00  0.00    -0.056 A 
HETATM   18  C10 UNL     1      -4.509 -15.028 -24.526  1.00  0.00     0.007 A 
HETATM   19  C11 UNL     1      -5.727 -14.623 -25.057  1.00  0.00     0.001 A 
HETATM   20  C12 UNL     1      -6.764 -14.249 -24.240  1.00  0.00     0.000 A 
HETATM   21  C13 UNL     1      -6.560 -14.289 -22.876  1.00  0.00     0.001 A 
HETATM   22  C14 UNL     1      -5.339 -14.695 -22.354  1.00  0.00     0.007 A 
ENDBRANCH  16  17
ENDBRANCH   1  16
BRANCH   1  23
HETATM   23  P1  UNL     1      -0.915 -17.286 -23.008  1.00  0.00     0.153 P 
HETATM   24  O5  UNL     1      -0.460 -18.940 -23.016  1.00  0.00    -0.663 OA
HETATM   25  O6  UNL     1      -0.937 -17.465 -21.484  1.00  0.00    -0.663 OA
BRANCH  23  26
HETATM   26  C15 UNL     1       0.297 -16.068 -23.083  1.00  0.00     0.088 C 
BRANCH  26  27
HETATM   27  C16 UNL     1       1.751 -16.395 -23.132  1.00  0.00     0.012 C 
HETATM   28  C17 UNL     1       2.506 -15.913 -24.338  1.00  0.00     0.054 C 
BRANCH  27  29
HETATM   29  C18 UNL     1       2.503 -16.195 -21.886  1.00  0.00     0.248 C 
HETATM   30  O7  UNL     1       2.642 -17.171 -21.107  1.00  0.00    -0.268 OA
HETATM   31  N3  UNL     1       3.104 -14.986 -21.460  1.00  0.00    -0.345 N 
ATOM     32  H3  UNL     1       3.024 -14.160 -22.054  1.00  0.00     0.163 HD
BRANCH  31  33
HETATM   33  C19 UNL     1       3.838 -14.878 -20.198  1.00  0.00     0.170 C 
HETATM   34  C20 UNL     1       5.282 -14.541 -20.593  1.00  0.00     0.042 C 
BRANCH  33  35
HETATM   35  C21 UNL     1       3.362 -13.758 -19.369  1.00  0.00     0.253 C 
HETATM   36  N4  UNL     1       2.934 -12.569 -19.987  1.00  0.00    -0.060 NA
HETATM   37  O8  UNL     1       3.342 -13.870 -18.131  1.00  0.00    -0.275 OA
ENDBRANCH  33  35
ENDBRANCH  31  33
ENDBRANCH  27  29
ENDBRANCH  26  27
ENDBRANCH  23  26
ENDBRANCH   1  23
TORSDOF 13
ENDMDL
