MODEL 4
REMARK VINA RESULT: -9.340662666      1.820      2.195
REMARK  13 active torsions:
REMARK  status: ('A' for Active; 'I' for Inactive)
REMARK       I    between atoms: C2_2  and  N1_4 
REMARK    1  A    between atoms: N1_4  and  C3_6 
REMARK    2  A    between atoms: C3_6  and  C4_7 
REMARK    3  A    between atoms: C3_6  and  C6_11 
REMARK    4  A    between atoms: C4_7  and  C5_8 
REMARK       I    between atoms: C6_11  and  N2_13 
REMARK    5  A    between atoms: N2_13  and  C7_15 
REMARK    6  A    between atoms: C7_15  and  C8_16 
REMARK    7  A    between atoms: C7_15  and  P1_23 
REMARK    8  A    between atoms: C8_16  and  C9_17 
REMARK    9  A    between atoms: P1_23  and  C15_26 
REMARK   10  A    between atoms: C15_26  and  C16_27 
REMARK   11  A    between atoms: C16_27  and  C18_29 
REMARK       I    between atoms: C18_29  and  N3_31 
REMARK   12  A    between atoms: N3_31  and  C19_33 
REMARK   13  A    between atoms: C19_33  and  C21_35 
ROOT
HETATM    1  C7  UNL     1      -2.501 -16.860 -23.109  1.00  0.00     0.184 C 
ENDROOT
BRANCH   1   2
HETATM    2  N2  UNL     1      -3.292 -17.692 -22.197  1.00  0.00    -0.345 N 
HETATM    3  C6  UNL     1      -3.942 -18.891 -22.613  1.00  0.00     0.241 C 
HETATM    4  O4  UNL     1      -3.852 -19.271 -23.783  1.00  0.00    -0.271 OA
ATOM      5  H2  UNL     1      -3.380 -17.401 -21.223  1.00  0.00     0.163 HD
BRANCH   3   6
HETATM    6  C3  UNL     1      -4.742 -19.707 -21.642  1.00  0.00     0.186 C 
BRANCH   6   7
HETATM    7  N1  UNL     1      -6.079 -19.216 -21.503  1.00  0.00    -0.348 N 
HETATM    8  C2  UNL     1      -6.445 -18.139 -20.667  1.00  0.00     0.214 C 
HETATM    9  C1  UNL     1      -7.872 -17.716 -20.603  1.00  0.00     0.117 C 
HETATM   10  O1  UNL     1      -5.525 -17.579 -20.002  1.00  0.00    -0.274 OA
ATOM     11  H1  UNL     1      -6.815 -19.673 -22.043  1.00  0.00     0.163 HD
ENDBRANCH   6   7
BRANCH   6  12
HETATM   12  C4  UNL     1      -4.803 -21.161 -22.023  1.00  0.00     0.147 C 
BRANCH  12  13
HETATM   13  C5  UNL     1      -5.287 -21.890 -20.805  1.00  0.00     0.175 C 
HETATM   14  O2  UNL     1      -5.896 -22.997 -20.906  1.00  0.00    -0.648 OA
HETATM   15  O3  UNL     1      -5.091 -21.387 -19.535  1.00  0.00    -0.648 OA
ENDBRANCH  12  13
ENDBRANCH   6  12
ENDBRANCH   3   6
ENDBRANCH   1   2
BRANCH   1  16
HETATM   16  C8  UNL     1      -2.883 -15.412 -22.741  1.00  0.00     0.074 C 
BRANCH  16  17
HETATM   17  C9  UNL     1      -4.236 -15.095 -23.185  1.00  0.00    -0.056 A 
HETATM   18  C10 UNL     1      -5.264 -14.881 -22.291  1.00  0.00     0.007 A 
HETATM   19  C11 UNL     1      -6.551 -14.577 -22.718  1.00  0.00     0.001 A 
HETATM   20  C12 UNL     1      -6.847 -14.478 -24.055  1.00  0.00     0.000 A 
HETATM   21  C13 UNL     1      -5.827 -14.689 -24.960  1.00  0.00     0.001 A 
HETATM   22  C14 UNL     1      -4.544 -14.992 -24.524  1.00  0.00     0.007 A 
ENDBRANCH  16  17
ENDBRANCH   1  16
BRANCH   1  23
HETATM   23  P1  UNL     1      -0.819 -17.280 -22.850  1.00  0.00     0.153 P 
HETATM   24  O5  UNL     1      -0.373 -18.932 -22.971  1.00  0.00    -0.663 OA
HETATM   25  O6  UNL     1      -1.019 -17.609 -21.364  1.00  0.00    -0.663 OA
BRANCH  23  26
HETATM   26  C15 UNL     1       0.399 -16.080 -22.662  1.00  0.00     0.088 C 
BRANCH  26  27
HETATM   27  C16 UNL     1       1.852 -16.416 -22.648  1.00  0.00     0.012 C 
HETATM   28  C17 UNL     1       2.636 -16.051 -23.876  1.00  0.00     0.054 C 
BRANCH  27  29
HETATM   29  C18 UNL     1       2.577 -16.106 -21.409  1.00  0.00     0.248 C 
HETATM   30  O7  UNL     1       2.226 -15.100 -20.745  1.00  0.00    -0.268 OA
HETATM   31  N3  UNL     1       3.659 -16.844 -20.870  1.00  0.00    -0.345 N 
ATOM     32  H3  UNL     1       3.986 -17.673 -21.367  1.00  0.00     0.163 HD
BRANCH  31  33
HETATM   33  C19 UNL     1       4.325 -16.461 -19.624  1.00  0.00     0.170 C 
HETATM   34  C20 UNL     1       4.654 -17.782 -18.914  1.00  0.00     0.042 C 
BRANCH  33  35
HETATM   35  C21 UNL     1       5.611 -15.787 -19.862  1.00  0.00     0.253 C 
HETATM   36  N4  UNL     1       5.633 -14.405 -20.122  1.00  0.00    -0.060 NA
HETATM   37  O8  UNL     1       6.667 -16.442 -19.832  1.00  0.00    -0.275 OA
ENDBRANCH  33  35
ENDBRANCH  31  33
ENDBRANCH  27  29
ENDBRANCH  26  27
ENDBRANCH  23  26
ENDBRANCH   1  23
TORSDOF 13
ENDMDL
