MODEL 8
REMARK VINA RESULT: -5.004956231      2.624      4.464
REMARK  1 active torsions:
REMARK  status: ('A' for Active; 'I' for Inactive)
REMARK    1  A    between atoms: N1_2  and  C1_4 
ROOT
HETATM    1  C1  UNL     1      23.591  -1.575 -21.968  1.00  0.00     0.105 A 
HETATM    2  C2  UNL     1      22.397  -2.120 -21.550  1.00  0.00     0.038 A 
HETATM    3  C3  UNL     1      22.252  -2.811 -20.366  1.00  0.00     0.036 A 
HETATM    4  C4  UNL     1      23.340  -2.976 -19.552  1.00  0.00     0.077 A 
HETATM    5  N2  UNL     1      23.512  -3.587 -18.362  1.00  0.00    -0.284 N 
ATOM      6  H2  UNL     1      22.798  -4.074 -17.819  1.00  0.00     0.188 HD
HETATM    7  N3  UNL     1      24.783  -3.435 -18.034  1.00  0.00    -0.242 N 
ATOM      8  H3  UNL     1      25.205  -3.796 -17.179  1.00  0.00     0.208 HD
HETATM    9  N4  UNL     1      25.431  -2.755 -18.957  1.00  0.00    -0.284 N 
ATOM     10  H4  UNL     1      26.420  -2.507 -18.935  1.00  0.00     0.188 HD
HETATM   11  C5  UNL     1      24.563  -2.445 -19.930  1.00  0.00     0.080 A 
HETATM   12  C6  UNL     1      24.677  -1.755 -21.125  1.00  0.00     0.069 A 
ENDROOT
BRANCH   1  13
HETATM   13  N1  UNL     1      23.736  -0.866 -23.182  1.00  0.00    -0.116 N 
HETATM   14  O1  UNL     1      24.850  -0.384 -23.460  1.00  0.00    -0.532 OA
HETATM   15  O2  UNL     1      22.658  -0.723 -24.019  1.00  0.00    -0.532 OA
ENDBRANCH   1  13
TORSDOF 1
ENDMDL
