MODEL 2
REMARK VINA RESULT: -6.588277954      1.011      2.074
REMARK  1 active torsions:
REMARK  status: ('A' for Active; 'I' for Inactive)
REMARK    1  A    between atoms: N1_2  and  C1_4 
ROOT
HETATM    1  C1  UNL     1      23.788  -2.619 -20.120  1.00  0.00     0.105 A 
HETATM    2  C2  UNL     1      24.865  -2.121 -20.818  1.00  0.00     0.038 A 
HETATM    3  C3  UNL     1      24.780  -1.649 -22.110  1.00  0.00     0.036 A 
HETATM    4  C4  UNL     1      23.569  -1.669 -22.749  1.00  0.00     0.077 A 
HETATM    5  N2  UNL     1      23.174  -1.287 -23.981  1.00  0.00    -0.284 N 
ATOM      6  H2  UNL     1      23.762  -0.883 -24.710  1.00  0.00     0.188 HD
HETATM    7  N3  UNL     1      21.879  -1.536 -24.062  1.00  0.00    -0.242 N 
ATOM      8  H3  UNL     1      21.306  -1.348 -24.883  1.00  0.00     0.208 HD
HETATM    9  N4  UNL     1      21.427  -2.058 -22.940  1.00  0.00    -0.284 N 
ATOM     10  H4  UNL     1      20.464  -2.337 -22.755  1.00  0.00     0.188 HD
HETATM   11  C5  UNL     1      22.455  -2.160 -22.086  1.00  0.00     0.080 A 
HETATM   12  C6  UNL     1      22.573  -2.627 -20.788  1.00  0.00     0.069 A 
ENDROOT
BRANCH   1  13
HETATM   13  N1  UNL     1      23.879  -3.101 -18.793  1.00  0.00    -0.116 N 
HETATM   14  O1  UNL     1      22.879  -3.644 -18.288  1.00  0.00    -0.532 OA
HETATM   15  O2  UNL     1      25.054  -2.960 -18.098  1.00  0.00    -0.532 OA
ENDBRANCH   1  13
TORSDOF 1
ENDMDL
