MODEL 5
REMARK VINA RESULT: -6.269146327      3.007      4.404
REMARK  1 active torsions:
REMARK  status: ('A' for Active; 'I' for Inactive)
REMARK    1  A    between atoms: N1_2  and  C1_4 
ROOT
HETATM    1  C1  UNL     1      22.879  -1.859 -22.570  1.00  0.00     0.105 A 
HETATM    2  C2  UNL     1      21.740  -2.173 -21.863  1.00  0.00     0.038 A 
HETATM    3  C3  UNL     1      21.755  -2.629 -20.563  1.00  0.00     0.036 A 
HETATM    4  C4  UNL     1      22.957  -2.786 -19.925  1.00  0.00     0.077 A 
HETATM    5  N2  UNL     1      23.291  -3.203 -18.686  1.00  0.00    -0.284 N 
ATOM      6  H2  UNL     1      22.650  -3.498 -17.950  1.00  0.00     0.188 HD
HETATM    7  N3  UNL     1      24.609  -3.154 -18.610  1.00  0.00    -0.242 N 
ATOM      8  H3  UNL     1      25.149  -3.414 -17.785  1.00  0.00     0.208 HD
HETATM    9  N4  UNL     1      25.133  -2.726 -19.740  1.00  0.00    -0.284 N 
ATOM     10  H4  UNL     1      26.127  -2.603 -19.931  1.00  0.00     0.188 HD
HETATM   11  C5  UNL     1      24.131  -2.482 -20.595  1.00  0.00     0.080 A 
HETATM   12  C6  UNL     1      24.083  -2.025 -21.901  1.00  0.00     0.069 A 
ENDROOT
BRANCH   1  13
HETATM   13  N1  UNL     1      22.859  -1.389 -23.903  1.00  0.00    -0.116 N 
HETATM   14  O1  UNL     1      22.575  -2.192 -24.813  1.00  0.00    -0.532 OA
HETATM   15  O2  UNL     1      23.151  -0.074 -24.166  1.00  0.00    -0.532 OA
ENDBRANCH   1  13
TORSDOF 1
ENDMDL
