MODEL 9
REMARK VINA RESULT: -4.696899562      3.201      4.581
REMARK  1 active torsions:
REMARK  status: ('A' for Active; 'I' for Inactive)
REMARK    1  A    between atoms: N1_2  and  C1_4 
ROOT
HETATM    1  C1  UNL     1      22.915  -1.317 -23.290  1.00  0.00     0.105 A 
HETATM    2  C2  UNL     1      21.657  -1.689 -22.871  1.00  0.00     0.038 A 
HETATM    3  C3  UNL     1      21.406  -2.267 -21.646  1.00  0.00     0.036 A 
HETATM    4  C4  UNL     1      22.449  -2.494 -20.788  1.00  0.00     0.077 A 
HETATM    5  N2  UNL     1      22.522  -3.030 -19.553  1.00  0.00    -0.284 N 
ATOM      6  H2  UNL     1      21.745  -3.389 -18.999  1.00  0.00     0.188 HD
HETATM    7  N3  UNL     1      23.795  -2.999 -19.198  1.00  0.00    -0.242 N 
ATOM      8  H3  UNL     1      24.153  -3.340 -18.306  1.00  0.00     0.208 HD
HETATM    9  N4  UNL     1      24.538  -2.468 -20.147  1.00  0.00    -0.284 N 
ATOM     10  H4  UNL     1      25.548  -2.335 -20.113  1.00  0.00     0.188 HD
HETATM   11  C5  UNL     1      23.734  -2.136 -21.166  1.00  0.00     0.080 A 
HETATM   12  C6  UNL     1      23.954  -1.555 -22.404  1.00  0.00     0.069 A 
ENDROOT
BRANCH   1  13
HETATM   13  N1  UNL     1      23.168  -0.722 -24.548  1.00  0.00    -0.116 N 
HETATM   14  O1  UNL     1      23.774  -1.386 -25.409  1.00  0.00    -0.532 OA
HETATM   15  O2  UNL     1      22.747   0.561 -24.790  1.00  0.00    -0.532 OA
ENDBRANCH   1  13
TORSDOF 1
ENDMDL
