MODEL 6
REMARK VINA RESULT: -6.261319361      0.850      1.900
REMARK  1 active torsions:
REMARK  status: ('A' for Active; 'I' for Inactive)
REMARK    1  A    between atoms: N1_2  and  C1_4 
ROOT
HETATM    1  C1  UNL     1      23.468  -2.394 -20.599  1.00  0.00     0.105 A 
HETATM    2  C2  UNL     1      24.749  -1.896 -20.689  1.00  0.00     0.038 A 
HETATM    3  C3  UNL     1      25.218  -1.201 -21.783  1.00  0.00     0.036 A 
HETATM    4  C4  UNL     1      24.380  -0.984 -22.845  1.00  0.00     0.077 A 
HETATM    5  N2  UNL     1      24.542  -0.355 -24.027  1.00  0.00    -0.284 N 
ATOM      6  H2  UNL     1      25.388   0.106 -24.360  1.00  0.00     0.188 HD
HETATM    7  N3  UNL     1      23.392  -0.451 -24.671  1.00  0.00    -0.242 N 
ATOM      8  H3  UNL     1      23.215  -0.065 -25.597  1.00  0.00     0.208 HD
HETATM    9  N4  UNL     1      22.503  -1.111 -23.956  1.00  0.00    -0.284 N 
ATOM     10  H4  UNL     1      21.544  -1.316 -24.234  1.00  0.00     0.188 HD
HETATM   11  C5  UNL     1      23.082  -1.465 -22.800  1.00  0.00     0.080 A 
HETATM   12  C6  UNL     1      22.640  -2.160 -21.687  1.00  0.00     0.069 A 
ENDROOT
BRANCH   1  13
HETATM   13  N1  UNL     1      22.990  -3.106 -19.475  1.00  0.00    -0.116 N 
HETATM   14  O1  UNL     1      21.799  -3.470 -19.463  1.00  0.00    -0.532 OA
HETATM   15  O2  UNL     1      23.839  -3.376 -18.431  1.00  0.00    -0.532 OA
ENDBRANCH   1  13
TORSDOF 1
ENDMDL
