MODEL 7
REMARK VINA RESULT: -6.039762984      0.878      1.054
REMARK  1 active torsions:
REMARK  status: ('A' for Active; 'I' for Inactive)
REMARK    1  A    between atoms: N1_2  and  C1_4 
ROOT
HETATM    1  C1  UNL     1      23.770  -2.541 -20.186  1.00  0.00     0.105 A 
HETATM    2  C2  UNL     1      22.403  -2.617 -20.336  1.00  0.00     0.038 A 
HETATM    3  C3  UNL     1      21.742  -2.222 -21.479  1.00  0.00     0.036 A 
HETATM    4  C4  UNL     1      22.465  -1.723 -22.530  1.00  0.00     0.077 A 
HETATM    5  N2  UNL     1      22.116  -1.265 -23.750  1.00  0.00    -0.284 N 
ATOM      6  H2  UNL     1      21.171  -1.207 -24.130  1.00  0.00     0.188 HD
HETATM    7  N3  UNL     1      23.233  -0.907 -24.358  1.00  0.00    -0.242 N 
ATOM      8  H3  UNL     1      23.279  -0.522 -25.300  1.00  0.00     0.208 HD
HETATM    9  N4  UNL     1      24.279  -1.115 -23.585  1.00  0.00    -0.284 N 
ATOM     10  H4  UNL     1      25.251  -0.920 -23.826  1.00  0.00     0.188 HD
HETATM   11  C5  UNL     1      23.844  -1.628 -22.426  1.00  0.00     0.080 A 
HETATM   12  C6  UNL     1      24.479  -2.034 -21.265  1.00  0.00     0.069 A 
ENDROOT
BRANCH   1  13
HETATM   13  N1  UNL     1      24.444  -2.949 -19.013  1.00  0.00    -0.116 N 
HETATM   14  O1  UNL     1      23.984  -3.907 -18.364  1.00  0.00    -0.532 OA
HETATM   15  O2  UNL     1      25.580  -2.288 -18.616  1.00  0.00    -0.532 OA
ENDBRANCH   1  13
TORSDOF 1
ENDMDL
