MODEL 5
REMARK VINA RESULT: -8.426022929      6.456     12.685
REMARK  4 active torsions:
REMARK  status: ('A' for Active; 'I' for Inactive)
REMARK       I    between atoms: C1_2  and  N1_3 
REMARK    1  A    between atoms: C1_2  and  C13_25 
REMARK    2  A    between atoms: N1_3  and  C2_5 
REMARK    3  A    between atoms: C3_10  and  S1_11 
REMARK    4  A    between atoms: S1_11  and  C4_12 
ROOT
HETATM    1  C2  UNL     1       4.250  18.247  23.255  1.00  0.00     0.168 A 
HETATM    2  N2  UNL     1       5.362  17.905  22.611  1.00  0.00    -0.278 N 
ATOM      3  H2  UNL     1       5.869  18.599  22.061  1.00  0.00     0.189 HD
HETATM    4  N3  UNL     1       5.787  16.718  22.680  1.00  0.00    -0.286 N 
ATOM      5  H3  UNL     1       6.639  16.452  22.187  1.00  0.00     0.188 HD
HETATM    6  C3  UNL     1       5.126  15.816  23.395  1.00  0.00     0.135 A 
HETATM    7  S2  UNL     1       3.831  16.756  23.984  1.00  0.00    -0.026 SA
ENDROOT
BRANCH   6   8
HETATM    8  S1  UNL     1       5.449  14.081  23.699  1.00  0.00    -0.063 SA
BRANCH   8   9
HETATM    9  C4  UNL     1       6.778  13.480  22.674  1.00  0.00     0.021 A 
HETATM   10  C5  UNL     1       7.852  14.269  22.332  1.00  0.00     0.037 A 
HETATM   11  C6  UNL     1       8.886  13.817  21.540  1.00  0.00     0.090 A 
HETATM   12  N4  UNL     1       8.862  12.543  21.070  1.00  0.00    -0.365 N 
HETATM   13  C7  UNL     1       7.834  11.731  21.376  1.00  0.00     0.045 A 
ATOM     14  H4  UNL     1       9.623  12.202  20.484  1.00  0.00     0.165 HD
HETATM   15  C8  UNL     1       7.841  10.444  20.880  1.00  0.00     0.054 A 
HETATM   16  C12 UNL     1       6.790  12.193  22.176  1.00  0.00     0.008 A 
HETATM   17  C9  UNL     1       6.820   9.576  21.161  1.00  0.00     0.036 A 
HETATM   18 CL1  UNL     1       6.841   7.936  20.524  1.00  0.00    -0.084 Cl
HETATM   19  C10 UNL     1       5.786  10.021  21.950  1.00  0.00     0.025 A 
HETATM   20  C11 UNL     1       5.774  11.317  22.451  1.00  0.00     0.017 A 
ENDBRANCH   8   9
ENDBRANCH   6   8
BRANCH   1  21
HETATM   21  N1  UNL     1       3.596  19.526  23.312  1.00  0.00    -0.301 N 
HETATM   22  C1  UNL     1       2.263  19.722  22.957  1.00  0.00     0.264 C 
HETATM   23  O1  UNL     1       1.558  18.764  22.560  1.00  0.00    -0.267 OA
ATOM     24  H1  UNL     1       4.135  20.331  23.630  1.00  0.00     0.171 HD
BRANCH  22  25
HETATM   25  C13 UNL     1       1.653  21.063  23.040  1.00  0.00     0.072 A 
HETATM   26  C14 UNL     1       1.872  22.150  22.241  1.00  0.00     0.025 A 
HETATM   27  C15 UNL     1       1.187  23.267  22.525  1.00  0.00     0.009 A 
HETATM   28  C16 UNL     1       0.327  23.227  23.586  1.00  0.00     0.050 A 
HETATM   29  S3  UNL     1       0.500  21.630  24.158  1.00  0.00    -0.097 SA
ENDBRANCH  22  25
ENDBRANCH   1  21
TORSDOF 4
ENDMDL
