MODEL 3
REMARK VINA RESULT: -8.478550575      4.531      7.200
REMARK  4 active torsions:
REMARK  status: ('A' for Active; 'I' for Inactive)
REMARK       I    between atoms: C1_2  and  N1_3 
REMARK    1  A    between atoms: C1_2  and  C13_25 
REMARK    2  A    between atoms: N1_3  and  C2_5 
REMARK    3  A    between atoms: C3_10  and  S1_11 
REMARK    4  A    between atoms: S1_11  and  C4_12 
ROOT
HETATM    1  C2  UNL     1       5.750  13.033  21.980  1.00  0.00     0.168 A 
HETATM    2  N2  UNL     1       6.463  13.930  21.307  1.00  0.00    -0.278 N 
ATOM      3  H2  UNL     1       7.106  13.629  20.575  1.00  0.00     0.189 HD
HETATM    4  N3  UNL     1       6.342  15.159  21.578  1.00  0.00    -0.286 N 
ATOM      5  H3  UNL     1       6.888  15.850  21.064  1.00  0.00     0.188 HD
HETATM    6  C3  UNL     1       5.505  15.550  22.531  1.00  0.00     0.135 A 
HETATM    7  S2  UNL     1       4.876  14.050  23.045  1.00  0.00    -0.026 SA
ENDROOT
BRANCH   6   8
HETATM    8  S1  UNL     1       5.102  17.179  23.154  1.00  0.00    -0.063 SA
BRANCH   8   9
HETATM    9  C4  UNL     1       3.404  17.265  23.693  1.00  0.00     0.021 A 
HETATM   10  C5  UNL     1       2.403  16.555  23.071  1.00  0.00     0.037 A 
HETATM   11  C6  UNL     1       1.086  16.613  23.477  1.00  0.00     0.090 A 
HETATM   12  N4  UNL     1       0.746  17.395  24.533  1.00  0.00    -0.365 N 
HETATM   13  C7  UNL     1       1.688  18.109  25.176  1.00  0.00     0.045 A 
ATOM     14  H4  UNL     1      -0.226  17.443  24.839  1.00  0.00     0.165 HD
HETATM   15  C8  UNL     1       1.306  18.894  26.244  1.00  0.00     0.054 A 
HETATM   16  C12 UNL     1       3.017  18.048  24.761  1.00  0.00     0.008 A 
HETATM   17  C9  UNL     1       2.224  19.639  26.933  1.00  0.00     0.036 A 
HETATM   18 CL1  UNL     1       1.724  20.636  28.294  1.00  0.00    -0.084 Cl
HETATM   19  C10 UNL     1       3.538  19.586  26.532  1.00  0.00     0.025 A 
HETATM   20  C11 UNL     1       3.927  18.798  25.457  1.00  0.00     0.017 A 
ENDBRANCH   8   9
ENDBRANCH   6   8
BRANCH   1  21
HETATM   21  N1  UNL     1       5.731  11.602  21.838  1.00  0.00    -0.301 N 
HETATM   22  C1  UNL     1       6.863  10.802  21.983  1.00  0.00     0.264 C 
HETATM   23  O1  UNL     1       7.977  11.311  22.252  1.00  0.00    -0.267 OA
ATOM     24  H1  UNL     1       4.844  11.150  21.620  1.00  0.00     0.171 HD
BRANCH  22  25
HETATM   25  C13 UNL     1       6.772   9.338  21.824  1.00  0.00     0.072 A 
HETATM   26  C14 UNL     1       6.876   8.368  22.781  1.00  0.00     0.025 A 
HETATM   27  C15 UNL     1       6.758   7.095  22.380  1.00  0.00     0.009 A 
HETATM   28  C16 UNL     1       6.542   6.871  21.049  1.00  0.00     0.050 A 
HETATM   29  S3  UNL     1       6.511   8.446  20.396  1.00  0.00    -0.097 SA
ENDBRANCH  22  25
ENDBRANCH   1  21
TORSDOF 4
ENDMDL
