MODEL 4
REMARK VINA RESULT: -8.450677637      4.457      7.146
REMARK  4 active torsions:
REMARK  status: ('A' for Active; 'I' for Inactive)
REMARK       I    between atoms: C1_2  and  N1_3 
REMARK    1  A    between atoms: C1_2  and  C13_25 
REMARK    2  A    between atoms: N1_3  and  C2_5 
REMARK    3  A    between atoms: C3_10  and  S1_11 
REMARK    4  A    between atoms: S1_11  and  C4_12 
ROOT
HETATM    1  C2  UNL     1       6.653  13.111  22.603  1.00  0.00     0.168 A 
HETATM    2  N2  UNL     1       7.362  14.117  22.102  1.00  0.00    -0.278 N 
ATOM      3  H2  UNL     1       8.225  13.930  21.591  1.00  0.00     0.189 HD
HETATM    4  N3  UNL     1       6.965  15.306  22.262  1.00  0.00    -0.286 N 
ATOM      5  H3  UNL     1       7.506  16.080  21.879  1.00  0.00     0.188 HD
HETATM    6  C3  UNL     1       5.842  15.547  22.927  1.00  0.00     0.135 A 
HETATM    7  S2  UNL     1       5.358  13.962  23.331  1.00  0.00    -0.026 SA
ENDROOT
BRANCH   6   8
HETATM    8  S1  UNL     1       5.011  17.082  23.326  1.00  0.00    -0.063 SA
BRANCH   8   9
HETATM    9  C4  UNL     1       3.239  16.882  23.316  1.00  0.00     0.021 A 
HETATM   10  C5  UNL     1       2.631  15.780  22.759  1.00  0.00     0.037 A 
HETATM   11  C6  UNL     1       1.262  15.613  22.744  1.00  0.00     0.090 A 
HETATM   12  N4  UNL     1       0.467  16.564  23.298  1.00  0.00    -0.365 N 
HETATM   13  C7  UNL     1       1.012  17.660  23.856  1.00  0.00     0.045 A 
ATOM     14  H4  UNL     1      -0.546  16.447  23.291  1.00  0.00     0.165 HD
HETATM   15  C8  UNL     1       0.173  18.605  24.408  1.00  0.00     0.054 A 
HETATM   16  C12 UNL     1       2.396  17.825  23.868  1.00  0.00     0.008 A 
HETATM   17  C9  UNL     1       0.676  19.738  24.989  1.00  0.00     0.036 A 
HETATM   18 CL1  UNL     1      -0.405  20.936  25.691  1.00  0.00    -0.084 Cl
HETATM   19  C10 UNL     1       2.040  19.910  25.006  1.00  0.00     0.025 A 
HETATM   20  C11 UNL     1       2.888  18.962  24.451  1.00  0.00     0.017 A 
ENDBRANCH   8   9
ENDBRANCH   6   8
BRANCH   1  21
HETATM   21  N1  UNL     1       6.917  11.699  22.540  1.00  0.00    -0.301 N 
HETATM   22  C1  UNL     1       6.186  10.816  21.749  1.00  0.00     0.264 C 
HETATM   23  O1  UNL     1       5.238  11.228  21.037  1.00  0.00    -0.267 OA
ATOM     24  H1  UNL     1       7.680  11.324  23.105  1.00  0.00     0.171 HD
BRANCH  22  25
HETATM   25  C13 UNL     1       6.511   9.377  21.731  1.00  0.00     0.072 A 
HETATM   26  C14 UNL     1       6.828   8.561  22.780  1.00  0.00     0.025 A 
HETATM   27  C15 UNL     1       7.086   7.276  22.503  1.00  0.00     0.009 A 
HETATM   28  C16 UNL     1       7.010   6.886  21.195  1.00  0.00     0.050 A 
HETATM   29  S3  UNL     1       6.580   8.328  20.391  1.00  0.00    -0.097 SA
ENDBRANCH  22  25
ENDBRANCH   1  21
TORSDOF 4
ENDMDL
