MODEL 2
REMARK VINA RESULT: -9.497754935      1.153      1.287
REMARK  4 active torsions:
REMARK  status: ('A' for Active; 'I' for Inactive)
REMARK       I    between atoms: C1_2  and  N1_3 
REMARK    1  A    between atoms: C1_2  and  C13_25 
REMARK    2  A    between atoms: N1_3  and  C2_5 
REMARK    3  A    between atoms: C3_10  and  S1_11 
REMARK    4  A    between atoms: S1_11  and  C4_12 
ROOT
HETATM    1  C2  UNL     1       7.499   6.834  21.350  1.00  0.00     0.168 A 
HETATM    2  N2  UNL     1       7.128   7.352  22.516  1.00  0.00    -0.278 N 
ATOM      3  H2  UNL     1       7.297   6.838  23.381  1.00  0.00     0.189 HD
HETATM    4  N3  UNL     1       6.563   8.482  22.550  1.00  0.00    -0.286 N 
ATOM      5  H3  UNL     1       6.276   8.881  23.444  1.00  0.00     0.188 HD
HETATM    6  C3  UNL     1       6.342   9.149  21.424  1.00  0.00     0.135 A 
HETATM    7  S2  UNL     1       6.992   8.068  20.276  1.00  0.00    -0.026 SA
ENDROOT
BRANCH   6   8
HETATM    8  S1  UNL     1       5.581  10.741  21.123  1.00  0.00    -0.063 SA
BRANCH   8   9
HETATM    9  C4  UNL     1       6.693  12.077  21.523  1.00  0.00     0.021 A 
HETATM   10  C5  UNL     1       8.050  11.986  21.313  1.00  0.00     0.037 A 
HETATM   11  C6  UNL     1       8.920  13.012  21.618  1.00  0.00     0.090 A 
HETATM   12  N4  UNL     1       8.437  14.165  22.147  1.00  0.00    -0.365 N 
HETATM   13  C7  UNL     1       7.117  14.304  22.371  1.00  0.00     0.045 A 
ATOM     14  H4  UNL     1       9.074  14.927  22.375  1.00  0.00     0.165 HD
HETATM   15  C8  UNL     1       6.661  15.488  22.910  1.00  0.00     0.054 A 
HETATM   16  C12 UNL     1       6.242  13.264  22.062  1.00  0.00     0.008 A 
HETATM   17  C9  UNL     1       5.329  15.682  23.158  1.00  0.00     0.036 A 
HETATM   18 CL1  UNL     1       4.760  17.198  23.845  1.00  0.00    -0.084 Cl
HETATM   19  C10 UNL     1       4.456  14.663  22.856  1.00  0.00     0.025 A 
HETATM   20  C11 UNL     1       4.911  13.468  22.314  1.00  0.00     0.017 A 
ENDBRANCH   8   9
ENDBRANCH   6   8
BRANCH   1  21
HETATM   21  N1  UNL     1       8.149   5.580  21.083  1.00  0.00    -0.301 N 
HETATM   22  C1  UNL     1       7.574   4.343  21.365  1.00  0.00     0.264 C 
HETATM   23  O1  UNL     1       6.432   4.270  21.879  1.00  0.00    -0.267 OA
ATOM     24  H1  UNL     1       9.079   5.597  20.665  1.00  0.00     0.171 HD
BRANCH  22  25
HETATM   25  C13 UNL     1       8.297   3.092  21.065  1.00  0.00     0.072 A 
HETATM   26  C14 UNL     1       9.105   2.809  20.000  1.00  0.00     0.025 A 
HETATM   27  C15 UNL     1       9.653   1.586  19.953  1.00  0.00     0.009 A 
HETATM   28  C16 UNL     1       9.360   0.725  20.973  1.00  0.00     0.050 A 
HETATM   29  S3  UNL     1       8.327   1.648  21.968  1.00  0.00    -0.097 SA
ENDBRANCH  22  25
ENDBRANCH   1  21
TORSDOF 4
ENDMDL
