MODEL 1
REMARK VINA RESULT: -9.672869651      0.000      0.000
REMARK  4 active torsions:
REMARK  status: ('A' for Active; 'I' for Inactive)
REMARK       I    between atoms: C1_2  and  N1_3 
REMARK    1  A    between atoms: C1_2  and  C13_25 
REMARK    2  A    between atoms: N1_3  and  C2_5 
REMARK    3  A    between atoms: C3_10  and  S1_11 
REMARK    4  A    between atoms: S1_11  and  C4_12 
ROOT
HETATM    1  C2  UNL     1       7.658   6.405  21.228  1.00  0.00     0.168 A 
HETATM    2  N2  UNL     1       7.191   7.197  20.268  1.00  0.00    -0.278 N 
ATOM      3  H2  UNL     1       7.245   6.904  19.292  1.00  0.00     0.189 HD
HETATM    4  N3  UNL     1       6.681   8.313  20.567  1.00  0.00    -0.286 N 
ATOM      5  H3  UNL     1       6.322   8.923  19.833  1.00  0.00     0.188 HD
HETATM    6  C3  UNL     1       6.611   8.693  21.837  1.00  0.00     0.135 A 
HETATM    7  S2  UNL     1       7.325   7.353  22.615  1.00  0.00    -0.026 SA
ENDROOT
BRANCH   6   8
HETATM    8  S1  UNL     1       5.963  10.181  22.592  1.00  0.00    -0.063 SA
BRANCH   8   9
HETATM    9  C4  UNL     1       6.957  11.603  22.181  1.00  0.00     0.021 A 
HETATM   10  C5  UNL     1       8.167  11.487  21.534  1.00  0.00     0.037 A 
HETATM   11  C6  UNL     1       8.945  12.578  21.210  1.00  0.00     0.090 A 
HETATM   12  N4  UNL     1       8.518  13.825  21.535  1.00  0.00    -0.365 N 
HETATM   13  C7  UNL     1       7.343  13.993  22.168  1.00  0.00     0.045 A 
ATOM     14  H4  UNL     1       9.088  14.636  21.298  1.00  0.00     0.165 HD
HETATM   15  C8  UNL     1       6.940  15.273  22.483  1.00  0.00     0.054 A 
HETATM   16  C12 UNL     1       6.559  12.887  22.493  1.00  0.00     0.008 A 
HETATM   17  C9  UNL     1       5.753  15.500  23.126  1.00  0.00     0.036 A 
HETATM   18 CL1  UNL     1       5.251  17.138  23.522  1.00  0.00    -0.084 Cl
HETATM   19  C10 UNL     1       4.972  14.416  23.452  1.00  0.00     0.025 A 
HETATM   20  C11 UNL     1       5.374  13.124  23.137  1.00  0.00     0.017 A 
ENDBRANCH   8   9
ENDBRANCH   6   8
BRANCH   1  21
HETATM   21  N1  UNL     1       8.270   5.110  21.114  1.00  0.00    -0.301 N 
HETATM   22  C1  UNL     1       7.619   3.922  21.439  1.00  0.00     0.264 C 
HETATM   23  O1  UNL     1       6.437   3.933  21.857  1.00  0.00    -0.267 OA
ATOM     24  H1  UNL     1       9.232   5.058  20.778  1.00  0.00     0.171 HD
BRANCH  22  25
HETATM   25  C13 UNL     1       8.308   2.624  21.297  1.00  0.00     0.072 A 
HETATM   26  C14 UNL     1       8.243   1.531  22.114  1.00  0.00     0.025 A 
HETATM   27  C15 UNL     1       8.971   0.461  21.766  1.00  0.00     0.009 A 
HETATM   28  C16 UNL     1       9.717   0.550  20.624  1.00  0.00     0.050 A 
HETATM   29  S3  UNL     1       9.379   2.127  20.069  1.00  0.00    -0.097 SA
ENDBRANCH  22  25
ENDBRANCH   1  21
TORSDOF 4
ENDMDL
