MODEL 9
REMARK VINA RESULT: -9.050252092      1.893      2.569
REMARK  10 active torsions:
REMARK  status: ('A' for Active; 'I' for Inactive)
REMARK    1  A    between atoms: C2_2  and  O1_3 
REMARK    2  A    between atoms: C2_2  and  C3_5 
REMARK    3  A    between atoms: C3_5  and  N1_6 
REMARK    4  A    between atoms: C3_5  and  C24_31 
REMARK       I    between atoms: N1_6  and  C4_8 
REMARK    5  A    between atoms: C4_8  and  C5_10 
REMARK    6  A    between atoms: C8_13  and  C9_14 
REMARK    7  A    between atoms: C10_15  and  C11_16 
REMARK    8  A    between atoms: C14_19  and  C15_20 
REMARK    9  A    between atoms: C15_20  and  N2_21 
REMARK       I    between atoms: C24_31  and  N3_33 
REMARK   10  A    between atoms: N3_33  and  O5_35 
ROOT
HETATM    1  C5  UNL     1      -5.381 -24.236  -5.665  1.00  0.00     0.032 A 
HETATM    2  C6  UNL     1      -4.052 -23.880  -5.626  1.00  0.00     0.018 A 
HETATM    3  C7  UNL     1      -3.388 -23.416  -6.760  1.00  0.00     0.022 A 
HETATM    4  C8  UNL     1      -4.047 -23.296  -7.965  1.00  0.00     0.018 A 
HETATM    5  C22 UNL     1      -5.378 -23.651  -8.002  1.00  0.00     0.022 A 
HETATM    6  C23 UNL     1      -6.030 -24.114  -6.866  1.00  0.00     0.018 A 
ENDROOT
BRANCH   1   7
HETATM    7  C4  UNL     1      -6.017 -24.714  -4.447  1.00  0.00     0.252 C 
HETATM    8  N1  UNL     1      -6.994 -24.000  -3.725  1.00  0.00    -0.341 N 
ATOM      9  H1  UNL     1      -7.274 -23.085  -4.080  1.00  0.00     0.163 HD
HETATM   10  O2  UNL     1      -5.697 -25.843  -3.976  1.00  0.00    -0.268 OA
BRANCH   8  11
HETATM   11  C3  UNL     1      -7.629 -24.479  -2.510  1.00  0.00     0.207 C 
BRANCH  11  12
HETATM   12  C2  UNL     1      -8.055 -23.216  -1.750  1.00  0.00     0.146 C 
HETATM   13  C1  UNL     1      -7.082 -22.087  -2.048  1.00  0.00     0.042 C 
BRANCH  12  14
HETATM   14  O1  UNL     1      -9.356 -22.865  -2.018  1.00  0.00    -0.393 OA
ATOM     15  H1  UNL     1      -9.941 -23.086  -1.304  1.00  0.00     0.210 HD
ENDBRANCH  12  14
ENDBRANCH  11  12
BRANCH  11  16
HETATM   16  C24 UNL     1      -8.755 -25.369  -2.766  1.00  0.00     0.266 C 
HETATM   17  O4  UNL     1      -9.458 -25.774  -1.811  1.00  0.00    -0.269 OA
HETATM   18  N3  UNL     1      -9.071 -25.787  -4.076  1.00  0.00    -0.236 N 
ATOM     19  H3  UNL     1      -8.501 -25.460  -4.855  1.00  0.00     0.197 HD
BRANCH  18  20
HETATM   20  O5  UNL     1     -10.130 -26.626  -4.326  1.00  0.00    -0.287 OA
ATOM     21  H5  UNL     1     -10.293 -26.974  -5.195  1.00  0.00     0.244 HD
ENDBRANCH  18  20
ENDBRANCH  11  16
ENDBRANCH   8  11
ENDBRANCH   1   7
BRANCH   4  22
HETATM   22  C9  UNL     1      -3.386 -22.818  -9.152  1.00  0.00    -0.061 C 
HETATM   23  C10 UNL     1      -2.815 -22.409 -10.139  1.00  0.00    -0.061 C 
BRANCH  23  24
HETATM   24  C11 UNL     1      -2.128 -21.906 -11.294  1.00  0.00     0.018 A 
HETATM   25  C12 UNL     1      -2.636 -20.850 -11.993  1.00  0.00     0.021 A 
HETATM   26  C13 UNL     1      -1.978 -20.356 -13.115  1.00  0.00     0.010 A 
HETATM   27  C14 UNL     1      -0.798 -20.910 -13.558  1.00  0.00    -0.030 A 
HETATM   28  C20 UNL     1      -0.298 -21.977 -12.842  1.00  0.00     0.010 A 
HETATM   29  C21 UNL     1      -0.935 -22.483 -11.724  1.00  0.00     0.021 A 
BRANCH  27  30
HETATM   30  C15 UNL     1      -0.043 -20.439 -14.738  1.00  0.00     0.311 C 
BRANCH  30  31
HETATM   31  N2  UNL     1       0.694 -19.233 -14.529  1.00  0.00     0.096 N 
HETATM   32  C16 UNL     1       0.727 -18.503 -15.789  1.00  0.00     0.299 C 
HETATM   33  C17 UNL     1       1.256 -17.106 -15.570  1.00  0.00     0.198 C 
HETATM   34  O3  UNL     1       2.403 -17.171 -14.802  1.00  0.00    -0.388 OA
HETATM   35  C18 UNL     1       2.987 -18.434 -14.789  1.00  0.00     0.198 C 
HETATM   36  C19 UNL     1       2.080 -19.481 -14.172  1.00  0.00     0.299 C 
ENDBRANCH  30  31
ENDBRANCH  27  30
ENDBRANCH  23  24
ENDBRANCH   4  22
TORSDOF 10
ENDMDL
