MODEL 4
REMARK VINA RESULT: -9.888004757      1.588      2.190
REMARK  10 active torsions:
REMARK  status: ('A' for Active; 'I' for Inactive)
REMARK    1  A    between atoms: C2_2  and  O1_3 
REMARK    2  A    between atoms: C2_2  and  C3_5 
REMARK    3  A    between atoms: C3_5  and  N1_6 
REMARK    4  A    between atoms: C3_5  and  C24_31 
REMARK       I    between atoms: N1_6  and  C4_8 
REMARK    5  A    between atoms: C4_8  and  C5_10 
REMARK    6  A    between atoms: C8_13  and  C9_14 
REMARK    7  A    between atoms: C10_15  and  C11_16 
REMARK    8  A    between atoms: C14_19  and  C15_20 
REMARK    9  A    between atoms: C15_20  and  N2_21 
REMARK       I    between atoms: C24_31  and  N3_33 
REMARK   10  A    between atoms: N3_33  and  O5_35 
ROOT
HETATM    1  C5  UNL     1      -5.290 -23.969  -6.374  1.00  0.00     0.032 A 
HETATM    2  C6  UNL     1      -3.930 -23.770  -6.304  1.00  0.00     0.018 A 
HETATM    3  C7  UNL     1      -3.200 -23.332  -7.407  1.00  0.00     0.022 A 
HETATM    4  C8  UNL     1      -3.821 -23.082  -8.612  1.00  0.00     0.018 A 
HETATM    5  C22 UNL     1      -5.183 -23.281  -8.680  1.00  0.00     0.022 A 
HETATM    6  C23 UNL     1      -5.902 -23.719  -7.575  1.00  0.00     0.018 A 
ENDROOT
BRANCH   1   7
HETATM    7  C4  UNL     1      -5.996 -24.428  -5.188  1.00  0.00     0.252 C 
HETATM    8  N1  UNL     1      -7.340 -24.121  -4.892  1.00  0.00    -0.341 N 
ATOM      9  H1  UNL     1      -7.851 -23.537  -5.553  1.00  0.00     0.163 HD
HETATM   10  O2  UNL     1      -5.396 -25.154  -4.344  1.00  0.00    -0.268 OA
BRANCH   8  11
HETATM   11  C3  UNL     1      -8.043 -24.580  -3.708  1.00  0.00     0.207 C 
BRANCH  11  12
HETATM   12  C2  UNL     1      -9.054 -23.473  -3.382  1.00  0.00     0.146 C 
HETATM   13  C1  UNL     1      -8.541 -22.637  -2.222  1.00  0.00     0.042 C 
BRANCH  12  14
HETATM   14  O1  UNL     1      -9.355 -22.707  -4.482  1.00  0.00    -0.393 OA
ATOM     15  H1  UNL     1      -9.077 -23.117  -5.292  1.00  0.00     0.210 HD
ENDBRANCH  12  14
ENDBRANCH  11  12
BRANCH  11  16
HETATM   16  C24 UNL     1      -8.690 -25.875  -3.892  1.00  0.00     0.266 C 
HETATM   17  O4  UNL     1      -8.127 -26.915  -3.480  1.00  0.00    -0.269 OA
HETATM   18  N3  UNL     1      -9.944 -25.979  -4.528  1.00  0.00    -0.236 N 
ATOM     19  H3  UNL     1     -10.404 -25.133  -4.865  1.00  0.00     0.197 HD
BRANCH  18  20
HETATM   20  O5  UNL     1     -10.560 -27.193  -4.706  1.00  0.00    -0.287 OA
ATOM     21  H5  UNL     1     -11.466 -27.333  -4.453  1.00  0.00     0.244 HD
ENDBRANCH  18  20
ENDBRANCH  11  16
ENDBRANCH   8  11
ENDBRANCH   1   7
BRANCH   4  22
HETATM   22  C9  UNL     1      -3.091 -22.629  -9.768  1.00  0.00    -0.061 C 
HETATM   23  C10 UNL     1      -2.475 -22.230 -10.731  1.00  0.00    -0.061 C 
BRANCH  23  24
HETATM   24  C11 UNL     1      -1.751 -21.732 -11.867  1.00  0.00     0.018 A 
HETATM   25  C12 UNL     1      -0.585 -22.326 -12.254  1.00  0.00     0.021 A 
HETATM   26  C13 UNL     1       0.125 -21.851 -13.353  1.00  0.00     0.010 A 
HETATM   27  C14 UNL     1      -0.321 -20.773 -14.085  1.00  0.00    -0.030 A 
HETATM   28  C20 UNL     1      -1.500 -20.184 -13.680  1.00  0.00     0.010 A 
HETATM   29  C21 UNL     1      -2.221 -20.640 -12.592  1.00  0.00     0.021 A 
BRANCH  27  30
HETATM   30  C15 UNL     1       0.376 -20.215 -15.261  1.00  0.00     0.311 C 
BRANCH  30  31
HETATM   31  N2  UNL     1       0.778 -18.850 -15.122  1.00  0.00     0.096 N 
HETATM   32  C16 UNL     1       1.185 -18.366 -16.434  1.00  0.00     0.299 C 
HETATM   33  C17 UNL     1       1.363 -16.867 -16.406  1.00  0.00     0.198 C 
HETATM   34  O3  UNL     1       2.115 -16.521 -15.299  1.00  0.00    -0.388 OA
HETATM   35  C18 UNL     1       2.837 -17.586 -14.768  1.00  0.00     0.198 C 
HETATM   36  C19 UNL     1       1.936 -18.694 -14.259  1.00  0.00     0.299 C 
ENDBRANCH  30  31
ENDBRANCH  27  30
ENDBRANCH  23  24
ENDBRANCH   4  22
TORSDOF 10
ENDMDL
