MODEL 7
REMARK VINA RESULT: -9.772227904      1.955      2.528
REMARK  10 active torsions:
REMARK  status: ('A' for Active; 'I' for Inactive)
REMARK    1  A    between atoms: C2_2  and  O1_3 
REMARK    2  A    between atoms: C2_2  and  C3_5 
REMARK    3  A    between atoms: C3_5  and  N1_6 
REMARK    4  A    between atoms: C3_5  and  C24_31 
REMARK       I    between atoms: N1_6  and  C4_8 
REMARK    5  A    between atoms: C4_8  and  C5_10 
REMARK    6  A    between atoms: C8_13  and  C9_14 
REMARK    7  A    between atoms: C10_15  and  C11_16 
REMARK    8  A    between atoms: C14_19  and  C15_20 
REMARK    9  A    between atoms: C15_20  and  N2_21 
REMARK       I    between atoms: C24_31  and  N3_33 
REMARK   10  A    between atoms: N3_33  and  O5_35 
ROOT
HETATM    1  C5  UNL     1      -5.293 -23.939  -6.778  1.00  0.00     0.032 A 
HETATM    2  C6  UNL     1      -3.917 -23.911  -6.783  1.00  0.00     0.018 A 
HETATM    3  C7  UNL     1      -3.203 -23.405  -7.868  1.00  0.00     0.022 A 
HETATM    4  C8  UNL     1      -3.857 -22.914  -8.977  1.00  0.00     0.018 A 
HETATM    5  C22 UNL     1      -5.235 -22.942  -8.970  1.00  0.00     0.022 A 
HETATM    6  C23 UNL     1      -5.937 -23.449  -7.884  1.00  0.00     0.018 A 
ENDROOT
BRANCH   1   7
HETATM    7  C4  UNL     1      -5.981 -24.480  -5.616  1.00  0.00     0.252 C 
HETATM    8  N1  UNL     1      -7.213 -24.002  -5.125  1.00  0.00    -0.341 N 
ATOM      9  H1  UNL     1      -7.651 -23.224  -5.617  1.00  0.00     0.163 HD
HETATM   10  O2  UNL     1      -5.469 -25.445  -4.978  1.00  0.00    -0.268 OA
BRANCH   8  11
HETATM   11  C3  UNL     1      -7.898 -24.543  -3.965  1.00  0.00     0.207 C 
BRANCH  11  12
HETATM   12  C2  UNL     1      -8.882 -23.450  -3.529  1.00  0.00     0.146 C 
HETATM   13  C1  UNL     1      -8.251 -22.599  -2.440  1.00  0.00     0.042 C 
BRANCH  12  14
HETATM   14  O1  UNL     1      -9.321 -22.695  -4.590  1.00  0.00    -0.393 OA
ATOM     15  H1  UNL     1      -9.622 -23.232  -5.313  1.00  0.00     0.210 HD
ENDBRANCH  12  14
ENDBRANCH  11  12
BRANCH  11  16
HETATM   16  C24 UNL     1      -8.572 -25.808  -4.237  1.00  0.00     0.266 C 
HETATM   17  O4  UNL     1      -9.778 -25.811  -4.574  1.00  0.00    -0.269 OA
HETATM   18  N3  UNL     1      -7.887 -27.037  -4.126  1.00  0.00    -0.236 N 
ATOM     19  H3  UNL     1      -6.904 -27.037  -3.851  1.00  0.00     0.197 HD
BRANCH  18  20
HETATM   20  O5  UNL     1      -8.512 -28.233  -4.380  1.00  0.00    -0.287 OA
ATOM     21  H5  UNL     1      -8.366 -28.996  -3.832  1.00  0.00     0.244 HD
ENDBRANCH  18  20
ENDBRANCH  11  16
ENDBRANCH   8  11
ENDBRANCH   1   7
BRANCH   4  22
HETATM   22  C9  UNL     1      -3.144 -22.385 -10.112  1.00  0.00    -0.061 C 
HETATM   23  C10 UNL     1      -2.536 -21.927 -11.053  1.00  0.00    -0.061 C 
BRANCH  23  24
HETATM   24  C11 UNL     1      -1.815 -21.361 -12.159  1.00  0.00     0.018 A 
HETATM   25  C12 UNL     1      -0.591 -21.854 -12.508  1.00  0.00     0.021 A 
HETATM   26  C13 UNL     1       0.116 -21.312 -13.577  1.00  0.00     0.010 A 
HETATM   27  C14 UNL     1      -0.389 -20.266 -14.316  1.00  0.00    -0.030 A 
HETATM   28  C20 UNL     1      -1.626 -19.779 -13.950  1.00  0.00     0.010 A 
HETATM   29  C21 UNL     1      -2.346 -20.302 -12.892  1.00  0.00     0.021 A 
BRANCH  27  30
HETATM   30  C15 UNL     1       0.302 -19.641 -15.462  1.00  0.00     0.311 C 
BRANCH  30  31
HETATM   31  N2  UNL     1       1.574 -19.068 -15.148  1.00  0.00     0.096 N 
HETATM   32  C16 UNL     1       1.340 -17.780 -14.510  1.00  0.00     0.299 C 
HETATM   33  C17 UNL     1       2.624 -17.250 -13.917  1.00  0.00     0.198 C 
HETATM   34  O3  UNL     1       3.635 -17.363 -14.851  1.00  0.00    -0.388 OA
HETATM   35  C18 UNL     1       3.168 -17.516 -16.154  1.00  0.00     0.198 C 
HETATM   36  C19 UNL     1       2.369 -18.792 -16.332  1.00  0.00     0.299 C 
ENDBRANCH  30  31
ENDBRANCH  27  30
ENDBRANCH  23  24
ENDBRANCH   4  22
TORSDOF 10
ENDMDL
