MODEL 8
REMARK VINA RESULT: -9.490656066      1.817      2.239
REMARK  10 active torsions:
REMARK  status: ('A' for Active; 'I' for Inactive)
REMARK    1  A    between atoms: C2_2  and  O1_3 
REMARK    2  A    between atoms: C2_2  and  C3_5 
REMARK    3  A    between atoms: C3_5  and  N1_6 
REMARK    4  A    between atoms: C3_5  and  C24_31 
REMARK       I    between atoms: N1_6  and  C4_8 
REMARK    5  A    between atoms: C4_8  and  C5_10 
REMARK    6  A    between atoms: C8_13  and  C9_14 
REMARK    7  A    between atoms: C10_15  and  C11_16 
REMARK    8  A    between atoms: C14_19  and  C15_20 
REMARK    9  A    between atoms: C15_20  and  N2_21 
REMARK       I    between atoms: C24_31  and  N3_33 
REMARK   10  A    between atoms: N3_33  and  O5_35 
ROOT
HETATM    1  C5  UNL     1      -5.592 -24.388  -6.691  1.00  0.00     0.032 A 
HETATM    2  C6  UNL     1      -6.195 -23.661  -7.692  1.00  0.00     0.018 A 
HETATM    3  C7  UNL     1      -5.457 -23.102  -8.733  1.00  0.00     0.022 A 
HETATM    4  C8  UNL     1      -4.089 -23.262  -8.795  1.00  0.00     0.018 A 
HETATM    5  C22 UNL     1      -3.487 -23.991  -7.792  1.00  0.00     0.022 A 
HETATM    6  C23 UNL     1      -4.231 -24.543  -6.759  1.00  0.00     0.018 A 
ENDROOT
BRANCH   1   7
HETATM    7  C4  UNL     1      -6.417 -24.945  -5.631  1.00  0.00     0.252 C 
HETATM    8  N1  UNL     1      -7.291 -24.191  -4.821  1.00  0.00    -0.341 N 
ATOM      9  H1  UNL     1      -7.347 -23.187  -4.989  1.00  0.00     0.163 HD
HETATM   10  O2  UNL     1      -6.375 -26.186  -5.391  1.00  0.00    -0.268 OA
BRANCH   8  11
HETATM   11  C3  UNL     1      -8.114 -24.749  -3.764  1.00  0.00     0.207 C 
BRANCH  11  12
HETATM   12  C2  UNL     1      -8.417 -23.575  -2.824  1.00  0.00     0.146 C 
HETATM   13  C1  UNL     1      -7.210 -23.301  -1.943  1.00  0.00     0.042 C 
BRANCH  12  14
HETATM   14  O1  UNL     1      -8.826 -22.456  -3.508  1.00  0.00    -0.393 OA
ATOM     15  H1  UNL     1      -9.772 -22.406  -3.580  1.00  0.00     0.210 HD
ENDBRANCH  12  14
ENDBRANCH  11  12
BRANCH  11  16
HETATM   16  C24 UNL     1      -9.332 -25.381  -4.259  1.00  0.00     0.266 C 
HETATM   17  O4  UNL     1     -10.293 -24.670  -4.633  1.00  0.00    -0.269 OA
HETATM   18  N3  UNL     1      -9.449 -26.785  -4.327  1.00  0.00    -0.236 N 
ATOM     19  H3  UNL     1      -8.667 -27.366  -4.022  1.00  0.00     0.197 HD
BRANCH  18  20
HETATM   20  O5  UNL     1     -10.591 -27.389  -4.792  1.00  0.00    -0.287 OA
ATOM     21  H5  UNL     1     -10.573 -28.259  -5.174  1.00  0.00     0.244 HD
ENDBRANCH  18  20
ENDBRANCH  11  16
ENDBRANCH   8  11
ENDBRANCH   1   7
BRANCH   4  22
HETATM   22  C9  UNL     1      -3.302 -22.695  -9.860  1.00  0.00    -0.061 C 
HETATM   23  C10 UNL     1      -2.655 -22.222 -10.768  1.00  0.00    -0.061 C 
BRANCH  23  24
HETATM   24  C11 UNL     1      -1.902 -21.675 -11.861  1.00  0.00     0.018 A 
HETATM   25  C12 UNL     1      -0.693 -22.209 -12.200  1.00  0.00     0.021 A 
HETATM   26  C13 UNL     1       0.045 -21.685 -13.257  1.00  0.00     0.010 A 
HETATM   27  C14 UNL     1      -0.414 -20.618 -13.995  1.00  0.00    -0.030 A 
HETATM   28  C20 UNL     1      -1.637 -20.089 -13.639  1.00  0.00     0.010 A 
HETATM   29  C21 UNL     1      -2.387 -20.594 -12.593  1.00  0.00     0.021 A 
BRANCH  27  30
HETATM   30  C15 UNL     1       0.312 -20.011 -15.129  1.00  0.00     0.311 C 
BRANCH  30  31
HETATM   31  N2  UNL     1       1.727 -20.204 -15.101  1.00  0.00     0.096 N 
HETATM   32  C16 UNL     1       2.361 -18.898 -15.222  1.00  0.00     0.299 C 
HETATM   33  C17 UNL     1       3.840 -19.006 -14.931  1.00  0.00     0.198 C 
HETATM   34  O3  UNL     1       4.363 -20.075 -15.634  1.00  0.00    -0.388 OA
HETATM   35  C18 UNL     1       3.558 -20.486 -16.692  1.00  0.00     0.198 C 
HETATM   36  C19 UNL     1       2.206 -20.989 -16.225  1.00  0.00     0.299 C 
ENDBRANCH  30  31
ENDBRANCH  27  30
ENDBRANCH  23  24
ENDBRANCH   4  22
TORSDOF 10
ENDMDL
