MODEL 5
REMARK VINA RESULT: -9.812593018      1.759      2.536
REMARK  10 active torsions:
REMARK  status: ('A' for Active; 'I' for Inactive)
REMARK    1  A    between atoms: C2_2  and  O1_3 
REMARK    2  A    between atoms: C2_2  and  C3_5 
REMARK    3  A    between atoms: C3_5  and  N1_6 
REMARK    4  A    between atoms: C3_5  and  C24_31 
REMARK       I    between atoms: N1_6  and  C4_8 
REMARK    5  A    between atoms: C4_8  and  C5_10 
REMARK    6  A    between atoms: C8_13  and  C9_14 
REMARK    7  A    between atoms: C10_15  and  C11_16 
REMARK    8  A    between atoms: C14_19  and  C15_20 
REMARK    9  A    between atoms: C15_20  and  N2_21 
REMARK       I    between atoms: C24_31  and  N3_33 
REMARK   10  A    between atoms: N3_33  and  O5_35 
ROOT
HETATM    1  C5  UNL     1      -5.365 -24.010  -6.395  1.00  0.00     0.032 A 
HETATM    2  C6  UNL     1      -4.033 -23.678  -6.297  1.00  0.00     0.018 A 
HETATM    3  C7  UNL     1      -3.314 -23.218  -7.398  1.00  0.00     0.022 A 
HETATM    4  C8  UNL     1      -3.919 -23.077  -8.629  1.00  0.00     0.018 A 
HETATM    5  C22 UNL     1      -5.253 -23.408  -8.725  1.00  0.00     0.022 A 
HETATM    6  C23 UNL     1      -5.960 -23.867  -7.622  1.00  0.00     0.018 A 
ENDROOT
BRANCH   1   7
HETATM    7  C4  UNL     1      -6.061 -24.486  -5.209  1.00  0.00     0.252 C 
HETATM    8  N1  UNL     1      -7.366 -24.099  -4.842  1.00  0.00    -0.341 N 
ATOM      9  H1  UNL     1      -7.855 -23.441  -5.448  1.00  0.00     0.163 HD
HETATM   10  O2  UNL     1      -5.487 -25.302  -4.433  1.00  0.00    -0.268 OA
BRANCH   8  11
HETATM   11  C3  UNL     1      -8.059 -24.575  -3.659  1.00  0.00     0.207 C 
BRANCH  11  12
HETATM   12  C2  UNL     1      -9.069 -23.475  -3.310  1.00  0.00     0.146 C 
HETATM   13  C1  UNL     1      -8.558 -22.667  -2.129  1.00  0.00     0.042 C 
BRANCH  12  14
HETATM   14  O1  UNL     1      -9.366 -22.683  -4.393  1.00  0.00    -0.393 OA
ATOM     15  H1  UNL     1      -8.592 -22.459  -4.897  1.00  0.00     0.210 HD
ENDBRANCH  12  14
ENDBRANCH  11  12
BRANCH  11  16
HETATM   16  C24 UNL     1      -8.705 -25.869  -3.855  1.00  0.00     0.266 C 
HETATM   17  O4  UNL     1      -8.173 -26.905  -3.395  1.00  0.00    -0.269 OA
HETATM   18  N3  UNL     1      -9.924 -25.975  -4.558  1.00  0.00    -0.236 N 
ATOM     19  H3  UNL     1     -10.358 -25.132  -4.934  1.00  0.00     0.197 HD
BRANCH  18  20
HETATM   20  O5  UNL     1     -10.539 -27.188  -4.748  1.00  0.00    -0.287 OA
ATOM     21  H5  UNL     1     -11.469 -27.304  -4.588  1.00  0.00     0.244 HD
ENDBRANCH  18  20
ENDBRANCH  11  16
ENDBRANCH   8  11
ENDBRANCH   1   7
BRANCH   4  22
HETATM   22  C9  UNL     1      -3.199 -22.602  -9.783  1.00  0.00    -0.061 C 
HETATM   23  C10 UNL     1      -2.582 -22.194 -10.741  1.00  0.00    -0.061 C 
BRANCH  23  24
HETATM   24  C11 UNL     1      -1.842 -21.689 -11.864  1.00  0.00     0.018 A 
HETATM   25  C12 UNL     1      -2.319 -20.632 -12.584  1.00  0.00     0.021 A 
HETATM   26  C13 UNL     1      -1.610 -20.136 -13.674  1.00  0.00     0.010 A 
HETATM   27  C14 UNL     1      -0.411 -20.688 -14.063  1.00  0.00    -0.030 A 
HETATM   28  C20 UNL     1       0.057 -21.756 -13.326  1.00  0.00     0.010 A 
HETATM   29  C21 UNL     1      -0.630 -22.264 -12.239  1.00  0.00     0.021 A 
BRANCH  27  30
HETATM   30  C15 UNL     1       0.396 -20.216 -15.206  1.00  0.00     0.311 C 
BRANCH  30  31
HETATM   31  N2  UNL     1       1.677 -19.690 -14.852  1.00  0.00     0.096 N 
HETATM   32  C16 UNL     1       1.481 -18.340 -14.339  1.00  0.00     0.299 C 
HETATM   33  C17 UNL     1       2.754 -17.834 -13.702  1.00  0.00     0.198 C 
HETATM   34  O3  UNL     1       3.815 -18.082 -14.552  1.00  0.00    -0.388 OA
HETATM   35  C18 UNL     1       3.425 -18.320 -15.867  1.00  0.00     0.198 C 
HETATM   36  C19 UNL     1       2.563 -19.560 -15.996  1.00  0.00     0.299 C 
ENDBRANCH  30  31
ENDBRANCH  27  30
ENDBRANCH  23  24
ENDBRANCH   4  22
TORSDOF 10
ENDMDL
