MODEL 20
REMARK VINA RESULT: -8.553860792      3.273     13.333
REMARK  10 active torsions:
REMARK  status: ('A' for Active; 'I' for Inactive)
REMARK    1  A    between atoms: C2_2  and  O1_3 
REMARK    2  A    between atoms: C2_2  and  C3_5 
REMARK    3  A    between atoms: C3_5  and  N1_6 
REMARK    4  A    between atoms: C3_5  and  C24_31 
REMARK       I    between atoms: N1_6  and  C4_8 
REMARK    5  A    between atoms: C4_8  and  C5_10 
REMARK    6  A    between atoms: C8_13  and  C9_14 
REMARK    7  A    between atoms: C10_15  and  C11_16 
REMARK    8  A    between atoms: C14_19  and  C15_20 
REMARK    9  A    between atoms: C15_20  and  N2_21 
REMARK       I    between atoms: C24_31  and  N3_33 
REMARK   10  A    between atoms: N3_33  and  O5_35 
ROOT
HETATM    1  C5  UNL     1      -2.730 -21.804 -10.910  1.00  0.00     0.032 A 
HETATM    2  C6  UNL     1      -3.786 -21.230 -10.239  1.00  0.00     0.018 A 
HETATM    3  C7  UNL     1      -4.297 -21.789  -9.069  1.00  0.00     0.022 A 
HETATM    4  C8  UNL     1      -3.756 -22.942  -8.542  1.00  0.00     0.018 A 
HETATM    5  C22 UNL     1      -2.698 -23.515  -9.214  1.00  0.00     0.022 A 
HETATM    6  C23 UNL     1      -2.197 -22.950 -10.380  1.00  0.00     0.018 A 
ENDROOT
BRANCH   1   7
HETATM    7  C4  UNL     1      -2.242 -21.172 -12.126  1.00  0.00     0.252 C 
HETATM    8  N1  UNL     1      -0.880 -21.045 -12.466  1.00  0.00    -0.341 N 
ATOM      9  H1  UNL     1      -0.190 -21.419 -11.816  1.00  0.00     0.163 HD
HETATM   10  O2  UNL     1      -3.067 -20.696 -12.957  1.00  0.00    -0.268 OA
BRANCH   8  11
HETATM   11  C3  UNL     1      -0.395 -20.415 -13.681  1.00  0.00     0.207 C 
BRANCH  11  12
HETATM   12  C2  UNL     1       0.537 -19.291 -13.211  1.00  0.00     0.146 C 
HETATM   13  C1  UNL     1      -0.288 -18.100 -12.753  1.00  0.00     0.042 C 
BRANCH  12  14
HETATM   14  O1  UNL     1       1.415 -19.717 -12.244  1.00  0.00    -0.393 OA
ATOM     15  H1  UNL     1       0.979 -19.908 -11.422  1.00  0.00     0.210 HD
ENDBRANCH  12  14
ENDBRANCH  11  12
BRANCH  11  16
HETATM   16  C24 UNL     1       0.280 -21.346 -14.578  1.00  0.00     0.266 C 
HETATM   17  O4  UNL     1       1.114 -22.160 -14.118  1.00  0.00    -0.269 OA
HETATM   18  N3  UNL     1       0.011 -21.348 -15.963  1.00  0.00    -0.236 N 
ATOM     19  H3  UNL     1      -0.667 -20.686 -16.341  1.00  0.00     0.197 HD
BRANCH  18  20
HETATM   20  O5  UNL     1       0.642 -22.221 -16.816  1.00  0.00    -0.287 OA
ATOM     21  H5  UNL     1       0.529 -22.164 -17.758  1.00  0.00     0.244 HD
ENDBRANCH  18  20
ENDBRANCH  11  16
ENDBRANCH   8  11
ENDBRANCH   1   7
BRANCH   4  22
HETATM   22  C9  UNL     1      -4.264 -23.541  -7.335  1.00  0.00    -0.061 C 
HETATM   23  C10 UNL     1      -4.698 -24.026  -6.314  1.00  0.00    -0.061 C 
BRANCH  23  24
HETATM   24  C11 UNL     1      -5.208 -24.579  -5.091  1.00  0.00     0.018 A 
HETATM   25  C12 UNL     1      -6.545 -24.530  -4.818  1.00  0.00     0.021 A 
HETATM   26  C13 UNL     1      -7.049 -25.062  -3.635  1.00  0.00     0.010 A 
HETATM   27  C14 UNL     1      -6.226 -25.653  -2.703  1.00  0.00    -0.030 A 
HETATM   28  C20 UNL     1      -4.878 -25.693  -2.994  1.00  0.00     0.010 A 
HETATM   29  C21 UNL     1      -4.355 -25.171  -4.162  1.00  0.00     0.021 A 
BRANCH  27  30
HETATM   30  C15 UNL     1      -6.688 -26.239  -1.429  1.00  0.00     0.311 C 
BRANCH  30  31
HETATM   31  N2  UNL     1      -7.178 -25.288  -0.481  1.00  0.00     0.096 N 
HETATM   32  C16 UNL     1      -6.031 -24.592   0.089  1.00  0.00     0.299 C 
HETATM   33  C17 UNL     1      -6.491 -23.399   0.893  1.00  0.00     0.198 C 
HETATM   34  O3  UNL     1      -7.525 -23.785   1.725  1.00  0.00    -0.388 OA
HETATM   35  C18 UNL     1      -7.590 -25.162   1.922  1.00  0.00     0.198 C 
HETATM   36  C19 UNL     1      -7.863 -25.915   0.635  1.00  0.00     0.299 C 
ENDBRANCH  30  31
ENDBRANCH  27  30
ENDBRANCH  23  24
ENDBRANCH   4  22
TORSDOF 10
ENDMDL
