MODEL 3
REMARK VINA RESULT: -9.273750115      4.937      9.568
REMARK  5 active torsions:
REMARK  status: ('A' for Active; 'I' for Inactive)
REMARK    1  A    between atoms: C2_5  and  N3_6 
REMARK    2  A    between atoms: N3_6  and  C3_8 
REMARK    3  A    between atoms: C9_16  and  C10_17 
REMARK    4  A    between atoms: C10_17  and  C11_19 
REMARK    5  A    between atoms: C15_23  and  N4_24 
ROOT
HETATM    1  N1  UNL     1      -4.163  62.247  62.330  1.00  0.00    -0.081 NA
HETATM    2  C1  UNL     1      -4.795  61.904  61.071  1.00  0.00     0.139 A 
HETATM    3  N2  UNL     1      -5.085  60.694  60.736  1.00  0.00    -0.324 N 
ATOM      4  H2  UNL     1      -4.865  59.937  61.382  1.00  0.00     0.169 HD
HETATM    5  C2  UNL     1      -5.652  60.407  59.592  1.00  0.00     0.151 A 
HETATM    6  S1  UNL     1      -5.804  61.960  58.902  1.00  0.00    -0.046 SA
HETATM    7  C9  UNL     1      -5.120  62.904  60.143  1.00  0.00     0.100 A 
ENDROOT
BRANCH   7   8
HETATM    8  C10 UNL     1      -4.880  64.323  60.301  1.00  0.00     0.202 C 
HETATM    9  O1  UNL     1      -5.629  65.032  61.050  1.00  0.00    -0.286 OA
BRANCH   8  10
HETATM   10  C11 UNL     1      -3.791  64.996  59.625  1.00  0.00     0.018 A 
HETATM   11  C12 UNL     1      -3.318  64.585  58.405  1.00  0.00     0.015 A 
HETATM   12  C13 UNL     1      -2.255  65.291  57.845  1.00  0.00     0.003 A 
HETATM   13  C14 UNL     1      -1.691  66.366  58.486  1.00  0.00     0.036 A 
HETATM   14  C15 UNL     1      -2.172  66.777  59.716  1.00  0.00     0.103 A 
HETATM   15  C16 UNL     1      -3.206  66.097  60.271  1.00  0.00     0.051 A 
BRANCH  14  16
HETATM   16  N4  UNL     1      -1.618  67.883  60.408  1.00  0.00    -0.116 N 
HETATM   17  O2  UNL     1      -0.987  68.736  59.782  1.00  0.00    -0.532 OA
HETATM   18  O3  UNL     1      -1.782  67.997  61.750  1.00  0.00    -0.532 OA
ENDBRANCH  14  16
ENDBRANCH   8  10
ENDBRANCH   7   8
BRANCH   5  19
HETATM   19  N3  UNL     1      -6.071  59.179  59.009  1.00  0.00    -0.337 N 
ATOM     20  H3  UNL     1      -6.031  59.113  57.992  1.00  0.00     0.168 HD
BRANCH  19  21
HETATM   21  C3  UNL     1      -6.532  58.053  59.696  1.00  0.00     0.034 A 
HETATM   22  C4  UNL     1      -7.824  57.589  59.491  1.00  0.00     0.031 A 
HETATM   23  C5  UNL     1      -8.339  56.487  60.144  1.00  0.00     0.026 A 
HETATM   24  C6  UNL     1      -7.579  55.782  61.049  1.00  0.00     0.034 A 
HETATM   25 CL1  UNL     1      -8.213  54.371  61.898  1.00  0.00    -0.084 Cl
HETATM   26  C7  UNL     1      -6.292  56.219  61.273  1.00  0.00     0.026 A 
HETATM   27  C8  UNL     1      -5.782  57.340  60.603  1.00  0.00     0.031 A 
ENDBRANCH  19  21
ENDBRANCH   5  19
TORSDOF 5
ENDMDL
