MODEL 4
REMARK VINA RESULT: -9.079771783      4.709      8.953
REMARK  5 active torsions:
REMARK  status: ('A' for Active; 'I' for Inactive)
REMARK    1  A    between atoms: C2_5  and  N3_6 
REMARK    2  A    between atoms: N3_6  and  C3_8 
REMARK    3  A    between atoms: C9_16  and  C10_17 
REMARK    4  A    between atoms: C10_17  and  C11_19 
REMARK    5  A    between atoms: C15_23  and  N4_24 
ROOT
HETATM    1  N1  UNL     1      -5.727  60.989  57.122  1.00  0.00    -0.081 NA
HETATM    2  C1  UNL     1      -5.755  60.659  58.534  1.00  0.00     0.139 A 
HETATM    3  N2  UNL     1      -5.674  59.452  58.976  1.00  0.00    -0.324 N 
ATOM      4  H2  UNL     1      -5.583  58.687  58.309  1.00  0.00     0.169 HD
HETATM    5  C2  UNL     1      -5.704  59.177  60.255  1.00  0.00     0.151 A 
HETATM    6  S1  UNL     1      -5.862  60.739  60.923  1.00  0.00    -0.046 SA
HETATM    7  C9  UNL     1      -5.879  61.671  59.497  1.00  0.00     0.100 A 
ENDROOT
BRANCH   7   8
HETATM    8  C10 UNL     1      -5.994  63.090  59.233  1.00  0.00     0.202 C 
HETATM    9  O1  UNL     1      -7.075  63.582  58.769  1.00  0.00    -0.286 OA
BRANCH   8  10
HETATM   10  C11 UNL     1      -4.902  64.006  59.483  1.00  0.00     0.018 A 
HETATM   11  C12 UNL     1      -3.948  64.289  58.539  1.00  0.00     0.015 A 
HETATM   12  C13 UNL     1      -2.929  65.173  58.885  1.00  0.00     0.003 A 
HETATM   13  C14 UNL     1      -2.870  65.749  60.129  1.00  0.00     0.036 A 
HETATM   14  C15 UNL     1      -3.834  65.462  61.079  1.00  0.00     0.103 A 
HETATM   15  C16 UNL     1      -4.831  64.602  60.753  1.00  0.00     0.051 A 
BRANCH  14  16
HETATM   16  N4  UNL     1      -3.809  66.037  62.373  1.00  0.00    -0.116 N 
HETATM   17  O2  UNL     1      -4.187  67.200  62.528  1.00  0.00    -0.532 OA
HETATM   18  O3  UNL     1      -3.370  65.311  63.432  1.00  0.00    -0.532 OA
ENDBRANCH  14  16
ENDBRANCH   8  10
ENDBRANCH   7   8
BRANCH   5  19
HETATM   19  N3  UNL     1      -5.624  57.954  60.978  1.00  0.00    -0.337 N 
ATOM     20  H3  UNL     1      -4.757  57.774  61.485  1.00  0.00     0.168 HD
BRANCH  19  21
HETATM   21  C3  UNL     1      -6.618  56.976  61.060  1.00  0.00     0.034 A 
HETATM   22  C4  UNL     1      -7.668  56.969  60.152  1.00  0.00     0.031 A 
HETATM   23  C5  UNL     1      -8.683  56.033  60.186  1.00  0.00     0.026 A 
HETATM   24  C6  UNL     1      -8.701  55.043  61.141  1.00  0.00     0.034 A 
HETATM   25 CL1  UNL     1      -9.987  53.836  61.206  1.00  0.00    -0.084 Cl
HETATM   26  C7  UNL     1      -7.672  55.025  62.055  1.00  0.00     0.026 A 
HETATM   27  C8  UNL     1      -6.647  55.982  62.011  1.00  0.00     0.031 A 
ENDBRANCH  19  21
ENDBRANCH   5  19
TORSDOF 5
ENDMDL
