MODEL 6
REMARK VINA RESULT: -8.948871501      4.723      9.297
REMARK  5 active torsions:
REMARK  status: ('A' for Active; 'I' for Inactive)
REMARK    1  A    between atoms: C2_5  and  N3_6 
REMARK    2  A    between atoms: N3_6  and  C3_8 
REMARK    3  A    between atoms: C9_16  and  C10_17 
REMARK    4  A    between atoms: C10_17  and  C11_19 
REMARK    5  A    between atoms: C15_23  and  N4_24 
ROOT
HETATM    1  N1  UNL     1      -5.985  61.103  57.219  1.00  0.00    -0.081 NA
HETATM    2  C1  UNL     1      -5.835  60.677  58.597  1.00  0.00     0.139 A 
HETATM    3  N2  UNL     1      -5.785  59.439  58.949  1.00  0.00    -0.324 N 
ATOM      4  H2  UNL     1      -5.850  58.718  58.230  1.00  0.00     0.169 HD
HETATM    5  C2  UNL     1      -5.652  59.077  60.199  1.00  0.00     0.151 A 
HETATM    6  S1  UNL     1      -5.592  60.595  60.975  1.00  0.00    -0.046 SA
HETATM    7  C9  UNL     1      -5.741  61.624  59.626  1.00  0.00     0.100 A 
ENDROOT
BRANCH   7   8
HETATM    8  C10 UNL     1      -5.783  63.063  59.468  1.00  0.00     0.202 C 
HETATM    9  O1  UNL     1      -6.778  63.629  58.907  1.00  0.00    -0.286 OA
BRANCH   8  10
HETATM   10  C11 UNL     1      -4.712  63.916  59.937  1.00  0.00     0.018 A 
HETATM   11  C12 UNL     1      -4.404  64.046  61.267  1.00  0.00     0.015 A 
HETATM   12  C13 UNL     1      -3.364  64.906  61.615  1.00  0.00     0.003 A 
HETATM   13  C14 UNL     1      -2.662  65.604  60.665  1.00  0.00     0.036 A 
HETATM   14  C15 UNL     1      -2.975  65.469  59.324  1.00  0.00     0.103 A 
HETATM   15  C16 UNL     1      -3.986  64.636  58.973  1.00  0.00     0.051 A 
BRANCH  14  16
HETATM   16  N4  UNL     1      -2.273  66.172  58.314  1.00  0.00    -0.116 N 
HETATM   17  O2  UNL     1      -1.620  65.544  57.480  1.00  0.00    -0.532 OA
HETATM   18  O3  UNL     1      -2.321  67.528  58.270  1.00  0.00    -0.532 OA
ENDBRANCH  14  16
ENDBRANCH   8  10
ENDBRANCH   7   8
BRANCH   5  19
HETATM   19  N3  UNL     1      -5.563  57.803  60.827  1.00  0.00    -0.337 N 
ATOM     20  H3  UNL     1      -4.660  57.549  61.228  1.00  0.00     0.168 HD
BRANCH  19  21
HETATM   21  C3  UNL     1      -6.593  56.868  60.947  1.00  0.00     0.034 A 
HETATM   22  C4  UNL     1      -7.655  56.878  60.053  1.00  0.00     0.031 A 
HETATM   23  C5  UNL     1      -8.705  55.984  60.123  1.00  0.00     0.026 A 
HETATM   24  C6  UNL     1      -8.749  55.021  61.105  1.00  0.00     0.034 A 
HETATM   25 CL1  UNL     1     -10.081  53.868  61.218  1.00  0.00    -0.084 Cl
HETATM   26  C7  UNL     1      -7.710  54.986  62.007  1.00  0.00     0.026 A 
HETATM   27  C8  UNL     1      -6.649  55.901  61.924  1.00  0.00     0.031 A 
ENDBRANCH  19  21
ENDBRANCH   5  19
TORSDOF 5
ENDMDL
