MODEL 3
REMARK VINA RESULT: -8.759077944      1.886      2.173
REMARK  6 active torsions:
REMARK  status: ('A' for Active; 'I' for Inactive)
REMARK    1  A    between atoms: C2_2  and  N1_3 
REMARK    2  A    between atoms: C5_8  and  N3_9 
REMARK    3  A    between atoms: N3_9  and  C6_11 
REMARK    4  A    between atoms: C11_17  and  C12_18 
REMARK    5  A    between atoms: C13_21  and  C14_22 
REMARK    6  A    between atoms: C14_22  and  C15_23 
REMARK       I    between atoms: C15_23  and  N5_25 
ROOT
HETATM    1  N1  UNL     1      43.025  46.672  63.240  1.00  0.00    -0.277 N 
HETATM    2  N2  UNL     1      43.631  46.850  64.379  1.00  0.00    -0.307 N 
ATOM      3  H2  UNL     1      43.160  47.114  65.245  1.00  0.00     0.186 HD
HETATM    4  C3  UNL     1      44.970  46.642  64.270  1.00  0.00     0.125 A 
HETATM    5  C4  UNL     1      45.224  46.308  62.967  1.00  0.00     0.054 A 
HETATM    6  C5  UNL     1      46.391  45.989  62.278  1.00  0.00     0.060 A 
HETATM    7  C11 UNL     1      46.291  45.701  60.956  1.00  0.00     0.060 A 
HETATM    8  C20 UNL     1      45.027  45.737  60.358  1.00  0.00     0.108 A 
HETATM    9  N7  UNL     1      43.925  46.042  61.032  1.00  0.00    -0.349 N 
ATOM     10  H7  UNL     1      43.026  46.056  60.552  1.00  0.00     0.167 HD
HETATM   11  C21 UNL     1      43.986  46.334  62.345  1.00  0.00     0.136 A 
ENDROOT
BRANCH   7  12
HETATM   12  C12 UNL     1      47.442  45.362  60.132  1.00  0.00     0.185 A 
HETATM   13  N4  UNL     1      48.736  45.716  60.309  1.00  0.00    -0.322 N 
HETATM   14  C13 UNL     1      49.484  45.195  59.321  1.00  0.00     0.113 A 
ATOM     15  H4  UNL     1      49.090  46.289  61.074  1.00  0.00     0.169 HD
HETATM   16  N6  UNL     1      48.634  44.519  58.537  1.00  0.00    -0.246 N 
HETATM   17  O3  UNL     1      47.425  44.636  59.046  1.00  0.00    -0.217 OA
ATOM     18  H6  UNL     1      48.881  44.002  57.692  1.00  0.00     0.196 HD
BRANCH  14  19
HETATM   19  C14 UNL     1      50.946  45.376  59.192  1.00  0.00     0.181 C 
BRANCH  19  20
HETATM   20  C15 UNL     1      51.596  44.079  59.523  1.00  0.00     0.226 C 
HETATM   21  O2  UNL     1      51.110  42.983  59.133  1.00  0.00    -0.273 OA
HETATM   22  N5  UNL     1      52.785  44.053  60.293  1.00  0.00    -0.352 N 
HETATM   23  C16 UNL     1      53.486  45.205  60.827  1.00  0.00     0.126 C 
HETATM   24  C19 UNL     1      53.505  42.871  60.677  1.00  0.00     0.126 C 
HETATM   25  C17 UNL     1      54.938  44.748  60.703  1.00  0.00     0.021 C 
HETATM   26  C18 UNL     1      54.832  43.315  61.222  1.00  0.00     0.021 C 
ENDBRANCH  19  20
ENDBRANCH  14  19
ENDBRANCH   7  12
BRANCH   6  27
HETATM   27  N3  UNL     1      47.645  45.966  62.944  1.00  0.00    -0.383 N 
ATOM     28  H3  UNL     1      48.142  45.076  62.990  1.00  0.00     0.160 HD
BRANCH  27  29
HETATM   29  C6  UNL     1      48.263  47.110  63.556  1.00  0.00     0.085 C 
HETATM   30  C7  UNL     1      48.155  46.963  65.071  1.00  0.00     0.051 C 
HETATM   31  C8  UNL     1      49.402  47.520  65.737  1.00  0.00     0.169 C 
HETATM   32  O1  UNL     1      49.835  48.681  65.128  1.00  0.00    -0.391 OA
HETATM   33  C9  UNL     1      50.190  48.556  63.809  1.00  0.00     0.169 C 
HETATM   34  C10 UNL     1      49.748  47.208  63.232  1.00  0.00     0.051 C 
ENDBRANCH  27  29
ENDBRANCH   6  27
BRANCH   1  35
HETATM   35  C2  UNL     1      41.611  46.790  62.904  1.00  0.00     0.146 C 
HETATM   36  C1  UNL     1      40.905  45.486  63.221  1.00  0.00     0.028 C 
ENDBRANCH   1  35
TORSDOF 6
ENDMDL
