MODEL 4
REMARK VINA RESULT: -8.624944607      2.449      4.650
REMARK  6 active torsions:
REMARK  status: ('A' for Active; 'I' for Inactive)
REMARK    1  A    between atoms: C2_2  and  N1_3 
REMARK    2  A    between atoms: C5_8  and  N3_9 
REMARK    3  A    between atoms: N3_9  and  C6_11 
REMARK    4  A    between atoms: C11_17  and  C12_18 
REMARK    5  A    between atoms: C13_21  and  C14_22 
REMARK    6  A    between atoms: C14_22  and  C15_23 
REMARK       I    between atoms: C15_23  and  N5_25 
ROOT
HETATM    1  N1  UNL     1      47.796  47.560  66.229  1.00  0.00    -0.277 N 
HETATM    2  N2  UNL     1      46.522  47.294  66.189  1.00  0.00    -0.307 N 
ATOM      3  H2  UNL     1      45.883  47.426  66.973  1.00  0.00     0.186 HD
HETATM    4  C3  UNL     1      46.150  46.817  64.971  1.00  0.00     0.125 A 
HETATM    5  C4  UNL     1      47.273  46.782  64.189  1.00  0.00     0.054 A 
HETATM    6  C5  UNL     1      47.501  46.393  62.872  1.00  0.00     0.060 A 
HETATM    7  C11 UNL     1      48.766  46.485  62.392  1.00  0.00     0.060 A 
HETATM    8  C20 UNL     1      49.770  46.964  63.240  1.00  0.00     0.108 A 
HETATM    9  N7  UNL     1      49.532  47.331  64.493  1.00  0.00    -0.349 N 
ATOM     10  H7  UNL     1      50.298  47.675  65.073  1.00  0.00     0.167 HD
HETATM   11  C21 UNL     1      48.290  47.254  65.004  1.00  0.00     0.136 A 
ENDROOT
BRANCH   7  12
HETATM   12  C12 UNL     1      49.126  46.099  61.035  1.00  0.00     0.185 A 
HETATM   13  N4  UNL     1      50.272  45.529  60.598  1.00  0.00    -0.322 N 
HETATM   14  C13 UNL     1      50.202  45.335  59.270  1.00  0.00     0.113 A 
ATOM     15  H4  UNL     1      51.069  45.284  61.186  1.00  0.00     0.169 HD
HETATM   16  N6  UNL     1      48.999  45.792  58.898  1.00  0.00    -0.246 N 
HETATM   17  O3  UNL     1      48.381  46.241  59.971  1.00  0.00    -0.217 OA
ATOM     18  H6  UNL     1      48.627  45.793  57.947  1.00  0.00     0.196 HD
BRANCH  14  19
HETATM   19  C14 UNL     1      51.276  44.732  58.452  1.00  0.00     0.181 C 
BRANCH  19  20
HETATM   20  C15 UNL     1      52.542  44.815  59.231  1.00  0.00     0.226 C 
HETATM   21  O2  UNL     1      53.270  45.843  59.191  1.00  0.00    -0.273 OA
HETATM   22  N5  UNL     1      52.955  43.727  60.039  1.00  0.00    -0.352 N 
HETATM   23  C16 UNL     1      52.250  42.470  60.209  1.00  0.00     0.126 C 
HETATM   24  C19 UNL     1      54.149  43.685  60.835  1.00  0.00     0.126 C 
HETATM   25  C17 UNL     1      52.551  42.162  61.675  1.00  0.00     0.021 C 
HETATM   26  C18 UNL     1      54.042  42.488  61.736  1.00  0.00     0.021 C 
ENDBRANCH  19  20
ENDBRANCH  14  19
ENDBRANCH   7  12
BRANCH   6  27
HETATM   27  N3  UNL     1      46.438  45.917  62.060  1.00  0.00    -0.383 N 
ATOM     28  H3  UNL     1      46.568  45.027  61.579  1.00  0.00     0.160 HD
BRANCH  27  29
HETATM   29  C6  UNL     1      45.191  46.604  61.868  1.00  0.00     0.085 C 
HETATM   30  C7  UNL     1      45.072  46.987  60.395  1.00  0.00     0.051 C 
HETATM   31  C8  UNL     1      43.625  46.875  59.945  1.00  0.00     0.169 C 
HETATM   32  O1  UNL     1      42.750  47.335  60.908  1.00  0.00    -0.391 OA
HETATM   33  C9  UNL     1      42.780  46.657  62.101  1.00  0.00     0.169 C 
HETATM   34  C10 UNL     1      43.989  45.723  62.187  1.00  0.00     0.051 C 
ENDBRANCH  27  29
ENDBRANCH   6  27
BRANCH   1  35
HETATM   35  C2  UNL     1      48.609  48.082  67.322  1.00  0.00     0.146 C 
HETATM   36  C1  UNL     1      48.446  49.587  67.401  1.00  0.00     0.028 C 
ENDBRANCH   1  35
TORSDOF 6
ENDMDL
