MODEL 1
REMARK VINA RESULT: -9.073748271      0.000      0.000
REMARK  6 active torsions:
REMARK  status: ('A' for Active; 'I' for Inactive)
REMARK    1  A    between atoms: C2_2  and  N1_3 
REMARK    2  A    between atoms: C5_8  and  N3_9 
REMARK    3  A    between atoms: N3_9  and  C6_11 
REMARK    4  A    between atoms: C11_17  and  C12_18 
REMARK    5  A    between atoms: C13_21  and  C14_22 
REMARK    6  A    between atoms: C14_22  and  C15_23 
REMARK       I    between atoms: C15_23  and  N5_25 
ROOT
HETATM    1  N1  UNL     1      44.286  46.195  62.632  1.00  0.00    -0.277 N 
HETATM    2  N2  UNL     1      44.796  46.540  63.779  1.00  0.00    -0.307 N 
ATOM      3  H2  UNL     1      44.253  46.679  64.631  1.00  0.00     0.186 HD
HETATM    4  C3  UNL     1      46.145  46.692  63.699  1.00  0.00     0.125 A 
HETATM    5  C4  UNL     1      46.508  46.422  62.407  1.00  0.00     0.054 A 
HETATM    6  C5  UNL     1      47.734  46.417  61.746  1.00  0.00     0.060 A 
HETATM    7  C11 UNL     1      47.744  46.097  60.428  1.00  0.00     0.060 A 
HETATM    8  C20 UNL     1      46.530  45.790  59.805  1.00  0.00     0.108 A 
HETATM    9  N7  UNL     1      45.371  45.801  60.452  1.00  0.00    -0.349 N 
ATOM     10  H7  UNL     1      44.512  45.570  59.955  1.00  0.00     0.167 HD
HETATM   11  C21 UNL     1      45.322  46.113  61.760  1.00  0.00     0.136 A 
ENDROOT
BRANCH   7  12
HETATM   12  C12 UNL     1      48.962  46.066  59.632  1.00  0.00     0.185 A 
HETATM   13  N4  UNL     1      49.912  45.104  59.584  1.00  0.00    -0.322 N 
HETATM   14  C13 UNL     1      50.876  45.464  58.721  1.00  0.00     0.113 A 
ATOM     15  H4  UNL     1      49.898  44.237  60.122  1.00  0.00     0.169 HD
HETATM   16  N6  UNL     1      50.507  46.658  58.239  1.00  0.00    -0.246 N 
HETATM   17  O3  UNL     1      49.362  46.991  58.800  1.00  0.00    -0.217 OA
ATOM     18  H6  UNL     1      51.023  47.214  57.556  1.00  0.00     0.196 HD
BRANCH  14  19
HETATM   19  C14 UNL     1      52.074  44.653  58.414  1.00  0.00     0.181 C 
BRANCH  19  20
HETATM   20  C15 UNL     1      52.202  43.614  59.471  1.00  0.00     0.226 C 
HETATM   21  O2  UNL     1      51.513  42.558  59.441  1.00  0.00    -0.273 OA
HETATM   22  N5  UNL     1      53.111  43.794  60.543  1.00  0.00    -0.352 N 
HETATM   23  C16 UNL     1      53.982  44.936  60.745  1.00  0.00     0.126 C 
HETATM   24  C19 UNL     1      53.326  42.868  61.620  1.00  0.00     0.126 C 
HETATM   25  C17 UNL     1      55.213  44.263  61.349  1.00  0.00     0.021 C 
HETATM   26  C18 UNL     1      54.558  43.317  62.353  1.00  0.00     0.021 C 
ENDBRANCH  19  20
ENDBRANCH  14  19
ENDBRANCH   7  12
BRANCH   6  27
HETATM   27  N3  UNL     1      48.933  46.734  62.436  1.00  0.00    -0.383 N 
ATOM     28  H3  UNL     1      49.322  47.669  62.309  1.00  0.00     0.160 HD
BRANCH  27  29
HETATM   29  C6  UNL     1      49.638  45.828  63.301  1.00  0.00     0.085 C 
HETATM   30  C7  UNL     1      49.145  44.411  63.020  1.00  0.00     0.051 C 
HETATM   31  C8  UNL     1      50.296  43.427  63.149  1.00  0.00     0.169 C 
HETATM   32  O1  UNL     1      51.118  43.734  64.215  1.00  0.00    -0.391 OA
HETATM   33  C9  UNL     1      51.734  44.958  64.148  1.00  0.00     0.169 C 
HETATM   34  C10 UNL     1      51.139  45.828  63.037  1.00  0.00     0.051 C 
ENDBRANCH  27  29
ENDBRANCH   6  27
BRANCH   1  35
HETATM   35  C2  UNL     1      42.899  45.930  62.267  1.00  0.00     0.146 C 
HETATM   36  C1  UNL     1      41.992  46.922  62.969  1.00  0.00     0.028 C 
ENDBRANCH   1  35
TORSDOF 6
ENDMDL
