MODEL 3
REMARK VINA RESULT: -7.287362187      2.494      4.718
REMARK  3 active torsions:
REMARK  status: ('A' for Active; 'I' for Inactive)
REMARK    1  A    between atoms: C1_2  and  C2_4 
REMARK    2  A    between atoms: C5_7  and  N1_8 
REMARK    3  A    between atoms: C8_15  and  C9_16 
ROOT
HETATM    1  C2  UNL     1      56.536 -19.062  89.086  1.00  0.00     0.067 A 
HETATM    2  C3  UNL     1      55.691 -18.476  89.995  1.00  0.00     0.023 A 
HETATM    3  C4  UNL     1      54.344 -18.660  89.850  1.00  0.00     0.038 A 
HETATM    4  C5  UNL     1      53.784 -19.423  88.814  1.00  0.00     0.111 A 
HETATM    5  C6  UNL     1      54.623 -20.015  87.902  1.00  0.00     0.007 A 
HETATM    6  C7  UNL     1      56.000 -19.818  88.057  1.00  0.00     0.055 A 
HETATM    7  N2  UNL     1      56.876 -20.366  87.082  1.00  0.00    -0.374 N 
ATOM      8  H2  UNL     1      57.770 -19.928  86.859  1.00  0.00     0.160 HD
HETATM    9  C8  UNL     1      56.433 -21.591  86.411  1.00  0.00     0.188 C 
HETATM   10  C10 UNL     1      55.061 -21.408  85.858  1.00  0.00     0.027 C 
HETATM   11  C11 UNL     1      54.410 -22.609  85.276  1.00  0.00     0.008 C 
HETATM   12  C12 UNL     1      53.240 -22.924  86.146  1.00  0.00     0.001 C 
HETATM   13  C13 UNL     1      53.477 -22.177  87.430  1.00  0.00     0.010 C 
HETATM   14  C14 UNL     1      54.073 -20.866  86.868  1.00  0.00     0.030 C 
ENDROOT
BRANCH   1  15
HETATM   15  C1  UNL     1      57.959 -18.876  89.274  1.00  0.00     0.211 C 
HETATM   16  O1  UNL     1      58.864 -19.713  89.060  1.00  0.00    -0.644 OA
HETATM   17  O2  UNL     1      58.459 -17.636  89.749  1.00  0.00    -0.644 OA
ENDBRANCH   1  15
BRANCH   4  18
HETATM   18  N1  UNL     1      52.369 -19.482  88.817  1.00  0.00    -0.115 N 
HETATM   19  O3  UNL     1      51.701 -18.847  87.961  1.00  0.00    -0.532 OA
HETATM   20  O4  UNL     1      51.680 -20.209  89.722  1.00  0.00    -0.532 OA
ENDBRANCH   4  18
BRANCH   9  21
HETATM   21  C9  UNL     1      56.642 -22.706  87.324  1.00  0.00     0.197 C 
HETATM   22  O5  UNL     1      56.560 -23.918  86.908  1.00  0.00    -0.646 OA
HETATM   23  O6  UNL     1      56.933 -22.593  88.670  1.00  0.00    -0.646 OA
ENDBRANCH   9  21
TORSDOF 3
ENDMDL
