MODEL 4
REMARK VINA RESULT: -7.210666705      2.627      4.724
REMARK  3 active torsions:
REMARK  status: ('A' for Active; 'I' for Inactive)
REMARK    1  A    between atoms: C1_2  and  C2_4 
REMARK    2  A    between atoms: C5_7  and  N1_8 
REMARK    3  A    between atoms: C8_15  and  C9_16 
ROOT
HETATM    1  C2  UNL     1      57.469 -20.519  88.358  1.00  0.00     0.067 A 
HETATM    2  C3  UNL     1      56.899 -19.410  88.930  1.00  0.00     0.023 A 
HETATM    3  C4  UNL     1      55.618 -19.078  88.584  1.00  0.00     0.038 A 
HETATM    4  C5  UNL     1      54.858 -19.821  87.669  1.00  0.00     0.111 A 
HETATM    5  C6  UNL     1      55.419 -20.935  87.093  1.00  0.00     0.007 A 
HETATM    6  C7  UNL     1      56.732 -21.264  87.453  1.00  0.00     0.055 A 
HETATM    7  N2  UNL     1      57.350 -22.372  86.813  1.00  0.00    -0.374 N 
ATOM      8  H2  UNL     1      58.358 -22.410  86.665  1.00  0.00     0.160 HD
HETATM    9  C8  UNL     1      56.469 -23.458  86.376  1.00  0.00     0.188 C 
HETATM   10  C10 UNL     1      55.354 -22.915  85.550  1.00  0.00     0.027 C 
HETATM   11  C11 UNL     1      54.289 -23.872  85.153  1.00  0.00     0.008 C 
HETATM   12  C12 UNL     1      53.041 -23.429  85.839  1.00  0.00     0.001 C 
HETATM   13  C13 UNL     1      53.487 -22.500  86.934  1.00  0.00     0.010 C 
HETATM   14  C14 UNL     1      54.629 -21.758  86.203  1.00  0.00     0.030 C 
ENDROOT
BRANCH   1  15
HETATM   15  C1  UNL     1      58.814 -20.867  88.759  1.00  0.00     0.211 C 
HETATM   16  O1  UNL     1      59.291 -22.017  88.886  1.00  0.00    -0.644 OA
HETATM   17  O2  UNL     1      59.756 -19.847  89.057  1.00  0.00    -0.644 OA
ENDBRANCH   1  15
BRANCH   4  18
HETATM   18  N1  UNL     1      53.560 -19.311  87.421  1.00  0.00    -0.115 N 
HETATM   19  O3  UNL     1      52.673 -19.360  88.312  1.00  0.00    -0.532 OA
HETATM   20  O4  UNL     1      53.216 -18.759  86.238  1.00  0.00    -0.532 OA
ENDBRANCH   4  18
BRANCH   9  21
HETATM   21  C9  UNL     1      56.110 -24.246  87.547  1.00  0.00     0.197 C 
HETATM   22  O5  UNL     1      55.701 -25.457  87.422  1.00  0.00    -0.646 OA
HETATM   23  O6  UNL     1      56.163 -23.804  88.855  1.00  0.00    -0.646 OA
ENDBRANCH   9  21
TORSDOF 3
ENDMDL
