MODEL 2
REMARK VINA RESULT: -7.333173090      2.294      4.393
REMARK  3 active torsions:
REMARK  status: ('A' for Active; 'I' for Inactive)
REMARK    1  A    between atoms: C1_2  and  C2_4 
REMARK    2  A    between atoms: C5_7  and  N1_8 
REMARK    3  A    between atoms: C8_15  and  C9_16 
ROOT
HETATM    1  C2  UNL     1      51.606 -19.025  87.774  1.00  0.00     0.067 A 
HETATM    2  C3  UNL     1      51.043 -19.580  86.652  1.00  0.00     0.023 A 
HETATM    3  C4  UNL     1      51.861 -20.188  85.741  1.00  0.00     0.038 A 
HETATM    4  C5  UNL     1      53.251 -20.273  85.900  1.00  0.00     0.111 A 
HETATM    5  C6  UNL     1      53.824 -19.724  87.022  1.00  0.00     0.007 A 
HETATM    6  C7  UNL     1      52.978 -19.101  87.947  1.00  0.00     0.055 A 
HETATM    7  N2  UNL     1      53.562 -18.467  89.077  1.00  0.00    -0.374 N 
ATOM      8  H2  UNL     1      53.127 -17.658  89.521  1.00  0.00     0.160 HD
HETATM    9  C8  UNL     1      54.819 -19.031  89.574  1.00  0.00     0.188 C 
HETATM   10  C10 UNL     1      55.802 -19.156  88.461  1.00  0.00     0.027 C 
HETATM   11  C11 UNL     1      57.078 -19.850  88.771  1.00  0.00     0.008 C 
HETATM   12  C12 UNL     1      57.089 -21.104  87.963  1.00  0.00     0.001 C 
HETATM   13  C13 UNL     1      55.664 -21.323  87.536  1.00  0.00     0.010 C 
HETATM   14  C14 UNL     1      55.247 -19.863  87.244  1.00  0.00     0.030 C 
ENDROOT
BRANCH   1  15
HETATM   15  C1  UNL     1      50.719 -18.410  88.738  1.00  0.00     0.211 C 
HETATM   16  O1  UNL     1      50.635 -17.193  89.017  1.00  0.00    -0.644 OA
HETATM   17  O2  UNL     1      49.817 -19.209  89.488  1.00  0.00    -0.644 OA
ENDBRANCH   1  15
BRANCH   4  18
HETATM   18  N1  UNL     1      53.933 -20.923  84.842  1.00  0.00    -0.115 N 
HETATM   19  O3  UNL     1      54.537 -20.254  83.965  1.00  0.00    -0.532 OA
HETATM   20  O4  UNL     1      53.966 -22.268  84.724  1.00  0.00    -0.532 OA
ENDBRANCH   4  18
BRANCH   9  21
HETATM   21  C9  UNL     1      54.506 -20.237  90.326  1.00  0.00     0.197 C 
HETATM   22  O5  UNL     1      55.408 -20.825  91.027  1.00  0.00    -0.646 OA
HETATM   23  O6  UNL     1      53.270 -20.855  90.368  1.00  0.00    -0.646 OA
ENDBRANCH   9  21
TORSDOF 3
ENDMDL
