MODEL 2
REMARK VINA RESULT: -8.107010216      2.865      7.729
REMARK  9 active torsions:
REMARK  status: ('A' for Active; 'I' for Inactive)
REMARK    1  A    between atoms: C2_3  and  C3_4 
REMARK    2  A    between atoms: C9_10  and  C10_11 
REMARK    3  A    between atoms: N2_13  and  C12_14 
REMARK    4  A    between atoms: C12_14  and  C13_15 
REMARK    5  A    between atoms: C13_15  and  C14_16 
REMARK       I    between atoms: C14_16  and  N3_18 
REMARK    6  A    between atoms: N3_18  and  C15_20 
REMARK    7  A    between atoms: C18_23  and  C19_24 
REMARK    8  A    between atoms: C29_38  and  C30_39 
REMARK    9  A    between atoms: C31_42  and  O4_43 
ROOT
HETATM    1  C10 UNL     1      28.558   2.556  -4.119  1.00  0.00     0.080 A 
HETATM    2  C11 UNL     1      27.686   3.136  -3.210  1.00  0.00     0.143 A 
HETATM    3  N2  UNL     1      26.632   2.295  -2.995  1.00  0.00    -0.286 N 
HETATM    4  N4  UNL     1      26.872   1.247  -3.755  1.00  0.00    -0.240 N 
ATOM      5  H4  UNL     1      26.259   0.435  -3.816  1.00  0.00     0.208 HD
HETATM    6  N5  UNL     1      27.996   1.373  -4.426  1.00  0.00    -0.284 N 
ATOM      7  H5  UNL     1      28.380   0.685  -5.073  1.00  0.00     0.188 HD
ENDROOT
BRANCH   1   8
HETATM    8  C9  UNL     1      29.807   3.111  -4.628  1.00  0.00     0.034 A 
HETATM    9  C2  UNL     1      31.014   3.105  -3.919  1.00  0.00     0.058 A 
HETATM   10  N1  UNL     1      31.902   3.697  -4.724  1.00  0.00    -0.349 N 
HETATM   11  C1  UNL     1      33.302   3.897  -4.363  1.00  0.00     0.156 C 
HETATM   12  C33 UNL     1      31.347   4.077  -5.890  1.00  0.00     0.048 A 
HETATM   13  C27 UNL     1      30.019   3.713  -5.847  1.00  0.00     0.007 A 
HETATM   14  C32 UNL     1      31.824   4.712  -7.030  1.00  0.00     0.068 A 
HETATM   15  C28 UNL     1      29.202   3.984  -6.922  1.00  0.00     0.036 A 
HETATM   16  C29 UNL     1      29.700   4.622  -8.056  1.00  0.00     0.074 A 
HETATM   17  C31 UNL     1      31.026   4.992  -8.116  1.00  0.00     0.085 A 
BRANCH   9  18
HETATM   18  C3  UNL     1      31.177   2.547  -2.579  1.00  0.00    -0.008 A 
HETATM   19  C4  UNL     1      30.966   3.275  -1.429  1.00  0.00     0.014 A 
HETATM   20  C5  UNL     1      31.136   2.692  -0.172  1.00  0.00     0.001 A 
HETATM   21  C6  UNL     1      31.522   1.372  -0.044  1.00  0.00     0.000 A 
HETATM   22  C7  UNL     1      31.735   0.638  -1.192  1.00  0.00     0.001 A 
HETATM   23  C8  UNL     1      31.560   1.231  -2.428  1.00  0.00     0.014 A 
ENDBRANCH   9  18
BRANCH  16  24
HETATM   24  C30 UNL     1      28.855   4.916  -9.200  1.00  0.00     0.212 C 
HETATM   25  O2  UNL     1      27.905   5.719  -9.050  1.00  0.00    -0.644 OA
HETATM   26  O3  UNL     1      29.051   4.352 -10.445  1.00  0.00    -0.644 OA
ENDBRANCH  16  24
BRANCH  17  27
HETATM   27  O4  UNL     1      31.543   5.638  -9.255  1.00  0.00    -0.360 OA
ATOM     28  H4  UNL     1      32.054   6.435  -9.173  1.00  0.00     0.217 HD
ENDBRANCH  17  27
ENDBRANCH   1   8
BRANCH   3  29
HETATM   29  C12 UNL     1      25.546   2.595  -2.095  1.00  0.00     0.159 C 
BRANCH  29  30
HETATM   30  C13 UNL     1      25.718   1.962  -0.761  1.00  0.00     0.125 C 
BRANCH  30  31
HETATM   31  C14 UNL     1      26.774   2.657   0.071  1.00  0.00     0.223 C 
HETATM   32  O1  UNL     1      27.675   1.989   0.622  1.00  0.00    -0.273 OA
HETATM   33  N3  UNL     1      26.743   4.055   0.223  1.00  0.00    -0.327 N 
ATOM     34  H3  UNL     1      25.989   4.552  -0.251  1.00  0.00     0.169 HD
BRANCH  33  35
HETATM   35  C15 UNL     1      27.646   4.833   0.963  1.00  0.00     0.034 A 
HETATM   36  C16 UNL     1      28.715   5.493   0.449  1.00  0.00     0.030 A 
HETATM   37  C17 UNL     1      29.586   6.271   1.227  1.00  0.00     0.014 A 
HETATM   38  C18 UNL     1      29.371   6.388   2.576  1.00  0.00    -0.026 A 
HETATM   39  C25 UNL     1      28.281   5.714   3.100  1.00  0.00     0.014 A 
HETATM   40  C26 UNL     1      27.443   4.962   2.338  1.00  0.00     0.030 A 
BRANCH  38  41
HETATM   41  C19 UNL     1      30.259   7.185   3.394  1.00  0.00    -0.026 A 
HETATM   42  C20 UNL     1      29.777   8.290   4.045  1.00  0.00     0.012 A 
HETATM   43  C21 UNL     1      30.619   9.068   4.836  1.00  0.00     0.001 A 
HETATM   44  C22 UNL     1      31.944   8.736   4.973  1.00  0.00     0.000 A 
HETATM   45  C23 UNL     1      32.421   7.631   4.321  1.00  0.00     0.001 A 
HETATM   46  C24 UNL     1      31.583   6.848   3.527  1.00  0.00     0.012 A 
ENDBRANCH  38  41
ENDBRANCH  33  35
ENDBRANCH  30  31
ENDBRANCH  29  30
ENDBRANCH   3  29
TORSDOF 9
ENDMDL
