MODEL 3
REMARK VINA RESULT: -8.081401723      3.009      7.726
REMARK  9 active torsions:
REMARK  status: ('A' for Active; 'I' for Inactive)
REMARK    1  A    between atoms: C2_3  and  C3_4 
REMARK    2  A    between atoms: C9_10  and  C10_11 
REMARK    3  A    between atoms: N2_13  and  C12_14 
REMARK    4  A    between atoms: C12_14  and  C13_15 
REMARK    5  A    between atoms: C13_15  and  C14_16 
REMARK       I    between atoms: C14_16  and  N3_18 
REMARK    6  A    between atoms: N3_18  and  C15_20 
REMARK    7  A    between atoms: C18_23  and  C19_24 
REMARK    8  A    between atoms: C29_38  and  C30_39 
REMARK    9  A    between atoms: C31_42  and  O4_43 
ROOT
HETATM    1  C10 UNL     1      28.662   2.347  -5.079  1.00  0.00     0.080 A 
HETATM    2  C11 UNL     1      27.557   2.843  -4.405  1.00  0.00     0.143 A 
HETATM    3  N2  UNL     1      26.629   1.851  -4.266  1.00  0.00    -0.286 N 
HETATM    4  N4  UNL     1      27.168   0.797  -4.840  1.00  0.00    -0.240 N 
ATOM      5  H4  UNL     1      26.715  -0.114  -4.901  1.00  0.00     0.208 HD
HETATM    6  N5  UNL     1      28.362   1.058  -5.327  1.00  0.00    -0.284 N 
ATOM      7  H5  UNL     1      28.963   0.393  -5.812  1.00  0.00     0.188 HD
ENDROOT
BRANCH   1   8
HETATM    8  C9  UNL     1      29.879   3.066  -5.440  1.00  0.00     0.034 A 
HETATM    9  C2  UNL     1      31.034   3.094  -4.652  1.00  0.00     0.058 A 
HETATM   10  N1  UNL     1      31.907   3.849  -5.328  1.00  0.00    -0.349 N 
HETATM   11  C1  UNL     1      33.255   4.137  -4.851  1.00  0.00     0.156 C 
HETATM   12  C33 UNL     1      31.389   4.299  -6.486  1.00  0.00     0.048 A 
HETATM   13  C27 UNL     1      30.103   3.813  -6.573  1.00  0.00     0.007 A 
HETATM   14  C32 UNL     1      31.868   5.095  -7.518  1.00  0.00     0.068 A 
HETATM   15  C28 UNL     1      29.330   4.122  -7.671  1.00  0.00     0.036 A 
HETATM   16  C29 UNL     1      29.830   4.921  -8.696  1.00  0.00     0.074 A 
HETATM   17  C31 UNL     1      31.114   5.417  -8.625  1.00  0.00     0.085 A 
BRANCH   9  18
HETATM   18  C3  UNL     1      31.170   2.412  -3.368  1.00  0.00    -0.008 A 
HETATM   19  C4  UNL     1      31.626   1.118  -3.246  1.00  0.00     0.014 A 
HETATM   20  C5  UNL     1      31.736   0.512  -1.994  1.00  0.00     0.001 A 
HETATM   21  C6  UNL     1      31.393   1.191  -0.841  1.00  0.00     0.000 A 
HETATM   22  C7  UNL     1      30.936   2.487  -0.956  1.00  0.00     0.001 A 
HETATM   23  C8  UNL     1      30.834   3.070  -2.204  1.00  0.00     0.014 A 
ENDBRANCH   9  18
BRANCH  16  24
HETATM   24  C30 UNL     1      29.031   5.258  -9.861  1.00  0.00     0.212 C 
HETATM   25  O2  UNL     1      28.514   6.397  -9.921  1.00  0.00    -0.644 OA
HETATM   26  O3  UNL     1      28.816   4.380 -10.905  1.00  0.00    -0.644 OA
ENDBRANCH  16  24
BRANCH  17  27
HETATM   27  O4  UNL     1      31.633   6.226  -9.653  1.00  0.00    -0.360 OA
ATOM     28  H4  UNL     1      32.540   6.147  -9.924  1.00  0.00     0.217 HD
ENDBRANCH  17  27
ENDBRANCH   1   8
BRANCH   3  29
HETATM   29  C12 UNL     1      25.362   2.035  -3.600  1.00  0.00     0.159 C 
BRANCH  29  30
HETATM   30  C13 UNL     1      25.450   1.811  -2.133  1.00  0.00     0.125 C 
BRANCH  30  31
HETATM   31  C14 UNL     1      25.864   3.061  -1.388  1.00  0.00     0.223 C 
HETATM   32  O1  UNL     1      25.220   4.122  -1.540  1.00  0.00    -0.273 OA
HETATM   33  N3  UNL     1      26.973   3.030  -0.522  1.00  0.00    -0.327 N 
ATOM     34  H3  UNL     1      27.460   2.139  -0.431  1.00  0.00     0.169 HD
BRANCH  33  35
HETATM   35  C15 UNL     1      27.474   4.105   0.227  1.00  0.00     0.034 A 
HETATM   36  C16 UNL     1      27.262   4.302   1.553  1.00  0.00     0.030 A 
HETATM   37  C17 UNL     1      27.795   5.386   2.266  1.00  0.00     0.014 A 
HETATM   38  C18 UNL     1      28.573   6.310   1.616  1.00  0.00    -0.026 A 
HETATM   39  C25 UNL     1      28.790   6.109   0.264  1.00  0.00     0.014 A 
HETATM   40  C26 UNL     1      28.267   5.054  -0.419  1.00  0.00     0.030 A 
BRANCH  38  41
HETATM   41  C19 UNL     1      29.131   7.434   2.334  1.00  0.00    -0.026 A 
HETATM   42  C20 UNL     1      29.423   7.314   3.668  1.00  0.00     0.012 A 
HETATM   43  C21 UNL     1      29.961   8.388   4.373  1.00  0.00     0.001 A 
HETATM   44  C22 UNL     1      30.206   9.581   3.740  1.00  0.00     0.000 A 
HETATM   45  C23 UNL     1      29.912   9.697   2.407  1.00  0.00     0.001 A 
HETATM   46  C24 UNL     1      29.374   8.625   1.695  1.00  0.00     0.012 A 
ENDBRANCH  38  41
ENDBRANCH  33  35
ENDBRANCH  30  31
ENDBRANCH  29  30
ENDBRANCH   3  29
TORSDOF 9
ENDMDL
