MODEL 1
REMARK VINA RESULT: -8.503298220      0.000      0.000
REMARK  9 active torsions:
REMARK  status: ('A' for Active; 'I' for Inactive)
REMARK    1  A    between atoms: C2_3  and  C3_4 
REMARK    2  A    between atoms: C9_10  and  C10_11 
REMARK    3  A    between atoms: N2_13  and  C12_14 
REMARK    4  A    between atoms: C12_14  and  C13_15 
REMARK    5  A    between atoms: C13_15  and  C14_16 
REMARK       I    between atoms: C14_16  and  N3_18 
REMARK    6  A    between atoms: N3_18  and  C15_20 
REMARK    7  A    between atoms: C18_23  and  C19_24 
REMARK    8  A    between atoms: C29_38  and  C30_39 
REMARK    9  A    between atoms: C31_42  and  O4_43 
ROOT
HETATM    1  C10 UNL     1      28.624   4.182   0.399  1.00  0.00     0.080 A 
HETATM    2  C11 UNL     1      27.854   3.096   0.785  1.00  0.00     0.143 A 
HETATM    3  N2  UNL     1      26.532   3.428   0.706  1.00  0.00    -0.286 N 
HETATM    4  N4  UNL     1      26.518   4.675   0.285  1.00  0.00    -0.240 N 
ATOM      5  H4  UNL     1      25.667   5.213   0.125  1.00  0.00     0.208 HD
HETATM    6  N5  UNL     1      27.732   5.143   0.097  1.00  0.00    -0.284 N 
ATOM      7  H5  UNL     1      27.962   6.083  -0.227  1.00  0.00     0.188 HD
ENDROOT
BRANCH   1   8
HETATM    8  C9  UNL     1      30.079   4.261   0.338  1.00  0.00     0.034 A 
HETATM    9  C2  UNL     1      30.835   5.263   0.955  1.00  0.00     0.058 A 
HETATM   10  N1  UNL     1      32.108   4.978   0.664  1.00  0.00    -0.349 N 
HETATM   11  C1  UNL     1      33.235   5.785   1.121  1.00  0.00     0.156 C 
HETATM   12  C33 UNL     1      32.214   3.869  -0.092  1.00  0.00     0.048 A 
HETATM   13  C27 UNL     1      30.936   3.401  -0.309  1.00  0.00     0.007 A 
HETATM   14  C32 UNL     1      33.279   3.170  -0.646  1.00  0.00     0.068 A 
HETATM   15  C28 UNL     1      30.745   2.263  -1.061  1.00  0.00     0.036 A 
HETATM   16  C29 UNL     1      31.827   1.577  -1.607  1.00  0.00     0.074 A 
HETATM   17  C31 UNL     1      33.111   2.030  -1.401  1.00  0.00     0.085 A 
BRANCH   9  18
HETATM   18  C3  UNL     1      30.267   6.359   1.736  1.00  0.00    -0.008 A 
HETATM   19  C4  UNL     1      29.915   6.235   3.062  1.00  0.00     0.014 A 
HETATM   20  C5  UNL     1      29.374   7.314   3.763  1.00  0.00     0.001 A 
HETATM   21  C6  UNL     1      29.176   8.536   3.149  1.00  0.00     0.000 A 
HETATM   22  C7  UNL     1      29.526   8.666   1.821  1.00  0.00     0.001 A 
HETATM   23  C8  UNL     1      30.061   7.587   1.144  1.00  0.00     0.014 A 
ENDBRANCH   9  18
BRANCH  16  24
HETATM   24  C30 UNL     1      31.646   0.375  -2.403  1.00  0.00     0.212 C 
HETATM   25  O2  UNL     1      32.019   0.388  -3.598  1.00  0.00    -0.644 OA
HETATM   26  O3  UNL     1      31.081  -0.781  -1.901  1.00  0.00    -0.644 OA
ENDBRANCH  16  24
BRANCH  17  27
HETATM   27  O4  UNL     1      34.215   1.347  -1.947  1.00  0.00    -0.360 OA
ATOM     28  H4  UNL     1      35.036   1.797  -2.105  1.00  0.00     0.217 HD
ENDBRANCH  17  27
ENDBRANCH   1   8
BRANCH   3  29
HETATM   29  C12 UNL     1      25.461   2.517   1.032  1.00  0.00     0.159 C 
BRANCH  29  30
HETATM   30  C13 UNL     1      25.008   1.725  -0.142  1.00  0.00     0.125 C 
BRANCH  30  31
HETATM   31  C14 UNL     1      25.425   2.356  -1.453  1.00  0.00     0.223 C 
HETATM   32  O1  UNL     1      24.761   3.301  -1.931  1.00  0.00    -0.273 OA
HETATM   33  N3  UNL     1      26.559   1.879  -2.134  1.00  0.00    -0.327 N 
ATOM     34  H3  UNL     1      27.067   1.110  -1.699  1.00  0.00     0.169 HD
BRANCH  33  35
HETATM   35  C15 UNL     1      27.061   2.359  -3.354  1.00  0.00     0.034 A 
HETATM   36  C16 UNL     1      26.616   1.992  -4.582  1.00  0.00     0.030 A 
HETATM   37  C17 UNL     1      27.140   2.510  -5.777  1.00  0.00     0.014 A 
HETATM   38  C18 UNL     1      28.152   3.434  -5.731  1.00  0.00    -0.026 A 
HETATM   39  C25 UNL     1      28.606   3.808  -4.478  1.00  0.00     0.014 A 
HETATM   40  C26 UNL     1      28.092   3.300  -3.325  1.00  0.00     0.030 A 
BRANCH  38  41
HETATM   41  C19 UNL     1      28.705   3.977  -6.952  1.00  0.00    -0.026 A 
HETATM   42  C20 UNL     1      27.867   4.383  -7.958  1.00  0.00     0.012 A 
HETATM   43  C21 UNL     1      28.384   4.908  -9.140  1.00  0.00     0.001 A 
HETATM   44  C22 UNL     1      29.741   5.027  -9.311  1.00  0.00     0.000 A 
HETATM   45  C23 UNL     1      30.574   4.621  -8.303  1.00  0.00     0.001 A 
HETATM   46  C24 UNL     1      30.063   4.093  -7.117  1.00  0.00     0.012 A 
ENDBRANCH  38  41
ENDBRANCH  33  35
ENDBRANCH  30  31
ENDBRANCH  29  30
ENDBRANCH   3  29
TORSDOF 9
ENDMDL
