MODEL 7
REMARK VINA RESULT: -6.989488941      2.261      5.559
REMARK  8 active torsions:
REMARK  status: ('A' for Active; 'I' for Inactive)
REMARK    1  A    between atoms: O1_1  and  C1_3 
REMARK    2  A    between atoms: C1_3  and  C2_4 
REMARK    3  A    between atoms: C3_6  and  O3_7 
REMARK    4  A    between atoms: C3_6  and  C4_9 
REMARK    5  A    between atoms: C4_9  and  O4_10 
REMARK    6  A    between atoms: O4_10  and  P1_11 
REMARK    7  A    between atoms: C5_15  and  O8_16 
REMARK    8  A    between atoms: C6_18  and  O9_19 
ROOT
HETATM    1  C2  UNL     1      -1.875   4.188   3.133  1.00  0.00     0.180 C 
HETATM    2  O2  UNL     1      -1.954   3.523   4.319  1.00  0.00    -0.341 OA
HETATM    3  C3  UNL     1      -1.620   4.350   5.353  1.00  0.00     0.213 C 
HETATM    4  C5  UNL     1      -1.754   5.788   4.843  1.00  0.00     0.213 C 
HETATM    5  C6  UNL     1      -1.409   5.589   3.382  1.00  0.00     0.183 C 
ENDROOT
BRANCH   3   6
HETATM    6  O3  UNL     1      -0.287   4.110   5.688  1.00  0.00    -0.362 OA
ATOM      7  H3  UNL     1       0.156   4.948   5.760  1.00  0.00     0.213 HD
ENDBRANCH   3   6
BRANCH   3   8
HETATM    8  C4  UNL     1      -2.532   4.208   6.522  1.00  0.00     0.253 C 
BRANCH   8   9
HETATM    9  O4  UNL     1      -3.539   3.242   6.260  1.00  0.00    -0.277 OA
BRANCH   9  10
HETATM   10  P1  UNL     1      -4.304   2.740   7.499  1.00  0.00     0.422 P 
HETATM   11  O5  UNL     1      -5.144   2.279   8.698  1.00  0.00    -0.617 OA
HETATM   12  O6  UNL     1      -3.571   1.265   7.381  1.00  0.00    -0.617 OA
HETATM   13  O7  UNL     1      -3.549   3.908   8.387  1.00  0.00    -0.617 OA
ENDBRANCH   9  10
ENDBRANCH   8   9
ENDBRANCH   3   8
BRANCH   4  14
HETATM   14  O8  UNL     1      -0.909   6.655   5.489  1.00  0.00    -0.387 OA
ATOM     15  H8  UNL     1      -1.218   7.553   5.461  1.00  0.00     0.210 HD
ENDBRANCH   4  14
BRANCH   1  16
HETATM   16  C1  UNL     1      -0.961   3.520   2.130  1.00  0.00     0.198 C 
BRANCH  16  17
HETATM   17  O1  UNL     1       0.119   4.299   1.774  1.00  0.00    -0.398 OA
ATOM     18  H1  UNL     1      -0.074   5.228   1.764  1.00  0.00     0.209 HD
ENDBRANCH  16  17
ENDBRANCH   1  16
BRANCH   5  19
HETATM   19  O9  UNL     1      -2.041   6.538   2.594  1.00  0.00    -0.390 OA
ATOM     20  H9  UNL     1      -1.443   7.096   2.110  1.00  0.00     0.210 HD
ENDBRANCH   5  19
TORSDOF 8
ENDMDL
