MODEL 15
REMARK VINA RESULT: -6.055658190      1.260      1.756
REMARK  8 active torsions:
REMARK  status: ('A' for Active; 'I' for Inactive)
REMARK    1  A    between atoms: O1_1  and  C1_3 
REMARK    2  A    between atoms: C1_3  and  C2_4 
REMARK    3  A    between atoms: C3_6  and  O3_7 
REMARK    4  A    between atoms: C3_6  and  C4_9 
REMARK    5  A    between atoms: C4_9  and  O4_10 
REMARK    6  A    between atoms: O4_10  and  P1_11 
REMARK    7  A    between atoms: C5_15  and  O8_16 
REMARK    8  A    between atoms: C6_18  and  O9_19 
ROOT
HETATM    1  C2  UNL     1      -4.062   5.250   5.992  1.00  0.00     0.180 C 
HETATM    2  O2  UNL     1      -3.550   5.057   4.745  1.00  0.00    -0.341 OA
HETATM    3  C3  UNL     1      -2.208   4.814   4.813  1.00  0.00     0.213 C 
HETATM    4  C5  UNL     1      -1.898   4.385   6.251  1.00  0.00     0.213 C 
HETATM    5  C6  UNL     1      -2.958   5.167   6.999  1.00  0.00     0.183 C 
ENDROOT
BRANCH   3   6
HETATM    6  O3  UNL     1      -1.536   6.007   4.541  1.00  0.00    -0.362 OA
ATOM      7  H3  UNL     1      -1.348   6.436   5.368  1.00  0.00     0.213 HD
ENDBRANCH   3   6
BRANCH   3   8
HETATM    8  C4  UNL     1      -1.777   3.705   3.917  1.00  0.00     0.253 C 
BRANCH   8   9
HETATM    9  O4  UNL     1      -1.851   4.100   2.556  1.00  0.00    -0.277 OA
BRANCH   9  10
HETATM   10  P1  UNL     1      -0.520   4.563   1.935  1.00  0.00     0.422 P 
HETATM   11  O5  UNL     1       0.839   5.039   1.402  1.00  0.00    -0.617 OA
HETATM   12  O6  UNL     1      -0.544   3.291   0.881  1.00  0.00    -0.617 OA
HETATM   13  O7  UNL     1      -1.268   5.960   1.476  1.00  0.00    -0.617 OA
ENDBRANCH   9  10
ENDBRANCH   8   9
ENDBRANCH   3   8
BRANCH   4  14
HETATM   14  O8  UNL     1      -0.618   4.703   6.629  1.00  0.00    -0.387 OA
ATOM     15  H8  UNL     1      -0.402   4.373   7.493  1.00  0.00     0.210 HD
ENDBRANCH   4  14
BRANCH   1  16
HETATM   16  C1  UNL     1      -4.789   6.568   6.144  1.00  0.00     0.198 C 
BRANCH  16  17
HETATM   17  O1  UNL     1      -4.239   7.386   7.107  1.00  0.00    -0.398 OA
ATOM     18  H1  UNL     1      -4.404   8.309   6.956  1.00  0.00     0.209 HD
ENDBRANCH  16  17
ENDBRANCH   1  16
BRANCH   5  19
HETATM   19  O9  UNL     1      -3.315   4.516   8.169  1.00  0.00    -0.390 OA
ATOM     20  H9  UNL     1      -2.761   3.772   8.380  1.00  0.00     0.210 HD
ENDBRANCH   5  19
TORSDOF 8
ENDMDL
