MODEL 10
REMARK VINA RESULT: -6.448468884      1.453      2.313
REMARK  8 active torsions:
REMARK  status: ('A' for Active; 'I' for Inactive)
REMARK    1  A    between atoms: O1_1  and  C1_3 
REMARK    2  A    between atoms: C1_3  and  C2_4 
REMARK    3  A    between atoms: C3_6  and  O3_7 
REMARK    4  A    between atoms: C3_6  and  C4_9 
REMARK    5  A    between atoms: C4_9  and  O4_10 
REMARK    6  A    between atoms: O4_10  and  P1_11 
REMARK    7  A    between atoms: C5_15  and  O8_16 
REMARK    8  A    between atoms: C6_18  and  O9_19 
ROOT
HETATM    1  C2  UNL     1      -2.641   4.607   6.979  1.00  0.00     0.180 C 
HETATM    2  O2  UNL     1      -2.340   3.613   6.099  1.00  0.00    -0.341 OA
HETATM    3  C3  UNL     1      -2.074   4.134   4.865  1.00  0.00     0.213 C 
HETATM    4  C5  UNL     1      -1.751   5.618   5.060  1.00  0.00     0.213 C 
HETATM    5  C6  UNL     1      -2.612   5.924   6.268  1.00  0.00     0.183 C 
ENDROOT
BRANCH   3   6
HETATM    6  O3  UNL     1      -3.227   4.019   4.086  1.00  0.00    -0.362 OA
ATOM      7  H3  UNL     1      -3.572   4.892   3.939  1.00  0.00     0.213 HD
ENDBRANCH   3   6
BRANCH   3   8
HETATM    8  C4  UNL     1      -0.889   3.505   4.217  1.00  0.00     0.253 C 
BRANCH   8   9
HETATM    9  O4  UNL     1      -0.390   4.326   3.174  1.00  0.00    -0.277 OA
BRANCH   9  10
HETATM   10  P1  UNL     1      -0.675   3.820   1.747  1.00  0.00     0.422 P 
HETATM   11  O5  UNL     1      -0.868   3.321   0.308  1.00  0.00    -0.617 OA
HETATM   12  O6  UNL     1      -1.688   2.658   2.339  1.00  0.00    -0.617 OA
HETATM   13  O7  UNL     1      -1.318   5.299   1.396  1.00  0.00    -0.617 OA
ENDBRANCH   9  10
ENDBRANCH   8   9
ENDBRANCH   3   8
BRANCH   4  14
HETATM   14  O8  UNL     1      -2.069   6.374   3.959  1.00  0.00    -0.387 OA
ATOM     15  H8  UNL     1      -1.353   6.429   3.337  1.00  0.00     0.210 HD
ENDBRANCH   4  14
BRANCH   1  16
HETATM   16  C1  UNL     1      -3.983   4.424   7.654  1.00  0.00     0.198 C 
BRANCH  16  17
HETATM   17  O1  UNL     1      -4.360   5.506   8.418  1.00  0.00    -0.398 OA
ATOM     18  H1  UNL     1      -5.057   6.019   8.026  1.00  0.00     0.209 HD
ENDBRANCH  16  17
ENDBRANCH   1  16
BRANCH   5  19
HETATM   19  O9  UNL     1      -2.062   6.953   7.016  1.00  0.00    -0.390 OA
ATOM     20  H9  UNL     1      -1.905   7.748   6.520  1.00  0.00     0.210 HD
ENDBRANCH   5  19
TORSDOF 8
ENDMDL
