MODEL 9
REMARK VINA RESULT: -6.828716203      1.513      3.003
REMARK  8 active torsions:
REMARK  status: ('A' for Active; 'I' for Inactive)
REMARK    1  A    between atoms: O1_1  and  C1_3 
REMARK    2  A    between atoms: C1_3  and  C2_4 
REMARK    3  A    between atoms: C3_6  and  O3_7 
REMARK    4  A    between atoms: C3_6  and  C4_9 
REMARK    5  A    between atoms: C4_9  and  O4_10 
REMARK    6  A    between atoms: O4_10  and  P1_11 
REMARK    7  A    between atoms: C5_15  and  O8_16 
REMARK    8  A    between atoms: C6_18  and  O9_19 
ROOT
HETATM    1  C2  UNL     1      -3.668   3.447   7.878  1.00  0.00     0.180 C 
HETATM    2  O2  UNL     1      -2.994   2.945   6.806  1.00  0.00    -0.341 OA
HETATM    3  C3  UNL     1      -3.121   3.779   5.732  1.00  0.00     0.213 C 
HETATM    4  C5  UNL     1      -3.548   5.148   6.269  1.00  0.00     0.213 C 
HETATM    5  C6  UNL     1      -4.345   4.723   7.485  1.00  0.00     0.183 C 
ENDROOT
BRANCH   3   6
HETATM    6  O3  UNL     1      -4.131   3.278   4.909  1.00  0.00    -0.362 OA
ATOM      7  H3  UNL     1      -4.111   3.759   4.090  1.00  0.00     0.213 HD
ENDBRANCH   3   6
BRANCH   3   8
HETATM    8  C4  UNL     1      -1.838   3.971   4.998  1.00  0.00     0.253 C 
BRANCH   8   9
HETATM    9  O4  UNL     1      -2.013   3.741   3.609  1.00  0.00    -0.277 OA
BRANCH   9  10
HETATM   10  P1  UNL     1      -1.123   4.595   2.686  1.00  0.00     0.422 P 
HETATM   11  O5  UNL     1      -0.166   5.432   1.826  1.00  0.00    -0.617 OA
HETATM   12  O6  UNL     1      -1.697   3.797   1.359  1.00  0.00    -0.617 OA
HETATM   13  O7  UNL     1      -1.945   5.931   3.199  1.00  0.00    -0.617 OA
ENDBRANCH   9  10
ENDBRANCH   8   9
ENDBRANCH   3   8
BRANCH   4  14
HETATM   14  O8  UNL     1      -4.285   5.862   5.357  1.00  0.00    -0.387 OA
ATOM     15  H8  UNL     1      -4.277   6.796   5.534  1.00  0.00     0.210 HD
ENDBRANCH   4  14
BRANCH   1  16
HETATM   16  C1  UNL     1      -4.688   2.487   8.449  1.00  0.00     0.198 C 
BRANCH  16  17
HETATM   17  O1  UNL     1      -4.710   1.269   7.804  1.00  0.00    -0.398 OA
ATOM     18  H1  UNL     1      -5.438   0.718   8.067  1.00  0.00     0.209 HD
ENDBRANCH  16  17
ENDBRANCH   1  16
BRANCH   5  19
HETATM   19  O9  UNL     1      -4.306   5.703   8.464  1.00  0.00    -0.390 OA
ATOM     20  H9  UNL     1      -4.160   6.579   8.126  1.00  0.00     0.210 HD
ENDBRANCH   5  19
TORSDOF 8
ENDMDL
