MODEL 5
REMARK VINA RESULT: -7.084042566      1.363      2.448
REMARK  8 active torsions:
REMARK  status: ('A' for Active; 'I' for Inactive)
REMARK    1  A    between atoms: O1_1  and  C1_3 
REMARK    2  A    between atoms: C1_3  and  C2_4 
REMARK    3  A    between atoms: C3_6  and  O3_7 
REMARK    4  A    between atoms: C3_6  and  C4_9 
REMARK    5  A    between atoms: C4_9  and  O4_10 
REMARK    6  A    between atoms: O4_10  and  P1_11 
REMARK    7  A    between atoms: C5_15  and  O8_16 
REMARK    8  A    between atoms: C6_18  and  O9_19 
ROOT
HETATM    1  C2  UNL     1      -3.237   3.530   7.332  1.00  0.00     0.180 C 
HETATM    2  O2  UNL     1      -2.721   3.093   6.150  1.00  0.00    -0.341 OA
HETATM    3  C3  UNL     1      -2.327   4.152   5.382  1.00  0.00     0.213 C 
HETATM    4  C5  UNL     1      -2.173   5.356   6.316  1.00  0.00     0.213 C 
HETATM    5  C6  UNL     1      -3.225   5.027   7.355  1.00  0.00     0.183 C 
ENDROOT
BRANCH   3   6
HETATM    6  O3  UNL     1      -3.340   4.420   4.459  1.00  0.00    -0.362 OA
ATOM      7  H3  UNL     1      -3.938   3.682   4.454  1.00  0.00     0.213 HD
ENDBRANCH   3   6
BRANCH   3   8
HETATM    8  C4  UNL     1      -1.009   3.928   4.726  1.00  0.00     0.253 C 
BRANCH   8   9
HETATM    9  O4  UNL     1      -0.649   5.042   3.924  1.00  0.00    -0.277 OA
BRANCH   9  10
HETATM   10  P1  UNL     1      -1.123   4.976   2.460  1.00  0.00     0.422 P 
HETATM   11  O5  UNL     1      -1.612   4.819   1.014  1.00  0.00    -0.617 OA
HETATM   12  O6  UNL     1      -1.996   6.364   2.657  1.00  0.00    -0.617 OA
HETATM   13  O7  UNL     1       0.452   5.114   1.988  1.00  0.00    -0.617 OA
ENDBRANCH   9  10
ENDBRANCH   8   9
ENDBRANCH   3   8
BRANCH   4  14
HETATM   14  O8  UNL     1      -2.395   6.549   5.675  1.00  0.00    -0.387 OA
ATOM     15  H8  UNL     1      -2.706   6.431   4.785  1.00  0.00     0.210 HD
ENDBRANCH   4  14
BRANCH   1  16
HETATM   16  C1  UNL     1      -4.640   3.030   7.596  1.00  0.00     0.198 C 
BRANCH  16  17
HETATM   17  O1  UNL     1      -4.759   2.340   8.782  1.00  0.00    -0.398 OA
ATOM     18  H1  UNL     1      -5.204   1.506   8.690  1.00  0.00     0.209 HD
ENDBRANCH  16  17
ENDBRANCH   1  16
BRANCH   5  19
HETATM   19  O9  UNL     1      -2.885   5.566   8.586  1.00  0.00    -0.390 OA
ATOM     20  H9  UNL     1      -2.765   6.508   8.573  1.00  0.00     0.210 HD
ENDBRANCH   5  19
TORSDOF 8
ENDMDL
