MODEL 6
REMARK VINA RESULT: -7.060471933      1.632      2.296
REMARK  8 active torsions:
REMARK  status: ('A' for Active; 'I' for Inactive)
REMARK    1  A    between atoms: O1_1  and  C1_3 
REMARK    2  A    between atoms: C1_3  and  C2_4 
REMARK    3  A    between atoms: C3_6  and  O3_7 
REMARK    4  A    between atoms: C3_6  and  C4_9 
REMARK    5  A    between atoms: C4_9  and  O4_10 
REMARK    6  A    between atoms: O4_10  and  P1_11 
REMARK    7  A    between atoms: C5_15  and  O8_16 
REMARK    8  A    between atoms: C6_18  and  O9_19 
ROOT
HETATM    1  C2  UNL     1      -3.380   4.902   5.836  1.00  0.00     0.180 C 
HETATM    2  O2  UNL     1      -3.046   4.462   4.592  1.00  0.00    -0.341 OA
HETATM    3  C3  UNL     1      -1.811   4.926   4.238  1.00  0.00     0.213 C 
HETATM    4  C5  UNL     1      -1.098   5.343   5.528  1.00  0.00     0.213 C 
HETATM    5  C6  UNL     1      -2.284   5.776   6.363  1.00  0.00     0.183 C 
ENDROOT
BRANCH   3   6
HETATM    6  O3  UNL     1      -1.983   6.051   3.430  1.00  0.00    -0.362 OA
ATOM      7  H3  UNL     1      -1.835   6.824   3.964  1.00  0.00     0.213 HD
ENDBRANCH   3   6
BRANCH   3   8
HETATM    8  C4  UNL     1      -0.970   3.884   3.584  1.00  0.00     0.253 C 
BRANCH   8   9
HETATM    9  O4  UNL     1      -1.753   3.076   2.719  1.00  0.00    -0.277 OA
BRANCH   9  10
HETATM   10  P1  UNL     1      -1.070   2.680   1.397  1.00  0.00     0.422 P 
HETATM   11  O5  UNL     1      -0.307   2.290   0.123  1.00  0.00    -0.617 OA
HETATM   12  O6  UNL     1      -2.186   1.487   1.153  1.00  0.00    -0.617 OA
HETATM   13  O7  UNL     1      -1.410   4.186   0.817  1.00  0.00    -0.617 OA
ENDBRANCH   9  10
ENDBRANCH   8   9
ENDBRANCH   3   8
BRANCH   4  14
HETATM   14  O8  UNL     1      -0.183   6.345   5.321  1.00  0.00    -0.387 OA
ATOM     15  H8  UNL     1       0.698   6.089   5.568  1.00  0.00     0.210 HD
ENDBRANCH   4  14
BRANCH   1  16
HETATM   16  C1  UNL     1      -4.691   5.655   5.874  1.00  0.00     0.198 C 
BRANCH  16  17
HETATM   17  O1  UNL     1      -4.625   6.831   6.588  1.00  0.00    -0.398 OA
ATOM     18  H1  UNL     1      -5.080   7.552   6.170  1.00  0.00     0.209 HD
ENDBRANCH  16  17
ENDBRANCH   1  16
BRANCH   5  19
HETATM   19  O9  UNL     1      -2.026   5.598   7.713  1.00  0.00    -0.390 OA
ATOM     20  H9  UNL     1      -2.097   6.394   8.227  1.00  0.00     0.210 HD
ENDBRANCH   5  19
TORSDOF 8
ENDMDL
