MODEL 4
REMARK VINA RESULT: -7.800459094      2.353      5.494
REMARK  8 active torsions:
REMARK  status: ('A' for Active; 'I' for Inactive)
REMARK    1  A    between atoms: O1_1  and  C1_3 
REMARK    2  A    between atoms: C1_3  and  C2_4 
REMARK    3  A    between atoms: C3_6  and  O3_7 
REMARK    4  A    between atoms: C3_6  and  C4_9 
REMARK    5  A    between atoms: C4_9  and  O4_10 
REMARK    6  A    between atoms: O4_10  and  P1_11 
REMARK    7  A    between atoms: C5_15  and  O8_16 
REMARK    8  A    between atoms: C6_18  and  O9_19 
ROOT
HETATM    1  C2  UNL     1      -1.776   4.023   2.539  1.00  0.00     0.180 C 
HETATM    2  O2  UNL     1      -1.934   3.306   3.686  1.00  0.00    -0.341 OA
HETATM    3  C3  UNL     1      -1.580   4.058   4.770  1.00  0.00     0.213 C 
HETATM    4  C5  UNL     1      -1.607   5.525   4.331  1.00  0.00     0.213 C 
HETATM    5  C6  UNL     1      -1.230   5.377   2.871  1.00  0.00     0.183 C 
ENDROOT
BRANCH   3   6
HETATM    6  O3  UNL     1      -0.275   3.716   5.129  1.00  0.00    -0.362 OA
ATOM      7  H3  UNL     1      -0.039   4.220   5.899  1.00  0.00     0.213 HD
ENDBRANCH   3   6
BRANCH   3   8
HETATM    8  C4  UNL     1      -2.535   3.918   5.904  1.00  0.00     0.253 C 
BRANCH   8   9
HETATM    9  O4  UNL     1      -2.207   4.815   6.953  1.00  0.00    -0.277 OA
BRANCH   9  10
HETATM   10  P1  UNL     1      -3.411   5.436   7.685  1.00  0.00     0.422 P 
HETATM   11  O5  UNL     1      -4.584   6.011   8.492  1.00  0.00    -0.617 OA
HETATM   12  O6  UNL     1      -3.092   6.908   7.007  1.00  0.00    -0.617 OA
HETATM   13  O7  UNL     1      -4.395   4.402   6.858  1.00  0.00    -0.617 OA
ENDBRANCH   9  10
ENDBRANCH   8   9
ENDBRANCH   3   8
BRANCH   4  14
HETATM   14  O8  UNL     1      -0.728   6.302   5.044  1.00  0.00    -0.387 OA
ATOM     15  H8  UNL     1      -1.085   7.158   5.251  1.00  0.00     0.210 HD
ENDBRANCH   4  14
BRANCH   1  16
HETATM   16  C1  UNL     1      -0.876   3.347   1.528  1.00  0.00     0.198 C 
BRANCH  16  17
HETATM   17  O1  UNL     1      -0.757   1.989   1.727  1.00  0.00    -0.398 OA
ATOM     18  H1  UNL     1       0.063   1.739   2.136  1.00  0.00     0.209 HD
ENDBRANCH  16  17
ENDBRANCH   1  16
BRANCH   5  19
HETATM   19  O9  UNL     1      -1.776   6.402   2.116  1.00  0.00    -0.390 OA
ATOM     20  H9  UNL     1      -1.264   7.203   2.127  1.00  0.00     0.210 HD
ENDBRANCH   5  19
TORSDOF 8
ENDMDL
