MODEL 3
REMARK VINA RESULT: -7.879574561      2.200      5.503
REMARK  8 active torsions:
REMARK  status: ('A' for Active; 'I' for Inactive)
REMARK    1  A    between atoms: O1_1  and  C1_3 
REMARK    2  A    between atoms: C1_3  and  C2_4 
REMARK    3  A    between atoms: C3_6  and  O3_7 
REMARK    4  A    between atoms: C3_6  and  C4_9 
REMARK    5  A    between atoms: C4_9  and  O4_10 
REMARK    6  A    between atoms: O4_10  and  P1_11 
REMARK    7  A    between atoms: C5_15  and  O8_16 
REMARK    8  A    between atoms: C6_18  and  O9_19 
ROOT
HETATM    1  C2  UNL     1      -1.841   4.102   2.785  1.00  0.00     0.180 C 
HETATM    2  O2  UNL     1      -1.993   3.399   3.941  1.00  0.00    -0.341 OA
HETATM    3  C3  UNL     1      -1.631   4.163   5.014  1.00  0.00     0.213 C 
HETATM    4  C5  UNL     1      -1.658   5.625   4.558  1.00  0.00     0.213 C 
HETATM    5  C6  UNL     1      -1.291   5.458   3.098  1.00  0.00     0.183 C 
ENDROOT
BRANCH   3   6
HETATM    6  O3  UNL     1      -0.325   3.822   5.370  1.00  0.00    -0.362 OA
ATOM      7  H3  UNL     1       0.199   4.615   5.365  1.00  0.00     0.213 HD
ENDBRANCH   3   6
BRANCH   3   8
HETATM    8  C4  UNL     1      -2.580   4.038   6.156  1.00  0.00     0.253 C 
BRANCH   8   9
HETATM    9  O4  UNL     1      -3.605   5.014   6.068  1.00  0.00    -0.277 OA
BRANCH   9  10
HETATM   10  P1  UNL     1      -4.051   5.619   7.413  1.00  0.00     0.422 P 
HETATM   11  O5  UNL     1      -4.579   6.239   8.714  1.00  0.00    -0.617 OA
HETATM   12  O6  UNL     1      -3.395   4.342   8.229  1.00  0.00    -0.617 OA
HETATM   13  O7  UNL     1      -3.082   6.918   7.104  1.00  0.00    -0.617 OA
ENDBRANCH   9  10
ENDBRANCH   8   9
ENDBRANCH   3   8
BRANCH   4  14
HETATM   14  O8  UNL     1      -0.774   6.408   5.256  1.00  0.00    -0.387 OA
ATOM     15  H8  UNL     1      -0.667   7.269   4.869  1.00  0.00     0.210 HD
ENDBRANCH   4  14
BRANCH   1  16
HETATM   16  C1  UNL     1      -0.948   3.412   1.777  1.00  0.00     0.198 C 
BRANCH  16  17
HETATM   17  O1  UNL     1       0.168   4.149   1.444  1.00  0.00    -0.398 OA
ATOM     18  H1  UNL     1       0.926   3.613   1.242  1.00  0.00     0.209 HD
ENDBRANCH  16  17
ENDBRANCH   1  16
BRANCH   5  19
HETATM   19  O9  UNL     1      -1.839   6.475   2.334  1.00  0.00    -0.390 OA
ATOM     20  H9  UNL     1      -2.527   6.960   2.775  1.00  0.00     0.210 HD
ENDBRANCH   5  19
TORSDOF 8
ENDMDL
