MODEL 1
REMARK VINA RESULT: -5.970741708      0.000      0.000
REMARK  1 active torsions:
REMARK  status: ('A' for Active; 'I' for Inactive)
REMARK    1  A    between atoms: N1_1  and  P1_4 
ROOT
HETATM    1  P1  UNL     1     -66.680  19.040 -17.050  1.00  0.00     0.276 P 
HETATM    2  O1  UNL     1     -65.254  19.483 -16.823  1.00  0.00    -0.270 OA
HETATM    3  C1  UNL     1     -66.960  17.377 -16.501  1.00  0.00     0.104 A 
HETATM    4  C2  UNL     1     -67.877  17.141 -15.599  1.00  0.00     0.099 A 
HETATM    5  N2  UNL     1     -68.713  18.081 -14.977  1.00  0.00    -0.319 N 
ATOM      6  H2  UNL     1     -69.384  17.743 -14.288  1.00  0.00     0.170 HD
HETATM    7  C3  UNL     1     -68.681  19.466 -15.246  1.00  0.00     0.327 A 
HETATM    8  O2  UNL     1     -69.470  20.259 -14.643  1.00  0.00    -0.247 OA
HETATM    9  N3  UNL     1     -67.794  20.047 -16.178  1.00  0.00    -0.271 N 
ATOM     10  H3  UNL     1     -67.808  21.055 -16.339  1.00  0.00     0.173 HD
ENDROOT
BRANCH   1  11
HETATM   11  N1  UNL     1     -67.014  19.157 -18.762  1.00  0.00    -0.361 N 
ATOM     12  H12 UNL     1     -67.938  19.293 -19.174  1.00  0.00     0.159 HD
ATOM     13  H11 UNL     1     -66.130  19.066 -19.262  1.00  0.00     0.159 HD
ENDBRANCH   1  11
TORSDOF 1
ENDMDL
