MODEL 2
REMARK VINA RESULT: -8.887015963      3.015      4.219
REMARK  4 active torsions:
REMARK  status: ('A' for Active; 'I' for Inactive)
REMARK    1  A    between atoms: C1_2  and  C2_4 
REMARK    2  A    between atoms: C4_6  and  C5_7 
REMARK    3  A    between atoms: N3_20  and  C14_21 
REMARK    4  A    between atoms: C14_21  and  C15_22 
ROOT
HETATM    1  C2  UNL     1     -22.354  -7.438  10.270  1.00  0.00     0.058 A 
HETATM    2  C3  UNL     1     -23.344  -7.561  11.253  1.00  0.00     0.050 A 
HETATM    3  C4  UNL     1     -23.561  -6.473  12.054  1.00  0.00     0.045 A 
HETATM    4  N1  UNL     1     -22.849  -5.322  11.903  1.00  0.00    -0.340 N 
ATOM      5  H1  UNL     1     -23.048  -4.537  12.524  1.00  0.00     0.167 HD
HETATM    6  C11 UNL     1     -21.898  -5.181  10.971  1.00  0.00     0.136 A 
HETATM    7  C12 UNL     1     -21.656  -6.258  10.150  1.00  0.00     0.043 A 
HETATM    8  C13 UNL     1     -20.642  -5.844   9.294  1.00  0.00     0.123 A 
HETATM    9  N2  UNL     1     -20.330  -4.593   9.619  1.00  0.00    -0.307 N 
ATOM     10  H2  UNL     1     -19.614  -4.037   9.152  1.00  0.00     0.186 HD
HETATM   11  N3  UNL     1     -21.067  -4.165  10.625  1.00  0.00    -0.272 N 
ENDROOT
BRANCH  11  12
HETATM   12  C14 UNL     1     -21.016  -2.871  11.249  1.00  0.00     0.189 C 
BRANCH  12  13
HETATM   13  C15 UNL     1     -20.004  -2.742  12.296  1.00  0.00    -0.036 A 
HETATM   14  C16 UNL     1     -19.576  -1.472  12.647  1.00  0.00     0.026 A 
HETATM   15  C17 UNL     1     -18.635  -1.240  13.611  1.00  0.00     0.088 A 
HETATM   16  N4  UNL     1     -18.094  -2.283  14.254  1.00  0.00    -0.375 N 
HETATM   17  C18 UNL     1     -18.495  -3.526  13.929  1.00  0.00     0.088 A 
ATOM     18  H4  UNL     1     -17.390  -2.138  14.978  1.00  0.00     0.164 HD
HETATM   19  C19 UNL     1     -19.437  -3.799  12.968  1.00  0.00     0.026 A 
ENDBRANCH  12  13
ENDBRANCH  11  12
BRANCH   3  20
HETATM   20  C5  UNL     1     -24.565  -6.508  13.098  1.00  0.00    -0.009 A 
HETATM   21  C6  UNL     1     -24.158  -6.676  14.426  1.00  0.00     0.013 A 
HETATM   22  C7  UNL     1     -25.044  -6.721  15.476  1.00  0.00     0.001 A 
HETATM   23  C8  UNL     1     -26.387  -6.593  15.184  1.00  0.00     0.000 A 
HETATM   24  C9  UNL     1     -26.827  -6.427  13.898  1.00  0.00     0.001 A 
HETATM   25  C10 UNL     1     -25.907  -6.386  12.864  1.00  0.00     0.013 A 
ENDBRANCH   3  20
BRANCH   1  26
HETATM   26  C1  UNL     1     -22.122  -8.584   9.424  1.00  0.00     0.210 C 
HETATM   27  O1  UNL     1     -21.665  -9.639   9.908  1.00  0.00    -0.644 OA
HETATM   28  O2  UNL     1     -22.386  -8.580   8.065  1.00  0.00    -0.644 OA
ENDBRANCH   1  26
TORSDOF 4
ENDMDL
