MODEL 4
REMARK VINA RESULT: -8.794185421      3.329      4.369
REMARK  4 active torsions:
REMARK  status: ('A' for Active; 'I' for Inactive)
REMARK    1  A    between atoms: C1_2  and  C2_4 
REMARK    2  A    between atoms: C4_6  and  C5_7 
REMARK    3  A    between atoms: N3_20  and  C14_21 
REMARK    4  A    between atoms: C14_21  and  C15_22 
ROOT
HETATM    1  C2  UNL     1     -22.015  -7.056  10.545  1.00  0.00     0.058 A 
HETATM    2  C3  UNL     1     -23.195  -7.125  11.297  1.00  0.00     0.050 A 
HETATM    3  C4  UNL     1     -23.188  -6.507  12.517  1.00  0.00     0.045 A 
HETATM    4  N1  UNL     1     -22.088  -5.854  12.982  1.00  0.00    -0.340 N 
ATOM      5  H1  UNL     1     -22.132  -5.407  13.898  1.00  0.00     0.167 HD
HETATM    6  C11 UNL     1     -20.949  -5.775  12.282  1.00  0.00     0.136 A 
HETATM    7  C12 UNL     1     -20.923  -6.387  11.050  1.00  0.00     0.043 A 
HETATM    8  C13 UNL     1     -19.646  -6.153  10.552  1.00  0.00     0.123 A 
HETATM    9  N2  UNL     1     -18.987  -5.442  11.462  1.00  0.00    -0.307 N 
ATOM     10  H2  UNL     1     -18.023  -5.127  11.360  1.00  0.00     0.186 HD
HETATM   11  N3  UNL     1     -19.742  -5.199  12.515  1.00  0.00    -0.272 N 
ENDROOT
BRANCH  11  12
HETATM   12  C14 UNL     1     -19.376  -4.464  13.695  1.00  0.00     0.189 C 
BRANCH  12  13
HETATM   13  C15 UNL     1     -18.853  -3.124  13.437  1.00  0.00    -0.036 A 
HETATM   14  C16 UNL     1     -17.624  -2.780  13.976  1.00  0.00     0.026 A 
HETATM   15  C17 UNL     1     -17.044  -1.555  13.795  1.00  0.00     0.088 A 
HETATM   16  N4  UNL     1     -17.687  -0.634  13.064  1.00  0.00    -0.375 N 
HETATM   17  C18 UNL     1     -18.882  -0.947  12.531  1.00  0.00     0.088 A 
ATOM     18  H4  UNL     1     -17.277   0.288  12.914  1.00  0.00     0.164 HD
HETATM   19  C19 UNL     1     -19.496  -2.165  12.690  1.00  0.00     0.026 A 
ENDBRANCH  12  13
ENDBRANCH  11  12
BRANCH   3  20
HETATM   20  C5  UNL     1     -24.364  -6.526  13.364  1.00  0.00    -0.009 A 
HETATM   21  C6  UNL     1     -25.626  -6.384  12.777  1.00  0.00     0.013 A 
HETATM   22  C7  UNL     1     -26.791  -6.390  13.506  1.00  0.00     0.001 A 
HETATM   23  C8  UNL     1     -26.688  -6.546  14.873  1.00  0.00     0.000 A 
HETATM   24  C9  UNL     1     -25.472  -6.688  15.488  1.00  0.00     0.001 A 
HETATM   25  C10 UNL     1     -24.318  -6.677  14.723  1.00  0.00     0.013 A 
ENDBRANCH   3  20
BRANCH   1  26
HETATM   26  C1  UNL     1     -22.017  -7.707   9.257  1.00  0.00     0.210 C 
HETATM   27  O1  UNL     1     -22.381  -8.897   9.156  1.00  0.00    -0.644 OA
HETATM   28  O2  UNL     1     -21.627  -7.070   8.092  1.00  0.00    -0.644 OA
ENDBRANCH   1  26
TORSDOF 4
ENDMDL
