MODEL 3
REMARK VINA RESULT: -8.847543401      3.990      6.754
REMARK  4 active torsions:
REMARK  status: ('A' for Active; 'I' for Inactive)
REMARK    1  A    between atoms: C1_2  and  C2_4 
REMARK    2  A    between atoms: C4_6  and  C5_7 
REMARK    3  A    between atoms: N3_20  and  C14_21 
REMARK    4  A    between atoms: C14_21  and  C15_22 
ROOT
HETATM    1  C2  UNL     1     -21.295  -6.594   9.490  1.00  0.00     0.058 A 
HETATM    2  C3  UNL     1     -21.260  -7.991   9.391  1.00  0.00     0.050 A 
HETATM    3  C4  UNL     1     -22.339  -8.673   9.882  1.00  0.00     0.045 A 
HETATM    4  N1  UNL     1     -23.400  -8.028  10.442  1.00  0.00    -0.340 N 
ATOM      5  H1  UNL     1     -24.181  -8.581  10.793  1.00  0.00     0.167 HD
HETATM    6  C11 UNL     1     -23.455  -6.694  10.548  1.00  0.00     0.136 A 
HETATM    7  C12 UNL     1     -22.384  -5.978  10.063  1.00  0.00     0.043 A 
HETATM    8  C13 UNL     1     -22.700  -4.645  10.297  1.00  0.00     0.123 A 
HETATM    9  N2  UNL     1     -23.892  -4.614  10.886  1.00  0.00    -0.307 N 
ATOM     10  H2  UNL     1     -24.372  -3.761  11.171  1.00  0.00     0.186 HD
HETATM   11  N3  UNL     1     -24.373  -5.830  11.051  1.00  0.00    -0.272 N 
ENDROOT
BRANCH  11  12
HETATM   12  C14 UNL     1     -25.629  -6.194  11.648  1.00  0.00     0.189 C 
BRANCH  12  13
HETATM   13  C15 UNL     1     -25.574  -6.411  13.092  1.00  0.00    -0.036 A 
HETATM   14  C16 UNL     1     -26.754  -6.342  13.815  1.00  0.00     0.026 A 
HETATM   15  C17 UNL     1     -26.813  -6.529  15.169  1.00  0.00     0.088 A 
HETATM   16  N4  UNL     1     -25.683  -6.793  15.838  1.00  0.00    -0.375 N 
HETATM   17  C18 UNL     1     -24.526  -6.865  15.155  1.00  0.00     0.088 A 
ATOM     18  H4  UNL     1     -25.700  -6.937  16.847  1.00  0.00     0.164 HD
HETATM   19  C19 UNL     1     -24.425  -6.683  13.797  1.00  0.00     0.026 A 
ENDBRANCH  12  13
ENDBRANCH  11  12
BRANCH   3  20
HETATM   20  C5  UNL     1     -22.391 -10.121   9.822  1.00  0.00    -0.009 A 
HETATM   21  C6  UNL     1     -23.393 -10.794  10.531  1.00  0.00     0.013 A 
HETATM   22  C7  UNL     1     -23.513 -12.163  10.529  1.00  0.00     0.001 A 
HETATM   23  C8  UNL     1     -22.599 -12.884   9.789  1.00  0.00     0.000 A 
HETATM   24  C9  UNL     1     -21.603 -12.263   9.081  1.00  0.00     0.001 A 
HETATM   25  C10 UNL     1     -21.510 -10.882   9.105  1.00  0.00     0.013 A 
ENDBRANCH   3  20
BRANCH   1  26
HETATM   26  C1  UNL     1     -20.158  -5.870   8.974  1.00  0.00     0.210 C 
HETATM   27  O1  UNL     1     -19.989  -5.764   7.741  1.00  0.00    -0.644 OA
HETATM   28  O2  UNL     1     -19.216  -5.269   9.790  1.00  0.00    -0.644 OA
ENDBRANCH   1  26
TORSDOF 4
ENDMDL
