MODEL 5
REMARK VINA RESULT: -8.787890397      4.044      6.796
REMARK  4 active torsions:
REMARK  status: ('A' for Active; 'I' for Inactive)
REMARK    1  A    between atoms: C1_2  and  C2_4 
REMARK    2  A    between atoms: C4_6  and  C5_7 
REMARK    3  A    between atoms: N3_20  and  C14_21 
REMARK    4  A    between atoms: C14_21  and  C15_22 
ROOT
HETATM    1  C2  UNL     1     -21.433  -6.647   9.543  1.00  0.00     0.058 A 
HETATM    2  C3  UNL     1     -21.359  -8.040   9.426  1.00  0.00     0.050 A 
HETATM    3  C4  UNL     1     -22.420  -8.759   9.904  1.00  0.00     0.045 A 
HETATM    4  N1  UNL     1     -23.501  -8.150  10.467  1.00  0.00    -0.340 N 
ATOM      5  H1  UNL     1     -24.268  -8.728  10.808  1.00  0.00     0.167 HD
HETATM    6  C11 UNL     1     -23.594  -6.819  10.589  1.00  0.00     0.136 A 
HETATM    7  C12 UNL     1     -22.541  -6.068  10.118  1.00  0.00     0.043 A 
HETATM    8  C13 UNL     1     -22.895  -4.747  10.367  1.00  0.00     0.123 A 
HETATM    9  N2  UNL     1     -24.090  -4.757  10.950  1.00  0.00    -0.307 N 
ATOM     10  H2  UNL     1     -24.595  -3.921  11.244  1.00  0.00     0.186 HD
HETATM   11  N3  UNL     1     -24.538  -5.988  11.098  1.00  0.00    -0.272 N 
ENDROOT
BRANCH  11  12
HETATM   12  C14 UNL     1     -25.786  -6.393  11.685  1.00  0.00     0.189 C 
BRANCH  12  13
HETATM   13  C15 UNL     1     -25.768  -6.489  13.143  1.00  0.00    -0.036 A 
HETATM   14  C16 UNL     1     -24.569  -6.788  13.770  1.00  0.00     0.026 A 
HETATM   15  C17 UNL     1     -24.443  -6.902  15.127  1.00  0.00     0.088 A 
HETATM   16  N4  UNL     1     -25.523  -6.717  15.897  1.00  0.00    -0.375 N 
HETATM   17  C18 UNL     1     -26.698  -6.426  15.309  1.00  0.00     0.088 A 
ATOM     18  H4  UNL     1     -25.456  -6.796  16.912  1.00  0.00     0.164 HD
HETATM   19  C19 UNL     1     -26.865  -6.303  13.951  1.00  0.00     0.026 A 
ENDBRANCH  12  13
ENDBRANCH  11  12
BRANCH   3  20
HETATM   20  C5  UNL     1     -22.432 -10.206   9.827  1.00  0.00    -0.009 A 
HETATM   21  C6  UNL     1     -23.395 -10.917  10.551  1.00  0.00     0.013 A 
HETATM   22  C7  UNL     1     -23.476 -12.289  10.534  1.00  0.00     0.001 A 
HETATM   23  C8  UNL     1     -22.560 -12.973   9.762  1.00  0.00     0.000 A 
HETATM   24  C9  UNL     1     -21.601 -12.315   9.038  1.00  0.00     0.001 A 
HETATM   25  C10 UNL     1     -21.548 -10.932   9.078  1.00  0.00     0.013 A 
ENDBRANCH   3  20
BRANCH   1  26
HETATM   26  C1  UNL     1     -20.314  -5.885   9.040  1.00  0.00     0.210 C 
HETATM   27  O1  UNL     1     -19.273  -5.776   9.720  1.00  0.00    -0.644 OA
HETATM   28  O2  UNL     1     -20.331  -5.249   7.811  1.00  0.00    -0.644 OA
ENDBRANCH   1  26
TORSDOF 4
ENDMDL
