MODEL 1
REMARK VINA RESULT: -8.909550146      0.000      0.000
REMARK  4 active torsions:
REMARK  status: ('A' for Active; 'I' for Inactive)
REMARK    1  A    between atoms: C1_2  and  C2_4 
REMARK    2  A    between atoms: C4_6  and  C5_7 
REMARK    3  A    between atoms: N3_20  and  C14_21 
REMARK    4  A    between atoms: C14_21  and  C15_22 
ROOT
HETATM    1  C2  UNL     1     -20.454  -6.300  13.568  1.00  0.00     0.058 A 
HETATM    2  C3  UNL     1     -21.739  -6.470  14.099  1.00  0.00     0.050 A 
HETATM    3  C4  UNL     1     -22.792  -6.226  13.260  1.00  0.00     0.045 A 
HETATM    4  N1  UNL     1     -22.603  -5.837  11.969  1.00  0.00    -0.340 N 
ATOM      5  H1  UNL     1     -23.420  -5.668  11.383  1.00  0.00     0.167 HD
HETATM    6  C11 UNL     1     -21.385  -5.668  11.440  1.00  0.00     0.136 A 
HETATM    7  C12 UNL     1     -20.303  -5.905  12.258  1.00  0.00     0.043 A 
HETATM    8  C13 UNL     1     -19.187  -5.659  11.468  1.00  0.00     0.123 A 
HETATM    9  N2  UNL     1     -19.621  -5.301  10.263  1.00  0.00    -0.307 N 
ATOM     10  H2  UNL     1     -19.014  -5.061   9.480  1.00  0.00     0.186 HD
HETATM   11  N3  UNL     1     -20.938  -5.295  10.214  1.00  0.00    -0.272 N 
ENDROOT
BRANCH  11  12
HETATM   12  C14 UNL     1     -21.763  -4.963   9.084  1.00  0.00     0.189 C 
BRANCH  12  13
HETATM   13  C15 UNL     1     -21.372  -3.739   8.387  1.00  0.00    -0.036 A 
HETATM   14  C16 UNL     1     -20.952  -3.837   7.070  1.00  0.00     0.026 A 
HETATM   15  C17 UNL     1     -20.564  -2.755   6.328  1.00  0.00     0.088 A 
HETATM   16  N4  UNL     1     -20.588  -1.540   6.890  1.00  0.00    -0.375 N 
HETATM   17  C18 UNL     1     -20.993  -1.422   8.168  1.00  0.00     0.088 A 
ATOM     18  H4  UNL     1     -20.304  -0.717   6.358  1.00  0.00     0.164 HD
HETATM   19  C19 UNL     1     -21.390  -2.483   8.945  1.00  0.00     0.026 A 
ENDBRANCH  12  13
ENDBRANCH  11  12
BRANCH   3  20
HETATM   20  C5  UNL     1     -24.157  -6.376  13.722  1.00  0.00    -0.009 A 
HETATM   21  C6  UNL     1     -24.392  -6.626  15.079  1.00  0.00     0.013 A 
HETATM   22  C7  UNL     1     -25.654  -6.782  15.600  1.00  0.00     0.001 A 
HETATM   23  C8  UNL     1     -26.720  -6.682  14.730  1.00  0.00     0.000 A 
HETATM   24  C9  UNL     1     -26.535  -6.438  13.395  1.00  0.00     0.001 A 
HETATM   25  C10 UNL     1     -25.249  -6.287  12.904  1.00  0.00     0.013 A 
ENDBRANCH   3  20
BRANCH   1  26
HETATM   26  C1  UNL     1     -19.339  -6.556  14.449  1.00  0.00     0.210 C 
HETATM   27  O1  UNL     1     -18.924  -7.721  14.612  1.00  0.00    -0.644 OA
HETATM   28  O2  UNL     1     -18.686  -5.553  15.144  1.00  0.00    -0.644 OA
ENDBRANCH   1  26
TORSDOF 4
ENDMDL
