MODEL 13
REMARK VINA RESULT: -7.957269058      3.867      7.106
REMARK  4 active torsions:
REMARK  status: ('A' for Active; 'I' for Inactive)
REMARK    1  A    between atoms: C1_2  and  C2_4 
REMARK    2  A    between atoms: C4_6  and  C5_7 
REMARK    3  A    between atoms: N3_20  and  C14_21 
REMARK    4  A    between atoms: C14_21  and  C15_22 
ROOT
HETATM    1  C2  UNL     1     -21.408  -5.729   9.199  1.00  0.00     0.058 A 
HETATM    2  C3  UNL     1     -21.131  -7.058   8.854  1.00  0.00     0.050 A 
HETATM    3  C4  UNL     1     -22.019  -8.007   9.282  1.00  0.00     0.045 A 
HETATM    4  N1  UNL     1     -23.123  -7.677  10.008  1.00  0.00    -0.340 N 
ATOM      5  H1  UNL     1     -23.756  -8.420  10.304  1.00  0.00     0.167 HD
HETATM    6  C11 UNL     1     -23.408  -6.414  10.350  1.00  0.00     0.136 A 
HETATM    7  C12 UNL     1     -22.534  -5.436   9.935  1.00  0.00     0.043 A 
HETATM    8  C13 UNL     1     -23.062  -4.245  10.417  1.00  0.00     0.123 A 
HETATM    9  N2  UNL     1     -24.181  -4.540  11.072  1.00  0.00    -0.307 N 
ATOM     10  H2  UNL     1     -24.779  -3.853  11.532  1.00  0.00     0.186 HD
HETATM   11  N3  UNL     1     -24.417  -5.837  11.051  1.00  0.00    -0.272 N 
ENDROOT
BRANCH  11  12
HETATM   12  C14 UNL     1     -25.527  -6.528  11.649  1.00  0.00     0.189 C 
BRANCH  12  13
HETATM   13  C15 UNL     1     -25.498  -6.571  13.110  1.00  0.00    -0.036 A 
HETATM   14  C16 UNL     1     -26.688  -6.399  13.798  1.00  0.00     0.026 A 
HETATM   15  C17 UNL     1     -26.772  -6.422  15.163  1.00  0.00     0.088 A 
HETATM   16  N4  UNL     1     -25.657  -6.619  15.879  1.00  0.00    -0.375 N 
HETATM   17  C18 UNL     1     -24.490  -6.788  15.230  1.00  0.00     0.088 A 
ATOM     18  H4  UNL     1     -25.692  -6.640  16.898  1.00  0.00     0.164 HD
HETATM   19  C19 UNL     1     -24.365  -6.772  13.862  1.00  0.00     0.026 A 
ENDBRANCH  12  13
ENDBRANCH  11  12
BRANCH   3  20
HETATM   20  C5  UNL     1     -21.814  -9.408   8.972  1.00  0.00    -0.009 A 
HETATM   21  C6  UNL     1     -21.248  -9.755   7.741  1.00  0.00     0.013 A 
HETATM   22  C7  UNL     1     -21.021 -11.058   7.368  1.00  0.00     0.001 A 
HETATM   23  C8  UNL     1     -21.371 -12.049   8.262  1.00  0.00     0.000 A 
HETATM   24  C9  UNL     1     -21.927 -11.752   9.478  1.00  0.00     0.001 A 
HETATM   25  C10 UNL     1     -22.143 -10.428   9.822  1.00  0.00     0.013 A 
ENDBRANCH   3  20
BRANCH   1  26
HETATM   26  C1  UNL     1     -20.474  -4.725   8.750  1.00  0.00     0.210 C 
HETATM   27  O1  UNL     1     -19.459  -4.464   9.428  1.00  0.00    -0.644 OA
HETATM   28  O2  UNL     1     -20.643  -4.013   7.575  1.00  0.00    -0.644 OA
ENDBRANCH   1  26
TORSDOF 4
ENDMDL
