MODEL 2
REMARK VINA RESULT: -8.846396261      0.295      1.066
REMARK  3 active torsions:
REMARK  status: ('A' for Active; 'I' for Inactive)
REMARK    1  A    between atoms: C2_5  and  C3_6 
REMARK    2  A    between atoms: C8_11  and  N3_12 
REMARK       I    between atoms: N3_12  and  C9_14 
REMARK       I    between atoms: C9_14  and  N4_16 
REMARK    3  A    between atoms: N4_16  and  C10_18 
ROOT
HETATM    1  N3  UNL     1      -0.649  -3.526 -13.329  1.00  0.00    -0.293 N 
ATOM      2  H3  UNL     1      -1.182  -4.336 -13.014  1.00  0.00     0.172 HD
HETATM    3  C9  UNL     1      -1.188  -2.740 -14.396  1.00  0.00     0.326 C 
HETATM    4  O1  UNL     1      -0.541  -1.754 -14.744  1.00  0.00    -0.247 OA
HETATM    5  N4  UNL     1      -2.393  -3.089 -15.023  1.00  0.00    -0.309 N 
ATOM      6  H4  UNL     1      -2.887  -3.904 -14.659  1.00  0.00     0.170 HD
ENDROOT
BRANCH   1   7
HETATM    7  C8  UNL     1       0.580  -3.245 -12.684  1.00  0.00     0.127 A 
HETATM    8  N1  UNL     1       1.413  -4.303 -12.369  1.00  0.00    -0.281 N 
HETATM    9  C1  UNL     1       1.166  -5.688 -12.747  1.00  0.00     0.179 C 
HETATM   10  N2  UNL     1       2.457  -3.821 -11.725  1.00  0.00    -0.301 N 
HETATM   11  C2  UNL     1       2.352  -2.472 -11.595  1.00  0.00     0.037 A 
ATOM     12  H2  UNL     1       3.234  -4.381 -11.375  1.00  0.00     0.187 HD
HETATM   13  C7  UNL     1       1.180  -2.110 -12.195  1.00  0.00     0.077 A 
BRANCH  11  14
HETATM   14  C3  UNL     1       3.390  -1.647 -10.912  1.00  0.00    -0.007 C 
HETATM   15  C4  UNL     1       2.950  -1.410  -9.467  1.00  0.00     0.021 C 
HETATM   16  C5  UNL     1       3.491  -0.338 -11.665  1.00  0.00     0.021 C 
HETATM   17  C6  UNL     1       4.731  -2.323 -10.919  1.00  0.00     0.021 C 
ENDBRANCH  11  14
ENDBRANCH   1   7
BRANCH   5  18
HETATM   18  C10 UNL     1      -2.980  -2.414 -16.108  1.00  0.00     0.036 A 
HETATM   19  C11 UNL     1      -4.128  -1.676 -16.068  1.00  0.00     0.031 A 
HETATM   20  C12 UNL     1      -4.599  -1.007 -17.166  1.00  0.00     0.026 A 
HETATM   21  C13 UNL     1      -3.944  -1.042 -18.365  1.00  0.00     0.034 A 
HETATM   22 CL1  UNL     1      -4.545  -0.182 -19.779  1.00  0.00    -0.084 Cl
HETATM   23  C14 UNL     1      -2.778  -1.777 -18.453  1.00  0.00     0.026 A 
HETATM   24  C15 UNL     1      -2.322  -2.439 -17.342  1.00  0.00     0.031 A 
ENDBRANCH   5  18
TORSDOF 3
ENDMDL
