MODEL 4
REMARK VINA RESULT: -8.422840597      3.342      8.457
REMARK  3 active torsions:
REMARK  status: ('A' for Active; 'I' for Inactive)
REMARK    1  A    between atoms: C2_5  and  C3_6 
REMARK    2  A    between atoms: C8_11  and  N3_12 
REMARK       I    between atoms: N3_12  and  C9_14 
REMARK       I    between atoms: C9_14  and  N4_16 
REMARK    3  A    between atoms: N4_16  and  C10_18 
ROOT
HETATM    1  N3  UNL     1      -2.529  -2.748 -15.090  1.00  0.00    -0.293 N 
ATOM      2  H3  UNL     1      -3.271  -3.136 -14.508  1.00  0.00     0.172 HD
HETATM    3  C9  UNL     1      -1.184  -2.830 -14.609  1.00  0.00     0.326 C 
HETATM    4  O1  UNL     1      -0.304  -2.378 -15.338  1.00  0.00    -0.247 OA
HETATM    5  N4  UNL     1      -0.890  -3.390 -13.358  1.00  0.00    -0.309 N 
ATOM      6  H4  UNL     1      -1.671  -3.771 -12.824  1.00  0.00     0.170 HD
ENDROOT
BRANCH   1   7
HETATM    7  C8  UNL     1      -2.892  -2.160 -16.326  1.00  0.00     0.127 A 
HETATM    8  N1  UNL     1      -4.034  -1.381 -16.374  1.00  0.00    -0.281 N 
HETATM    9  C1  UNL     1      -4.843  -1.032 -15.213  1.00  0.00     0.179 C 
HETATM   10  N2  UNL     1      -4.211  -0.994 -17.621  1.00  0.00    -0.301 N 
HETATM   11  C2  UNL     1      -3.226  -1.490 -18.415  1.00  0.00     0.037 A 
ATOM     12  H2  UNL     1      -4.979  -0.406 -17.944  1.00  0.00     0.187 HD
HETATM   13  C7  UNL     1      -2.400  -2.218 -17.607  1.00  0.00     0.077 A 
BRANCH  11  14
HETATM   14  C3  UNL     1      -3.159  -1.216 -19.879  1.00  0.00    -0.007 C 
HETATM   15  C4  UNL     1      -4.406  -0.427 -20.283  1.00  0.00     0.021 C 
HETATM   16  C5  UNL     1      -3.118  -2.553 -20.586  1.00  0.00     0.021 C 
HETATM   17  C6  UNL     1      -1.933  -0.429 -20.243  1.00  0.00     0.021 C 
ENDBRANCH  11  14
ENDBRANCH   1   7
BRANCH   5  18
HETATM   18  C10 UNL     1       0.387  -3.473 -12.775  1.00  0.00     0.036 A 
HETATM   19  C11 UNL     1       1.118  -2.426 -12.292  1.00  0.00     0.031 A 
HETATM   20  C12 UNL     1       2.335  -2.606 -11.692  1.00  0.00     0.026 A 
HETATM   21  C13 UNL     1       2.886  -3.848 -11.541  1.00  0.00     0.034 A 
HETATM   22 CL1  UNL     1       4.450  -4.086 -10.768  1.00  0.00    -0.084 Cl
HETATM   23  C14 UNL     1       2.183  -4.938 -12.015  1.00  0.00     0.026 A 
HETATM   24  C15 UNL     1       0.965  -4.737 -12.614  1.00  0.00     0.031 A 
ENDBRANCH   5  18
TORSDOF 3
ENDMDL
