MODEL 7
REMARK VINA RESULT: -7.496946134      6.300      7.869
REMARK  3 active torsions:
REMARK  status: ('A' for Active; 'I' for Inactive)
REMARK    1  A    between atoms: C2_5  and  C3_6 
REMARK    2  A    between atoms: C8_11  and  N3_12 
REMARK       I    between atoms: N3_12  and  C9_14 
REMARK       I    between atoms: C9_14  and  N4_16 
REMARK    3  A    between atoms: N4_16  and  C10_18 
ROOT
HETATM    1  N3  UNL     1       5.511  -5.826 -11.938  1.00  0.00    -0.293 N 
ATOM      2  H3  UNL     1       6.514  -5.953 -11.810  1.00  0.00     0.172 HD
HETATM    3  C9  UNL     1       4.797  -6.820 -12.681  1.00  0.00     0.326 C 
HETATM    4  O1  UNL     1       3.584  -6.660 -12.801  1.00  0.00    -0.247 OA
HETATM    5  N4  UNL     1       5.457  -7.917 -13.253  1.00  0.00    -0.309 N 
ATOM      6  H4  UNL     1       6.459  -7.997 -13.084  1.00  0.00     0.170 HD
ENDROOT
BRANCH   1   7
HETATM    7  C8  UNL     1       4.907  -4.678 -11.370  1.00  0.00     0.127 A 
HETATM    8  N1  UNL     1       4.517  -4.729 -10.044  1.00  0.00    -0.281 N 
HETATM    9  C1  UNL     1       4.779  -5.850  -9.150  1.00  0.00     0.179 C 
HETATM   10  N2  UNL     1       3.929  -3.587  -9.749  1.00  0.00    -0.301 N 
HETATM   11  C2  UNL     1       3.907  -2.772 -10.836  1.00  0.00     0.037 A 
ATOM     12  H2  UNL     1       3.544  -3.350  -8.835  1.00  0.00     0.187 HD
HETATM   13  C7  UNL     1       4.519  -3.451 -11.850  1.00  0.00     0.077 A 
BRANCH  11  14
HETATM   14  C3  UNL     1       3.307  -1.407 -10.804  1.00  0.00    -0.007 C 
HETATM   15  C4  UNL     1       3.489  -0.762 -12.179  1.00  0.00     0.021 C 
HETATM   16  C5  UNL     1       4.040  -0.618  -9.740  1.00  0.00     0.021 C 
HETATM   17  C6  UNL     1       1.845  -1.450 -10.465  1.00  0.00     0.021 C 
ENDBRANCH  11  14
ENDBRANCH   1   7
BRANCH   5  18
HETATM   18  C10 UNL     1       4.857  -8.917 -14.038  1.00  0.00     0.036 A 
HETATM   19  C11 UNL     1       4.427 -10.135 -13.596  1.00  0.00     0.031 A 
HETATM   20  C12 UNL     1       3.804 -11.030 -14.424  1.00  0.00     0.026 A 
HETATM   21  C13 UNL     1       3.577 -10.751 -15.743  1.00  0.00     0.034 A 
HETATM   22 CL1  UNL     1       2.774 -11.897 -16.813  1.00  0.00    -0.084 Cl
HETATM   23  C14 UNL     1       3.994  -9.530 -16.236  1.00  0.00     0.026 A 
HETATM   24  C15 UNL     1       4.617  -8.648 -15.390  1.00  0.00     0.031 A 
ENDBRANCH   5  18
TORSDOF 3
ENDMDL
