MODEL 1
REMARK VINA RESULT: -9.304499100      0.000      0.000
REMARK  3 active torsions:
REMARK  status: ('A' for Active; 'I' for Inactive)
REMARK    1  A    between atoms: C2_5  and  C3_6 
REMARK    2  A    between atoms: C8_11  and  N3_12 
REMARK       I    between atoms: N3_12  and  C9_14 
REMARK       I    between atoms: C9_14  and  N4_16 
REMARK    3  A    between atoms: N4_16  and  C10_18 
ROOT
HETATM    1  N3  UNL     1      -0.484  -3.434 -13.101  1.00  0.00    -0.293 N 
ATOM      2  H3  UNL     1      -1.085  -4.152 -12.698  1.00  0.00     0.172 HD
HETATM    3  C9  UNL     1      -0.962  -2.720 -14.245  1.00  0.00     0.326 C 
HETATM    4  O1  UNL     1      -0.231  -1.842 -14.699  1.00  0.00    -0.247 OA
HETATM    5  N4  UNL     1      -2.203  -3.020 -14.826  1.00  0.00    -0.309 N 
ATOM      6  H4  UNL     1      -2.765  -3.741 -14.375  1.00  0.00     0.170 HD
ENDROOT
BRANCH   1   7
HETATM    7  C8  UNL     1       0.775  -3.203 -12.494  1.00  0.00     0.127 A 
HETATM    8  N1  UNL     1       1.583  -4.291 -12.222  1.00  0.00    -0.281 N 
HETATM    9  C1  UNL     1       1.279  -5.662 -12.612  1.00  0.00     0.179 C 
HETATM   10  N2  UNL     1       2.663  -3.852 -11.608  1.00  0.00    -0.301 N 
HETATM   11  C2  UNL     1       2.605  -2.503 -11.455  1.00  0.00     0.037 A 
ATOM     12  H2  UNL     1       3.433  -4.442 -11.292  1.00  0.00     0.187 HD
HETATM   13  C7  UNL     1       1.426  -2.095 -12.009  1.00  0.00     0.077 A 
BRANCH  11  14
HETATM   14  C3  UNL     1       3.692  -1.722 -10.796  1.00  0.00    -0.007 C 
HETATM   15  C4  UNL     1       3.264  -1.408  -9.361  1.00  0.00     0.021 C 
HETATM   16  C5  UNL     1       3.876  -0.448 -11.592  1.00  0.00     0.021 C 
HETATM   17  C6  UNL     1       4.988  -2.481 -10.774  1.00  0.00     0.021 C 
ENDBRANCH  11  14
ENDBRANCH   1   7
BRANCH   5  18
HETATM   18  C10 UNL     1      -2.739  -2.413 -15.976  1.00  0.00     0.036 A 
HETATM   19  C11 UNL     1      -2.190  -2.438 -17.226  1.00  0.00     0.031 A 
HETATM   20  C12 UNL     1      -2.811  -1.862 -18.302  1.00  0.00     0.026 A 
HETATM   21  C13 UNL     1      -4.017  -1.231 -18.183  1.00  0.00     0.034 A 
HETATM   22 CL1  UNL     1      -4.821  -0.490 -19.565  1.00  0.00    -0.084 Cl
HETATM   23  C14 UNL     1      -4.611  -1.181 -16.937  1.00  0.00     0.026 A 
HETATM   24  C15 UNL     1      -3.974  -1.763 -15.872  1.00  0.00     0.031 A 
ENDBRANCH   5  18
TORSDOF 3
ENDMDL
