MODEL 5
REMARK VINA RESULT: -8.239610622      3.282      8.374
REMARK  3 active torsions:
REMARK  status: ('A' for Active; 'I' for Inactive)
REMARK    1  A    between atoms: C2_5  and  C3_6 
REMARK    2  A    between atoms: C8_11  and  N3_12 
REMARK       I    between atoms: N3_12  and  C9_14 
REMARK       I    between atoms: C9_14  and  N4_16 
REMARK    3  A    between atoms: N4_16  and  C10_18 
ROOT
HETATM    1  N3  UNL     1      -2.494  -2.693 -14.932  1.00  0.00    -0.293 N 
ATOM      2  H3  UNL     1      -3.241  -3.009 -14.314  1.00  0.00     0.172 HD
HETATM    3  C9  UNL     1      -1.145  -2.804 -14.467  1.00  0.00     0.326 C 
HETATM    4  O1  UNL     1      -0.259  -2.440 -15.238  1.00  0.00    -0.247 OA
HETATM    5  N4  UNL     1      -0.853  -3.296 -13.187  1.00  0.00    -0.309 N 
ATOM      6  H4  UNL     1      -1.639  -3.606 -12.617  1.00  0.00     0.170 HD
ENDROOT
BRANCH   1   7
HETATM    7  C8  UNL     1      -2.854  -2.170 -16.197  1.00  0.00     0.127 A 
HETATM    8  N1  UNL     1      -4.003  -1.407 -16.291  1.00  0.00    -0.281 N 
HETATM    9  C1  UNL     1      -4.824  -1.010 -15.154  1.00  0.00     0.179 C 
HETATM   10  N2  UNL     1      -4.175  -1.083 -17.557  1.00  0.00    -0.301 N 
HETATM   11  C2  UNL     1      -3.178  -1.607 -18.318  1.00  0.00     0.037 A 
ATOM     12  H2  UNL     1      -4.946  -0.520 -17.914  1.00  0.00     0.187 HD
HETATM   13  C7  UNL     1      -2.351  -2.286 -17.470  1.00  0.00     0.077 A 
BRANCH  11  14
HETATM   14  C3  UNL     1      -3.104  -1.403 -19.794  1.00  0.00    -0.007 C 
HETATM   15  C4  UNL     1      -1.864  -0.565 -20.107  1.00  0.00     0.021 C 
HETATM   16  C5  UNL     1      -4.364  -0.676 -20.212  1.00  0.00     0.021 C 
HETATM   17  C6  UNL     1      -3.021  -2.709 -20.532  1.00  0.00     0.021 C 
ENDBRANCH  11  14
ENDBRANCH   1   7
BRANCH   5  18
HETATM   18  C10 UNL     1       0.430  -3.398 -12.620  1.00  0.00     0.036 A 
HETATM   19  C11 UNL     1       1.128  -4.554 -12.416  1.00  0.00     0.031 A 
HETATM   20  C12 UNL     1       2.398  -4.554 -11.905  1.00  0.00     0.026 A 
HETATM   21  C13 UNL     1       3.039  -3.394 -11.571  1.00  0.00     0.034 A 
HETATM   22 CL1  UNL     1       4.674  -3.390 -10.915  1.00  0.00    -0.084 Cl
HETATM   23  C14 UNL     1       2.373  -2.200 -11.760  1.00  0.00     0.026 A 
HETATM   24  C15 UNL     1       1.101  -2.220 -12.274  1.00  0.00     0.031 A 
ENDBRANCH   5  18
TORSDOF 3
ENDMDL
