MODEL 1
REMARK VINA RESULT: -9.645996100      0.000      0.000
REMARK  14 active torsions:
REMARK  status: ('A' for Active; 'I' for Inactive)
REMARK    1  A    between atoms: C2_2  and  C3_3 
REMARK    2  A    between atoms: C3_3  and  C5_5 
REMARK    3  A    between atoms: C5_5  and  N1_6 
REMARK    4  A    between atoms: N1_6  and  C6_7 
REMARK    5  A    between atoms: N1_6  and  S1_32 
REMARK    6  A    between atoms: C6_7  and  C7_8 
REMARK    7  A    between atoms: C7_8  and  O1_9 
REMARK    8  A    between atoms: C7_8  and  C8_11 
REMARK    9  A    between atoms: C8_11  and  C9_12 
REMARK   10  A    between atoms: C8_11  and  N2_19 
REMARK   11  A    between atoms: C9_12  and  C10_13 
REMARK       I    between atoms: N2_19  and  C16_21 
REMARK   12  A    between atoms: C16_21  and  O3_23 
REMARK   13  A    between atoms: O3_23  and  C17_24 
REMARK   14  A    between atoms: S1_32  and  C23_35 
ROOT
HETATM    1  C8  UNL     1      19.583  29.816  14.452  1.00  0.00     0.121 C 
ENDROOT
BRANCH   1   2
HETATM    2  C7  UNL     1      19.875  30.185  15.916  1.00  0.00     0.160 C 
BRANCH   2   3
HETATM    3  C6  UNL     1      18.822  31.170  16.337  1.00  0.00     0.174 C 
BRANCH   3   4
HETATM    4  N1  UNL     1      18.966  32.491  15.808  1.00  0.00    -0.283 N 
BRANCH   4   5
HETATM    5  C5  UNL     1      19.801  33.329  16.521  1.00  0.00     0.080 C 
BRANCH   5   6
HETATM    6  C3  UNL     1      21.161  33.671  15.996  1.00  0.00     0.020 C 
HETATM    7  C4  UNL     1      22.143  33.011  16.985  1.00  0.00     0.015 C 
BRANCH   6   8
HETATM    8  C2  UNL     1      21.472  33.050  14.648  1.00  0.00     0.005 C 
HETATM    9  C1  UNL     1      22.807  32.314  14.834  1.00  0.00     0.006 C 
ENDBRANCH   6   8
ENDBRANCH   5   6
ENDBRANCH   4   5
BRANCH   4  10
HETATM   10  S1  UNL     1      17.526  33.075  15.154  1.00  0.00     0.264 S 
HETATM   11  O6  UNL     1      17.885  34.041  14.047  1.00  0.00    -0.200 OA
HETATM   12  O7  UNL     1      16.641  32.048  14.513  1.00  0.00    -0.200 OA
BRANCH  10  13
HETATM   13  C23 UNL     1      16.585  34.014  16.300  1.00  0.00     0.080 A 
HETATM   14  C24 UNL     1      16.897  35.347  16.502  1.00  0.00     0.027 A 
HETATM   15  C25 UNL     1      16.181  36.138  17.399  1.00  0.00     0.028 A 
HETATM   16  C26 UNL     1      15.144  35.569  18.090  1.00  0.00     0.046 A 
HETATM   17  N3  UNL     1      14.410  36.347  19.003  1.00  0.00    -0.102 NA
HETATM   18  C27 UNL     1      14.834  34.228  17.882  1.00  0.00     0.028 A 
HETATM   19  C28 UNL     1      15.546  33.463  17.000  1.00  0.00     0.027 A 
ENDBRANCH  10  13
ENDBRANCH   4  10
ENDBRANCH   3   4
ENDBRANCH   2   3
BRANCH   2  20
HETATM   20  O1  UNL     1      19.851  29.066  16.697  1.00  0.00    -0.392 OA
ATOM     21  H1  UNL     1      20.482  28.421  16.398  1.00  0.00     0.210 HD
ENDBRANCH   2  20
ENDBRANCH   1   2
BRANCH   1  22
HETATM   22  C9  UNL     1      18.323  28.991  14.331  1.00  0.00     0.066 C 
BRANCH  22  23
HETATM   23  C10 UNL     1      18.008  28.513  12.992  1.00  0.00    -0.056 A 
HETATM   24  C11 UNL     1      17.442  29.326  12.051  1.00  0.00     0.007 A 
HETATM   25  C12 UNL     1      17.174  28.793  10.805  1.00  0.00     0.001 A 
HETATM   26  C13 UNL     1      17.456  27.481  10.486  1.00  0.00     0.000 A 
HETATM   27  C14 UNL     1      18.030  26.640  11.424  1.00  0.00     0.001 A 
HETATM   28  C15 UNL     1      18.292  27.194  12.672  1.00  0.00     0.007 A 
ENDBRANCH  22  23
ENDBRANCH   1  22
BRANCH   1  29
HETATM   29  N2  UNL     1      20.724  29.163  13.876  1.00  0.00    -0.329 N 
HETATM   30  C16 UNL     1      21.288  29.627  12.674  1.00  0.00     0.361 C 
HETATM   31  O2  UNL     1      20.752  30.622  12.130  1.00  0.00    -0.238 OA
ATOM     32  H2  UNL     1      21.130  28.353  14.344  1.00  0.00     0.165 HD
BRANCH  30  33
HETATM   33  O3  UNL     1      22.387  29.078  12.038  1.00  0.00    -0.296 OA
BRANCH  33  34
HETATM   34  C17 UNL     1      22.857  27.791  12.326  1.00  0.00     0.166 C 
HETATM   35  C18 UNL     1      22.032  26.673  11.727  1.00  0.00     0.204 C 
HETATM   36  O4  UNL     1      22.893  25.587  11.587  1.00  0.00    -0.358 OA
HETATM   37  C19 UNL     1      24.189  26.020  11.634  1.00  0.00     0.266 C 
HETATM   38  O5  UNL     1      24.942  25.720  10.498  1.00  0.00    -0.361 OA
HETATM   39  C22 UNL     1      24.175  27.532  11.595  1.00  0.00     0.075 C 
HETATM   40  C20 UNL     1      24.347  26.475   9.488  1.00  0.00     0.171 C 
HETATM   41  C21 UNL     1      24.009  27.812  10.117  1.00  0.00     0.038 C 
ENDBRANCH  33  34
ENDBRANCH  30  33
ENDBRANCH   1  29
TORSDOF 14
ENDMDL
