MODEL 4
REMARK VINA RESULT: -9.291501272      2.522      5.071
REMARK  14 active torsions:
REMARK  status: ('A' for Active; 'I' for Inactive)
REMARK    1  A    between atoms: C2_2  and  C3_3 
REMARK    2  A    between atoms: C3_3  and  C5_5 
REMARK    3  A    between atoms: C5_5  and  N1_6 
REMARK    4  A    between atoms: N1_6  and  C6_7 
REMARK    5  A    between atoms: N1_6  and  S1_32 
REMARK    6  A    between atoms: C6_7  and  C7_8 
REMARK    7  A    between atoms: C7_8  and  O1_9 
REMARK    8  A    between atoms: C7_8  and  C8_11 
REMARK    9  A    between atoms: C8_11  and  C9_12 
REMARK   10  A    between atoms: C8_11  and  N2_19 
REMARK   11  A    between atoms: C9_12  and  C10_13 
REMARK       I    between atoms: N2_19  and  C16_21 
REMARK   12  A    between atoms: C16_21  and  O3_23 
REMARK   13  A    between atoms: O3_23  and  C17_24 
REMARK   14  A    between atoms: S1_32  and  C23_35 
ROOT
HETATM    1  C8  UNL     1      18.525  30.196  15.034  1.00  0.00     0.121 C 
ENDROOT
BRANCH   1   2
HETATM    2  C7  UNL     1      19.795  29.967  15.870  1.00  0.00     0.160 C 
BRANCH   2   3
HETATM    3  C6  UNL     1      20.581  31.247  15.831  1.00  0.00     0.174 C 
BRANCH   3   4
HETATM    4  N1  UNL     1      21.567  31.334  14.799  1.00  0.00    -0.283 N 
BRANCH   4   5
HETATM    5  C5  UNL     1      22.149  30.138  14.430  1.00  0.00     0.080 C 
BRANCH   5   6
HETATM    6  C3  UNL     1      21.658  29.396  13.226  1.00  0.00     0.020 C 
HETATM    7  C4  UNL     1      21.525  30.469  12.126  1.00  0.00     0.015 C 
BRANCH   6   8
HETATM    8  C2  UNL     1      22.651  28.386  12.681  1.00  0.00     0.005 C 
HETATM    9  C1  UNL     1      22.594  28.539  11.154  1.00  0.00     0.006 C 
ENDBRANCH   6   8
ENDBRANCH   5   6
ENDBRANCH   4   5
BRANCH   4  10
HETATM   10  S1  UNL     1      22.500  32.733  14.927  1.00  0.00     0.264 S 
HETATM   11  O6  UNL     1      23.806  32.354  15.590  1.00  0.00    -0.200 OA
HETATM   12  O7  UNL     1      22.887  33.375  13.628  1.00  0.00    -0.200 OA
BRANCH  10  13
HETATM   13  C23 UNL     1      21.782  33.942  15.978  1.00  0.00     0.080 A 
HETATM   14  C24 UNL     1      22.601  34.854  16.620  1.00  0.00     0.027 A 
HETATM   15  C25 UNL     1      22.083  35.834  17.464  1.00  0.00     0.028 A 
HETATM   16  C26 UNL     1      20.727  35.886  17.652  1.00  0.00     0.046 A 
HETATM   17  N3  UNL     1      20.182  36.865  18.502  1.00  0.00    -0.102 NA
HETATM   18  C27 UNL     1      19.907  34.966  17.003  1.00  0.00     0.028 A 
HETATM   19  C28 UNL     1      20.430  34.008  16.179  1.00  0.00     0.027 A 
ENDBRANCH  10  13
ENDBRANCH   4  10
ENDBRANCH   3   4
ENDBRANCH   2   3
BRANCH   2  20
HETATM   20  O1  UNL     1      19.462  29.626  17.148  1.00  0.00    -0.392 OA
ATOM     21  H1  UNL     1      20.229  29.379  17.652  1.00  0.00     0.210 HD
ENDBRANCH   2  20
ENDBRANCH   1   2
BRANCH   1  22
HETATM   22  C9  UNL     1      17.400  30.750  15.878  1.00  0.00     0.066 C 
BRANCH  22  23
HETATM   23  C10 UNL     1      17.039  32.136  15.616  1.00  0.00    -0.056 A 
HETATM   24  C11 UNL     1      17.536  32.819  14.543  1.00  0.00     0.007 A 
HETATM   25  C12 UNL     1      17.144  34.132  14.367  1.00  0.00     0.001 A 
HETATM   26  C13 UNL     1      16.275  34.766  15.232  1.00  0.00     0.000 A 
HETATM   27  C14 UNL     1      15.760  34.092  16.325  1.00  0.00     0.001 A 
HETATM   28  C15 UNL     1      16.167  32.772  16.485  1.00  0.00     0.007 A 
ENDBRANCH  22  23
ENDBRANCH   1  22
BRANCH   1  29
HETATM   29  N2  UNL     1      18.159  28.984  14.360  1.00  0.00    -0.329 N 
HETATM   30  C16 UNL     1      17.963  28.965  12.968  1.00  0.00     0.361 C 
HETATM   31  O2  UNL     1      18.115  30.044  12.348  1.00  0.00    -0.238 OA
ATOM     32  H2  UNL     1      18.039  28.125  14.897  1.00  0.00     0.165 HD
BRANCH  30  33
HETATM   33  O3  UNL     1      17.616  27.854  12.220  1.00  0.00    -0.296 OA
BRANCH  33  34
HETATM   34  C17 UNL     1      18.483  26.767  12.041  1.00  0.00     0.166 C 
HETATM   35  C18 UNL     1      17.803  25.490  11.596  1.00  0.00     0.204 C 
HETATM   36  O4  UNL     1      18.772  24.751  10.920  1.00  0.00    -0.358 OA
HETATM   37  C19 UNL     1      19.800  25.572  10.549  1.00  0.00     0.266 C 
HETATM   38  O5  UNL     1      20.043  25.612   9.176  1.00  0.00    -0.361 OA
HETATM   39  C22 UNL     1      19.377  26.999  10.822  1.00  0.00     0.075 C 
HETATM   40  C20 UNL     1      18.899  26.207   8.647  1.00  0.00     0.171 C 
HETATM   41  C21 UNL     1      18.527  27.317   9.610  1.00  0.00     0.038 C 
ENDBRANCH  33  34
ENDBRANCH  30  33
ENDBRANCH   1  29
TORSDOF 14
ENDMDL
