MODEL 2
REMARK VINA RESULT: -9.458781378      1.050      1.154
REMARK  14 active torsions:
REMARK  status: ('A' for Active; 'I' for Inactive)
REMARK    1  A    between atoms: C2_2  and  C3_3 
REMARK    2  A    between atoms: C3_3  and  C5_5 
REMARK    3  A    between atoms: C5_5  and  N1_6 
REMARK    4  A    between atoms: N1_6  and  C6_7 
REMARK    5  A    between atoms: N1_6  and  S1_32 
REMARK    6  A    between atoms: C6_7  and  C7_8 
REMARK    7  A    between atoms: C7_8  and  O1_9 
REMARK    8  A    between atoms: C7_8  and  C8_11 
REMARK    9  A    between atoms: C8_11  and  C9_12 
REMARK   10  A    between atoms: C8_11  and  N2_19 
REMARK   11  A    between atoms: C9_12  and  C10_13 
REMARK       I    between atoms: N2_19  and  C16_21 
REMARK   12  A    between atoms: C16_21  and  O3_23 
REMARK   13  A    between atoms: O3_23  and  C17_24 
REMARK   14  A    between atoms: S1_32  and  C23_35 
ROOT
HETATM    1  C8  UNL     1      19.818  28.957  13.981  1.00  0.00     0.121 C 
ENDROOT
BRANCH   1   2
HETATM    2  C7  UNL     1      20.081  29.364  15.441  1.00  0.00     0.160 C 
BRANCH   2   3
HETATM    3  C6  UNL     1      19.028  30.370  15.811  1.00  0.00     0.174 C 
BRANCH   3   4
HETATM    4  N1  UNL     1      19.312  31.723  15.448  1.00  0.00    -0.283 N 
BRANCH   4   5
HETATM    5  C5  UNL     1      20.164  32.400  16.297  1.00  0.00     0.080 C 
BRANCH   5   6
HETATM    6  C3  UNL     1      21.399  33.060  15.767  1.00  0.00     0.020 C 
HETATM    7  C4  UNL     1      22.479  32.796  16.835  1.00  0.00     0.015 C 
BRANCH   6   8
HETATM    8  C2  UNL     1      21.933  32.430  14.494  1.00  0.00     0.005 C 
HETATM    9  C1  UNL     1      23.430  32.770  14.466  1.00  0.00     0.006 C 
ENDBRANCH   6   8
ENDBRANCH   5   6
ENDBRANCH   4   5
BRANCH   4  10
HETATM   10  S1  UNL     1      17.970  32.501  14.788  1.00  0.00     0.264 S 
HETATM   11  O6  UNL     1      18.476  33.619  13.905  1.00  0.00    -0.200 OA
HETATM   12  O7  UNL     1      17.102  31.657  13.902  1.00  0.00    -0.200 OA
BRANCH  10  13
HETATM   13  C23 UNL     1      16.969  33.285  15.998  1.00  0.00     0.080 A 
HETATM   14  C24 UNL     1      17.551  34.168  16.890  1.00  0.00     0.027 A 
HETATM   15  C25 UNL     1      16.803  34.819  17.870  1.00  0.00     0.028 A 
HETATM   16  C26 UNL     1      15.457  34.569  17.938  1.00  0.00     0.046 A 
HETATM   17  N3  UNL     1      14.683  35.211  18.921  1.00  0.00    -0.102 NA
HETATM   18  C27 UNL     1      14.877  33.679  17.038  1.00  0.00     0.028 A 
HETATM   19  C28 UNL     1      15.624  33.047  16.083  1.00  0.00     0.027 A 
ENDBRANCH  10  13
ENDBRANCH   4  10
ENDBRANCH   3   4
ENDBRANCH   2   3
BRANCH   2  20
HETATM   20  O1  UNL     1      20.030  28.268  16.252  1.00  0.00    -0.392 OA
ATOM     21  H1  UNL     1      20.830  27.758  16.197  1.00  0.00     0.210 HD
ENDBRANCH   2  20
ENDBRANCH   1   2
BRANCH   1  22
HETATM   22  C9  UNL     1      18.430  28.383  13.809  1.00  0.00     0.066 C 
BRANCH  22  23
HETATM   23  C10 UNL     1      18.084  27.962  12.459  1.00  0.00    -0.056 A 
HETATM   24  C11 UNL     1      17.704  28.858  11.501  1.00  0.00     0.007 A 
HETATM   25  C12 UNL     1      17.391  28.376  10.245  1.00  0.00     0.001 A 
HETATM   26  C13 UNL     1      17.449  27.033   9.933  1.00  0.00     0.000 A 
HETATM   27  C14 UNL     1      17.832  26.108  10.889  1.00  0.00     0.001 A 
HETATM   28  C15 UNL     1      18.143  26.613  12.147  1.00  0.00     0.007 A 
ENDBRANCH  22  23
ENDBRANCH   1  22
BRANCH   1  29
HETATM   29  N2  UNL     1      20.842  28.059  13.533  1.00  0.00    -0.329 N 
HETATM   30  C16 UNL     1      21.819  28.482  12.614  1.00  0.00     0.361 C 
HETATM   31  O2  UNL     1      21.752  29.665  12.203  1.00  0.00    -0.238 OA
ATOM     32  H2  UNL     1      20.863  27.101  13.884  1.00  0.00     0.165 HD
BRANCH  30  33
HETATM   33  O3  UNL     1      22.851  27.703  12.121  1.00  0.00    -0.296 OA
BRANCH  33  34
HETATM   34  C17 UNL     1      22.666  26.371  11.728  1.00  0.00     0.166 C 
HETATM   35  C18 UNL     1      21.634  26.177  10.638  1.00  0.00     0.204 C 
HETATM   36  O4  UNL     1      21.981  24.999   9.980  1.00  0.00    -0.358 OA
HETATM   37  C19 UNL     1      23.284  24.689  10.253  1.00  0.00     0.266 C 
HETATM   38  O5  UNL     1      24.106  24.597   9.129  1.00  0.00    -0.361 OA
HETATM   39  C22 UNL     1      23.900  25.864  10.981  1.00  0.00     0.075 C 
HETATM   40  C20 UNL     1      24.143  25.898   8.630  1.00  0.00     0.171 C 
HETATM   41  C21 UNL     1      24.237  26.803   9.842  1.00  0.00     0.038 C 
ENDBRANCH  33  34
ENDBRANCH  30  33
ENDBRANCH   1  29
TORSDOF 14
ENDMDL
