MODEL 3
REMARK VINA RESULT: -9.445631096      2.817      8.519
REMARK  14 active torsions:
REMARK  status: ('A' for Active; 'I' for Inactive)
REMARK    1  A    between atoms: C2_2  and  C3_3 
REMARK    2  A    between atoms: C3_3  and  C5_5 
REMARK    3  A    between atoms: C5_5  and  N1_6 
REMARK    4  A    between atoms: N1_6  and  C6_7 
REMARK    5  A    between atoms: N1_6  and  S1_32 
REMARK    6  A    between atoms: C6_7  and  C7_8 
REMARK    7  A    between atoms: C7_8  and  O1_9 
REMARK    8  A    between atoms: C7_8  and  C8_11 
REMARK    9  A    between atoms: C8_11  and  C9_12 
REMARK   10  A    between atoms: C8_11  and  N2_19 
REMARK   11  A    between atoms: C9_12  and  C10_13 
REMARK       I    between atoms: N2_19  and  C16_21 
REMARK   12  A    between atoms: C16_21  and  O3_23 
REMARK   13  A    between atoms: O3_23  and  C17_24 
REMARK   14  A    between atoms: S1_32  and  C23_35 
ROOT
HETATM    1  C8  UNL     1      17.654  31.226  14.995  1.00  0.00     0.121 C 
ENDROOT
BRANCH   1   2
HETATM    2  C7  UNL     1      18.940  30.905  15.776  1.00  0.00     0.160 C 
BRANCH   2   3
HETATM    3  C6  UNL     1      19.710  32.190  15.897  1.00  0.00     0.174 C 
BRANCH   3   4
HETATM    4  N1  UNL     1      21.123  32.083  15.705  1.00  0.00    -0.283 N 
BRANCH   4   5
HETATM    5  C5  UNL     1      21.901  32.755  16.625  1.00  0.00     0.080 C 
BRANCH   5   6
HETATM    6  C3  UNL     1      21.467  34.085  17.160  1.00  0.00     0.020 C 
HETATM    7  C4  UNL     1      22.209  34.232  18.504  1.00  0.00     0.015 C 
BRANCH   6   8
HETATM    8  C2  UNL     1      21.923  35.263  16.320  1.00  0.00     0.005 C 
HETATM    9  C1  UNL     1      22.277  36.369  17.324  1.00  0.00     0.006 C 
ENDBRANCH   6   8
ENDBRANCH   5   6
ENDBRANCH   4   5
BRANCH   4  10
HETATM   10  S1  UNL     1      21.544  32.079  14.072  1.00  0.00     0.264 S 
HETATM   11  O6  UNL     1      20.468  32.831  13.320  1.00  0.00    -0.200 OA
HETATM   12  O7  UNL     1      22.827  32.777  13.732  1.00  0.00    -0.200 OA
BRANCH  10  13
HETATM   13  C23 UNL     1      21.559  30.470  13.372  1.00  0.00     0.080 A 
HETATM   14  C24 UNL     1      21.696  29.371  14.202  1.00  0.00     0.027 A 
HETATM   15  C25 UNL     1      21.713  28.072  13.698  1.00  0.00     0.028 A 
HETATM   16  C26 UNL     1      21.587  27.892  12.345  1.00  0.00     0.046 A 
HETATM   17  N3  UNL     1      21.606  26.590  11.814  1.00  0.00    -0.102 NA
HETATM   18  C27 UNL     1      21.449  29.002  11.515  1.00  0.00     0.028 A 
HETATM   19  C28 UNL     1      21.435  30.271  12.024  1.00  0.00     0.027 A 
ENDBRANCH  10  13
ENDBRANCH   4  10
ENDBRANCH   3   4
ENDBRANCH   2   3
BRANCH   2  20
HETATM   20  O1  UNL     1      18.630  30.392  17.002  1.00  0.00    -0.392 OA
ATOM     21  H1  UNL     1      18.799  29.459  17.040  1.00  0.00     0.210 HD
ENDBRANCH   2  20
ENDBRANCH   1   2
BRANCH   1  22
HETATM   22  C9  UNL     1      17.835  30.989  13.513  1.00  0.00     0.066 C 
BRANCH  22  23
HETATM   23  C10 UNL     1      17.870  29.593  13.097  1.00  0.00    -0.056 A 
HETATM   24  C11 UNL     1      18.022  28.578  13.998  1.00  0.00     0.007 A 
HETATM   25  C12 UNL     1      18.046  27.282  13.520  1.00  0.00     0.001 A 
HETATM   26  C13 UNL     1      17.924  26.986  12.178  1.00  0.00     0.000 A 
HETATM   27  C14 UNL     1      17.769  28.000  11.249  1.00  0.00     0.001 A 
HETATM   28  C15 UNL     1      17.747  29.298  11.749  1.00  0.00     0.007 A 
ENDBRANCH  22  23
ENDBRANCH   1  22
BRANCH   1  29
HETATM   29  N2  UNL     1      17.227  32.564  15.288  1.00  0.00    -0.329 N 
HETATM   30  C16 UNL     1      15.988  32.804  15.909  1.00  0.00     0.361 C 
HETATM   31  O2  UNL     1      15.279  31.808  16.187  1.00  0.00    -0.238 OA
ATOM     32  H2  UNL     1      17.828  33.351  15.043  1.00  0.00     0.165 HD
BRANCH  30  33
HETATM   33  O3  UNL     1      15.483  34.048  16.241  1.00  0.00    -0.296 OA
BRANCH  33  34
HETATM   34  C17 UNL     1      16.181  34.951  17.054  1.00  0.00     0.166 C 
HETATM   35  C18 UNL     1      16.215  36.370  16.530  1.00  0.00     0.204 C 
HETATM   36  O4  UNL     1      16.384  37.190  17.643  1.00  0.00    -0.358 OA
HETATM   37  C19 UNL     1      16.049  36.502  18.775  1.00  0.00     0.266 C 
HETATM   38  O5  UNL     1      15.022  37.080  19.523  1.00  0.00    -0.361 OA
HETATM   39  C22 UNL     1      15.414  35.195  18.354  1.00  0.00     0.075 C 
HETATM   40  C20 UNL     1      13.904  36.980  18.697  1.00  0.00     0.171 C 
HETATM   41  C21 UNL     1      13.993  35.615  18.044  1.00  0.00     0.038 C 
ENDBRANCH  33  34
ENDBRANCH  30  33
ENDBRANCH   1  29
TORSDOF 14
ENDMDL
