MODEL 5
REMARK VINA RESULT: -9.219822933      2.798      6.184
REMARK  14 active torsions:
REMARK  status: ('A' for Active; 'I' for Inactive)
REMARK    1  A    between atoms: C2_2  and  C3_3 
REMARK    2  A    between atoms: C3_3  and  C5_5 
REMARK    3  A    between atoms: C5_5  and  N1_6 
REMARK    4  A    between atoms: N1_6  and  C6_7 
REMARK    5  A    between atoms: N1_6  and  S1_32 
REMARK    6  A    between atoms: C6_7  and  C7_8 
REMARK    7  A    between atoms: C7_8  and  O1_9 
REMARK    8  A    between atoms: C7_8  and  C8_11 
REMARK    9  A    between atoms: C8_11  and  C9_12 
REMARK   10  A    between atoms: C8_11  and  N2_19 
REMARK   11  A    between atoms: C9_12  and  C10_13 
REMARK       I    between atoms: N2_19  and  C16_21 
REMARK   12  A    between atoms: C16_21  and  O3_23 
REMARK   13  A    between atoms: O3_23  and  C17_24 
REMARK   14  A    between atoms: S1_32  and  C23_35 
ROOT
HETATM    1  C8  UNL     1      18.499  30.244  14.908  1.00  0.00     0.121 C 
ENDROOT
BRANCH   1   2
HETATM    2  C7  UNL     1      19.838  30.098  15.650  1.00  0.00     0.160 C 
BRANCH   2   3
HETATM    3  C6  UNL     1      20.256  31.478  16.074  1.00  0.00     0.174 C 
BRANCH   3   4
HETATM    4  N1  UNL     1      21.597  31.846  15.741  1.00  0.00    -0.283 N 
BRANCH   4   5
HETATM    5  C5  UNL     1      22.221  32.692  16.635  1.00  0.00     0.080 C 
BRANCH   5   6
HETATM    6  C3  UNL     1      21.542  33.945  17.095  1.00  0.00     0.020 C 
HETATM    7  C4  UNL     1      22.166  34.249  18.472  1.00  0.00     0.015 C 
BRANCH   6   8
HETATM    8  C2  UNL     1      21.849  35.159  16.240  1.00  0.00     0.005 C 
HETATM    9  C1  UNL     1      22.238  36.268  17.227  1.00  0.00     0.006 C 
ENDBRANCH   6   8
ENDBRANCH   5   6
ENDBRANCH   4   5
BRANCH   4  10
HETATM   10  S1  UNL     1      21.805  32.055  14.081  1.00  0.00     0.264 S 
HETATM   11  O6  UNL     1      20.548  32.698  13.538  1.00  0.00    -0.200 OA
HETATM   12  O7  UNL     1      22.924  32.968  13.678  1.00  0.00    -0.200 OA
BRANCH  10  13
HETATM   13  C23 UNL     1      21.958  30.537  13.213  1.00  0.00     0.080 A 
HETATM   14  C24 UNL     1      22.640  29.486  13.800  1.00  0.00     0.027 A 
HETATM   15  C25 UNL     1      22.789  28.259  13.156  1.00  0.00     0.028 A 
HETATM   16  C26 UNL     1      22.241  28.103  11.910  1.00  0.00     0.046 A 
HETATM   17  N3  UNL     1      22.383  26.876  11.239  1.00  0.00    -0.102 NA
HETATM   18  C27 UNL     1      21.556  29.164  11.323  1.00  0.00     0.028 A 
HETATM   19  C28 UNL     1      21.418  30.363  11.968  1.00  0.00     0.027 A 
ENDBRANCH  10  13
ENDBRANCH   4  10
ENDBRANCH   3   4
ENDBRANCH   2   3
BRANCH   2  20
HETATM   20  O1  UNL     1      19.693  29.269  16.724  1.00  0.00    -0.392 OA
ATOM     21  H1  UNL     1      18.778  29.150  16.948  1.00  0.00     0.210 HD
ENDBRANCH   2  20
ENDBRANCH   1   2
BRANCH   1  22
HETATM   22  C9  UNL     1      17.391  30.666  15.845  1.00  0.00     0.066 C 
BRANCH  22  23
HETATM   23  C10 UNL     1      16.869  32.010  15.641  1.00  0.00    -0.056 A 
HETATM   24  C11 UNL     1      15.741  32.448  16.275  1.00  0.00     0.007 A 
HETATM   25  C12 UNL     1      15.312  33.737  16.025  1.00  0.00     0.001 A 
HETATM   26  C13 UNL     1      15.980  34.585  15.166  1.00  0.00     0.000 A 
HETATM   27  C14 UNL     1      17.126  34.162  14.514  1.00  0.00     0.001 A 
HETATM   28  C15 UNL     1      17.541  32.861  14.778  1.00  0.00     0.007 A 
ENDBRANCH  22  23
ENDBRANCH   1  22
BRANCH   1  29
HETATM   29  N2  UNL     1      18.193  29.030  14.209  1.00  0.00    -0.329 N 
HETATM   30  C16 UNL     1      17.930  29.041  12.827  1.00  0.00     0.361 C 
HETATM   31  O2  UNL     1      17.968  30.148  12.240  1.00  0.00    -0.238 OA
ATOM     32  H2  UNL     1      18.166  28.147  14.719  1.00  0.00     0.165 HD
BRANCH  30  33
HETATM   33  O3  UNL     1      17.632  27.931  12.057  1.00  0.00    -0.296 OA
BRANCH  33  34
HETATM   34  C17 UNL     1      18.584  26.950  11.750  1.00  0.00     0.166 C 
HETATM   35  C18 UNL     1      18.122  25.530  11.994  1.00  0.00     0.204 C 
HETATM   36  O4  UNL     1      18.870  24.726  11.136  1.00  0.00    -0.358 OA
HETATM   37  C19 UNL     1      19.409  25.494  10.142  1.00  0.00     0.266 C 
HETATM   38  O5  UNL     1      19.037  25.115   8.852  1.00  0.00    -0.361 OA
HETATM   39  C22 UNL     1      18.798  26.875  10.238  1.00  0.00     0.075 C 
HETATM   40  C20 UNL     1      17.668  25.374   8.804  1.00  0.00     0.171 C 
HETATM   41  C21 UNL     1      17.470  26.686   9.537  1.00  0.00     0.038 C 
ENDBRANCH  33  34
ENDBRANCH  30  33
ENDBRANCH   1  29
TORSDOF 14
ENDMDL
