MODEL 4
REMARK VINA RESULT: -8.716092240      2.120      8.770
REMARK  15 active torsions:
REMARK  status: ('A' for Active; 'I' for Inactive)
REMARK    1  A    between atoms: C2_2  and  C3_3 
REMARK    2  A    between atoms: C3_3  and  C5_5 
REMARK    3  A    between atoms: C5_5  and  N1_6 
REMARK    4  A    between atoms: N1_6  and  C6_7 
REMARK    5  A    between atoms: N1_6  and  S1_32 
REMARK    6  A    between atoms: C6_7  and  C7_8 
REMARK    7  A    between atoms: C7_8  and  O1_9 
REMARK    8  A    between atoms: C7_8  and  C8_11 
REMARK    9  A    between atoms: C8_11  and  C9_12 
REMARK   10  A    between atoms: C8_11  and  N2_19 
REMARK   11  A    between atoms: C9_12  and  C10_13 
REMARK       I    between atoms: N2_19  and  C16_21 
REMARK   12  A    between atoms: C16_21  and  O3_23 
REMARK   13  A    between atoms: O3_23  and  C17_24 
REMARK   14  A    between atoms: S1_32  and  C23_35 
REMARK   15  A    between atoms: C26_38  and  O8_39 
ROOT
HETATM    1  C7  UNL     1      20.297  29.357  15.483  1.00  0.00     0.155 C 
ENDROOT
BRANCH   1   2
HETATM    2  C6  UNL     1      19.286  30.464  15.862  1.00  0.00     0.141 C 
BRANCH   2   3
HETATM    3  N1  UNL     1      19.608  31.724  15.301  1.00  0.00    -0.204 NA
BRANCH   3   4
HETATM    4  C5  UNL     1      20.341  32.589  16.177  1.00  0.00     0.112 C 
BRANCH   4   5
HETATM    5  C3  UNL     1      21.362  33.432  15.442  1.00  0.00    -0.005 C 
HETATM    6  C4  UNL     1      22.393  33.932  16.432  1.00  0.00     0.011 C 
BRANCH   5   7
HETATM    7  C2  UNL     1      22.042  32.522  14.431  1.00  0.00     0.001 C 
HETATM    8  C1  UNL     1      23.557  32.699  14.524  1.00  0.00     0.005 C 
ENDBRANCH   5   7
ENDBRANCH   4   5
ENDBRANCH   3   4
BRANCH   3   9
HETATM    9  S1  UNL     1      18.203  32.514  14.727  1.00  0.00     0.243 S 
HETATM   10  O6  UNL     1      18.503  33.505  13.634  1.00  0.00    -0.206 OA
HETATM   11  O7  UNL     1      17.264  31.483  14.098  1.00  0.00    -0.206 OA
BRANCH   9  12
HETATM   12  C23 UNL     1      17.362  33.312  16.059  1.00  0.00     0.074 A 
HETATM   13  C24 UNL     1      17.957  34.390  16.685  1.00  0.00     0.027 A 
HETATM   14  C25 UNL     1      17.234  35.002  17.715  1.00  0.00     0.038 A 
HETATM   15  C26 UNL     1      15.998  34.565  18.100  1.00  0.00     0.068 A 
HETATM   16  C28 UNL     1      15.416  33.482  17.463  1.00  0.00     0.038 A 
HETATM   17  C29 UNL     1      16.112  32.865  16.445  1.00  0.00     0.027 A 
BRANCH  15  18
HETATM   18  O8  UNL     1      15.356  35.239  19.136  1.00  0.00    -0.356 OA
HETATM   19  C27 UNL     1      15.365  36.651  19.241  1.00  0.00     0.210 C 
ENDBRANCH  15  18
ENDBRANCH   9  12
ENDBRANCH   3   9
ENDBRANCH   2   3
ENDBRANCH   1   2
BRANCH   1  20
HETATM   20  O1  UNL     1      20.016  28.346  16.439  1.00  0.00    -0.392 OA
ATOM     21  H1  UNL     1      20.836  28.280  16.914  1.00  0.00     0.210 HD
ENDBRANCH   1  20
BRANCH   1  22
HETATM   22  C8  UNL     1      19.938  28.815  14.140  1.00  0.00     0.120 C 
BRANCH  22  23
HETATM   23  C9  UNL     1      18.590  28.195  14.015  1.00  0.00     0.066 C 
BRANCH  23  24
HETATM   24  C10 UNL     1      18.185  27.735  12.700  1.00  0.00    -0.056 A 
HETATM   25  C11 UNL     1      18.056  26.395  12.416  1.00  0.00     0.007 A 
HETATM   26  C12 UNL     1      17.684  25.983  11.134  1.00  0.00     0.001 A 
HETATM   27  C13 UNL     1      17.436  26.886  10.132  1.00  0.00     0.000 A 
HETATM   28  C14 UNL     1      17.562  28.211  10.412  1.00  0.00     0.001 A 
HETATM   29  C15 UNL     1      17.931  28.622  11.678  1.00  0.00     0.007 A 
ENDBRANCH  23  24
ENDBRANCH  22  23
BRANCH  22  30
HETATM   30  N2  UNL     1      20.981  27.967  13.586  1.00  0.00    -0.329 N 
HETATM   31  C16 UNL     1      21.781  28.328  12.458  1.00  0.00     0.361 C 
HETATM   32  O2  UNL     1      21.539  29.465  11.932  1.00  0.00    -0.238 OA
ATOM     33  H2  UNL     1      21.150  27.063  14.027  1.00  0.00     0.165 HD
BRANCH  31  34
HETATM   34  O3  UNL     1      22.765  27.539  11.924  1.00  0.00    -0.296 OA
BRANCH  34  35
HETATM   35  C17 UNL     1      22.487  26.172  11.666  1.00  0.00     0.166 C 
HETATM   36  C18 UNL     1      21.281  25.975  10.820  1.00  0.00     0.204 C 
HETATM   37  O4  UNL     1      21.612  25.248   9.707  1.00  0.00    -0.358 OA
HETATM   38  C19 UNL     1      22.800  24.588   9.972  1.00  0.00     0.266 C 
HETATM   39  O5  UNL     1      23.617  24.458   8.877  1.00  0.00    -0.361 OA
HETATM   40  C22 UNL     1      23.575  25.462  10.926  1.00  0.00     0.075 C 
HETATM   41  C20 UNL     1      24.192  25.697   8.659  1.00  0.00     0.171 C 
HETATM   42  C21 UNL     1      24.385  26.336  10.014  1.00  0.00     0.038 C 
ENDBRANCH  34  35
ENDBRANCH  31  34
ENDBRANCH  22  30
ENDBRANCH   1  22
TORSDOF 15
ENDMDL
