MODEL 10
REMARK VINA RESULT: -8.364705399      1.847      8.571
REMARK  15 active torsions:
REMARK  status: ('A' for Active; 'I' for Inactive)
REMARK    1  A    between atoms: C2_2  and  C3_3 
REMARK    2  A    between atoms: C3_3  and  C5_5 
REMARK    3  A    between atoms: C5_5  and  N1_6 
REMARK    4  A    between atoms: N1_6  and  C6_7 
REMARK    5  A    between atoms: N1_6  and  S1_32 
REMARK    6  A    between atoms: C6_7  and  C7_8 
REMARK    7  A    between atoms: C7_8  and  O1_9 
REMARK    8  A    between atoms: C7_8  and  C8_11 
REMARK    9  A    between atoms: C8_11  and  C9_12 
REMARK   10  A    between atoms: C8_11  and  N2_19 
REMARK   11  A    between atoms: C9_12  and  C10_13 
REMARK       I    between atoms: N2_19  and  C16_21 
REMARK   12  A    between atoms: C16_21  and  O3_23 
REMARK   13  A    between atoms: O3_23  and  C17_24 
REMARK   14  A    between atoms: S1_32  and  C23_35 
REMARK   15  A    between atoms: C26_38  and  O8_39 
ROOT
HETATM    1  C7  UNL     1      20.040  30.312  15.966  1.00  0.00     0.155 C 
ENDROOT
BRANCH   1   2
HETATM    2  C6  UNL     1      18.927  31.293  16.404  1.00  0.00     0.141 C 
BRANCH   2   3
HETATM    3  N1  UNL     1      19.089  32.592  15.862  1.00  0.00    -0.204 NA
BRANCH   3   4
HETATM    4  C5  UNL     1      19.682  33.536  16.762  1.00  0.00     0.112 C 
BRANCH   4   5
HETATM    5  C3  UNL     1      20.711  34.417  16.084  1.00  0.00    -0.005 C 
HETATM    6  C4  UNL     1      21.210  35.446  17.078  1.00  0.00     0.011 C 
BRANCH   5   7
HETATM    7  C2  UNL     1      21.867  33.516  15.676  1.00  0.00     0.001 C 
HETATM    8  C1  UNL     1      22.640  33.086  16.921  1.00  0.00     0.005 C 
ENDBRANCH   5   7
ENDBRANCH   4   5
ENDBRANCH   3   4
BRANCH   3   9
HETATM    9  S1  UNL     1      17.602  33.194  15.267  1.00  0.00     0.243 S 
HETATM   10  O6  UNL     1      17.753  33.911  13.952  1.00  0.00    -0.206 OA
HETATM   11  O7  UNL     1      16.657  32.024  14.988  1.00  0.00    -0.206 OA
BRANCH   9  12
HETATM   12  C23 UNL     1      16.852  34.259  16.459  1.00  0.00     0.074 A 
HETATM   13  C24 UNL     1      16.048  33.714  17.443  1.00  0.00     0.027 A 
HETATM   14  C25 UNL     1      15.503  34.599  18.378  1.00  0.00     0.038 A 
HETATM   15  C26 UNL     1      15.739  35.945  18.334  1.00  0.00     0.068 A 
HETATM   16  C28 UNL     1      16.545  36.476  17.341  1.00  0.00     0.038 A 
HETATM   17  C29 UNL     1      17.092  35.619  16.410  1.00  0.00     0.027 A 
BRANCH  15  18
HETATM   18  O8  UNL     1      15.150  36.747  19.310  1.00  0.00    -0.356 OA
HETATM   19  C27 UNL     1      15.541  38.091  19.521  1.00  0.00     0.210 C 
ENDBRANCH  15  18
ENDBRANCH   9  12
ENDBRANCH   3   9
ENDBRANCH   2   3
ENDBRANCH   1   2
BRANCH   1  20
HETATM   20  O1  UNL     1      19.911  29.261  16.911  1.00  0.00    -0.392 OA
ATOM     21  H1  UNL     1      20.816  29.061  17.119  1.00  0.00     0.210 HD
ENDBRANCH   1  20
BRANCH   1  22
HETATM   22  C8  UNL     1      19.692  29.756  14.625  1.00  0.00     0.120 C 
BRANCH  22  23
HETATM   23  C9  UNL     1      18.365  29.090  14.510  1.00  0.00     0.066 C 
BRANCH  23  24
HETATM   24  C10 UNL     1      18.034  28.475  13.238  1.00  0.00    -0.056 A 
HETATM   25  C11 UNL     1      18.019  27.107  13.083  1.00  0.00     0.007 A 
HETATM   26  C12 UNL     1      17.715  26.547  11.841  1.00  0.00     0.001 A 
HETATM   27  C13 UNL     1      17.426  27.328  10.751  1.00  0.00     0.000 A 
HETATM   28  C14 UNL     1      17.439  28.678  10.903  1.00  0.00     0.001 A 
HETATM   29  C15 UNL     1      17.740  29.237  12.130  1.00  0.00     0.007 A 
ENDBRANCH  23  24
ENDBRANCH  22  23
BRANCH  22  30
HETATM   30  N2  UNL     1      20.760  28.942  14.067  1.00  0.00    -0.329 N 
HETATM   31  C16 UNL     1      21.507  29.304  12.904  1.00  0.00     0.361 C 
HETATM   32  O2  UNL     1      21.192  30.410  12.349  1.00  0.00    -0.238 OA
ATOM     33  H2  UNL     1      20.988  28.063  14.532  1.00  0.00     0.165 HD
BRANCH  31  34
HETATM   34  O3  UNL     1      22.514  28.548  12.365  1.00  0.00    -0.296 OA
BRANCH  34  35
HETATM   35  C17 UNL     1      22.355  27.140  12.294  1.00  0.00     0.166 C 
HETATM   36  C18 UNL     1      21.259  26.726  11.378  1.00  0.00     0.204 C 
HETATM   37  O4  UNL     1      21.752  25.874  10.425  1.00  0.00    -0.358 OA
HETATM   38  C19 UNL     1      22.947  25.357  10.898  1.00  0.00     0.266 C 
HETATM   39  O5  UNL     1      23.880  25.136   9.918  1.00  0.00    -0.361 OA
HETATM   40  C22 UNL     1      23.558  26.420  11.776  1.00  0.00     0.075 C 
HETATM   41  C20 UNL     1      24.393  26.372   9.568  1.00  0.00     0.171 C 
HETATM   42  C21 UNL     1      24.400  27.214  10.821  1.00  0.00     0.038 C 
ENDBRANCH  34  35
ENDBRANCH  31  34
ENDBRANCH  22  30
ENDBRANCH   1  22
TORSDOF 15
ENDMDL
