MODEL 3
REMARK VINA RESULT: -8.908528391      2.410      6.550
REMARK  15 active torsions:
REMARK  status: ('A' for Active; 'I' for Inactive)
REMARK    1  A    between atoms: C2_2  and  C3_3 
REMARK    2  A    between atoms: C3_3  and  C5_5 
REMARK    3  A    between atoms: C5_5  and  N1_6 
REMARK    4  A    between atoms: N1_6  and  C6_7 
REMARK    5  A    between atoms: N1_6  and  S1_32 
REMARK    6  A    between atoms: C6_7  and  C7_8 
REMARK    7  A    between atoms: C7_8  and  O1_9 
REMARK    8  A    between atoms: C7_8  and  C8_11 
REMARK    9  A    between atoms: C8_11  and  C9_12 
REMARK   10  A    between atoms: C8_11  and  N2_19 
REMARK   11  A    between atoms: C9_12  and  C10_13 
REMARK       I    between atoms: N2_19  and  C16_21 
REMARK   12  A    between atoms: C16_21  and  O3_23 
REMARK   13  A    between atoms: O3_23  and  C17_24 
REMARK   14  A    between atoms: S1_32  and  C23_35 
REMARK   15  A    between atoms: C26_38  and  O8_39 
ROOT
HETATM    1  C7  UNL     1      19.664  30.317  16.018  1.00  0.00     0.155 C 
ENDROOT
BRANCH   1   2
HETATM    2  C6  UNL     1      20.290  31.702  16.306  1.00  0.00     0.141 C 
BRANCH   2   3
HETATM    3  N1  UNL     1      21.626  31.812  15.848  1.00  0.00    -0.204 NA
BRANCH   3   4
HETATM    4  C5  UNL     1      22.384  32.847  16.486  1.00  0.00     0.112 C 
BRANCH   4   5
HETATM    5  C3  UNL     1      21.503  33.894  17.139  1.00  0.00    -0.005 C 
HETATM    6  C4  UNL     1      22.108  34.283  18.472  1.00  0.00     0.011 C 
BRANCH   5   7
HETATM    7  C2  UNL     1      21.499  35.105  16.220  1.00  0.00     0.001 C 
HETATM    8  C1  UNL     1      21.772  36.366  17.038  1.00  0.00     0.005 C 
ENDBRANCH   5   7
ENDBRANCH   4   5
ENDBRANCH   3   4
BRANCH   3   9
HETATM    9  S1  UNL     1      21.674  32.005  14.148  1.00  0.00     0.243 S 
HETATM   10  O6  UNL     1      20.445  32.687  13.609  1.00  0.00    -0.206 OA
HETATM   11  O7  UNL     1      22.845  32.914  13.774  1.00  0.00    -0.206 OA
BRANCH   9  12
HETATM   12  C23 UNL     1      21.896  30.439  13.361  1.00  0.00     0.074 A 
HETATM   13  C24 UNL     1      22.413  29.384  14.088  1.00  0.00     0.027 A 
HETATM   14  C25 UNL     1      22.542  28.160  13.424  1.00  0.00     0.038 A 
HETATM   15  C26 UNL     1      22.182  27.997  12.115  1.00  0.00     0.068 A 
HETATM   16  C28 UNL     1      21.667  29.065  11.400  1.00  0.00     0.038 A 
HETATM   17  C29 UNL     1      21.533  30.281  12.037  1.00  0.00     0.027 A 
BRANCH  15  18
HETATM   18  O8  UNL     1      22.348  26.739  11.540  1.00  0.00    -0.356 OA
HETATM   19  C27 UNL     1      23.603  26.086  11.500  1.00  0.00     0.210 C 
ENDBRANCH  15  18
ENDBRANCH   9  12
ENDBRANCH   3   9
ENDBRANCH   2   3
ENDBRANCH   1   2
BRANCH   1  20
HETATM   20  O1  UNL     1      19.335  29.853  17.317  1.00  0.00    -0.392 OA
ATOM     21  H1  UNL     1      18.938  29.009  17.139  1.00  0.00     0.210 HD
ENDBRANCH   1  20
BRANCH   1  22
HETATM   22  C8  UNL     1      18.386  30.511  15.273  1.00  0.00     0.120 C 
BRANCH  22  23
HETATM   23  C9  UNL     1      17.231  31.019  16.062  1.00  0.00     0.066 C 
BRANCH  23  24
HETATM   24  C10 UNL     1      16.846  32.405  15.869  1.00  0.00    -0.056 A 
HETATM   25  C11 UNL     1      17.239  33.111  14.755  1.00  0.00     0.007 A 
HETATM   26  C12 UNL     1      16.870  34.450  14.608  1.00  0.00     0.001 A 
HETATM   27  C13 UNL     1      16.113  35.095  15.553  1.00  0.00     0.000 A 
HETATM   28  C14 UNL     1      15.723  34.398  16.653  1.00  0.00     0.001 A 
HETATM   29  C15 UNL     1      16.087  33.074  16.803  1.00  0.00     0.007 A 
ENDBRANCH  23  24
ENDBRANCH  22  23
BRANCH  22  30
HETATM   30  N2  UNL     1      18.029  29.352  14.470  1.00  0.00    -0.329 N 
HETATM   31  C16 UNL     1      17.928  29.375  13.045  1.00  0.00     0.361 C 
HETATM   32  O2  UNL     1      18.171  30.493  12.477  1.00  0.00    -0.238 OA
ATOM     33  H2  UNL     1      17.839  28.473  14.952  1.00  0.00     0.165 HD
BRANCH  31  34
HETATM   34  O3  UNL     1      17.592  28.293  12.275  1.00  0.00    -0.296 OA
BRANCH  34  35
HETATM   35  C17 UNL     1      18.502  27.210  12.176  1.00  0.00     0.166 C 
HETATM   36  C18 UNL     1      17.969  25.949  12.755  1.00  0.00     0.204 C 
HETATM   37  O4  UNL     1      17.994  24.959  11.807  1.00  0.00    -0.358 OA
HETATM   38  C19 UNL     1      18.892  25.340  10.823  1.00  0.00     0.266 C 
HETATM   39  O5  UNL     1      18.532  24.939   9.562  1.00  0.00    -0.361 OA
HETATM   40  C22 UNL     1      18.860  26.846  10.770  1.00  0.00     0.075 C 
HETATM   41  C20 UNL     1      17.513  25.780   9.151  1.00  0.00     0.171 C 
HETATM   42  C21 UNL     1      17.790  27.134   9.758  1.00  0.00     0.038 C 
ENDBRANCH  34  35
ENDBRANCH  31  34
ENDBRANCH  22  30
ENDBRANCH   1  22
TORSDOF 15
ENDMDL
