MODEL 1
REMARK VINA RESULT: -9.200845186      0.000      0.000
REMARK  15 active torsions:
REMARK  status: ('A' for Active; 'I' for Inactive)
REMARK    1  A    between atoms: C2_2  and  C3_3 
REMARK    2  A    between atoms: C3_3  and  C5_5 
REMARK    3  A    between atoms: C5_5  and  N1_6 
REMARK    4  A    between atoms: N1_6  and  C6_7 
REMARK    5  A    between atoms: N1_6  and  S1_32 
REMARK    6  A    between atoms: C6_7  and  C7_8 
REMARK    7  A    between atoms: C7_8  and  O1_9 
REMARK    8  A    between atoms: C7_8  and  C8_11 
REMARK    9  A    between atoms: C8_11  and  C9_12 
REMARK   10  A    between atoms: C8_11  and  N2_19 
REMARK   11  A    between atoms: C9_12  and  C10_13 
REMARK       I    between atoms: N2_19  and  C16_21 
REMARK   12  A    between atoms: C16_21  and  O3_23 
REMARK   13  A    between atoms: O3_23  and  C17_24 
REMARK   14  A    between atoms: S1_32  and  C23_35 
REMARK   15  A    between atoms: C26_38  and  O8_39 
ROOT
HETATM    1  C7  UNL     1      19.238  30.979  16.021  1.00  0.00     0.155 C 
ENDROOT
BRANCH   1   2
HETATM    2  C6  UNL     1      20.128  32.203  16.339  1.00  0.00     0.141 C 
BRANCH   2   3
HETATM    3  N1  UNL     1      21.513  31.909  16.292  1.00  0.00    -0.204 NA
BRANCH   3   4
HETATM    4  C5  UNL     1      22.316  32.715  17.163  1.00  0.00     0.112 C 
BRANCH   4   5
HETATM    5  C3  UNL     1      21.686  34.062  17.454  1.00  0.00    -0.005 C 
HETATM    6  C4  UNL     1      21.783  34.340  18.939  1.00  0.00     0.011 C 
BRANCH   5   7
HETATM    7  C2  UNL     1      22.497  35.103  16.697  1.00  0.00     0.001 C 
HETATM    8  C1  UNL     1      22.487  36.418  17.474  1.00  0.00     0.005 C 
ENDBRANCH   5   7
ENDBRANCH   4   5
ENDBRANCH   3   4
BRANCH   3   9
HETATM    9  S1  UNL     1      22.102  32.000  14.689  1.00  0.00     0.243 S 
HETATM   10  O6  UNL     1      21.465  33.114  13.901  1.00  0.00    -0.206 OA
HETATM   11  O7  UNL     1      23.597  32.322  14.716  1.00  0.00    -0.206 OA
BRANCH   9  12
HETATM   12  C23 UNL     1      21.868  30.458  13.861  1.00  0.00     0.074 A 
HETATM   13  C24 UNL     1      21.853  29.289  14.600  1.00  0.00     0.027 A 
HETATM   14  C25 UNL     1      21.636  28.099  13.898  1.00  0.00     0.038 A 
HETATM   15  C26 UNL     1      21.448  28.073  12.544  1.00  0.00     0.068 A 
HETATM   16  C28 UNL     1      21.468  29.252  11.818  1.00  0.00     0.038 A 
HETATM   17  C29 UNL     1      21.681  30.436  12.492  1.00  0.00     0.027 A 
BRANCH  15  18
HETATM   18  O8  UNL     1      21.240  26.838  11.934  1.00  0.00    -0.356 OA
HETATM   19  C27 UNL     1      22.310  26.004  11.531  1.00  0.00     0.210 C 
ENDBRANCH  15  18
ENDBRANCH   9  12
ENDBRANCH   3   9
ENDBRANCH   2   3
ENDBRANCH   1   2
BRANCH   1  20
HETATM   20  O1  UNL     1      18.697  30.655  17.292  1.00  0.00    -0.392 OA
ATOM     21  H1  UNL     1      18.619  29.710  17.246  1.00  0.00     0.210 HD
ENDBRANCH   1  20
BRANCH   1  22
HETATM   22  C8  UNL     1      18.109  31.417  15.150  1.00  0.00     0.120 C 
BRANCH  22  23
HETATM   23  C9  UNL     1      18.230  31.101  13.700  1.00  0.00     0.066 C 
BRANCH  23  24
HETATM   24  C10 UNL     1      18.050  29.718  13.299  1.00  0.00    -0.056 A 
HETATM   25  C11 UNL     1      18.057  28.696  14.221  1.00  0.00     0.007 A 
HETATM   26  C12 UNL     1      17.901  27.373  13.801  1.00  0.00     0.001 A 
HETATM   27  C13 UNL     1      17.737  27.054  12.478  1.00  0.00     0.000 A 
HETATM   28  C14 UNL     1      17.728  28.062  11.566  1.00  0.00     0.001 A 
HETATM   29  C15 UNL     1      17.883  29.372  11.977  1.00  0.00     0.007 A 
ENDBRANCH  23  24
ENDBRANCH  22  23
BRANCH  22  30
HETATM   30  N2  UNL     1      17.740  32.805  15.375  1.00  0.00    -0.329 N 
HETATM   31  C16 UNL     1      16.396  33.245  15.580  1.00  0.00     0.361 C 
HETATM   32  O2  UNL     1      15.493  32.342  15.556  1.00  0.00    -0.238 OA
ATOM     33  H2  UNL     1      18.482  33.505  15.388  1.00  0.00     0.165 HD
BRANCH  31  34
HETATM   34  O3  UNL     1      16.031  34.549  15.792  1.00  0.00    -0.296 OA
BRANCH  34  35
HETATM   35  C17 UNL     1      15.246  34.867  16.930  1.00  0.00     0.166 C 
HETATM   36  C18 UNL     1      15.607  34.063  18.127  1.00  0.00     0.204 C 
HETATM   37  O4  UNL     1      15.933  34.898  19.163  1.00  0.00    -0.358 OA
HETATM   38  C19 UNL     1      15.396  36.144  18.885  1.00  0.00     0.266 C 
HETATM   39  O5  UNL     1      16.166  37.190  19.328  1.00  0.00    -0.361 OA
HETATM   40  C22 UNL     1      15.386  36.285  17.384  1.00  0.00     0.075 C 
HETATM   41  C20 UNL     1      17.230  37.301  18.451  1.00  0.00     0.171 C 
HETATM   42  C21 UNL     1      16.718  36.909  17.086  1.00  0.00     0.038 C 
ENDBRANCH  34  35
ENDBRANCH  31  34
ENDBRANCH  22  30
ENDBRANCH   1  22
TORSDOF 15
ENDMDL
