MODEL 2
REMARK VINA RESULT: -8.928416605      2.313      8.143
REMARK  15 active torsions:
REMARK  status: ('A' for Active; 'I' for Inactive)
REMARK    1  A    between atoms: C2_2  and  C3_3 
REMARK    2  A    between atoms: C3_3  and  C5_5 
REMARK    3  A    between atoms: C5_5  and  N1_6 
REMARK    4  A    between atoms: N1_6  and  C6_7 
REMARK    5  A    between atoms: N1_6  and  S1_32 
REMARK    6  A    between atoms: C6_7  and  C7_8 
REMARK    7  A    between atoms: C7_8  and  O1_9 
REMARK    8  A    between atoms: C7_8  and  C8_11 
REMARK    9  A    between atoms: C8_11  and  C9_12 
REMARK   10  A    between atoms: C8_11  and  N2_19 
REMARK   11  A    between atoms: C9_12  and  C10_13 
REMARK       I    between atoms: N2_19  and  C16_21 
REMARK   12  A    between atoms: C16_21  and  O3_23 
REMARK   13  A    between atoms: O3_23  and  C17_24 
REMARK   14  A    between atoms: S1_32  and  C23_35 
REMARK   15  A    between atoms: C26_38  and  O8_39 
ROOT
HETATM    1  C7  UNL     1      19.914  29.742  15.910  1.00  0.00     0.155 C 
ENDROOT
BRANCH   1   2
HETATM    2  C6  UNL     1      20.728  31.056  15.948  1.00  0.00     0.141 C 
BRANCH   2   3
HETATM    3  N1  UNL     1      21.526  31.246  14.792  1.00  0.00    -0.204 NA
BRANCH   3   4
HETATM    4  C5  UNL     1      22.301  30.101  14.416  1.00  0.00     0.112 C 
BRANCH   4   5
HETATM    5  C3  UNL     1      21.733  29.387  13.206  1.00  0.00    -0.005 C 
HETATM    6  C4  UNL     1      21.438  30.408  12.126  1.00  0.00     0.011 C 
BRANCH   5   7
HETATM    7  C2  UNL     1      22.808  28.432  12.710  1.00  0.00     0.001 C 
HETATM    8  C1  UNL     1      22.594  28.152  11.224  1.00  0.00     0.005 C 
ENDBRANCH   5   7
ENDBRANCH   4   5
ENDBRANCH   3   4
BRANCH   3   9
HETATM    9  S1  UNL     1      22.539  32.614  14.969  1.00  0.00     0.243 S 
HETATM   10  O6  UNL     1      23.957  32.243  15.310  1.00  0.00    -0.206 OA
HETATM   11  O7  UNL     1      22.620  33.359  13.636  1.00  0.00    -0.206 OA
BRANCH   9  12
HETATM   12  C23 UNL     1      21.884  33.707  16.192  1.00  0.00     0.074 A 
HETATM   13  C24 UNL     1      20.765  34.462  15.895  1.00  0.00     0.027 A 
HETATM   14  C25 UNL     1      20.271  35.289  16.909  1.00  0.00     0.038 A 
HETATM   15  C26 UNL     1      20.857  35.363  18.142  1.00  0.00     0.068 A 
HETATM   16  C28 UNL     1      21.979  34.601  18.424  1.00  0.00     0.038 A 
HETATM   17  C29 UNL     1      22.481  33.779  17.437  1.00  0.00     0.027 A 
BRANCH  15  18
HETATM   18  O8  UNL     1      20.293  36.217  19.087  1.00  0.00    -0.356 OA
HETATM   19  C27 UNL     1      19.227  37.093  18.774  1.00  0.00     0.210 C 
ENDBRANCH  15  18
ENDBRANCH   9  12
ENDBRANCH   3   9
ENDBRANCH   2   3
ENDBRANCH   1   2
BRANCH   1  20
HETATM   20  O1  UNL     1      19.553  29.566  17.271  1.00  0.00    -0.392 OA
ATOM     21  H1  UNL     1      19.912  28.709  17.469  1.00  0.00     0.210 HD
ENDBRANCH   1  20
BRANCH   1  22
HETATM   22  C8  UNL     1      18.657  29.975  15.140  1.00  0.00     0.120 C 
BRANCH  22  23
HETATM   23  C9  UNL     1      17.511  30.545  15.900  1.00  0.00     0.066 C 
BRANCH  23  24
HETATM   24  C10 UNL     1      17.135  31.917  15.614  1.00  0.00    -0.056 A 
HETATM   25  C11 UNL     1      16.110  32.537  16.293  1.00  0.00     0.007 A 
HETATM   26  C12 UNL     1      15.758  33.851  15.981  1.00  0.00     0.001 A 
HETATM   27  C13 UNL     1      16.412  34.558  15.004  1.00  0.00     0.000 A 
HETATM   28  C14 UNL     1      17.425  33.948  14.334  1.00  0.00     0.001 A 
HETATM   29  C15 UNL     1      17.776  32.647  14.639  1.00  0.00     0.007 A 
ENDBRANCH  23  24
ENDBRANCH  22  23
BRANCH  22  30
HETATM   30  N2  UNL     1      18.266  28.818  14.351  1.00  0.00    -0.329 N 
HETATM   31  C16 UNL     1      17.983  28.870  12.951  1.00  0.00     0.361 C 
HETATM   32  O2  UNL     1      18.089  30.014  12.394  1.00  0.00    -0.238 OA
ATOM     33  H2  UNL     1      18.188  27.917  14.824  1.00  0.00     0.165 HD
BRANCH  31  34
HETATM   34  O3  UNL     1      17.611  27.790  12.195  1.00  0.00    -0.296 OA
BRANCH  34  35
HETATM   35  C17 UNL     1      18.592  26.826  11.846  1.00  0.00     0.166 C 
HETATM   36  C18 UNL     1      18.064  25.436  11.849  1.00  0.00     0.204 C 
HETATM   37  O4  UNL     1      18.274  24.860  10.623  1.00  0.00    -0.358 OA
HETATM   38  C19 UNL     1      19.269  25.581   9.984  1.00  0.00     0.266 C 
HETATM   39  O5  UNL     1      19.104  25.665   8.624  1.00  0.00    -0.361 OA
HETATM   40  C22 UNL     1      19.153  27.003  10.472  1.00  0.00     0.075 C 
HETATM   41  C20 UNL     1      18.099  26.589   8.400  1.00  0.00     0.171 C 
HETATM   42  C21 UNL     1      18.210  27.631   9.487  1.00  0.00     0.038 C 
ENDBRANCH  34  35
ENDBRANCH  31  34
ENDBRANCH  22  30
ENDBRANCH   1  22
TORSDOF 15
ENDMDL
