MODEL 6
REMARK VINA RESULT: -8.483846659      1.810      8.565
REMARK  15 active torsions:
REMARK  status: ('A' for Active; 'I' for Inactive)
REMARK    1  A    between atoms: C2_2  and  C3_3 
REMARK    2  A    between atoms: C3_3  and  C5_5 
REMARK    3  A    between atoms: C5_5  and  N1_6 
REMARK    4  A    between atoms: N1_6  and  C6_7 
REMARK    5  A    between atoms: N1_6  and  S1_32 
REMARK    6  A    between atoms: C6_7  and  C7_8 
REMARK    7  A    between atoms: C7_8  and  O1_9 
REMARK    8  A    between atoms: C7_8  and  C8_11 
REMARK    9  A    between atoms: C8_11  and  C9_12 
REMARK   10  A    between atoms: C8_11  and  N2_19 
REMARK   11  A    between atoms: C9_12  and  C10_13 
REMARK       I    between atoms: N2_19  and  C16_21 
REMARK   12  A    between atoms: C16_21  and  O3_23 
REMARK   13  A    between atoms: O3_23  and  C17_24 
REMARK   14  A    between atoms: S1_32  and  C23_35 
REMARK   15  A    between atoms: C26_38  and  O8_39 
ROOT
HETATM    1  C7  UNL     1      20.019  30.478  16.209  1.00  0.00     0.155 C 
ENDROOT
BRANCH   1   2
HETATM    2  C6  UNL     1      18.819  31.405  16.511  1.00  0.00     0.141 C 
BRANCH   2   3
HETATM    3  N1  UNL     1      18.983  32.711  15.990  1.00  0.00    -0.204 NA
BRANCH   3   4
HETATM    4  C5  UNL     1      19.555  33.646  16.913  1.00  0.00     0.112 C 
BRANCH   4   5
HETATM    5  C3  UNL     1      20.831  34.274  16.388  1.00  0.00    -0.005 C 
HETATM    6  C4  UNL     1      20.951  35.679  16.940  1.00  0.00     0.011 C 
BRANCH   5   7
HETATM    7  C2  UNL     1      21.986  33.432  16.908  1.00  0.00     0.001 C 
HETATM    8  C1  UNL     1      22.825  32.937  15.732  1.00  0.00     0.005 C 
ENDBRANCH   5   7
ENDBRANCH   4   5
ENDBRANCH   3   4
BRANCH   3   9
HETATM    9  S1  UNL     1      17.503  33.314  15.377  1.00  0.00     0.243 S 
HETATM   10  O6  UNL     1      17.663  33.989  14.041  1.00  0.00    -0.206 OA
HETATM   11  O7  UNL     1      16.543  32.149  15.135  1.00  0.00    -0.206 OA
BRANCH   9  12
HETATM   12  C23 UNL     1      16.768  34.425  16.536  1.00  0.00     0.074 A 
HETATM   13  C24 UNL     1      16.016  33.916  17.578  1.00  0.00     0.027 A 
HETATM   14  C25 UNL     1      15.480  34.839  18.483  1.00  0.00     0.038 A 
HETATM   15  C26 UNL     1      15.678  36.185  18.356  1.00  0.00     0.068 A 
HETATM   16  C28 UNL     1      16.433  36.680  17.306  1.00  0.00     0.038 A 
HETATM   17  C29 UNL     1      16.969  35.786  16.403  1.00  0.00     0.027 A 
BRANCH  15  18
HETATM   18  O8  UNL     1      15.103  37.025  19.307  1.00  0.00    -0.356 OA
HETATM   19  C27 UNL     1      15.660  38.283  19.640  1.00  0.00     0.210 C 
ENDBRANCH  15  18
ENDBRANCH   9  12
ENDBRANCH   3   9
ENDBRANCH   2   3
ENDBRANCH   1   2
BRANCH   1  20
HETATM   20  O1  UNL     1      19.880  29.465  17.194  1.00  0.00    -0.392 OA
ATOM     21  H1  UNL     1      19.930  28.670  16.678  1.00  0.00     0.210 HD
ENDBRANCH   1  20
BRANCH   1  22
HETATM   22  C8  UNL     1      19.811  29.839  14.876  1.00  0.00     0.120 C 
BRANCH  22  23
HETATM   23  C9  UNL     1      18.434  29.357  14.581  1.00  0.00     0.066 C 
BRANCH  23  24
HETATM   24  C10 UNL     1      18.246  28.565  13.380  1.00  0.00    -0.056 A 
HETATM   25  C11 UNL     1      17.921  27.229  13.444  1.00  0.00     0.007 A 
HETATM   26  C12 UNL     1      17.766  26.489  12.270  1.00  0.00     0.001 A 
HETATM   27  C13 UNL     1      17.930  27.060  11.033  1.00  0.00     0.000 A 
HETATM   28  C14 UNL     1      18.250  28.379  10.968  1.00  0.00     0.001 A 
HETATM   29  C15 UNL     1      18.404  29.115  12.128  1.00  0.00     0.007 A 
ENDBRANCH  23  24
ENDBRANCH  22  23
BRANCH  22  30
HETATM   30  N2  UNL     1      20.817  28.831  14.581  1.00  0.00    -0.329 N 
HETATM   31  C16 UNL     1      21.921  29.046  13.700  1.00  0.00     0.361 C 
HETATM   32  O2  UNL     1      21.999  30.200  13.159  1.00  0.00    -0.238 OA
ATOM     33  H2  UNL     1      20.728  27.918  15.027  1.00  0.00     0.165 HD
BRANCH  31  34
HETATM   34  O3  UNL     1      22.875  28.107  13.410  1.00  0.00    -0.296 OA
BRANCH  34  35
HETATM   35  C17 UNL     1      23.293  27.945  12.064  1.00  0.00     0.166 C 
HETATM   36  C18 UNL     1      24.544  27.151  11.937  1.00  0.00     0.204 C 
HETATM   37  O4  UNL     1      24.326  26.076  11.115  1.00  0.00    -0.358 OA
HETATM   38  C19 UNL     1      23.198  26.345  10.358  1.00  0.00     0.266 C 
HETATM   39  O5  UNL     1      22.439  25.235  10.084  1.00  0.00    -0.361 OA
HETATM   40  C22 UNL     1      22.307  27.217  11.207  1.00  0.00     0.075 C 
HETATM   41  C20 UNL     1      21.755  24.922  11.245  1.00  0.00     0.171 C 
HETATM   42  C21 UNL     1      21.451  26.226  11.941  1.00  0.00     0.038 C 
ENDBRANCH  34  35
ENDBRANCH  31  34
ENDBRANCH  22  30
ENDBRANCH   1  22
TORSDOF 15
ENDMDL
