MODEL 12
REMARK VINA RESULT: -8.303701939      2.081      8.600
REMARK  15 active torsions:
REMARK  status: ('A' for Active; 'I' for Inactive)
REMARK    1  A    between atoms: C2_2  and  C3_3 
REMARK    2  A    between atoms: C3_3  and  C5_5 
REMARK    3  A    between atoms: C5_5  and  N1_6 
REMARK    4  A    between atoms: N1_6  and  C6_7 
REMARK    5  A    between atoms: N1_6  and  S1_32 
REMARK    6  A    between atoms: C6_7  and  C7_8 
REMARK    7  A    between atoms: C7_8  and  O1_9 
REMARK    8  A    between atoms: C7_8  and  C8_11 
REMARK    9  A    between atoms: C8_11  and  C9_12 
REMARK   10  A    between atoms: C8_11  and  N2_19 
REMARK   11  A    between atoms: C9_12  and  C10_13 
REMARK       I    between atoms: N2_19  and  C16_21 
REMARK   12  A    between atoms: C16_21  and  O3_23 
REMARK   13  A    between atoms: O3_23  and  C17_24 
REMARK   14  A    between atoms: S1_32  and  C23_35 
REMARK   15  A    between atoms: C26_38  and  O8_39 
ROOT
HETATM    1  C7  UNL     1      19.426  31.243  12.898  1.00  0.00     0.155 C 
ENDROOT
BRANCH   1   2
HETATM    2  C6  UNL     1      20.231  31.110  14.212  1.00  0.00     0.141 C 
BRANCH   2   3
HETATM    3  N1  UNL     1      19.799  32.008  15.219  1.00  0.00    -0.204 NA
BRANCH   3   4
HETATM    4  C5  UNL     1      20.837  32.440  16.108  1.00  0.00     0.112 C 
BRANCH   4   5
HETATM    5  C3  UNL     1      21.644  33.591  15.543  1.00  0.00    -0.005 C 
HETATM    6  C4  UNL     1      21.269  34.862  16.276  1.00  0.00     0.011 C 
BRANCH   5   7
HETATM    7  C2  UNL     1      23.109  33.276  15.806  1.00  0.00     0.001 C 
HETATM    8  C1  UNL     1      23.735  32.681  14.546  1.00  0.00     0.005 C 
ENDBRANCH   5   7
ENDBRANCH   4   5
ENDBRANCH   3   4
BRANCH   3   9
HETATM    9  S1  UNL     1      18.495  31.346  16.108  1.00  0.00     0.243 S 
HETATM   10  O6  UNL     1      17.703  30.344  15.313  1.00  0.00    -0.206 OA
HETATM   11  O7  UNL     1      19.042  30.574  17.310  1.00  0.00    -0.206 OA
BRANCH   9  12
HETATM   12  C23 UNL     1      17.437  32.634  16.693  1.00  0.00     0.074 A 
HETATM   13  C24 UNL     1      17.960  33.623  17.504  1.00  0.00     0.027 A 
HETATM   14  C25 UNL     1      17.085  34.633  17.916  1.00  0.00     0.038 A 
HETATM   15  C26 UNL     1      15.769  34.656  17.546  1.00  0.00     0.068 A 
HETATM   16  C28 UNL     1      15.260  33.656  16.734  1.00  0.00     0.038 A 
HETATM   17  C29 UNL     1      16.107  32.651  16.318  1.00  0.00     0.027 A 
BRANCH  15  18
HETATM   18  O8  UNL     1      14.975  35.703  18.007  1.00  0.00    -0.356 OA
HETATM   19  C27 UNL     1      15.431  36.628  18.976  1.00  0.00     0.210 C 
ENDBRANCH  15  18
ENDBRANCH   9  12
ENDBRANCH   3   9
ENDBRANCH   2   3
ENDBRANCH   1   2
BRANCH   1  20
HETATM   20  O1  UNL     1      20.248  32.099  12.121  1.00  0.00    -0.392 OA
ATOM     21  H1  UNL     1      19.624  32.499  11.527  1.00  0.00     0.210 HD
ENDBRANCH   1  20
BRANCH   1  22
HETATM   22  C8  UNL     1      19.390  29.915  12.219  1.00  0.00     0.120 C 
BRANCH  22  23
HETATM   23  C9  UNL     1      18.063  29.243  12.150  1.00  0.00     0.066 C 
BRANCH  23  24
HETATM   24  C10 UNL     1      18.001  27.952  11.492  1.00  0.00    -0.056 A 
HETATM   25  C11 UNL     1      17.885  27.846  10.125  1.00  0.00     0.007 A 
HETATM   26  C12 UNL     1      17.807  26.588   9.523  1.00  0.00     0.001 A 
HETATM   27  C13 UNL     1      17.844  25.434  10.263  1.00  0.00     0.000 A 
HETATM   28  C14 UNL     1      17.960  25.536  11.614  1.00  0.00     0.001 A 
HETATM   29  C15 UNL     1      18.036  26.779  12.213  1.00  0.00     0.007 A 
ENDBRANCH  23  24
ENDBRANCH  22  23
BRANCH  22  30
HETATM   30  N2  UNL     1      20.430  29.018  12.697  1.00  0.00    -0.329 N 
HETATM   31  C16 UNL     1      21.747  28.965  12.145  1.00  0.00     0.361 C 
HETATM   32  O2  UNL     1      21.989  29.763  11.178  1.00  0.00    -0.238 OA
ATOM     33  H2  UNL     1      20.206  28.391  13.470  1.00  0.00     0.165 HD
BRANCH  31  34
HETATM   34  O3  UNL     1      22.736  28.125  12.583  1.00  0.00    -0.296 OA
BRANCH  34  35
HETATM   35  C17 UNL     1      23.593  27.517  11.629  1.00  0.00     0.166 C 
HETATM   36  C18 UNL     1      24.583  26.594  12.244  1.00  0.00     0.204 C 
HETATM   37  O4  UNL     1      24.463  25.350  11.682  1.00  0.00    -0.358 OA
HETATM   38  C19 UNL     1      23.806  25.494  10.472  1.00  0.00     0.266 C 
HETATM   39  O5  UNL     1      22.983  24.442  10.160  1.00  0.00    -0.361 OA
HETATM   40  C22 UNL     1      22.878  26.673  10.623  1.00  0.00     0.075 C 
HETATM   41  C20 UNL     1      21.853  24.571  10.947  1.00  0.00     0.171 C 
HETATM   42  C21 UNL     1      21.606  26.051  11.120  1.00  0.00     0.038 C 
ENDBRANCH  34  35
ENDBRANCH  31  34
ENDBRANCH  22  30
ENDBRANCH   1  22
TORSDOF 15
ENDMDL
