MODEL 10
REMARK VINA RESULT: -8.789583640      3.068      8.791
REMARK  14 active torsions:
REMARK  status: ('A' for Active; 'I' for Inactive)
REMARK    1  A    between atoms: C2_2  and  C3_3 
REMARK    2  A    between atoms: C3_3  and  C5_5 
REMARK    3  A    between atoms: C5_5  and  N1_6 
REMARK    4  A    between atoms: N1_6  and  C6_7 
REMARK    5  A    between atoms: N1_6  and  S1_32 
REMARK    6  A    between atoms: C6_7  and  C7_8 
REMARK    7  A    between atoms: C7_8  and  O1_9 
REMARK    8  A    between atoms: C7_8  and  C8_11 
REMARK    9  A    between atoms: C8_11  and  C9_12 
REMARK   10  A    between atoms: C8_11  and  N2_19 
REMARK   11  A    between atoms: C9_12  and  C10_13 
REMARK       I    between atoms: N2_19  and  C16_21 
REMARK   12  A    between atoms: C16_21  and  O3_23 
REMARK   13  A    between atoms: O3_23  and  C17_24 
REMARK   14  A    between atoms: S1_32  and  C23_35 
ROOT
HETATM    1  C7  UNL     1      19.415  31.070  12.750  1.00  0.00     0.155 C 
ENDROOT
BRANCH   1   2
HETATM    2  C6  UNL     1      19.835  30.963  14.184  1.00  0.00     0.141 C 
BRANCH   2   3
HETATM    3  N1  UNL     1      19.295  32.056  14.977  1.00  0.00    -0.204 NA
BRANCH   3   4
HETATM    4  C5  UNL     1      20.321  32.894  15.486  1.00  0.00     0.112 C 
BRANCH   4   5
HETATM    5  C3  UNL     1      21.673  32.270  15.520  1.00  0.00    -0.005 C 
HETATM    6  C4  UNL     1      22.688  32.840  14.581  1.00  0.00     0.011 C 
BRANCH   5   7
HETATM    7  C2  UNL     1      22.268  32.308  16.912  1.00  0.00     0.001 C 
HETATM    8  C1  UNL     1      22.010  33.613  17.601  1.00  0.00     0.005 C 
ENDBRANCH   5   7
ENDBRANCH   4   5
ENDBRANCH   3   4
BRANCH   3   9
HETATM    9  S1  UNL     1      18.116  31.521  16.074  1.00  0.00     0.243 S 
HETATM   10  O6  UNL     1      17.174  30.530  15.498  1.00  0.00    -0.206 OA
HETATM   11  O7  UNL     1      18.842  30.795  17.206  1.00  0.00    -0.206 OA
BRANCH   9  12
HETATM   12  C23 UNL     1      17.225  32.849  16.792  1.00  0.00     0.076 A 
HETATM   13  C24 UNL     1      15.851  32.884  16.884  1.00  0.00     0.027 A 
HETATM   14  C25 UNL     1      15.137  33.912  17.442  1.00  0.00     0.032 A 
HETATM   15  C26 UNL     1      15.823  35.022  17.967  1.00  0.00     0.049 A 
HETATM   16  N3  UNL     1      15.261  36.066  18.526  1.00  0.00    -0.359 N 
HETATM   17  C28 UNL     1      17.190  35.012  17.888  1.00  0.00     0.034 A 
HETATM   18  C27 UNL     1      16.009  37.046  18.982  1.00  0.00     0.139 A 
ATOM     19  H3  UNL     1      14.245  36.118  18.607  1.00  0.00     0.166 HD
HETATM   20  S2  UNL     1      17.587  36.505  18.623  1.00  0.00    -0.083 SA
HETATM   21  C29 UNL     1      17.890  33.941  17.309  1.00  0.00     0.046 A 
ENDBRANCH   9  12
ENDBRANCH   3   9
ENDBRANCH   2   3
ENDBRANCH   1   2
BRANCH   1  22
HETATM   22  O1  UNL     1      20.111  32.035  12.098  1.00  0.00    -0.392 OA
ATOM     23  H1  UNL     1      19.893  32.057  11.174  1.00  0.00     0.210 HD
ENDBRANCH   1  22
BRANCH   1  24
HETATM   24  C8  UNL     1      19.479  29.685  12.137  1.00  0.00     0.120 C 
BRANCH  24  25
HETATM   25  C9  UNL     1      18.153  28.990  12.318  1.00  0.00     0.066 C 
BRANCH  25  26
HETATM   26  C10 UNL     1      18.001  27.696  11.702  1.00  0.00    -0.056 A 
HETATM   27  C11 UNL     1      17.769  27.635  10.321  1.00  0.00     0.007 A 
HETATM   28  C12 UNL     1      17.604  26.442   9.673  1.00  0.00     0.001 A 
HETATM   29  C13 UNL     1      17.659  25.251  10.347  1.00  0.00     0.000 A 
HETATM   30  C14 UNL     1      17.885  25.282  11.703  1.00  0.00     0.001 A 
HETATM   31  C15 UNL     1      18.051  26.507  12.355  1.00  0.00     0.007 A 
ENDBRANCH  25  26
ENDBRANCH  24  25
BRANCH  24  32
HETATM   32  N2  UNL     1      20.559  28.909  12.679  1.00  0.00    -0.329 N 
HETATM   33  C16 UNL     1      21.817  28.904  12.045  1.00  0.00     0.361 C 
HETATM   34  O2  UNL     1      22.015  29.587  10.982  1.00  0.00    -0.238 OA
ATOM     35  H2  UNL     1      20.415  28.360  13.527  1.00  0.00     0.165 HD
BRANCH  33  36
HETATM   36  O3  UNL     1      22.893  28.159  12.541  1.00  0.00    -0.296 OA
BRANCH  36  37
HETATM   37  C17 UNL     1      23.695  27.454  11.635  1.00  0.00     0.166 C 
HETATM   38  C18 UNL     1      24.638  26.493  12.284  1.00  0.00     0.204 C 
HETATM   39  O4  UNL     1      24.428  25.240  11.737  1.00  0.00    -0.358 OA
HETATM   40  C19 UNL     1      23.757  25.382  10.555  1.00  0.00     0.266 C 
HETATM   41  O5  UNL     1      22.888  24.366  10.247  1.00  0.00    -0.361 OA
HETATM   42  C22 UNL     1      22.822  26.556  10.805  1.00  0.00     0.075 C 
HETATM   43  C20 UNL     1      21.730  24.502  10.968  1.00  0.00     0.171 C 
HETATM   44  C21 UNL     1      21.723  25.883  11.591  1.00  0.00     0.038 C 
ENDBRANCH  36  37
ENDBRANCH  33  36
ENDBRANCH  24  32
ENDBRANCH   1  24
TORSDOF 14
ENDMDL
