MODEL 6
REMARK VINA RESULT: -9.007574131      2.998      8.744
REMARK  14 active torsions:
REMARK  status: ('A' for Active; 'I' for Inactive)
REMARK    1  A    between atoms: C2_2  and  C3_3 
REMARK    2  A    between atoms: C3_3  and  C5_5 
REMARK    3  A    between atoms: C5_5  and  N1_6 
REMARK    4  A    between atoms: N1_6  and  C6_7 
REMARK    5  A    between atoms: N1_6  and  S1_32 
REMARK    6  A    between atoms: C6_7  and  C7_8 
REMARK    7  A    between atoms: C7_8  and  O1_9 
REMARK    8  A    between atoms: C7_8  and  C8_11 
REMARK    9  A    between atoms: C8_11  and  C9_12 
REMARK   10  A    between atoms: C8_11  and  N2_19 
REMARK   11  A    between atoms: C9_12  and  C10_13 
REMARK       I    between atoms: N2_19  and  C16_21 
REMARK   12  A    between atoms: C16_21  and  O3_23 
REMARK   13  A    between atoms: O3_23  and  C17_24 
REMARK   14  A    between atoms: S1_32  and  C23_35 
ROOT
HETATM    1  C7  UNL     1      19.777  30.374  16.330  1.00  0.00     0.155 C 
ENDROOT
BRANCH   1   2
HETATM    2  C6  UNL     1      18.596  31.267  16.561  1.00  0.00     0.141 C 
BRANCH   2   3
HETATM    3  N1  UNL     1      18.820  32.594  16.008  1.00  0.00    -0.204 NA
BRANCH   3   4
HETATM    4  C5  UNL     1      19.670  33.373  16.834  1.00  0.00     0.112 C 
BRANCH   4   5
HETATM    5  C3  UNL     1      20.729  34.123  16.104  1.00  0.00    -0.005 C 
HETATM    6  C4  UNL     1      21.816  34.716  16.942  1.00  0.00     0.011 C 
BRANCH   5   7
HETATM    7  C2  UNL     1      21.389  33.265  15.045  1.00  0.00     0.001 C 
HETATM    8  C1  UNL     1      22.677  32.668  15.523  1.00  0.00     0.005 C 
ENDBRANCH   5   7
ENDBRANCH   4   5
ENDBRANCH   3   4
BRANCH   3   9
HETATM    9  S1  UNL     1      17.375  33.314  15.486  1.00  0.00     0.243 S 
HETATM   10  O6  UNL     1      17.455  33.888  14.119  1.00  0.00    -0.206 OA
HETATM   11  O7  UNL     1      16.317  32.213  15.413  1.00  0.00    -0.206 OA
BRANCH   9  12
HETATM   12  C23 UNL     1      16.792  34.526  16.610  1.00  0.00     0.076 A 
HETATM   13  C24 UNL     1      16.031  34.234  17.720  1.00  0.00     0.027 A 
HETATM   14  C25 UNL     1      15.568  35.167  18.611  1.00  0.00     0.032 A 
HETATM   15  C26 UNL     1      15.874  36.526  18.407  1.00  0.00     0.049 A 
HETATM   16  N3  UNL     1      15.494  37.513  19.181  1.00  0.00    -0.359 N 
HETATM   17  C28 UNL     1      16.630  36.843  17.311  1.00  0.00     0.034 A 
HETATM   18  C27 UNL     1      15.842  38.745  18.888  1.00  0.00     0.139 A 
ATOM     19  H3  UNL     1      14.929  37.325  20.010  1.00  0.00     0.166 HD
HETATM   20  S2  UNL     1      16.750  38.542  17.457  1.00  0.00    -0.083 SA
HETATM   21  C29 UNL     1      17.088  35.860  16.417  1.00  0.00     0.046 A 
ENDBRANCH   9  12
ENDBRANCH   3   9
ENDBRANCH   2   3
ENDBRANCH   1   2
BRANCH   1  22
HETATM   22  O1  UNL     1      19.857  29.401  17.272  1.00  0.00    -0.392 OA
ATOM     23  H1  UNL     1      19.060  28.884  17.307  1.00  0.00     0.210 HD
ENDBRANCH   1  22
BRANCH   1  24
HETATM   24  C8  UNL     1      19.729  29.895  14.892  1.00  0.00     0.120 C 
BRANCH  24  25
HETATM   25  C9  UNL     1      18.322  29.474  14.547  1.00  0.00     0.066 C 
BRANCH  25  26
HETATM   26  C10 UNL     1      18.161  28.585  13.424  1.00  0.00    -0.056 A 
HETATM   27  C11 UNL     1      18.224  29.121  12.130  1.00  0.00     0.007 A 
HETATM   28  C12 UNL     1      18.068  28.338  11.020  1.00  0.00     0.001 A 
HETATM   29  C13 UNL     1      17.844  26.991  11.124  1.00  0.00     0.000 A 
HETATM   30  C14 UNL     1      17.778  26.439  12.381  1.00  0.00     0.001 A 
HETATM   31  C15 UNL     1      17.937  27.248  13.509  1.00  0.00     0.007 A 
ENDBRANCH  25  26
ENDBRANCH  24  25
BRANCH  24  32
HETATM   32  N2  UNL     1      20.670  28.838  14.648  1.00  0.00    -0.329 N 
HETATM   33  C16 UNL     1      21.695  29.007  13.696  1.00  0.00     0.361 C 
HETATM   34  O2  UNL     1      21.802  30.100  13.040  1.00  0.00    -0.238 OA
ATOM     35  H2  UNL     1      20.596  27.962  15.166  1.00  0.00     0.165 HD
BRANCH  33  36
HETATM   36  O3  UNL     1      22.630  28.001  13.429  1.00  0.00    -0.296 OA
BRANCH  36  37
HETATM   37  C17 UNL     1      23.162  27.907  12.136  1.00  0.00     0.166 C 
HETATM   38  C18 UNL     1      24.435  27.126  12.063  1.00  0.00     0.204 C 
HETATM   39  O4  UNL     1      24.272  26.115  11.133  1.00  0.00    -0.358 OA
HETATM   40  C19 UNL     1      23.204  26.417  10.336  1.00  0.00     0.266 C 
HETATM   41  O5  UNL     1      22.483  25.339   9.887  1.00  0.00    -0.361 OA
HETATM   42  C22 UNL     1      22.226  27.101  11.280  1.00  0.00     0.075 C 
HETATM   43  C20 UNL     1      21.663  24.875  10.881  1.00  0.00     0.171 C 
HETATM   44  C21 UNL     1      21.631  25.908  11.987  1.00  0.00     0.038 C 
ENDBRANCH  36  37
ENDBRANCH  33  36
ENDBRANCH  24  32
ENDBRANCH   1  24
TORSDOF 14
ENDMDL
