MODEL 3
REMARK VINA RESULT: -9.090071650      3.547      9.154
REMARK  14 active torsions:
REMARK  status: ('A' for Active; 'I' for Inactive)
REMARK    1  A    between atoms: C2_2  and  C3_3 
REMARK    2  A    between atoms: C3_3  and  C5_5 
REMARK    3  A    between atoms: C5_5  and  N1_6 
REMARK    4  A    between atoms: N1_6  and  C6_7 
REMARK    5  A    between atoms: N1_6  and  S1_32 
REMARK    6  A    between atoms: C6_7  and  C7_8 
REMARK    7  A    between atoms: C7_8  and  O1_9 
REMARK    8  A    between atoms: C7_8  and  C8_11 
REMARK    9  A    between atoms: C8_11  and  C9_12 
REMARK   10  A    between atoms: C8_11  and  N2_19 
REMARK   11  A    between atoms: C9_12  and  C10_13 
REMARK       I    between atoms: N2_19  and  C16_21 
REMARK   12  A    between atoms: C16_21  and  O3_23 
REMARK   13  A    between atoms: O3_23  and  C17_24 
REMARK   14  A    between atoms: S1_32  and  C23_35 
ROOT
HETATM    1  C7  UNL     1      20.588  28.716  14.760  1.00  0.00     0.155 C 
ENDROOT
BRANCH   1   2
HETATM    2  C6  UNL     1      19.426  29.569  15.170  1.00  0.00     0.141 C 
BRANCH   2   3
HETATM    3  N1  UNL     1      19.734  30.984  15.031  1.00  0.00    -0.204 NA
BRANCH   3   4
HETATM    4  C5  UNL     1      20.175  31.550  16.255  1.00  0.00     0.112 C 
BRANCH   4   5
HETATM    5  C3  UNL     1      21.410  32.376  16.148  1.00  0.00    -0.005 C 
HETATM    6  C4  UNL     1      22.308  32.380  17.344  1.00  0.00     0.011 C 
BRANCH   5   7
HETATM    7  C2  UNL     1      22.246  31.975  14.951  1.00  0.00     0.001 C 
HETATM    8  C1  UNL     1      23.540  32.727  14.890  1.00  0.00     0.005 C 
ENDBRANCH   5   7
ENDBRANCH   4   5
ENDBRANCH   3   4
BRANCH   3   9
HETATM    9  S1  UNL     1      18.521  31.816  14.185  1.00  0.00     0.243 S 
HETATM   10  O6  UNL     1      19.046  32.810  13.216  1.00  0.00    -0.206 OA
HETATM   11  O7  UNL     1      17.758  30.786  13.352  1.00  0.00    -0.206 OA
BRANCH   9  12
HETATM   12  C23 UNL     1      17.366  32.580  15.260  1.00  0.00     0.076 A 
HETATM   13  C24 UNL     1      16.309  31.915  15.841  1.00  0.00     0.027 A 
HETATM   14  C25 UNL     1      15.397  32.495  16.685  1.00  0.00     0.032 A 
HETATM   15  C26 UNL     1      15.521  33.861  16.999  1.00  0.00     0.049 A 
HETATM   16  N3  UNL     1      14.719  34.532  17.789  1.00  0.00    -0.359 N 
HETATM   17  C28 UNL     1      16.563  34.545  16.434  1.00  0.00     0.034 A 
HETATM   18  C27 UNL     1      14.936  35.809  18.009  1.00  0.00     0.139 A 
ATOM     19  H3  UNL     1      13.928  34.064  18.233  1.00  0.00     0.166 HD
HETATM   20  S2  UNL     1      16.330  36.114  17.073  1.00  0.00    -0.083 SA
HETATM   21  C29 UNL     1      17.480  33.918  15.573  1.00  0.00     0.046 A 
ENDBRANCH   9  12
ENDBRANCH   3   9
ENDBRANCH   2   3
ENDBRANCH   1   2
BRANCH   1  22
HETATM   22  O1  UNL     1      20.885  27.791  15.708  1.00  0.00    -0.392 OA
ATOM     23  H1  UNL     1      20.729  26.908  15.393  1.00  0.00     0.210 HD
ENDBRANCH   1  22
BRANCH   1  24
HETATM   24  C8  UNL     1      20.303  28.170  13.375  1.00  0.00     0.120 C 
BRANCH  24  25
HETATM   25  C9  UNL     1      18.875  27.689  13.305  1.00  0.00     0.066 C 
BRANCH  25  26
HETATM   26  C10 UNL     1      18.431  27.134  12.051  1.00  0.00    -0.056 A 
HETATM   27  C11 UNL     1      18.350  27.978  10.936  1.00  0.00     0.007 A 
HETATM   28  C12 UNL     1      17.927  27.521   9.718  1.00  0.00     0.001 A 
HETATM   29  C13 UNL     1      17.562  26.213   9.535  1.00  0.00     0.000 A 
HETATM   30  C14 UNL     1      17.632  25.363  10.614  1.00  0.00     0.001 A 
HETATM   31  C15 UNL     1      18.066  25.841  11.853  1.00  0.00     0.007 A 
ENDBRANCH  25  26
ENDBRANCH  24  25
BRANCH  24  32
HETATM   32  N2  UNL     1      21.227  27.134  13.008  1.00  0.00    -0.329 N 
HETATM   33  C16 UNL     1      22.070  27.299  11.891  1.00  0.00     0.361 C 
HETATM   34  O2  UNL     1      22.026  28.369  11.192  1.00  0.00    -0.238 OA
ATOM     35  H2  UNL     1      21.273  26.275  13.557  1.00  0.00     0.165 HD
BRANCH  33  36
HETATM   36  O3  UNL     1      22.982  26.311  11.500  1.00  0.00    -0.296 OA
BRANCH  36  37
HETATM   37  C17 UNL     1      22.487  25.121  10.952  1.00  0.00     0.166 C 
HETATM   38  C18 UNL     1      21.231  25.297  10.161  1.00  0.00     0.204 C 
HETATM   39  O4  UNL     1      21.436  24.777   8.896  1.00  0.00    -0.358 OA
HETATM   40  C19 UNL     1      22.520  23.945   8.933  1.00  0.00     0.266 C 
HETATM   41  O5  UNL     1      23.272  23.910   7.785  1.00  0.00    -0.361 OA
HETATM   42  C22 UNL     1      23.460  24.614   9.926  1.00  0.00     0.075 C 
HETATM   43  C20 UNL     1      24.074  25.019   7.713  1.00  0.00     0.171 C 
HETATM   44  C21 UNL     1      24.057  25.701   9.066  1.00  0.00     0.038 C 
ENDBRANCH  36  37
ENDBRANCH  33  36
ENDBRANCH  24  32
ENDBRANCH   1  24
TORSDOF 14
ENDMDL
