MODEL 2
REMARK VINA RESULT: -9.114851439      2.970      8.169
REMARK  14 active torsions:
REMARK  status: ('A' for Active; 'I' for Inactive)
REMARK    1  A    between atoms: C2_2  and  C3_3 
REMARK    2  A    between atoms: C3_3  and  C5_5 
REMARK    3  A    between atoms: C5_5  and  N1_6 
REMARK    4  A    between atoms: N1_6  and  C6_7 
REMARK    5  A    between atoms: N1_6  and  S1_32 
REMARK    6  A    between atoms: C6_7  and  C7_8 
REMARK    7  A    between atoms: C7_8  and  O1_9 
REMARK    8  A    between atoms: C7_8  and  C8_11 
REMARK    9  A    between atoms: C8_11  and  C9_12 
REMARK   10  A    between atoms: C8_11  and  N2_19 
REMARK   11  A    between atoms: C9_12  and  C10_13 
REMARK       I    between atoms: N2_19  and  C16_21 
REMARK   12  A    between atoms: C16_21  and  O3_23 
REMARK   13  A    between atoms: O3_23  and  C17_24 
REMARK   14  A    between atoms: S1_32  and  C23_35 
ROOT
HETATM    1  C7  UNL     1      19.696  29.708  16.330  1.00  0.00     0.155 C 
ENDROOT
BRANCH   1   2
HETATM    2  C6  UNL     1      20.820  30.666  16.077  1.00  0.00     0.141 C 
BRANCH   2   3
HETATM    3  N1  UNL     1      21.103  30.786  14.655  1.00  0.00    -0.204 NA
BRANCH   3   4
HETATM    4  C5  UNL     1      22.048  29.821  14.222  1.00  0.00     0.112 C 
BRANCH   4   5
HETATM    5  C3  UNL     1      21.628  29.032  13.030  1.00  0.00    -0.005 C 
HETATM    6  C4  UNL     1      21.434  29.802  11.763  1.00  0.00     0.011 C 
BRANCH   5   7
HETATM    7  C2  UNL     1      22.601  27.909  12.735  1.00  0.00     0.001 C 
HETATM    8  C1  UNL     1      22.816  27.720  11.265  1.00  0.00     0.005 C 
ENDBRANCH   5   7
ENDBRANCH   4   5
ENDBRANCH   3   4
BRANCH   3   9
HETATM    9  S1  UNL     1      21.376  32.397  14.197  1.00  0.00     0.243 S 
HETATM   10  O6  UNL     1      22.631  32.594  13.430  1.00  0.00    -0.206 OA
HETATM   11  O7  UNL     1      20.244  32.802  13.253  1.00  0.00    -0.206 OA
BRANCH   9  12
HETATM   12  C23 UNL     1      21.333  33.492  15.565  1.00  0.00     0.076 A 
HETATM   13  C24 UNL     1      22.460  33.977  16.191  1.00  0.00     0.027 A 
HETATM   14  C25 UNL     1      22.446  34.835  17.260  1.00  0.00     0.032 A 
HETATM   15  C26 UNL     1      21.212  35.270  17.778  1.00  0.00     0.049 A 
HETATM   16  N3  UNL     1      21.062  36.086  18.792  1.00  0.00    -0.359 N 
HETATM   17  C28 UNL     1      20.076  34.803  17.174  1.00  0.00     0.034 A 
HETATM   18  C27 UNL     1      19.855  36.423  19.187  1.00  0.00     0.139 A 
ATOM     19  H3  UNL     1      21.880  36.460  19.274  1.00  0.00     0.166 HD
HETATM   20  S2  UNL     1      18.857  35.566  18.100  1.00  0.00    -0.083 SA
HETATM   21  C29 UNL     1      20.127  33.924  16.079  1.00  0.00     0.046 A 
ENDBRANCH   9  12
ENDBRANCH   3   9
ENDBRANCH   2   3
ENDBRANCH   1   2
BRANCH   1  22
HETATM   22  O1  UNL     1      19.335  29.699  17.638  1.00  0.00    -0.392 OA
ATOM     23  H1  UNL     1      20.090  29.601  18.207  1.00  0.00     0.210 HD
ENDBRANCH   1  22
BRANCH   1  24
HETATM   24  C8  UNL     1      18.587  30.015  15.344  1.00  0.00     0.120 C 
BRANCH  24  25
HETATM   25  C9  UNL     1      17.404  30.598  16.079  1.00  0.00     0.066 C 
BRANCH  25  26
HETATM   26  C10 UNL     1      17.040  31.955  15.762  1.00  0.00    -0.056 A 
HETATM   27  C11 UNL     1      16.250  32.667  16.676  1.00  0.00     0.007 A 
HETATM   28  C12 UNL     1      15.858  33.955  16.435  1.00  0.00     0.001 A 
HETATM   29  C13 UNL     1      16.222  34.608  15.287  1.00  0.00     0.000 A 
HETATM   30  C14 UNL     1      16.997  33.933  14.374  1.00  0.00     0.001 A 
HETATM   31  C15 UNL     1      17.391  32.618  14.630  1.00  0.00     0.007 A 
ENDBRANCH  25  26
ENDBRANCH  24  25
BRANCH  24  32
HETATM   32  N2  UNL     1      18.214  28.858  14.580  1.00  0.00    -0.329 N 
HETATM   33  C16 UNL     1      17.982  28.968  13.194  1.00  0.00     0.361 C 
HETATM   34  O2  UNL     1      18.099  30.094  12.600  1.00  0.00    -0.238 OA
ATOM     35  H2  UNL     1      18.117  27.954  15.042  1.00  0.00     0.165 HD
BRANCH  33  36
HETATM   36  O3  UNL     1      17.615  27.864  12.416  1.00  0.00    -0.296 OA
BRANCH  36  37
HETATM   37  C17 UNL     1      18.588  26.901  12.119  1.00  0.00     0.166 C 
HETATM   38  C18 UNL     1      18.058  25.505  12.060  1.00  0.00     0.204 C 
HETATM   39  O4  UNL     1      18.392  24.964  10.831  1.00  0.00    -0.358 OA
HETATM   40  C19 UNL     1      19.402  25.704  10.284  1.00  0.00     0.266 C 
HETATM   41  O5  UNL     1      19.386  25.799   8.916  1.00  0.00    -0.361 OA
HETATM   42  C22 UNL     1      19.090  27.128  10.721  1.00  0.00     0.075 C 
HETATM   43  C20 UNL     1      18.446  26.714   8.519  1.00  0.00     0.171 C 
HETATM   44  C21 UNL     1      18.004  27.495   9.739  1.00  0.00     0.038 C 
ENDBRANCH  36  37
ENDBRANCH  33  36
ENDBRANCH  24  32
ENDBRANCH   1  24
TORSDOF 14
ENDMDL
