MODEL 1
REMARK VINA RESULT: -9.317701590      0.000      0.000
REMARK  14 active torsions:
REMARK  status: ('A' for Active; 'I' for Inactive)
REMARK    1  A    between atoms: C2_2  and  C3_3 
REMARK    2  A    between atoms: C3_3  and  C5_5 
REMARK    3  A    between atoms: C5_5  and  N1_6 
REMARK    4  A    between atoms: N1_6  and  C6_7 
REMARK    5  A    between atoms: N1_6  and  S1_32 
REMARK    6  A    between atoms: C6_7  and  C7_8 
REMARK    7  A    between atoms: C7_8  and  O1_9 
REMARK    8  A    between atoms: C7_8  and  C8_11 
REMARK    9  A    between atoms: C8_11  and  C9_12 
REMARK   10  A    between atoms: C8_11  and  N2_19 
REMARK   11  A    between atoms: C9_12  and  C10_13 
REMARK       I    between atoms: N2_19  and  C16_21 
REMARK   12  A    between atoms: C16_21  and  O3_23 
REMARK   13  A    between atoms: O3_23  and  C17_24 
REMARK   14  A    between atoms: S1_32  and  C23_35 
ROOT
HETATM    1  C7  UNL     1      19.150  31.069  16.143  1.00  0.00     0.155 C 
ENDROOT
BRANCH   1   2
HETATM    2  C6  UNL     1      19.962  32.301  16.406  1.00  0.00     0.141 C 
BRANCH   2   3
HETATM    3  N1  UNL     1      21.387  32.013  16.373  1.00  0.00    -0.204 NA
BRANCH   3   4
HETATM    4  C5  UNL     1      22.111  32.827  17.281  1.00  0.00     0.112 C 
BRANCH   4   5
HETATM    5  C3  UNL     1      21.490  34.153  17.556  1.00  0.00    -0.005 C 
HETATM    6  C4  UNL     1      21.624  34.669  18.954  1.00  0.00     0.011 C 
BRANCH   5   7
HETATM    7  C2  UNL     1      22.021  35.221  16.624  1.00  0.00     0.001 C 
HETATM    8  C1  UNL     1      21.999  36.581  17.252  1.00  0.00     0.005 C 
ENDBRANCH   5   7
ENDBRANCH   4   5
ENDBRANCH   3   4
BRANCH   3   9
HETATM    9  S1  UNL     1      21.976  31.911  14.785  1.00  0.00     0.243 S 
HETATM   10  O6  UNL     1      21.351  32.884  13.855  1.00  0.00    -0.206 OA
HETATM   11  O7  UNL     1      23.462  32.270  14.825  1.00  0.00    -0.206 OA
BRANCH   9  12
HETATM   12  C23 UNL     1      21.848  30.290  14.131  1.00  0.00     0.076 A 
HETATM   13  C24 UNL     1      21.389  29.210  14.852  1.00  0.00     0.027 A 
HETATM   14  C25 UNL     1      21.279  27.937  14.358  1.00  0.00     0.032 A 
HETATM   15  C26 UNL     1      21.653  27.680  13.025  1.00  0.00     0.049 A 
HETATM   16  N3  UNL     1      21.597  26.512  12.434  1.00  0.00    -0.359 N 
HETATM   17  C28 UNL     1      22.113  28.737  12.287  1.00  0.00     0.034 A 
HETATM   18  C27 UNL     1      21.975  26.395  11.181  1.00  0.00     0.139 A 
ATOM     19  H3  UNL     1      21.261  25.695  12.945  1.00  0.00     0.166 HD
HETATM   20  S2  UNL     1      22.438  27.988  10.783  1.00  0.00    -0.083 SA
HETATM   21  C29 UNL     1      22.212  30.030  12.826  1.00  0.00     0.046 A 
ENDBRANCH   9  12
ENDBRANCH   3   9
ENDBRANCH   2   3
ENDBRANCH   1   2
BRANCH   1  22
HETATM   22  O1  UNL     1      18.843  30.420  17.294  1.00  0.00    -0.392 OA
ATOM     23  H1  UNL     1      18.001  30.697  17.636  1.00  0.00     0.210 HD
ENDBRANCH   1  22
BRANCH   1  24
HETATM   24  C8  UNL     1      17.972  31.461  15.274  1.00  0.00     0.120 C 
BRANCH  24  25
HETATM   25  C9  UNL     1      18.287  31.162  13.829  1.00  0.00     0.066 C 
BRANCH  25  26
HETATM   26  C10 UNL     1      18.167  29.791  13.402  1.00  0.00    -0.056 A 
HETATM   27  C11 UNL     1      18.459  29.478  12.067  1.00  0.00     0.007 A 
HETATM   28  C12 UNL     1      18.356  28.200  11.590  1.00  0.00     0.001 A 
HETATM   29  C13 UNL     1      17.962  27.167  12.400  1.00  0.00     0.000 A 
HETATM   30  C14 UNL     1      17.669  27.447  13.714  1.00  0.00     0.001 A 
HETATM   31  C15 UNL     1      17.778  28.756  14.190  1.00  0.00     0.007 A 
ENDBRANCH  25  26
ENDBRANCH  24  25
BRANCH  24  32
HETATM   32  N2  UNL     1      17.603  32.836  15.459  1.00  0.00    -0.329 N 
HETATM   33  C16 UNL     1      16.245  33.199  15.564  1.00  0.00     0.361 C 
HETATM   34  O2  UNL     1      15.326  32.312  15.498  1.00  0.00    -0.238 OA
ATOM     35  H2  UNL     1      18.326  33.553  15.515  1.00  0.00     0.165 HD
BRANCH  33  36
HETATM   36  O3  UNL     1      15.846  34.528  15.744  1.00  0.00    -0.296 OA
BRANCH  36  37
HETATM   37  C17 UNL     1      15.173  34.873  16.923  1.00  0.00     0.166 C 
HETATM   38  C18 UNL     1      15.575  34.056  18.108  1.00  0.00     0.204 C 
HETATM   39  O4  UNL     1      15.979  34.918  19.113  1.00  0.00    -0.358 OA
HETATM   40  C19 UNL     1      15.498  36.168  18.841  1.00  0.00     0.266 C 
HETATM   41  O5  UNL     1      16.297  37.206  19.248  1.00  0.00    -0.361 OA
HETATM   42  C22 UNL     1      15.572  36.265  17.324  1.00  0.00     0.075 C 
HETATM   43  C20 UNL     1      17.338  37.370  18.371  1.00  0.00     0.171 C 
HETATM   44  C21 UNL     1      17.039  36.556  17.128  1.00  0.00     0.038 C 
ENDBRANCH  36  37
ENDBRANCH  33  36
ENDBRANCH  24  32
ENDBRANCH   1  24
TORSDOF 14
ENDMDL
