MODEL 4
REMARK VINA RESULT: -9.070875905      2.965      9.600
REMARK  14 active torsions:
REMARK  status: ('A' for Active; 'I' for Inactive)
REMARK    1  A    between atoms: C2_2  and  C3_3 
REMARK    2  A    between atoms: C3_3  and  C5_5 
REMARK    3  A    between atoms: C5_5  and  N1_6 
REMARK    4  A    between atoms: N1_6  and  C6_7 
REMARK    5  A    between atoms: N1_6  and  S1_32 
REMARK    6  A    between atoms: C6_7  and  C7_8 
REMARK    7  A    between atoms: C7_8  and  O1_9 
REMARK    8  A    between atoms: C7_8  and  C8_11 
REMARK    9  A    between atoms: C8_11  and  C9_12 
REMARK   10  A    between atoms: C8_11  and  N2_19 
REMARK   11  A    between atoms: C9_12  and  C10_13 
REMARK       I    between atoms: N2_19  and  C16_21 
REMARK   12  A    between atoms: C16_21  and  O3_23 
REMARK   13  A    between atoms: O3_23  and  C17_24 
REMARK   14  A    between atoms: S1_32  and  C23_35 
ROOT
HETATM    1  C7  UNL     1      20.133  31.147  12.731  1.00  0.00     0.155 C 
ENDROOT
BRANCH   1   2
HETATM    2  C6  UNL     1      19.055  31.687  13.621  1.00  0.00     0.141 C 
BRANCH   2   3
HETATM    3  N1  UNL     1      18.317  30.615  14.269  1.00  0.00    -0.204 NA
BRANCH   3   4
HETATM    4  C5  UNL     1      17.289  30.104  13.436  1.00  0.00     0.112 C 
BRANCH   4   5
HETATM    5  C3  UNL     1      17.675  28.908  12.636  1.00  0.00    -0.005 C 
HETATM    6  C4  UNL     1      17.613  27.592  13.342  1.00  0.00     0.011 C 
BRANCH   5   7
HETATM    7  C2  UNL     1      16.841  28.789  11.377  1.00  0.00     0.001 C 
HETATM    8  C1  UNL     1      17.542  28.005  10.309  1.00  0.00     0.005 C 
ENDBRANCH   5   7
ENDBRANCH   4   5
ENDBRANCH   3   4
BRANCH   3   9
HETATM    9  S1  UNL     1      17.896  31.011  15.865  1.00  0.00     0.243 S 
HETATM   10  O6  UNL     1      16.770  30.206  16.401  1.00  0.00    -0.206 OA
HETATM   11  O7  UNL     1      19.099  30.683  16.749  1.00  0.00    -0.206 OA
BRANCH   9  12
HETATM   12  C23 UNL     1      17.555  32.719  16.057  1.00  0.00     0.076 A 
HETATM   13  C24 UNL     1      16.603  33.395  15.326  1.00  0.00     0.027 A 
HETATM   14  C25 UNL     1      16.321  34.729  15.464  1.00  0.00     0.032 A 
HETATM   15  C26 UNL     1      17.035  35.490  16.408  1.00  0.00     0.049 A 
HETATM   16  N3  UNL     1      16.863  36.769  16.637  1.00  0.00    -0.359 N 
HETATM   17  C28 UNL     1      17.987  34.842  17.148  1.00  0.00     0.034 A 
HETATM   18  C27 UNL     1      17.592  37.375  17.547  1.00  0.00     0.139 A 
ATOM     19  H3  UNL     1      16.164  37.294  16.110  1.00  0.00     0.166 HD
HETATM   20  S2  UNL     1      18.580  36.111  18.130  1.00  0.00    -0.083 SA
HETATM   21  C29 UNL     1      18.250  33.473  16.981  1.00  0.00     0.046 A 
ENDBRANCH   9  12
ENDBRANCH   3   9
ENDBRANCH   2   3
ENDBRANCH   1   2
BRANCH   1  22
HETATM   22  O1  UNL     1      20.387  31.982  11.693  1.00  0.00    -0.392 OA
ATOM     23  H1  UNL     1      20.402  31.516  10.865  1.00  0.00     0.210 HD
ENDBRANCH   1  22
BRANCH   1  24
HETATM   24  C8  UNL     1      21.325  30.794  13.598  1.00  0.00     0.120 C 
BRANCH  24  25
HETATM   25  C9  UNL     1      22.174  32.023  13.814  1.00  0.00     0.066 C 
BRANCH  25  26
HETATM   26  C10 UNL     1      22.134  32.626  15.121  1.00  0.00    -0.056 A 
HETATM   27  C11 UNL     1      21.783  33.979  15.225  1.00  0.00     0.007 A 
HETATM   28  C12 UNL     1      21.736  34.619  16.433  1.00  0.00     0.001 A 
HETATM   29  C13 UNL     1      22.030  33.962  17.599  1.00  0.00     0.000 A 
HETATM   30  C14 UNL     1      22.378  32.634  17.526  1.00  0.00     0.001 A 
HETATM   31  C15 UNL     1      22.423  31.991  16.287  1.00  0.00     0.007 A 
ENDBRANCH  25  26
ENDBRANCH  24  25
BRANCH  24  32
HETATM   32  N2  UNL     1      22.091  29.715  13.042  1.00  0.00    -0.329 N 
HETATM   33  C16 UNL     1      21.850  28.388  13.451  1.00  0.00     0.361 C 
HETATM   34  O2  UNL     1      20.948  28.127  14.320  1.00  0.00    -0.238 OA
ATOM     35  H2  UNL     1      22.813  29.909  12.347  1.00  0.00     0.165 HD
BRANCH  33  36
HETATM   36  O3  UNL     1      22.577  27.310  12.934  1.00  0.00    -0.296 OA
BRANCH  36  37
HETATM   37  C17 UNL     1      23.460  27.546  11.872  1.00  0.00     0.166 C 
HETATM   38  C18 UNL     1      24.841  27.025  12.109  1.00  0.00     0.204 C 
HETATM   39  O4  UNL     1      25.175  26.186  11.061  1.00  0.00    -0.358 OA
HETATM   40  C19 UNL     1      24.337  26.437  10.011  1.00  0.00     0.266 C 
HETATM   41  O5  UNL     1      24.029  25.349   9.233  1.00  0.00    -0.361 OA
HETATM   42  C22 UNL     1      23.006  26.758  10.676  1.00  0.00     0.075 C 
HETATM   43  C20 UNL     1      23.085  24.577   9.857  1.00  0.00     0.171 C 
HETATM   44  C21 UNL     1      22.514  25.372  11.012  1.00  0.00     0.038 C 
ENDBRANCH  36  37
ENDBRANCH  33  36
ENDBRANCH  24  32
ENDBRANCH   1  24
TORSDOF 14
ENDMDL
