MODEL 7
REMARK VINA RESULT: -8.617495670      1.478      4.686
REMARK  15 active torsions:
REMARK  status: ('A' for Active; 'I' for Inactive)
REMARK    1  A    between atoms: C2_2  and  C3_3 
REMARK    2  A    between atoms: C3_3  and  C4_4 
REMARK    3  A    between atoms: C3_3  and  C6_6 
REMARK    4  A    between atoms: C6_6  and  N1_7 
REMARK    5  A    between atoms: N1_7  and  C7_8 
REMARK    6  A    between atoms: N1_7  and  S1_33 
REMARK    7  A    between atoms: C7_8  and  C8_9 
REMARK    8  A    between atoms: C8_9  and  O1_10 
REMARK    9  A    between atoms: C8_9  and  C9_12 
REMARK   10  A    between atoms: C9_12  and  C10_13 
REMARK   11  A    between atoms: C9_12  and  N2_20 
REMARK   12  A    between atoms: C10_13  and  C11_14 
REMARK       I    between atoms: N2_20  and  C17_22 
REMARK   13  A    between atoms: C17_22  and  O3_24 
REMARK   14  A    between atoms: O3_24  and  C18_25 
REMARK   15  A    between atoms: S1_33  and  C24_36 
ROOT
HETATM    1  C8  UNL     1      19.868  30.173  15.938  1.00  0.00     0.160 C 
ENDROOT
BRANCH   1   2
HETATM    2  C7  UNL     1      20.311  31.482  16.534  1.00  0.00     0.174 C 
BRANCH   2   3
HETATM    3  N1  UNL     1      21.330  32.158  15.774  1.00  0.00    -0.283 N 
BRANCH   3   4
HETATM    4  C6  UNL     1      21.202  32.187  14.392  1.00  0.00     0.081 C 
BRANCH   4   5
HETATM    5  C3  UNL     1      22.078  31.399  13.517  1.00  0.00     0.024 C 
BRANCH   5   6
HETATM    6  C2  UNL     1      22.788  30.218  14.102  1.00  0.00     0.005 C 
HETATM    7  C1  UNL     1      22.257  28.918  13.565  1.00  0.00     0.006 C 
ENDBRANCH   5   6
BRANCH   5   8
HETATM    8  C4  UNL     1      21.288  30.884  12.304  1.00  0.00     0.005 C 
HETATM    9  C5  UNL     1      19.993  31.614  12.130  1.00  0.00     0.006 C 
ENDBRANCH   5   8
ENDBRANCH   4   5
ENDBRANCH   3   4
BRANCH   3  10
HETATM   10  S1  UNL     1      22.170  33.329  16.614  1.00  0.00     0.264 S 
HETATM   11  O6  UNL     1      23.403  33.691  15.773  1.00  0.00    -0.200 OA
HETATM   12  O7  UNL     1      22.792  32.656  17.846  1.00  0.00    -0.200 OA
BRANCH  10  13
HETATM   13  C24 UNL     1      21.369  34.778  17.060  1.00  0.00     0.080 A 
HETATM   14  C25 UNL     1      19.995  34.845  17.315  1.00  0.00     0.027 A 
HETATM   15  C26 UNL     1      19.380  36.026  17.664  1.00  0.00     0.028 A 
HETATM   16  C27 UNL     1      20.094  37.199  17.779  1.00  0.00     0.046 A 
HETATM   17  N3  UNL     1      19.434  38.409  18.142  1.00  0.00    -0.102 NA
HETATM   18  C28 UNL     1      21.449  37.149  17.531  1.00  0.00     0.028 A 
HETATM   19  C29 UNL     1      22.065  35.965  17.180  1.00  0.00     0.027 A 
ENDBRANCH  10  13
ENDBRANCH   3  10
ENDBRANCH   2   3
ENDBRANCH   1   2
BRANCH   1  20
HETATM   20  O1  UNL     1      19.701  29.238  16.970  1.00  0.00    -0.392 OA
ATOM     21  H1  UNL     1      19.424  28.411  16.593  1.00  0.00     0.210 HD
ENDBRANCH   1  20
BRANCH   1  22
HETATM   22  C9  UNL     1      18.595  30.252  15.166  1.00  0.00     0.121 C 
BRANCH  22  23
HETATM   23  C10 UNL     1      17.420  30.770  15.972  1.00  0.00     0.066 C 
BRANCH  23  24
HETATM   24  C11 UNL     1      17.061  32.156  15.705  1.00  0.00    -0.056 A 
HETATM   25  C12 UNL     1      16.144  32.844  16.510  1.00  0.00     0.007 A 
HETATM   26  C13 UNL     1      15.774  34.142  16.267  1.00  0.00     0.001 A 
HETATM   27  C14 UNL     1      16.312  34.820  15.194  1.00  0.00     0.000 A 
HETATM   28  C15 UNL     1      17.211  34.178  14.386  1.00  0.00     0.001 A 
HETATM   29  C16 UNL     1      17.578  32.849  14.650  1.00  0.00     0.007 A 
ENDBRANCH  23  24
ENDBRANCH  22  23
BRANCH  22  30
HETATM   30  N2  UNL     1      18.284  28.993  14.506  1.00  0.00    -0.329 N 
HETATM   31  C17 UNL     1      17.656  28.864  13.251  1.00  0.00     0.361 C 
HETATM   32  O2  UNL     1      17.308  29.853  12.596  1.00  0.00    -0.238 OA
ATOM     33  H2  UNL     1      18.541  28.134  14.992  1.00  0.00     0.165 HD
BRANCH  31  34
HETATM   34  O3  UNL     1      17.386  27.615  12.670  1.00  0.00    -0.296 OA
BRANCH  34  35
HETATM   35  C18 UNL     1      18.422  26.835  12.121  1.00  0.00     0.166 C 
HETATM   36  C19 UNL     1      18.028  25.426  11.820  1.00  0.00     0.204 C 
HETATM   37  O4  UNL     1      18.524  25.073  10.596  1.00  0.00    -0.358 OA
HETATM   38  C20 UNL     1      19.429  26.038  10.191  1.00  0.00     0.266 C 
HETATM   39  O5  UNL     1      19.401  26.310   8.847  1.00  0.00    -0.361 OA
HETATM   40  C23 UNL     1      18.900  27.332  10.792  1.00  0.00     0.075 C 
HETATM   41  C21 UNL     1      18.272  27.033   8.554  1.00  0.00     0.171 C 
HETATM   42  C22 UNL     1      17.803  27.691   9.840  1.00  0.00     0.038 C 
ENDBRANCH  34  35
ENDBRANCH  31  34
ENDBRANCH  22  30
ENDBRANCH   1  22
TORSDOF 15
ENDMDL
