MODEL 6
REMARK VINA RESULT: -8.730868054      2.870      6.409
REMARK  15 active torsions:
REMARK  status: ('A' for Active; 'I' for Inactive)
REMARK    1  A    between atoms: C2_2  and  C3_3 
REMARK    2  A    between atoms: C3_3  and  C4_4 
REMARK    3  A    between atoms: C3_3  and  C6_6 
REMARK    4  A    between atoms: C6_6  and  N1_7 
REMARK    5  A    between atoms: N1_7  and  C7_8 
REMARK    6  A    between atoms: N1_7  and  S1_33 
REMARK    7  A    between atoms: C7_8  and  C8_9 
REMARK    8  A    between atoms: C8_9  and  O1_10 
REMARK    9  A    between atoms: C8_9  and  C9_12 
REMARK   10  A    between atoms: C9_12  and  C10_13 
REMARK   11  A    between atoms: C9_12  and  N2_20 
REMARK   12  A    between atoms: C10_13  and  C11_14 
REMARK       I    between atoms: N2_20  and  C17_22 
REMARK   13  A    between atoms: C17_22  and  O3_24 
REMARK   14  A    between atoms: O3_24  and  C18_25 
REMARK   15  A    between atoms: S1_33  and  C24_36 
ROOT
HETATM    1  C8  UNL     1      19.565  30.700  16.172  1.00  0.00     0.160 C 
ENDROOT
BRANCH   1   2
HETATM    2  C7  UNL     1      18.337  31.441  16.628  1.00  0.00     0.174 C 
BRANCH   2   3
HETATM    3  N1  UNL     1      18.399  32.864  16.418  1.00  0.00    -0.283 N 
BRANCH   3   4
HETATM    4  C6  UNL     1      19.647  33.443  16.234  1.00  0.00     0.081 C 
BRANCH   4   5
HETATM    5  C3  UNL     1      20.072  34.623  16.995  1.00  0.00     0.024 C 
BRANCH   5   6
HETATM    6  C2  UNL     1      19.541  34.800  18.383  1.00  0.00     0.005 C 
HETATM    7  C1  UNL     1      19.677  36.219  18.862  1.00  0.00     0.006 C 
ENDBRANCH   5   6
BRANCH   5   8
HETATM    8  C4  UNL     1      21.605  34.660  17.100  1.00  0.00     0.005 C 
HETATM    9  C5  UNL     1      22.177  33.311  17.405  1.00  0.00     0.006 C 
ENDBRANCH   5   8
ENDBRANCH   4   5
ENDBRANCH   3   4
BRANCH   3  10
HETATM   10  S1  UNL     1      17.004  33.542  15.802  1.00  0.00     0.264 S 
HETATM   11  O6  UNL     1      16.046  32.386  15.478  1.00  0.00    -0.200 OA
HETATM   12  O7  UNL     1      17.339  34.098  14.410  1.00  0.00    -0.200 OA
BRANCH  10  13
HETATM   13  C24 UNL     1      16.157  34.708  16.729  1.00  0.00     0.080 A 
HETATM   14  C25 UNL     1      16.563  36.043  16.833  1.00  0.00     0.027 A 
HETATM   15  C26 UNL     1      15.864  36.956  17.591  1.00  0.00     0.028 A 
HETATM   16  C27 UNL     1      14.730  36.592  18.285  1.00  0.00     0.046 A 
HETATM   17  N3  UNL     1      14.025  37.555  19.063  1.00  0.00    -0.102 NA
HETATM   18  C28 UNL     1      14.318  35.280  18.192  1.00  0.00     0.028 A 
HETATM   19  C29 UNL     1      15.019  34.366  17.431  1.00  0.00     0.027 A 
ENDBRANCH  10  13
ENDBRANCH   3  10
ENDBRANCH   2   3
ENDBRANCH   1   2
BRANCH   1  20
HETATM   20  O1  UNL     1      19.806  29.636  17.052  1.00  0.00    -0.392 OA
ATOM     21  H1  UNL     1      19.036  29.079  17.080  1.00  0.00     0.210 HD
ENDBRANCH   1  20
BRANCH   1  22
HETATM   22  C9  UNL     1      19.470  30.152  14.788  1.00  0.00     0.121 C 
BRANCH  22  23
HETATM   23  C10 UNL     1      18.094  29.629  14.429  1.00  0.00     0.066 C 
BRANCH  23  24
HETATM   24  C11 UNL     1      18.062  28.731  13.284  1.00  0.00    -0.056 A 
HETATM   25  C12 UNL     1      18.219  29.202  11.975  1.00  0.00     0.007 A 
HETATM   26  C13 UNL     1      18.172  28.379  10.880  1.00  0.00     0.001 A 
HETATM   27  C14 UNL     1      17.964  27.027  11.046  1.00  0.00     0.000 A 
HETATM   28  C15 UNL     1      17.806  26.530  12.312  1.00  0.00     0.001 A 
HETATM   29  C16 UNL     1      17.857  27.389  13.421  1.00  0.00     0.007 A 
ENDBRANCH  23  24
ENDBRANCH  22  23
BRANCH  22  30
HETATM   30  N2  UNL     1      20.508  29.167  14.525  1.00  0.00    -0.329 N 
HETATM   31  C17 UNL     1      21.591  29.341  13.639  1.00  0.00     0.361 C 
HETATM   32  O2  UNL     1      21.738  30.385  12.994  1.00  0.00    -0.238 OA
ATOM     33  H2  UNL     1      20.448  28.279  15.022  1.00  0.00     0.165 HD
BRANCH  31  34
HETATM   34  O3  UNL     1      22.560  28.347  13.432  1.00  0.00    -0.296 OA
BRANCH  34  35
HETATM   35  C18 UNL     1      23.107  28.124  12.154  1.00  0.00     0.166 C 
HETATM   36  C19 UNL     1      24.354  27.305  12.160  1.00  0.00     0.204 C 
HETATM   37  O4  UNL     1      24.293  26.385  11.151  1.00  0.00    -0.358 OA
HETATM   38  C20 UNL     1      23.232  26.709  10.323  1.00  0.00     0.266 C 
HETATM   39  O5  UNL     1      22.549  25.626   9.830  1.00  0.00    -0.361 OA
HETATM   40  C23 UNL     1      22.205  27.343  11.250  1.00  0.00     0.075 C 
HETATM   41  C21 UNL     1      21.792  25.074  10.833  1.00  0.00     0.171 C 
HETATM   42  C22 UNL     1      21.584  26.142  11.891  1.00  0.00     0.038 C 
ENDBRANCH  34  35
ENDBRANCH  31  34
ENDBRANCH  22  30
ENDBRANCH   1  22
TORSDOF 15
ENDMDL
