MODEL 4
REMARK VINA RESULT: -8.819459437      2.851      6.287
REMARK  15 active torsions:
REMARK  status: ('A' for Active; 'I' for Inactive)
REMARK    1  A    between atoms: C2_2  and  C3_3 
REMARK    2  A    between atoms: C3_3  and  C4_4 
REMARK    3  A    between atoms: C3_3  and  C6_6 
REMARK    4  A    between atoms: C6_6  and  N1_7 
REMARK    5  A    between atoms: N1_7  and  C7_8 
REMARK    6  A    between atoms: N1_7  and  S1_33 
REMARK    7  A    between atoms: C7_8  and  C8_9 
REMARK    8  A    between atoms: C8_9  and  O1_10 
REMARK    9  A    between atoms: C8_9  and  C9_12 
REMARK   10  A    between atoms: C9_12  and  C10_13 
REMARK   11  A    between atoms: C9_12  and  N2_20 
REMARK   12  A    between atoms: C10_13  and  C11_14 
REMARK       I    between atoms: N2_20  and  C17_22 
REMARK   13  A    between atoms: C17_22  and  O3_24 
REMARK   14  A    between atoms: O3_24  and  C18_25 
REMARK   15  A    between atoms: S1_33  and  C24_36 
ROOT
HETATM    1  C8  UNL     1      19.902  29.684  15.644  1.00  0.00     0.160 C 
ENDROOT
BRANCH   1   2
HETATM    2  C7  UNL     1      18.853  30.700  16.004  1.00  0.00     0.174 C 
BRANCH   2   3
HETATM    3  N1  UNL     1      19.103  32.015  15.475  1.00  0.00    -0.283 N 
BRANCH   3   4
HETATM    4  C6  UNL     1      20.334  32.256  14.880  1.00  0.00     0.081 C 
BRANCH   4   5
HETATM    5  C3  UNL     1      21.376  33.042  15.551  1.00  0.00     0.024 C 
BRANCH   5   6
HETATM    6  C2  UNL     1      21.087  33.585  16.915  1.00  0.00     0.005 C 
HETATM    7  C1  UNL     1      21.723  34.931  17.132  1.00  0.00     0.006 C 
ENDBRANCH   5   6
BRANCH   5   8
HETATM    8  C4  UNL     1      22.668  32.217  15.667  1.00  0.00     0.005 C 
HETATM    9  C5  UNL     1      23.695  32.645  14.667  1.00  0.00     0.006 C 
ENDBRANCH   5   8
ENDBRANCH   4   5
ENDBRANCH   3   4
BRANCH   3  10
HETATM   10  S1  UNL     1      17.734  32.877  15.066  1.00  0.00     0.264 S 
HETATM   11  O6  UNL     1      16.777  31.900  14.367  1.00  0.00    -0.200 OA
HETATM   12  O7  UNL     1      18.117  33.838  13.931  1.00  0.00    -0.200 OA
BRANCH  10  13
HETATM   13  C24 UNL     1      16.867  33.707  16.291  1.00  0.00     0.080 A 
HETATM   14  C25 UNL     1      15.473  33.818  16.297  1.00  0.00     0.027 A 
HETATM   15  C26 UNL     1      14.805  34.497  17.292  1.00  0.00     0.028 A 
HETATM   16  C27 UNL     1      15.484  35.099  18.328  1.00  0.00     0.046 A 
HETATM   17  N3  UNL     1      14.771  35.797  19.346  1.00  0.00    -0.102 NA
HETATM   18  C28 UNL     1      16.860  34.999  18.335  1.00  0.00     0.028 A 
HETATM   19  C29 UNL     1      17.528  34.318  17.338  1.00  0.00     0.027 A 
ENDBRANCH  10  13
ENDBRANCH   3  10
ENDBRANCH   2   3
ENDBRANCH   1   2
BRANCH   1  20
HETATM   20  O1  UNL     1      19.889  28.658  16.600  1.00  0.00    -0.392 OA
ATOM     21  H1  UNL     1      20.443  28.911  17.329  1.00  0.00     0.210 HD
ENDBRANCH   1  20
BRANCH   1  22
HETATM   22  C9  UNL     1      19.723  29.071  14.296  1.00  0.00     0.121 C 
BRANCH  22  23
HETATM   23  C10 UNL     1      18.397  28.359  14.118  1.00  0.00     0.066 C 
BRANCH  23  24
HETATM   24  C11 UNL     1      18.048  28.055  12.737  1.00  0.00    -0.056 A 
HETATM   25  C12 UNL     1      17.379  28.982  11.928  1.00  0.00     0.007 A 
HETATM   26  C13 UNL     1      17.020  28.711  10.632  1.00  0.00     0.001 A 
HETATM   27  C14 UNL     1      17.320  27.485  10.079  1.00  0.00     0.000 A 
HETATM   28  C15 UNL     1      17.973  26.555  10.842  1.00  0.00     0.001 A 
HETATM   29  C16 UNL     1      18.332  26.849  12.166  1.00  0.00     0.007 A 
ENDBRANCH  23  24
ENDBRANCH  22  23
BRANCH  22  30
HETATM   30  N2  UNL     1      20.846  28.219  13.936  1.00  0.00    -0.329 N 
HETATM   31  C17 UNL     1      22.036  28.656  13.319  1.00  0.00     0.361 C 
HETATM   32  O2  UNL     1      22.215  29.843  13.025  1.00  0.00    -0.238 OA
ATOM     33  H2  UNL     1      20.766  27.224  14.147  1.00  0.00     0.165 HD
BRANCH  31  34
HETATM   34  O3  UNL     1      23.083  27.778  13.000  1.00  0.00    -0.296 OA
BRANCH  34  35
HETATM   35  C18 UNL     1      23.676  27.793  11.722  1.00  0.00     0.166 C 
HETATM   36  C19 UNL     1      25.026  27.159  11.670  1.00  0.00     0.204 C 
HETATM   37  O4  UNL     1      25.110  26.372  10.555  1.00  0.00    -0.358 OA
HETATM   38  C20 UNL     1      24.027  26.647   9.738  1.00  0.00     0.266 C 
HETATM   39  O5  UNL     1      23.511  25.551   9.096  1.00  0.00    -0.361 OA
HETATM   40  C23 UNL     1      22.907  27.014  10.701  1.00  0.00     0.075 C 
HETATM   41  C21 UNL     1      22.823  24.779   9.999  1.00  0.00     0.171 C 
HETATM   42  C22 UNL     1      22.451  25.669  11.172  1.00  0.00     0.038 C 
ENDBRANCH  34  35
ENDBRANCH  31  34
ENDBRANCH  22  30
ENDBRANCH   1  22
TORSDOF 15
ENDMDL
