MODEL 5
REMARK VINA RESULT: -8.750303582      2.890      6.314
REMARK  15 active torsions:
REMARK  status: ('A' for Active; 'I' for Inactive)
REMARK    1  A    between atoms: C2_2  and  C3_3 
REMARK    2  A    between atoms: C3_3  and  C4_4 
REMARK    3  A    between atoms: C3_3  and  C6_6 
REMARK    4  A    between atoms: C6_6  and  N1_7 
REMARK    5  A    between atoms: N1_7  and  C7_8 
REMARK    6  A    between atoms: N1_7  and  S1_33 
REMARK    7  A    between atoms: C7_8  and  C8_9 
REMARK    8  A    between atoms: C8_9  and  O1_10 
REMARK    9  A    between atoms: C8_9  and  C9_12 
REMARK   10  A    between atoms: C9_12  and  C10_13 
REMARK   11  A    between atoms: C9_12  and  N2_20 
REMARK   12  A    between atoms: C10_13  and  C11_14 
REMARK       I    between atoms: N2_20  and  C17_22 
REMARK   13  A    between atoms: C17_22  and  O3_24 
REMARK   14  A    between atoms: O3_24  and  C18_25 
REMARK   15  A    between atoms: S1_33  and  C24_36 
ROOT
HETATM    1  C8  UNL     1      19.568  30.689  16.153  1.00  0.00     0.160 C 
ENDROOT
BRANCH   1   2
HETATM    2  C7  UNL     1      18.357  31.432  16.648  1.00  0.00     0.174 C 
BRANCH   2   3
HETATM    3  N1  UNL     1      18.416  32.855  16.438  1.00  0.00    -0.283 N 
BRANCH   3   4
HETATM    4  C6  UNL     1      19.663  33.436  16.254  1.00  0.00     0.081 C 
BRANCH   4   5
HETATM    5  C3  UNL     1      20.455  33.943  17.381  1.00  0.00     0.024 C 
BRANCH   5   6
HETATM    6  C2  UNL     1      21.944  33.992  17.235  1.00  0.00     0.005 C 
HETATM    7  C1  UNL     1      22.549  32.617  17.162  1.00  0.00     0.006 C 
ENDBRANCH   5   6
BRANCH   5   8
HETATM    8  C4  UNL     1      20.000  35.363  17.751  1.00  0.00     0.005 C 
HETATM    9  C5  UNL     1      19.339  35.405  19.093  1.00  0.00     0.006 C 
ENDBRANCH   5   8
ENDBRANCH   4   5
ENDBRANCH   3   4
BRANCH   3  10
HETATM   10  S1  UNL     1      17.021  33.531  15.823  1.00  0.00     0.264 S 
HETATM   11  O6  UNL     1      16.069  32.373  15.486  1.00  0.00    -0.200 OA
HETATM   12  O7  UNL     1      17.357  34.100  14.437  1.00  0.00    -0.200 OA
BRANCH  10  13
HETATM   13  C24 UNL     1      16.164  34.686  16.756  1.00  0.00     0.080 A 
HETATM   14  C25 UNL     1      15.012  34.375  17.486  1.00  0.00     0.027 A 
HETATM   15  C26 UNL     1      14.341  35.327  18.221  1.00  0.00     0.028 A 
HETATM   16  C27 UNL     1      14.778  36.633  18.270  1.00  0.00     0.046 A 
HETATM   17  N3  UNL     1      14.067  37.600  19.038  1.00  0.00    -0.102 NA
HETATM   18  C28 UNL     1      15.912  36.954  17.555  1.00  0.00     0.028 A 
HETATM   19  C29 UNL     1      16.583  35.999  16.819  1.00  0.00     0.027 A 
ENDBRANCH  10  13
ENDBRANCH   3  10
ENDBRANCH   2   3
ENDBRANCH   1   2
BRANCH   1  20
HETATM   20  O1  UNL     1      19.848  29.637  17.036  1.00  0.00    -0.392 OA
ATOM     21  H1  UNL     1      20.401  29.003  16.594  1.00  0.00     0.210 HD
ENDBRANCH   1  20
BRANCH   1  22
HETATM   22  C9  UNL     1      19.419  30.121  14.781  1.00  0.00     0.121 C 
BRANCH  22  23
HETATM   23  C10 UNL     1      18.026  29.607  14.478  1.00  0.00     0.066 C 
BRANCH  23  24
HETATM   24  C11 UNL     1      17.926  28.785  13.281  1.00  0.00    -0.056 A 
HETATM   25  C12 UNL     1      17.956  27.386  13.346  1.00  0.00     0.007 A 
HETATM   26  C13 UNL     1      17.884  26.591  12.231  1.00  0.00     0.001 A 
HETATM   27  C14 UNL     1      17.776  27.166  10.984  1.00  0.00     0.000 A 
HETATM   28  C15 UNL     1      17.744  28.531  10.883  1.00  0.00     0.001 A 
HETATM   29  C16 UNL     1      17.819  29.329  12.035  1.00  0.00     0.007 A 
ENDBRANCH  23  24
ENDBRANCH  22  23
BRANCH  22  30
HETATM   30  N2  UNL     1      20.438  29.122  14.496  1.00  0.00    -0.329 N 
HETATM   31  C17 UNL     1      21.530  29.298  13.622  1.00  0.00     0.361 C 
HETATM   32  O2  UNL     1      21.704  30.357  13.009  1.00  0.00    -0.238 OA
ATOM     33  H2  UNL     1      20.355  28.221  14.967  1.00  0.00     0.165 HD
BRANCH  31  34
HETATM   34  O3  UNL     1      22.479  28.290  13.394  1.00  0.00    -0.296 OA
BRANCH  34  35
HETATM   35  C18 UNL     1      23.054  28.113  12.120  1.00  0.00     0.166 C 
HETATM   36  C19 UNL     1      24.338  27.352  12.132  1.00  0.00     0.204 C 
HETATM   37  O4  UNL     1      24.333  26.446  11.108  1.00  0.00    -0.358 OA
HETATM   38  C20 UNL     1      23.270  26.734  10.270  1.00  0.00     0.266 C 
HETATM   39  O5  UNL     1      22.644  25.630   9.750  1.00  0.00    -0.361 OA
HETATM   40  C23 UNL     1      22.202  27.306  11.191  1.00  0.00     0.075 C 
HETATM   41  C21 UNL     1      21.899  25.027  10.733  1.00  0.00     0.171 C 
HETATM   42  C22 UNL     1      21.627  26.068  11.804  1.00  0.00     0.038 C 
ENDBRANCH  34  35
ENDBRANCH  31  34
ENDBRANCH  22  30
ENDBRANCH   1  22
TORSDOF 15
ENDMDL
