MODEL 8
REMARK VINA RESULT: -8.592416275      2.543      8.225
REMARK  15 active torsions:
REMARK  status: ('A' for Active; 'I' for Inactive)
REMARK    1  A    between atoms: C2_2  and  C3_3 
REMARK    2  A    between atoms: C3_3  and  C4_4 
REMARK    3  A    between atoms: C3_3  and  C6_6 
REMARK    4  A    between atoms: C6_6  and  N1_7 
REMARK    5  A    between atoms: N1_7  and  C7_8 
REMARK    6  A    between atoms: N1_7  and  S1_33 
REMARK    7  A    between atoms: C7_8  and  C8_9 
REMARK    8  A    between atoms: C8_9  and  O1_10 
REMARK    9  A    between atoms: C8_9  and  C9_12 
REMARK   10  A    between atoms: C9_12  and  C10_13 
REMARK   11  A    between atoms: C9_12  and  N2_20 
REMARK   12  A    between atoms: C10_13  and  C11_14 
REMARK       I    between atoms: N2_20  and  C17_22 
REMARK   13  A    between atoms: C17_22  and  O3_24 
REMARK   14  A    between atoms: O3_24  and  C18_25 
REMARK   15  A    between atoms: S1_33  and  C24_36 
ROOT
HETATM    1  C8  UNL     1      21.027  31.488  13.204  1.00  0.00     0.160 C 
ENDROOT
BRANCH   1   2
HETATM    2  C7  UNL     1      21.071  29.990  13.342  1.00  0.00     0.174 C 
BRANCH   2   3
HETATM    3  N1  UNL     1      20.657  29.280  12.160  1.00  0.00    -0.283 N 
BRANCH   3   4
HETATM    4  C6  UNL     1      21.638  28.680  11.382  1.00  0.00     0.081 C 
BRANCH   4   5
HETATM    5  C3  UNL     1      22.492  27.608  11.906  1.00  0.00     0.024 C 
BRANCH   5   6
HETATM    6  C2  UNL     1      22.021  26.194  11.767  1.00  0.00     0.005 C 
HETATM    7  C1  UNL     1      21.793  25.815  10.330  1.00  0.00     0.006 C 
ENDBRANCH   5   6
BRANCH   5   8
HETATM    8  C4  UNL     1      23.884  27.677  11.257  1.00  0.00     0.005 C 
HETATM    9  C5  UNL     1      24.899  26.898  12.033  1.00  0.00     0.006 C 
ENDBRANCH   5   8
ENDBRANCH   4   5
ENDBRANCH   3   4
BRANCH   3  10
HETATM   10  S1  UNL     1      19.084  28.726  12.191  1.00  0.00     0.264 S 
HETATM   11  O6  UNL     1      18.173  29.941  11.959  1.00  0.00    -0.200 OA
HETATM   12  O7  UNL     1      18.761  28.339  13.641  1.00  0.00    -0.200 OA
BRANCH  10  13
HETATM   13  C24 UNL     1      18.611  27.478  11.115  1.00  0.00     0.080 A 
HETATM   14  C25 UNL     1      18.258  26.194  11.543  1.00  0.00     0.027 A 
HETATM   15  C26 UNL     1      17.889  25.210  10.653  1.00  0.00     0.028 A 
HETATM   16  C27 UNL     1      17.852  25.448   9.296  1.00  0.00     0.046 A 
HETATM   17  N3  UNL     1      17.468  24.413   8.395  1.00  0.00    -0.102 NA
HETATM   18  C28 UNL     1      18.199  26.709   8.859  1.00  0.00     0.028 A 
HETATM   19  C29 UNL     1      18.569  27.695   9.752  1.00  0.00     0.027 A 
ENDBRANCH  10  13
ENDBRANCH   3  10
ENDBRANCH   2   3
ENDBRANCH   1   2
BRANCH   1  20
HETATM   20  O1  UNL     1      20.640  31.813  11.896  1.00  0.00    -0.392 OA
ATOM     21  H1  UNL     1      21.102  31.246  11.289  1.00  0.00     0.210 HD
ENDBRANCH   1  20
BRANCH   1  22
HETATM   22  C9  UNL     1      20.092  32.162  14.151  1.00  0.00     0.121 C 
BRANCH  22  23
HETATM   23  C10 UNL     1      18.781  32.586  13.520  1.00  0.00     0.066 C 
BRANCH  23  24
HETATM   24  C11 UNL     1      17.689  32.792  14.461  1.00  0.00    -0.056 A 
HETATM   25  C12 UNL     1      17.076  31.720  15.120  1.00  0.00     0.007 A 
HETATM   26  C13 UNL     1      16.032  31.886  15.994  1.00  0.00     0.001 A 
HETATM   27  C14 UNL     1      15.548  33.150  16.252  1.00  0.00     0.000 A 
HETATM   28  C15 UNL     1      16.123  34.222  15.624  1.00  0.00     0.001 A 
HETATM   29  C16 UNL     1      17.191  34.033  14.733  1.00  0.00     0.007 A 
ENDBRANCH  23  24
ENDBRANCH  22  23
BRANCH  22  30
HETATM   30  N2  UNL     1      20.734  33.262  14.854  1.00  0.00    -0.329 N 
HETATM   31  C17 UNL     1      21.359  33.170  16.114  1.00  0.00     0.361 C 
HETATM   32  O2  UNL     1      21.404  32.104  16.738  1.00  0.00    -0.238 OA
ATOM     33  H2  UNL     1      20.733  34.174  14.397  1.00  0.00     0.165 HD
BRANCH  31  34
HETATM   34  O3  UNL     1      21.963  34.274  16.736  1.00  0.00    -0.296 OA
BRANCH  34  35
HETATM   35  C18 UNL     1      21.189  35.358  17.195  1.00  0.00     0.166 C 
HETATM   36  C19 UNL     1      19.762  35.014  17.467  1.00  0.00     0.204 C 
HETATM   37  O4  UNL     1      19.379  35.590  18.646  1.00  0.00    -0.358 OA
HETATM   38  C20 UNL     1      20.351  36.496  19.032  1.00  0.00     0.266 C 
HETATM   39  O5  UNL     1      20.575  36.543  20.384  1.00  0.00    -0.361 OA
HETATM   40  C23 UNL     1      21.652  35.904  18.510  1.00  0.00     0.075 C 
HETATM   41  C21 UNL     1      21.260  35.417  20.769  1.00  0.00     0.171 C 
HETATM   42  C22 UNL     1      21.950  34.858  19.538  1.00  0.00     0.038 C 
ENDBRANCH  34  35
ENDBRANCH  31  34
ENDBRANCH  22  30
ENDBRANCH   1  22
TORSDOF 15
ENDMDL
