MODEL 3
REMARK VINA RESULT: -8.854653681      2.785      6.182
REMARK  15 active torsions:
REMARK  status: ('A' for Active; 'I' for Inactive)
REMARK    1  A    between atoms: C2_2  and  C3_3 
REMARK    2  A    between atoms: C3_3  and  C4_4 
REMARK    3  A    between atoms: C3_3  and  C6_6 
REMARK    4  A    between atoms: C6_6  and  N1_7 
REMARK    5  A    between atoms: N1_7  and  C7_8 
REMARK    6  A    between atoms: N1_7  and  S1_33 
REMARK    7  A    between atoms: C7_8  and  C8_9 
REMARK    8  A    between atoms: C8_9  and  O1_10 
REMARK    9  A    between atoms: C8_9  and  C9_12 
REMARK   10  A    between atoms: C9_12  and  C10_13 
REMARK   11  A    between atoms: C9_12  and  N2_20 
REMARK   12  A    between atoms: C10_13  and  C11_14 
REMARK       I    between atoms: N2_20  and  C17_22 
REMARK   13  A    between atoms: C17_22  and  O3_24 
REMARK   14  A    between atoms: O3_24  and  C18_25 
REMARK   15  A    between atoms: S1_33  and  C24_36 
ROOT
HETATM    1  C8  UNL     1      19.839  29.553  15.430  1.00  0.00     0.160 C 
ENDROOT
BRANCH   1   2
HETATM    2  C7  UNL     1      18.742  30.471  15.898  1.00  0.00     0.174 C 
BRANCH   2   3
HETATM    3  N1  UNL     1      19.022  31.869  15.698  1.00  0.00    -0.283 N 
BRANCH   3   4
HETATM    4  C6  UNL     1      20.330  32.239  15.420  1.00  0.00     0.081 C 
BRANCH   4   5
HETATM    5  C3  UNL     1      21.165  32.931  16.409  1.00  0.00     0.024 C 
BRANCH   5   6
HETATM    6  C2  UNL     1      22.622  32.593  16.467  1.00  0.00     0.005 C 
HETATM    7  C1  UNL     1      23.126  32.041  15.162  1.00  0.00     0.006 C 
ENDBRANCH   5   6
BRANCH   5   8
HETATM    8  C4  UNL     1      21.072  34.452  16.208  1.00  0.00     0.005 C 
HETATM    9  C5  UNL     1      21.806  35.201  17.276  1.00  0.00     0.006 C 
ENDBRANCH   5   8
ENDBRANCH   4   5
ENDBRANCH   3   4
BRANCH   3  10
HETATM   10  S1  UNL     1      17.716  32.781  15.203  1.00  0.00     0.264 S 
HETATM   11  O6  UNL     1      16.745  31.828  14.490  1.00  0.00    -0.200 OA
HETATM   12  O7  UNL     1      18.194  33.687  14.060  1.00  0.00    -0.200 OA
BRANCH  10  13
HETATM   13  C24 UNL     1      16.836  33.687  16.363  1.00  0.00     0.080 A 
HETATM   14  C25 UNL     1      15.441  33.790  16.353  1.00  0.00     0.027 A 
HETATM   15  C26 UNL     1      14.763  34.531  17.295  1.00  0.00     0.028 A 
HETATM   16  C27 UNL     1      15.433  35.208  18.291  1.00  0.00     0.046 A 
HETATM   17  N3  UNL     1      14.709  35.970  19.254  1.00  0.00    -0.102 NA
HETATM   18  C28 UNL     1      16.808  35.117  18.313  1.00  0.00     0.028 A 
HETATM   19  C29 UNL     1      17.487  34.373  17.369  1.00  0.00     0.027 A 
ENDBRANCH  10  13
ENDBRANCH   3  10
ENDBRANCH   2   3
ENDBRANCH   1   2
BRANCH   1  20
HETATM   20  O1  UNL     1      19.971  28.500  16.345  1.00  0.00    -0.392 OA
ATOM     21  H1  UNL     1      19.114  28.120  16.503  1.00  0.00     0.210 HD
ENDBRANCH   1  20
BRANCH   1  22
HETATM   22  C9  UNL     1      19.613  28.972  14.075  1.00  0.00     0.121 C 
BRANCH  22  23
HETATM   23  C10 UNL     1      18.273  28.283  13.919  1.00  0.00     0.066 C 
BRANCH  23  24
HETATM   24  C11 UNL     1      17.992  27.789  12.578  1.00  0.00    -0.056 A 
HETATM   25  C12 UNL     1      17.876  26.419  12.309  1.00  0.00     0.007 A 
HETATM   26  C13 UNL     1      17.633  25.929  11.052  1.00  0.00     0.001 A 
HETATM   27  C14 UNL     1      17.492  26.798   9.992  1.00  0.00     0.000 A 
HETATM   28  C15 UNL     1      17.600  28.144  10.218  1.00  0.00     0.001 A 
HETATM   29  C16 UNL     1      17.849  28.628  11.512  1.00  0.00     0.007 A 
ENDBRANCH  23  24
ENDBRANCH  22  23
BRANCH  22  30
HETATM   30  N2  UNL     1      20.713  28.112  13.666  1.00  0.00    -0.329 N 
HETATM   31  C17 UNL     1      21.653  28.413  12.660  1.00  0.00     0.361 C 
HETATM   32  O2  UNL     1      21.605  29.473  12.025  1.00  0.00    -0.238 OA
ATOM     33  H2  UNL     1      20.813  27.218  14.147  1.00  0.00     0.165 HD
BRANCH  31  34
HETATM   34  O3  UNL     1      22.694  27.536  12.316  1.00  0.00    -0.296 OA
BRANCH  34  35
HETATM   35  C18 UNL     1      22.419  26.259  11.790  1.00  0.00     0.166 C 
HETATM   36  C19 UNL     1      21.249  26.222  10.864  1.00  0.00     0.204 C 
HETATM   37  O4  UNL     1      21.562  25.459   9.773  1.00  0.00    -0.358 OA
HETATM   38  C20 UNL     1      22.740  24.780  10.034  1.00  0.00     0.266 C 
HETATM   39  O5  UNL     1      23.573  24.657   8.952  1.00  0.00    -0.361 OA
HETATM   40  C23 UNL     1      23.526  25.715  10.942  1.00  0.00     0.075 C 
HETATM   41  C21 UNL     1      24.157  25.871   8.690  1.00  0.00     0.171 C 
HETATM   42  C22 UNL     1      24.088  26.697   9.962  1.00  0.00     0.038 C 
ENDBRANCH  34  35
ENDBRANCH  31  34
ENDBRANCH  22  30
ENDBRANCH   1  22
TORSDOF 15
ENDMDL
