MODEL 2
REMARK VINA RESULT: -8.881305555      2.881      6.316
REMARK  15 active torsions:
REMARK  status: ('A' for Active; 'I' for Inactive)
REMARK    1  A    between atoms: C2_2  and  C3_3 
REMARK    2  A    between atoms: C3_3  and  C4_4 
REMARK    3  A    between atoms: C3_3  and  C6_6 
REMARK    4  A    between atoms: C6_6  and  N1_7 
REMARK    5  A    between atoms: N1_7  and  C7_8 
REMARK    6  A    between atoms: N1_7  and  S1_33 
REMARK    7  A    between atoms: C7_8  and  C8_9 
REMARK    8  A    between atoms: C8_9  and  O1_10 
REMARK    9  A    between atoms: C8_9  and  C9_12 
REMARK   10  A    between atoms: C9_12  and  C10_13 
REMARK   11  A    between atoms: C9_12  and  N2_20 
REMARK   12  A    between atoms: C10_13  and  C11_14 
REMARK       I    between atoms: N2_20  and  C17_22 
REMARK   13  A    between atoms: C17_22  and  O3_24 
REMARK   14  A    between atoms: O3_24  and  C18_25 
REMARK   15  A    between atoms: S1_33  and  C24_36 
ROOT
HETATM    1  C8  UNL     1      19.791  29.644  15.522  1.00  0.00     0.160 C 
ENDROOT
BRANCH   1   2
HETATM    2  C7  UNL     1      18.642  30.549  15.877  1.00  0.00     0.174 C 
BRANCH   2   3
HETATM    3  N1  UNL     1      18.937  31.951  15.741  1.00  0.00    -0.283 N 
BRANCH   3   4
HETATM    4  C6  UNL     1      20.251  32.321  15.493  1.00  0.00     0.081 C 
BRANCH   4   5
HETATM    5  C3  UNL     1      21.067  33.004  16.504  1.00  0.00     0.024 C 
BRANCH   5   6
HETATM    6  C2  UNL     1      22.499  32.597  16.653  1.00  0.00     0.005 C 
HETATM    7  C1  UNL     1      23.136  32.281  15.328  1.00  0.00     0.006 C 
ENDBRANCH   5   6
BRANCH   5   8
HETATM    8  C4  UNL     1      21.061  34.520  16.252  1.00  0.00     0.005 C 
HETATM    9  C5  UNL     1      21.798  35.266  17.321  1.00  0.00     0.006 C 
ENDBRANCH   5   8
ENDBRANCH   4   5
ENDBRANCH   3   4
BRANCH   3  10
HETATM   10  S1  UNL     1      17.644  32.896  15.273  1.00  0.00     0.264 S 
HETATM   11  O6  UNL     1      16.635  31.968  14.580  1.00  0.00    -0.200 OA
HETATM   12  O7  UNL     1      18.121  33.790  14.119  1.00  0.00    -0.200 OA
BRANCH  10  13
HETATM   13  C24 UNL     1      16.812  33.824  16.450  1.00  0.00     0.080 A 
HETATM   14  C25 UNL     1      17.465  34.563  17.441  1.00  0.00     0.027 A 
HETATM   15  C26 UNL     1      16.769  35.294  18.378  1.00  0.00     0.028 A 
HETATM   16  C27 UNL     1      15.391  35.328  18.379  1.00  0.00     0.046 A 
HETATM   17  N3  UNL     1      14.692  36.091  19.359  1.00  0.00    -0.102 NA
HETATM   18  C28 UNL     1      14.733  34.603  17.408  1.00  0.00     0.028 A 
HETATM   19  C29 UNL     1      15.432  33.872  16.470  1.00  0.00     0.027 A 
ENDBRANCH  10  13
ENDBRANCH   3  10
ENDBRANCH   2   3
ENDBRANCH   1   2
BRANCH   1  20
HETATM   20  O1  UNL     1      19.898  28.641  16.496  1.00  0.00    -0.392 OA
ATOM     21  H1  UNL     1      19.974  27.799  16.063  1.00  0.00     0.210 HD
ENDBRANCH   1  20
BRANCH   1  22
HETATM   22  C9  UNL     1      19.666  28.990  14.187  1.00  0.00     0.121 C 
BRANCH  22  23
HETATM   23  C10 UNL     1      18.381  28.208  14.006  1.00  0.00     0.066 C 
BRANCH  23  24
HETATM   24  C11 UNL     1      18.081  27.835  12.631  1.00  0.00    -0.056 A 
HETATM   25  C12 UNL     1      17.638  28.777  11.694  1.00  0.00     0.007 A 
HETATM   26  C13 UNL     1      17.329  28.447  10.400  1.00  0.00     0.001 A 
HETATM   27  C14 UNL     1      17.452  27.141   9.977  1.00  0.00     0.000 A 
HETATM   28  C15 UNL     1      17.882  26.193  10.866  1.00  0.00     0.001 A 
HETATM   29  C16 UNL     1      18.193  26.550  12.187  1.00  0.00     0.007 A 
ENDBRANCH  23  24
ENDBRANCH  22  23
BRANCH  22  30
HETATM   30  N2  UNL     1      20.836  28.188  13.866  1.00  0.00    -0.329 N 
HETATM   31  C17 UNL     1      22.006  28.666  13.241  1.00  0.00     0.361 C 
HETATM   32  O2  UNL     1      22.123  29.849  12.905  1.00  0.00    -0.238 OA
ATOM     33  H2  UNL     1      20.808  27.198  14.114  1.00  0.00     0.165 HD
BRANCH  31  34
HETATM   34  O3  UNL     1      23.102  27.835  12.961  1.00  0.00    -0.296 OA
BRANCH  34  35
HETATM   35  C18 UNL     1      23.691  27.821  11.682  1.00  0.00     0.166 C 
HETATM   36  C19 UNL     1      25.048  27.199  11.644  1.00  0.00     0.204 C 
HETATM   37  O4  UNL     1      25.137  26.382  10.551  1.00  0.00    -0.358 OA
HETATM   38  C20 UNL     1      24.049  26.623   9.730  1.00  0.00     0.266 C 
HETATM   39  O5  UNL     1      23.542  25.505   9.120  1.00  0.00    -0.361 OA
HETATM   40  C23 UNL     1      22.928  27.006  10.685  1.00  0.00     0.075 C 
HETATM   41  C21 UNL     1      22.865  24.752  10.046  1.00  0.00     0.171 C 
HETATM   42  C22 UNL     1      22.487  25.669  11.195  1.00  0.00     0.038 C 
ENDBRANCH  34  35
ENDBRANCH  31  34
ENDBRANCH  22  30
ENDBRANCH   1  22
TORSDOF 15
ENDMDL
