MODEL 1
REMARK VINA RESULT: -9.152976950      0.000      0.000
REMARK  15 active torsions:
REMARK  status: ('A' for Active; 'I' for Inactive)
REMARK    1  A    between atoms: C2_2  and  C3_3 
REMARK    2  A    between atoms: C3_3  and  C4_4 
REMARK    3  A    between atoms: C3_3  and  C6_6 
REMARK    4  A    between atoms: C6_6  and  N1_7 
REMARK    5  A    between atoms: N1_7  and  C7_8 
REMARK    6  A    between atoms: N1_7  and  S1_33 
REMARK    7  A    between atoms: C7_8  and  C8_9 
REMARK    8  A    between atoms: C8_9  and  O1_10 
REMARK    9  A    between atoms: C8_9  and  C9_12 
REMARK   10  A    between atoms: C9_12  and  C10_13 
REMARK   11  A    between atoms: C9_12  and  N2_20 
REMARK   12  A    between atoms: C10_13  and  C11_14 
REMARK       I    between atoms: N2_20  and  C17_22 
REMARK   13  A    between atoms: C17_22  and  O3_24 
REMARK   14  A    between atoms: O3_24  and  C18_25 
REMARK   15  A    between atoms: S1_33  and  C24_36 
ROOT
HETATM    1  C8  UNL     1      19.881  30.176  15.796  1.00  0.00     0.160 C 
ENDROOT
BRANCH   1   2
HETATM    2  C7  UNL     1      20.480  31.378  16.475  1.00  0.00     0.174 C 
BRANCH   2   3
HETATM    3  N1  UNL     1      20.897  32.416  15.569  1.00  0.00    -0.283 N 
BRANCH   3   4
HETATM    4  C6  UNL     1      20.556  33.726  15.876  1.00  0.00     0.081 C 
BRANCH   4   5
HETATM    5  C3  UNL     1      20.429  34.188  17.263  1.00  0.00     0.024 C 
BRANCH   5   6
HETATM    6  C2  UNL     1      21.607  34.859  17.897  1.00  0.00     0.005 C 
HETATM    7  C1  UNL     1      22.065  36.056  17.109  1.00  0.00     0.006 C 
ENDBRANCH   5   6
BRANCH   5   8
HETATM    8  C4  UNL     1      19.245  35.159  17.391  1.00  0.00     0.005 C 
HETATM    9  C5  UNL     1      18.549  35.019  18.709  1.00  0.00     0.006 C 
ENDBRANCH   5   8
ENDBRANCH   4   5
ENDBRANCH   3   4
BRANCH   3  10
HETATM   10  S1  UNL     1      22.229  32.039  14.638  1.00  0.00     0.264 S 
HETATM   11  O6  UNL     1      23.415  31.863  15.598  1.00  0.00    -0.200 OA
HETATM   12  O7  UNL     1      22.616  33.302  13.856  1.00  0.00    -0.200 OA
BRANCH  10  13
HETATM   13  C24 UNL     1      22.166  30.680  13.594  1.00  0.00     0.080 A 
HETATM   14  C25 UNL     1      22.793  29.464  13.886  1.00  0.00     0.027 A 
HETATM   15  C26 UNL     1      22.730  28.392  13.024  1.00  0.00     0.028 A 
HETATM   16  C27 UNL     1      22.045  28.471  11.830  1.00  0.00     0.046 A 
HETATM   17  N3  UNL     1      21.995  27.348  10.955  1.00  0.00    -0.102 NA
HETATM   18  C28 UNL     1      21.423  29.664  11.529  1.00  0.00     0.028 A 
HETATM   19  C29 UNL     1      21.486  30.738  12.394  1.00  0.00     0.027 A 
ENDBRANCH  10  13
ENDBRANCH   3  10
ENDBRANCH   2   3
ENDBRANCH   1   2
BRANCH   1  20
HETATM   20  O1  UNL     1      19.667  29.174  16.753  1.00  0.00    -0.392 OA
ATOM     21  H1  UNL     1      19.001  28.577  16.431  1.00  0.00     0.210 HD
ENDBRANCH   1  20
BRANCH   1  22
HETATM   22  C9  UNL     1      18.588  30.445  15.103  1.00  0.00     0.121 C 
BRANCH  22  23
HETATM   23  C10 UNL     1      17.493  30.948  16.021  1.00  0.00     0.066 C 
BRANCH  23  24
HETATM   24  C11 UNL     1      17.060  32.315  15.764  1.00  0.00    -0.056 A 
HETATM   25  C12 UNL     1      16.184  32.982  16.628  1.00  0.00     0.007 A 
HETATM   26  C13 UNL     1      15.746  34.261  16.396  1.00  0.00     0.001 A 
HETATM   27  C14 UNL     1      16.172  34.940  15.275  1.00  0.00     0.000 A 
HETATM   28  C15 UNL     1      17.029  34.318  14.408  1.00  0.00     0.001 A 
HETATM   29  C16 UNL     1      17.467  33.009  14.661  1.00  0.00     0.007 A 
ENDBRANCH  23  24
ENDBRANCH  22  23
BRANCH  22  30
HETATM   30  N2  UNL     1      18.150  29.303  14.314  1.00  0.00    -0.329 N 
HETATM   31  C17 UNL     1      17.906  29.317  12.926  1.00  0.00     0.361 C 
HETATM   32  O2  UNL     1      18.051  30.343  12.253  1.00  0.00    -0.238 OA
ATOM     33  H2  UNL     1      18.008  28.421  14.806  1.00  0.00     0.165 HD
BRANCH  31  34
HETATM   34  O3  UNL     1      17.486  28.175  12.226  1.00  0.00    -0.296 OA
BRANCH  34  35
HETATM   35  C18 UNL     1      18.392  27.143  11.915  1.00  0.00     0.166 C 
HETATM   36  C19 UNL     1      17.950  25.790  12.365  1.00  0.00     0.204 C 
HETATM   37  O4  UNL     1      18.190  24.884  11.370  1.00  0.00    -0.358 OA
HETATM   38  C20 UNL     1      18.992  25.482  10.413  1.00  0.00     0.266 C 
HETATM   39  O5  UNL     1      18.693  25.127   9.123  1.00  0.00    -0.361 OA
HETATM   40  C23 UNL     1      18.592  26.950  10.444  1.00  0.00     0.075 C 
HETATM   41  C21 UNL     1      17.526  25.740   8.743  1.00  0.00     0.171 C 
HETATM   42  C22 UNL     1      17.324  26.942   9.648  1.00  0.00     0.038 C 
ENDBRANCH  34  35
ENDBRANCH  31  34
ENDBRANCH  22  30
ENDBRANCH   1  22
TORSDOF 15
ENDMDL
