MODEL 8
REMARK VINA RESULT: -9.337227488      3.189     10.063
REMARK  15 active torsions:
REMARK  status: ('A' for Active; 'I' for Inactive)
REMARK    1  A    between atoms: C2_2  and  C3_3 
REMARK    2  A    between atoms: C3_3  and  C4_4 
REMARK    3  A    between atoms: C3_3  and  C6_6 
REMARK    4  A    between atoms: C6_6  and  N1_7 
REMARK    5  A    between atoms: N1_7  and  C7_8 
REMARK    6  A    between atoms: N1_7  and  S1_33 
REMARK    7  A    between atoms: C7_8  and  C8_9 
REMARK    8  A    between atoms: C8_9  and  O1_10 
REMARK    9  A    between atoms: C8_9  and  C9_12 
REMARK   10  A    between atoms: C9_12  and  C10_13 
REMARK   11  A    between atoms: C9_12  and  N2_20 
REMARK   12  A    between atoms: C10_13  and  C11_14 
REMARK       I    between atoms: N2_20  and  C17_22 
REMARK   13  A    between atoms: C17_22  and  O3_24 
REMARK   14  A    between atoms: O3_24  and  C18_25 
REMARK   15  A    between atoms: S1_33  and  C24_36 
ROOT
HETATM    1  C8  UNL     1      18.484  29.911  14.481  1.00  0.00     0.160 C 
ENDROOT
BRANCH   1   2
HETATM    2  C7  UNL     1      19.397  28.848  13.983  1.00  0.00     0.174 C 
BRANCH   2   3
HETATM    3  N1  UNL     1      19.286  28.584  12.595  1.00  0.00    -0.283 N 
BRANCH   3   4
HETATM    4  C6  UNL     1      20.400  28.451  11.794  1.00  0.00     0.081 C 
BRANCH   4   5
HETATM    5  C3  UNL     1      21.349  27.377  12.198  1.00  0.00     0.024 C 
BRANCH   5   6
HETATM    6  C2  UNL     1      22.622  27.858  12.776  1.00  0.00     0.005 C 
HETATM    7  C1  UNL     1      23.829  27.570  11.913  1.00  0.00     0.006 C 
ENDBRANCH   5   6
BRANCH   5   8
HETATM    8  C4  UNL     1      21.660  26.397  11.077  1.00  0.00     0.005 C 
HETATM    9  C5  UNL     1      21.158  25.040  11.533  1.00  0.00     0.006 C 
ENDBRANCH   5   8
ENDBRANCH   4   5
ENDBRANCH   3   4
BRANCH   3  10
HETATM   10  S1  UNL     1      17.771  28.002  12.156  1.00  0.00     0.264 S 
HETATM   11  O6  UNL     1      16.795  29.118  11.945  1.00  0.00    -0.200 OA
HETATM   12  O7  UNL     1      17.151  27.184  13.308  1.00  0.00    -0.200 OA
BRANCH  10  13
HETATM   13  C24 UNL     1      17.821  26.990  10.720  1.00  0.00     0.081 A 
HETATM   14  C25 UNL     1      17.676  25.623  10.740  1.00  0.00     0.027 A 
HETATM   15  C26 UNL     1      17.712  24.821   9.651  1.00  0.00     0.032 A 
HETATM   16  C27 UNL     1      17.911  25.383   8.370  1.00  0.00     0.049 A 
HETATM   17  N3  UNL     1      17.968  24.741   7.241  1.00  0.00    -0.359 N 
HETATM   18  C29 UNL     1      18.056  26.746   8.332  1.00  0.00     0.034 A 
HETATM   19  C28 UNL     1      18.159  25.393   6.109  1.00  0.00     0.139 A 
ATOM     20  H3  UNL     1      17.864  23.726   7.231  1.00  0.00     0.166 HD
HETATM   21  S2  UNL     1      18.268  27.014   6.647  1.00  0.00    -0.083 SA
HETATM   22  C30 UNL     1      18.015  27.553   9.478  1.00  0.00     0.046 A 
ENDBRANCH  10  13
ENDBRANCH   3  10
ENDBRANCH   2   3
ENDBRANCH   1   2
BRANCH   1  23
HETATM   23  O1  UNL     1      17.579  29.419  15.431  1.00  0.00    -0.392 OA
ATOM     24  H1  UNL     1      16.860  28.950  15.024  1.00  0.00     0.210 HD
ENDBRANCH   1  23
BRANCH   1  25
HETATM   25  C9  UNL     1      19.243  31.019  15.154  1.00  0.00     0.121 C 
BRANCH  25  26
HETATM   26  C10 UNL     1      20.402  30.466  15.929  1.00  0.00     0.066 C 
BRANCH  26  27
HETATM   27  C11 UNL     1      21.614  31.343  15.697  1.00  0.00    -0.056 A 
HETATM   28  C12 UNL     1      22.386  31.156  14.571  1.00  0.00     0.007 A 
HETATM   29  C13 UNL     1      23.491  31.965  14.366  1.00  0.00     0.001 A 
HETATM   30  C14 UNL     1      23.803  32.942  15.286  1.00  0.00     0.000 A 
HETATM   31  C15 UNL     1      23.006  33.111  16.417  1.00  0.00     0.001 A 
HETATM   32  C16 UNL     1      21.909  32.309  16.622  1.00  0.00     0.007 A 
ENDBRANCH  26  27
ENDBRANCH  25  26
BRANCH  25  33
HETATM   33  N2  UNL     1      18.344  31.723  16.046  1.00  0.00    -0.329 N 
HETATM   34  C17 UNL     1      18.263  33.144  15.992  1.00  0.00     0.361 C 
HETATM   35  O2  UNL     1      18.975  33.761  15.169  1.00  0.00    -0.238 OA
ATOM     36  H2  UNL     1      17.770  31.203  16.710  1.00  0.00     0.165 HD
BRANCH  34  37
HETATM   37  O3  UNL     1      17.433  33.896  16.803  1.00  0.00    -0.296 OA
BRANCH  37  38
HETATM   38  C18 UNL     1      16.086  34.078  16.461  1.00  0.00     0.166 C 
HETATM   39  C19 UNL     1      15.261  33.210  17.408  1.00  0.00     0.204 C 
HETATM   40  O4  UNL     1      15.314  33.887  18.597  1.00  0.00    -0.358 OA
HETATM   41  C20 UNL     1      15.317  35.245  18.332  1.00  0.00     0.266 C 
HETATM   42  O5  UNL     1      16.368  35.795  19.062  1.00  0.00    -0.361 OA
HETATM   43  C23 UNL     1      15.654  35.444  16.886  1.00  0.00     0.075 C 
HETATM   44  C21 UNL     1      16.632  36.973  18.358  1.00  0.00     0.171 C 
HETATM   45  C22 UNL     1      16.824  36.403  16.950  1.00  0.00     0.038 C 
ENDBRANCH  37  38
ENDBRANCH  34  37
ENDBRANCH  25  33
ENDBRANCH   1  25
TORSDOF 15
ENDMDL
