MODEL 5
REMARK VINA RESULT: -9.665412154      1.001      1.163
REMARK  15 active torsions:
REMARK  status: ('A' for Active; 'I' for Inactive)
REMARK    1  A    between atoms: C2_2  and  C3_3 
REMARK    2  A    between atoms: C3_3  and  C4_4 
REMARK    3  A    between atoms: C3_3  and  C6_6 
REMARK    4  A    between atoms: C6_6  and  N1_7 
REMARK    5  A    between atoms: N1_7  and  C7_8 
REMARK    6  A    between atoms: N1_7  and  S1_33 
REMARK    7  A    between atoms: C7_8  and  C8_9 
REMARK    8  A    between atoms: C8_9  and  O1_10 
REMARK    9  A    between atoms: C8_9  and  C9_12 
REMARK   10  A    between atoms: C9_12  and  C10_13 
REMARK   11  A    between atoms: C9_12  and  N2_20 
REMARK   12  A    between atoms: C10_13  and  C11_14 
REMARK       I    between atoms: N2_20  and  C17_22 
REMARK   13  A    between atoms: C17_22  and  O3_24 
REMARK   14  A    between atoms: O3_24  and  C18_25 
REMARK   15  A    between atoms: S1_33  and  C24_36 
ROOT
HETATM    1  C8  UNL     1      19.879  29.666  15.602  1.00  0.00     0.160 C 
ENDROOT
BRANCH   1   2
HETATM    2  C7  UNL     1      18.769  30.568  16.008  1.00  0.00     0.174 C 
BRANCH   2   3
HETATM    3  N1  UNL     1      18.991  31.938  15.719  1.00  0.00    -0.283 N 
BRANCH   3   4
HETATM    4  C6  UNL     1      20.118  32.359  15.047  1.00  0.00     0.081 C 
BRANCH   4   5
HETATM    5  C3  UNL     1      21.190  32.941  15.902  1.00  0.00     0.024 C 
BRANCH   5   6
HETATM    6  C2  UNL     1      21.468  34.372  15.662  1.00  0.00     0.005 C 
HETATM    7  C1  UNL     1      22.105  35.075  16.838  1.00  0.00     0.006 C 
ENDBRANCH   5   6
BRANCH   5   8
HETATM    8  C4  UNL     1      22.499  32.170  15.831  1.00  0.00     0.005 C 
HETATM    9  C5  UNL     1      23.013  32.312  14.411  1.00  0.00     0.006 C 
ENDBRANCH   5   8
ENDBRANCH   4   5
ENDBRANCH   3   4
BRANCH   3  10
HETATM   10  S1  UNL     1      17.597  32.870  15.839  1.00  0.00     0.264 S 
HETATM   11  O6  UNL     1      16.452  32.075  16.385  1.00  0.00    -0.200 OA
HETATM   12  O7  UNL     1      17.113  33.301  14.439  1.00  0.00    -0.200 OA
BRANCH  10  13
HETATM   13  C24 UNL     1      17.825  34.313  16.816  1.00  0.00     0.081 A 
HETATM   14  C25 UNL     1      18.618  34.363  17.938  1.00  0.00     0.027 A 
HETATM   15  C26 UNL     1      18.809  35.458  18.708  1.00  0.00     0.032 A 
HETATM   16  C27 UNL     1      18.166  36.672  18.375  1.00  0.00     0.049 A 
HETATM   17  N3  UNL     1      18.255  37.798  19.018  1.00  0.00    -0.359 N 
HETATM   18  C29 UNL     1      17.372  36.640  17.258  1.00  0.00     0.034 A 
HETATM   19  C28 UNL     1      17.598  38.863  18.596  1.00  0.00     0.139 A 
ATOM     20  H3  UNL     1      18.837  37.860  19.854  1.00  0.00     0.166 HD
HETATM   21  S2  UNL     1      16.798  38.260  17.208  1.00  0.00    -0.083 SA
HETATM   22  C30 UNL     1      17.192  35.489  16.478  1.00  0.00     0.046 A 
ENDBRANCH  10  13
ENDBRANCH   3  10
ENDBRANCH   2   3
ENDBRANCH   1   2
BRANCH   1  23
HETATM   23  O1  UNL     1      20.053  28.612  16.508  1.00  0.00    -0.392 OA
ATOM     24  H1  UNL     1      20.781  28.052  16.264  1.00  0.00     0.210 HD
ENDBRANCH   1  23
BRANCH   1  25
HETATM   25  C9  UNL     1      19.617  29.036  14.264  1.00  0.00     0.121 C 
BRANCH  25  26
HETATM   26  C10 UNL     1      18.248  28.425  14.231  1.00  0.00     0.066 C 
BRANCH  26  27
HETATM   27  C11 UNL     1      18.014  27.811  12.868  1.00  0.00    -0.056 A 
HETATM   28  C12 UNL     1      17.943  26.440  12.741  1.00  0.00     0.007 A 
HETATM   29  C13 UNL     1      17.725  25.887  11.489  1.00  0.00     0.001 A 
HETATM   30  C14 UNL     1      17.582  26.710  10.394  1.00  0.00     0.000 A 
HETATM   31  C15 UNL     1      17.657  28.093  10.550  1.00  0.00     0.001 A 
HETATM   32  C16 UNL     1      17.874  28.644  11.790  1.00  0.00     0.007 A 
ENDBRANCH  26  27
ENDBRANCH  25  26
BRANCH  25  33
HETATM   33  N2  UNL     1      20.618  28.016  14.027  1.00  0.00    -0.329 N 
HETATM   34  C17 UNL     1      21.743  28.307  13.202  1.00  0.00     0.361 C 
HETATM   35  O2  UNL     1      21.845  29.447  12.695  1.00  0.00    -0.238 OA
ATOM     36  H2  UNL     1      20.520  27.093  14.450  1.00  0.00     0.165 HD
BRANCH  34  37
HETATM   37  O3  UNL     1      22.746  27.396  12.923  1.00  0.00    -0.296 OA
BRANCH  37  38
HETATM   38  C18 UNL     1      23.521  27.532  11.764  1.00  0.00     0.166 C 
HETATM   39  C19 UNL     1      24.844  26.817  12.022  1.00  0.00     0.204 C 
HETATM   40  O4  UNL     1      24.514  25.490  11.951  1.00  0.00    -0.358 OA
HETATM   41  C20 UNL     1      23.533  25.328  10.989  1.00  0.00     0.266 C 
HETATM   42  O5  UNL     1      22.516  24.574  11.572  1.00  0.00    -0.361 OA
HETATM   43  C23 UNL     1      22.943  26.672  10.686  1.00  0.00     0.075 C 
HETATM   44  C21 UNL     1      21.411  24.911  10.786  1.00  0.00     0.171 C 
HETATM   45  C22 UNL     1      21.462  26.437  10.896  1.00  0.00     0.038 C 
ENDBRANCH  37  38
ENDBRANCH  34  37
ENDBRANCH  25  33
ENDBRANCH   1  25
TORSDOF 15
ENDMDL
