MODEL 2
REMARK VINA RESULT: -9.827769595      1.579      4.995
REMARK  15 active torsions:
REMARK  status: ('A' for Active; 'I' for Inactive)
REMARK    1  A    between atoms: C2_2  and  C3_3 
REMARK    2  A    between atoms: C3_3  and  C4_4 
REMARK    3  A    between atoms: C3_3  and  C6_6 
REMARK    4  A    between atoms: C6_6  and  N1_7 
REMARK    5  A    between atoms: N1_7  and  C7_8 
REMARK    6  A    between atoms: N1_7  and  S1_33 
REMARK    7  A    between atoms: C7_8  and  C8_9 
REMARK    8  A    between atoms: C8_9  and  O1_10 
REMARK    9  A    between atoms: C8_9  and  C9_12 
REMARK   10  A    between atoms: C9_12  and  C10_13 
REMARK   11  A    between atoms: C9_12  and  N2_20 
REMARK   12  A    between atoms: C10_13  and  C11_14 
REMARK       I    between atoms: N2_20  and  C17_22 
REMARK   13  A    between atoms: C17_22  and  O3_24 
REMARK   14  A    between atoms: O3_24  and  C18_25 
REMARK   15  A    between atoms: S1_33  and  C24_36 
ROOT
HETATM    1  C8  UNL     1      20.089  31.023  12.839  1.00  0.00     0.160 C 
ENDROOT
BRANCH   1   2
HETATM    2  C7  UNL     1      19.074  31.791  13.609  1.00  0.00     0.174 C 
BRANCH   2   3
HETATM    3  N1  UNL     1      17.990  31.013  14.088  1.00  0.00    -0.283 N 
BRANCH   3   4
HETATM    4  C6  UNL     1      17.299  30.154  13.261  1.00  0.00     0.081 C 
BRANCH   4   5
HETATM    5  C3  UNL     1      18.043  28.934  12.844  1.00  0.00     0.024 C 
BRANCH   5   6
HETATM    6  C2  UNL     1      17.816  28.516  11.445  1.00  0.00     0.005 C 
HETATM    7  C1  UNL     1      16.406  28.760  10.957  1.00  0.00     0.006 C 
ENDBRANCH   5   6
BRANCH   5   8
HETATM    8  C4  UNL     1      17.801  27.742  13.756  1.00  0.00     0.005 C 
HETATM    9  C5  UNL     1      17.921  26.501  12.892  1.00  0.00     0.006 C 
ENDBRANCH   5   8
ENDBRANCH   4   5
ENDBRANCH   3   4
BRANCH   3  10
HETATM   10  S1  UNL     1      17.960  30.890  15.764  1.00  0.00     0.264 S 
HETATM   11  O6  UNL     1      19.217  30.272  16.291  1.00  0.00    -0.200 OA
HETATM   12  O7  UNL     1      16.852  29.915  16.214  1.00  0.00    -0.200 OA
BRANCH  10  13
HETATM   13  C24 UNL     1      17.692  32.436  16.555  1.00  0.00     0.081 A 
HETATM   14  C25 UNL     1      18.701  33.240  17.030  1.00  0.00     0.027 A 
HETATM   15  C26 UNL     1      18.523  34.432  17.644  1.00  0.00     0.032 A 
HETATM   16  C27 UNL     1      17.217  34.936  17.835  1.00  0.00     0.049 A 
HETATM   17  N3  UNL     1      16.894  36.059  18.405  1.00  0.00    -0.359 N 
HETATM   18  C29 UNL     1      16.198  34.147  17.368  1.00  0.00     0.034 A 
HETATM   19  C28 UNL     1      15.627  36.411  18.520  1.00  0.00     0.139 A 
ATOM     20  H3  UNL     1      17.626  36.672  18.766  1.00  0.00     0.166 HD
HETATM   21  S2  UNL     1      14.823  35.090  17.787  1.00  0.00    -0.083 SA
HETATM   22  C30 UNL     1      16.412  32.914  16.735  1.00  0.00     0.046 A 
ENDBRANCH  10  13
ENDBRANCH   3  10
ENDBRANCH   2   3
ENDBRANCH   1   2
BRANCH   1  23
HETATM   23  O1  UNL     1      20.440  31.672  11.648  1.00  0.00    -0.392 OA
ATOM     24  H1  UNL     1      21.119  32.323  11.786  1.00  0.00     0.210 HD
ENDBRANCH   1  23
BRANCH   1  25
HETATM   25  C9  UNL     1      21.360  30.852  13.620  1.00  0.00     0.121 C 
BRANCH  25  26
HETATM   26  C10 UNL     1      22.153  32.126  13.618  1.00  0.00     0.066 C 
BRANCH  26  27
HETATM   27  C11 UNL     1      22.192  32.685  15.024  1.00  0.00    -0.056 A 
HETATM   28  C12 UNL     1      22.036  34.039  15.223  1.00  0.00     0.007 A 
HETATM   29  C13 UNL     1      22.069  34.542  16.514  1.00  0.00     0.001 A 
HETATM   30  C14 UNL     1      22.257  33.685  17.576  1.00  0.00     0.000 A 
HETATM   31  C15 UNL     1      22.411  32.319  17.348  1.00  0.00     0.001 A 
HETATM   32  C16 UNL     1      22.379  31.819  16.068  1.00  0.00     0.007 A 
ENDBRANCH  26  27
ENDBRANCH  25  26
BRANCH  25  33
HETATM   33  N2  UNL     1      22.136  29.788  13.016  1.00  0.00    -0.329 N 
HETATM   34  C17 UNL     1      22.044  28.464  13.535  1.00  0.00     0.361 C 
HETATM   35  O2  UNL     1      21.290  28.245  14.509  1.00  0.00    -0.238 OA
ATOM     36  H2  UNL     1      22.745  29.985  12.222  1.00  0.00     0.165 HD
BRANCH  34  37
HETATM   37  O3  UNL     1      22.747  27.389  13.022  1.00  0.00    -0.296 OA
BRANCH  37  38
HETATM   38  C18 UNL     1      23.455  27.517  11.819  1.00  0.00     0.166 C 
HETATM   39  C19 UNL     1      24.768  26.757  11.988  1.00  0.00     0.204 C 
HETATM   40  O4  UNL     1      24.391  25.442  11.920  1.00  0.00    -0.358 OA
HETATM   41  C20 UNL     1      23.349  25.326  11.017  1.00  0.00     0.266 C 
HETATM   42  O5  UNL     1      22.346  24.595  11.650  1.00  0.00    -0.361 OA
HETATM   43  C23 UNL     1      22.786  26.692  10.768  1.00  0.00     0.075 C 
HETATM   44  C21 UNL     1      21.208  24.978  10.937  1.00  0.00     0.171 C 
HETATM   45  C22 UNL     1      21.314  26.500  11.064  1.00  0.00     0.038 C 
ENDBRANCH  37  38
ENDBRANCH  34  37
ENDBRANCH  25  33
ENDBRANCH   1  25
TORSDOF 15
ENDMDL
