MODEL 4
REMARK VINA RESULT: -9.697710304      0.503      1.319
REMARK  15 active torsions:
REMARK  status: ('A' for Active; 'I' for Inactive)
REMARK    1  A    between atoms: C2_2  and  C3_3 
REMARK    2  A    between atoms: C3_3  and  C4_4 
REMARK    3  A    between atoms: C3_3  and  C6_6 
REMARK    4  A    between atoms: C6_6  and  N1_7 
REMARK    5  A    between atoms: N1_7  and  C7_8 
REMARK    6  A    between atoms: N1_7  and  S1_33 
REMARK    7  A    between atoms: C7_8  and  C8_9 
REMARK    8  A    between atoms: C8_9  and  O1_10 
REMARK    9  A    between atoms: C8_9  and  C9_12 
REMARK   10  A    between atoms: C9_12  and  C10_13 
REMARK   11  A    between atoms: C9_12  and  N2_20 
REMARK   12  A    between atoms: C10_13  and  C11_14 
REMARK       I    between atoms: N2_20  and  C17_22 
REMARK   13  A    between atoms: C17_22  and  O3_24 
REMARK   14  A    between atoms: O3_24  and  C18_25 
REMARK   15  A    between atoms: S1_33  and  C24_36 
ROOT
HETATM    1  C8  UNL     1      19.753  29.725  15.739  1.00  0.00     0.160 C 
ENDROOT
BRANCH   1   2
HETATM    2  C7  UNL     1      18.587  30.471  16.282  1.00  0.00     0.174 C 
BRANCH   2   3
HETATM    3  N1  UNL     1      18.751  31.878  16.305  1.00  0.00    -0.283 N 
BRANCH   3   4
HETATM    4  C6  UNL     1      19.973  32.458  16.571  1.00  0.00     0.081 C 
BRANCH   4   5
HETATM    5  C3  UNL     1      20.546  33.273  15.465  1.00  0.00     0.024 C 
BRANCH   5   6
HETATM    6  C2  UNL     1      21.400  32.525  14.519  1.00  0.00     0.005 C 
HETATM    7  C1  UNL     1      22.751  32.151  15.083  1.00  0.00     0.006 C 
ENDBRANCH   5   6
BRANCH   5   8
HETATM    8  C4  UNL     1      21.310  34.494  15.953  1.00  0.00     0.005 C 
HETATM    9  C5  UNL     1      21.117  34.557  17.456  1.00  0.00     0.006 C 
ENDBRANCH   5   8
ENDBRANCH   4   5
ENDBRANCH   3   4
BRANCH   3  10
HETATM   10  S1  UNL     1      17.498  32.699  15.540  1.00  0.00     0.264 S 
HETATM   11  O6  UNL     1      16.413  31.762  15.108  1.00  0.00    -0.200 OA
HETATM   12  O7  UNL     1      17.990  33.326  14.219  1.00  0.00    -0.200 OA
BRANCH  10  13
HETATM   13  C24 UNL     1      16.810  33.972  16.536  1.00  0.00     0.081 A 
HETATM   14  C25 UNL     1      15.747  33.789  17.389  1.00  0.00     0.027 A 
HETATM   15  C26 UNL     1      15.197  34.751  18.164  1.00  0.00     0.032 A 
HETATM   16  C27 UNL     1      15.721  36.063  18.133  1.00  0.00     0.049 A 
HETATM   17  N3  UNL     1      15.297  37.083  18.819  1.00  0.00    -0.359 N 
HETATM   18  C29 UNL     1      16.782  36.263  17.289  1.00  0.00     0.034 A 
HETATM   19  C28 UNL     1      15.880  38.261  18.695  1.00  0.00     0.139 A 
ATOM     20  H3  UNL     1      14.509  36.973  19.458  1.00  0.00     0.166 HD
HETATM   21  S2  UNL     1      17.103  37.933  17.544  1.00  0.00    -0.083 SA
HETATM   22  C30 UNL     1      17.332  35.246  16.495  1.00  0.00     0.046 A 
ENDBRANCH  10  13
ENDBRANCH   3  10
ENDBRANCH   2   3
ENDBRANCH   1   2
BRANCH   1  23
HETATM   23  O1  UNL     1      20.082  28.620  16.536  1.00  0.00    -0.392 OA
ATOM     24  H1  UNL     1      19.401  27.957  16.520  1.00  0.00     0.210 HD
ENDBRANCH   1  23
BRANCH   1  25
HETATM   25  C9  UNL     1      19.473  29.189  14.365  1.00  0.00     0.121 C 
BRANCH  25  26
HETATM   26  C10 UNL     1      18.068  28.673  14.278  1.00  0.00     0.066 C 
BRANCH  26  27
HETATM   27  C11 UNL     1      17.874  27.990  12.941  1.00  0.00    -0.056 A 
HETATM   28  C12 UNL     1      17.688  28.751  11.808  1.00  0.00     0.007 A 
HETATM   29  C13 UNL     1      17.514  28.118  10.588  1.00  0.00     0.001 A 
HETATM   30  C14 UNL     1      17.531  26.742  10.524  1.00  0.00     0.000 A 
HETATM   31  C15 UNL     1      17.722  25.995  11.685  1.00  0.00     0.001 A 
HETATM   32  C16 UNL     1      17.894  26.622  12.896  1.00  0.00     0.007 A 
ENDBRANCH  26  27
ENDBRANCH  25  26
BRANCH  25  33
HETATM   33  N2  UNL     1      20.410  28.119  14.085  1.00  0.00    -0.329 N 
HETATM   34  C17 UNL     1      21.535  28.365  13.246  1.00  0.00     0.361 C 
HETATM   35  O2  UNL     1      21.694  29.509  12.765  1.00  0.00    -0.238 OA
ATOM     36  H2  UNL     1      20.265  27.193  14.487  1.00  0.00     0.165 HD
BRANCH  34  37
HETATM   37  O3  UNL     1      22.478  27.405  12.927  1.00  0.00    -0.296 OA
BRANCH  37  38
HETATM   38  C18 UNL     1      23.283  27.557  11.790  1.00  0.00     0.166 C 
HETATM   39  C19 UNL     1      24.627  26.903  12.101  1.00  0.00     0.204 C 
HETATM   40  O4  UNL     1      24.356  25.562  12.042  1.00  0.00    -0.358 OA
HETATM   41  C20 UNL     1      23.414  25.345  11.052  1.00  0.00     0.266 C 
HETATM   42  O5  UNL     1      22.412  24.556  11.615  1.00  0.00    -0.361 OA
HETATM   43  C23 UNL     1      22.777  26.657  10.709  1.00  0.00     0.075 C 
HETATM   44  C21 UNL     1      21.320  24.833  10.790  1.00  0.00     0.171 C 
HETATM   45  C22 UNL     1      21.302  26.361  10.877  1.00  0.00     0.038 C 
ENDBRANCH  37  38
ENDBRANCH  34  37
ENDBRANCH  25  33
ENDBRANCH   1  25
TORSDOF 15
ENDMDL
