MODEL 1
REMARK VINA RESULT: -9.883290066      0.000      0.000
REMARK  15 active torsions:
REMARK  status: ('A' for Active; 'I' for Inactive)
REMARK    1  A    between atoms: C2_2  and  C3_3 
REMARK    2  A    between atoms: C3_3  and  C4_4 
REMARK    3  A    between atoms: C3_3  and  C6_6 
REMARK    4  A    between atoms: C6_6  and  N1_7 
REMARK    5  A    between atoms: N1_7  and  C7_8 
REMARK    6  A    between atoms: N1_7  and  S1_33 
REMARK    7  A    between atoms: C7_8  and  C8_9 
REMARK    8  A    between atoms: C8_9  and  O1_10 
REMARK    9  A    between atoms: C8_9  and  C9_12 
REMARK   10  A    between atoms: C9_12  and  C10_13 
REMARK   11  A    between atoms: C9_12  and  N2_20 
REMARK   12  A    between atoms: C10_13  and  C11_14 
REMARK       I    between atoms: N2_20  and  C17_22 
REMARK   13  A    between atoms: C17_22  and  O3_24 
REMARK   14  A    between atoms: O3_24  and  C18_25 
REMARK   15  A    between atoms: S1_33  and  C24_36 
ROOT
HETATM    1  C8  UNL     1      19.885  29.692  15.741  1.00  0.00     0.160 C 
ENDROOT
BRANCH   1   2
HETATM    2  C7  UNL     1      18.834  30.617  16.241  1.00  0.00     0.174 C 
BRANCH   2   3
HETATM    3  N1  UNL     1      19.001  31.966  15.840  1.00  0.00    -0.283 N 
BRANCH   3   4
HETATM    4  C6  UNL     1      20.248  32.490  15.575  1.00  0.00     0.081 C 
BRANCH   4   5
HETATM    5  C3  UNL     1      20.945  33.096  16.743  1.00  0.00     0.024 C 
BRANCH   5   6
HETATM    6  C2  UNL     1      21.142  34.559  16.659  1.00  0.00     0.005 C 
HETATM    7  C1  UNL     1      21.923  35.135  17.817  1.00  0.00     0.006 C 
ENDBRANCH   5   6
BRANCH   5   8
HETATM    8  C4  UNL     1      22.281  32.440  17.052  1.00  0.00     0.005 C 
HETATM    9  C5  UNL     1      22.854  31.972  15.727  1.00  0.00     0.006 C 
ENDBRANCH   5   8
ENDBRANCH   4   5
ENDBRANCH   3   4
BRANCH   3  10
HETATM   10  S1  UNL     1      17.578  32.666  15.282  1.00  0.00     0.264 S 
HETATM   11  O6  UNL     1      16.550  31.630  14.952  1.00  0.00    -0.200 OA
HETATM   12  O7  UNL     1      17.820  33.387  13.939  1.00  0.00    -0.200 OA
BRANCH  10  13
HETATM   13  C24 UNL     1      16.898  33.823  16.418  1.00  0.00     0.081 A 
HETATM   14  C25 UNL     1      15.809  33.566  17.215  1.00  0.00     0.027 A 
HETATM   15  C26 UNL     1      15.265  34.438  18.095  1.00  0.00     0.032 A 
HETATM   16  C27 UNL     1      15.825  35.727  18.244  1.00  0.00     0.049 A 
HETATM   17  N3  UNL     1      15.412  36.664  19.045  1.00  0.00    -0.359 N 
HETATM   18  C29 UNL     1      16.913  36.000  17.456  1.00  0.00     0.034 A 
HETATM   19  C28 UNL     1      16.030  37.830  19.085  1.00  0.00     0.139 A 
ATOM     20  H3  UNL     1      14.605  36.496  19.646  1.00  0.00     0.166 HD
HETATM   21  S2  UNL     1      17.273  37.613  17.929  1.00  0.00    -0.083 SA
HETATM   22  C30 UNL     1      17.456  35.076  16.551  1.00  0.00     0.046 A 
ENDBRANCH  10  13
ENDBRANCH   3  10
ENDBRANCH   2   3
ENDBRANCH   1   2
BRANCH   1  23
HETATM   23  O1  UNL     1      20.020  28.563  16.560  1.00  0.00    -0.392 OA
ATOM     24  H1  UNL     1      20.445  27.845  16.106  1.00  0.00     0.210 HD
ENDBRANCH   1  23
BRANCH   1  25
HETATM   25  C9  UNL     1      19.562  29.182  14.366  1.00  0.00     0.121 C 
BRANCH  25  26
HETATM   26  C10 UNL     1      18.146  28.689  14.309  1.00  0.00     0.066 C 
BRANCH  26  27
HETATM   27  C11 UNL     1      17.909  28.024  12.970  1.00  0.00    -0.056 A 
HETATM   28  C12 UNL     1      17.921  26.649  12.880  1.00  0.00     0.007 A 
HETATM   29  C13 UNL     1      17.700  26.049  11.651  1.00  0.00     0.001 A 
HETATM   30  C14 UNL     1      17.470  26.830  10.541  1.00  0.00     0.000 A 
HETATM   31  C15 UNL     1      17.462  28.219  10.659  1.00  0.00     0.001 A 
HETATM   32  C16 UNL     1      17.682  28.816  11.876  1.00  0.00     0.007 A 
ENDBRANCH  26  27
ENDBRANCH  25  26
BRANCH  25  33
HETATM   33  N2  UNL     1      20.473  28.102  14.045  1.00  0.00    -0.329 N 
HETATM   34  C17 UNL     1      21.652  28.372  13.292  1.00  0.00     0.361 C 
HETATM   35  O2  UNL     1      21.880  29.545  12.921  1.00  0.00    -0.238 OA
ATOM     36  H2  UNL     1      20.273  27.152  14.358  1.00  0.00     0.165 HD
BRANCH  34  37
HETATM   37  O3  UNL     1      22.577  27.405  12.942  1.00  0.00    -0.296 OA
BRANCH  37  38
HETATM   38  C18 UNL     1      23.364  27.563  11.794  1.00  0.00     0.166 C 
HETATM   39  C19 UNL     1      24.707  26.892  12.074  1.00  0.00     0.204 C 
HETATM   40  O4  UNL     1      24.420  25.554  12.002  1.00  0.00    -0.358 OA
HETATM   41  C20 UNL     1      23.459  25.359  11.025  1.00  0.00     0.266 C 
HETATM   42  O5  UNL     1      22.460  24.574  11.595  1.00  0.00    -0.361 OA
HETATM   43  C23 UNL     1      22.831  26.682  10.710  1.00  0.00     0.075 C 
HETATM   44  C21 UNL     1      21.356  24.872  10.793  1.00  0.00     0.171 C 
HETATM   45  C22 UNL     1      21.356  26.400  10.899  1.00  0.00     0.038 C 
ENDBRANCH  37  38
ENDBRANCH  34  37
ENDBRANCH  25  33
ENDBRANCH   1  25
TORSDOF 15
ENDMDL
