MODEL 3
REMARK VINA RESULT: -9.763781127      2.724     10.174
REMARK  15 active torsions:
REMARK  status: ('A' for Active; 'I' for Inactive)
REMARK    1  A    between atoms: C2_2  and  C3_3 
REMARK    2  A    between atoms: C3_3  and  C4_4 
REMARK    3  A    between atoms: C3_3  and  C6_6 
REMARK    4  A    between atoms: C6_6  and  N1_7 
REMARK    5  A    between atoms: N1_7  and  C7_8 
REMARK    6  A    between atoms: N1_7  and  S1_33 
REMARK    7  A    between atoms: C7_8  and  C8_9 
REMARK    8  A    between atoms: C8_9  and  O1_10 
REMARK    9  A    between atoms: C8_9  and  C9_12 
REMARK   10  A    between atoms: C9_12  and  C10_13 
REMARK   11  A    between atoms: C9_12  and  N2_20 
REMARK   12  A    between atoms: C10_13  and  C11_14 
REMARK       I    between atoms: N2_20  and  C17_22 
REMARK   13  A    between atoms: C17_22  and  O3_24 
REMARK   14  A    between atoms: O3_24  and  C18_25 
REMARK   15  A    between atoms: S1_33  and  C24_36 
ROOT
HETATM    1  C8  UNL     1      19.724  30.116  16.165  1.00  0.00     0.160 C 
ENDROOT
BRANCH   1   2
HETATM    2  C7  UNL     1      20.522  29.268  15.239  1.00  0.00     0.174 C 
BRANCH   2   3
HETATM    3  N1  UNL     1      20.223  29.457  13.867  1.00  0.00    -0.283 N 
BRANCH   3   4
HETATM    4  C6  UNL     1      18.935  29.694  13.436  1.00  0.00     0.081 C 
BRANCH   4   5
HETATM    5  C3  UNL     1      18.418  28.737  12.419  1.00  0.00     0.024 C 
BRANCH   5   6
HETATM    6  C2  UNL     1      17.086  29.071  11.872  1.00  0.00     0.005 C 
HETATM    7  C1  UNL     1      16.763  28.359  10.578  1.00  0.00     0.006 C 
ENDBRANCH   5   6
BRANCH   5   8
HETATM    8  C4  UNL     1      18.398  27.296  12.906  1.00  0.00     0.005 C 
HETATM    9  C5  UNL     1      17.468  27.253  14.103  1.00  0.00     0.006 C 
ENDBRANCH   5   8
ENDBRANCH   4   5
ENDBRANCH   3   4
BRANCH   3  10
HETATM   10  S1  UNL     1      21.578  29.826  12.943  1.00  0.00     0.264 S 
HETATM   11  O6  UNL     1      22.581  30.610  13.731  1.00  0.00    -0.200 OA
HETATM   12  O7  UNL     1      21.201  30.771  11.784  1.00  0.00    -0.200 OA
BRANCH  10  13
HETATM   13  C24 UNL     1      22.351  28.400  12.268  1.00  0.00     0.081 A 
HETATM   14  C25 UNL     1      23.656  28.047  12.511  1.00  0.00     0.027 A 
HETATM   15  C26 UNL     1      24.276  26.957  12.002  1.00  0.00     0.032 A 
HETATM   16  C27 UNL     1      23.568  26.080  11.151  1.00  0.00     0.049 A 
HETATM   17  N3  UNL     1      24.029  25.001  10.592  1.00  0.00    -0.359 N 
HETATM   18  C29 UNL     1      22.263  26.416  10.898  1.00  0.00     0.034 A 
HETATM   19  C28 UNL     1      23.255  24.268   9.813  1.00  0.00     0.139 A 
ATOM     20  H3  UNL     1      24.996  24.719  10.757  1.00  0.00     0.166 HD
HETATM   21  S2  UNL     1      21.782  25.136   9.857  1.00  0.00    -0.083 SA
HETATM   22  C30 UNL     1      21.647  27.554  11.439  1.00  0.00     0.046 A 
ENDBRANCH  10  13
ENDBRANCH   3  10
ENDBRANCH   2   3
ENDBRANCH   1   2
BRANCH   1  23
HETATM   23  O1  UNL     1      19.834  29.685  17.493  1.00  0.00    -0.392 OA
ATOM     24  H1  UNL     1      20.458  28.974  17.584  1.00  0.00     0.210 HD
ENDBRANCH   1  23
BRANCH   1  25
HETATM   25  C9  UNL     1      20.189  31.544  16.143  1.00  0.00     0.121 C 
BRANCH  25  26
HETATM   26  C10 UNL     1      21.472  31.690  16.904  1.00  0.00     0.066 C 
BRANCH  26  27
HETATM   27  C11 UNL     1      21.752  33.161  17.123  1.00  0.00    -0.056 A 
HETATM   28  C12 UNL     1      21.738  33.676  18.401  1.00  0.00     0.007 A 
HETATM   29  C13 UNL     1      21.998  35.023  18.592  1.00  0.00     0.001 A 
HETATM   30  C14 UNL     1      22.268  35.827  17.506  1.00  0.00     0.000 A 
HETATM   31  C15 UNL     1      22.277  35.282  16.223  1.00  0.00     0.001 A 
HETATM   32  C16 UNL     1      22.018  33.946  16.032  1.00  0.00     0.007 A 
ENDBRANCH  26  27
ENDBRANCH  25  26
BRANCH  25  33
HETATM   33  N2  UNL     1      19.163  32.375  16.741  1.00  0.00    -0.329 N 
HETATM   34  C17 UNL     1      18.441  33.299  15.932  1.00  0.00     0.361 C 
HETATM   35  O2  UNL     1      18.708  33.375  14.712  1.00  0.00    -0.238 OA
ATOM     36  H2  UNL     1      18.958  32.298  17.737  1.00  0.00     0.165 HD
BRANCH  34  37
HETATM   37  O3  UNL     1      17.446  34.129  16.418  1.00  0.00    -0.296 OA
BRANCH  37  38
HETATM   38  C18 UNL     1      16.152  34.067  15.885  1.00  0.00     0.166 C 
HETATM   39  C19 UNL     1      15.569  32.711  16.276  1.00  0.00     0.204 C 
HETATM   40  O4  UNL     1      15.287  32.853  17.609  1.00  0.00    -0.358 OA
HETATM   41  C20 UNL     1      14.873  34.153  17.838  1.00  0.00     0.266 C 
HETATM   42  O5  UNL     1      15.616  34.628  18.917  1.00  0.00    -0.361 OA
HETATM   43  C23 UNL     1      15.261  34.988  16.656  1.00  0.00     0.075 C 
HETATM   44  C21 UNL     1      15.547  36.012  18.736  1.00  0.00     0.171 C 
HETATM   45  C22 UNL     1      16.045  36.116  17.292  1.00  0.00     0.038 C 
ENDBRANCH  37  38
ENDBRANCH  34  37
ENDBRANCH  25  33
ENDBRANCH   1  25
TORSDOF 15
ENDMDL
