MODEL 10
REMARK VINA RESULT: -9.276508796      1.386      1.979
REMARK  15 active torsions:
REMARK  status: ('A' for Active; 'I' for Inactive)
REMARK    1  A    between atoms: C2_2  and  C3_3 
REMARK    2  A    between atoms: C3_3  and  C4_4 
REMARK    3  A    between atoms: C3_3  and  C6_6 
REMARK    4  A    between atoms: C6_6  and  N1_7 
REMARK    5  A    between atoms: N1_7  and  C7_8 
REMARK    6  A    between atoms: N1_7  and  S1_33 
REMARK    7  A    between atoms: C7_8  and  C8_9 
REMARK    8  A    between atoms: C8_9  and  O1_10 
REMARK    9  A    between atoms: C8_9  and  C9_12 
REMARK   10  A    between atoms: C9_12  and  C10_13 
REMARK   11  A    between atoms: C9_12  and  N2_20 
REMARK   12  A    between atoms: C10_13  and  C11_14 
REMARK       I    between atoms: N2_20  and  C17_22 
REMARK   13  A    between atoms: C17_22  and  O3_24 
REMARK   14  A    between atoms: O3_24  and  C18_25 
REMARK   15  A    between atoms: S1_33  and  C24_36 
ROOT
HETATM    1  C8  UNL     1      18.847  29.291  14.222  1.00  0.00     0.160 C 
ENDROOT
BRANCH   1   2
HETATM    2  C7  UNL     1      18.453  30.695  13.926  1.00  0.00     0.174 C 
BRANCH   2   3
HETATM    3  N1  UNL     1      18.882  31.639  14.892  1.00  0.00    -0.283 N 
BRANCH   3   4
HETATM    4  C6  UNL     1      19.665  32.720  14.546  1.00  0.00     0.081 C 
BRANCH   4   5
HETATM    5  C3  UNL     1      21.098  32.619  14.936  1.00  0.00     0.024 C 
BRANCH   5   6
HETATM    6  C2  UNL     1      21.703  33.881  15.411  1.00  0.00     0.005 C 
HETATM    7  C1  UNL     1      22.369  33.766  16.763  1.00  0.00     0.006 C 
ENDBRANCH   5   6
BRANCH   5   8
HETATM    8  C4  UNL     1      21.979  32.037  13.841  1.00  0.00     0.005 C 
HETATM    9  C5  UNL     1      22.774  30.911  14.474  1.00  0.00     0.006 C 
ENDBRANCH   5   8
ENDBRANCH   4   5
ENDBRANCH   3   4
BRANCH   3  10
HETATM   10  S1  UNL     1      17.989  31.576  16.315  1.00  0.00     0.264 S 
HETATM   11  O6  UNL     1      18.590  30.621  17.298  1.00  0.00    -0.200 OA
HETATM   12  O7  UNL     1      16.585  30.994  16.047  1.00  0.00    -0.200 OA
BRANCH  10  13
HETATM   13  C24 UNL     1      17.801  33.152  17.070  1.00  0.00     0.081 A 
HETATM   14  C25 UNL     1      18.837  33.869  17.619  1.00  0.00     0.027 A 
HETATM   15  C26 UNL     1      18.720  35.081  18.208  1.00  0.00     0.032 A 
HETATM   16  C27 UNL     1      17.453  35.702  18.289  1.00  0.00     0.049 A 
HETATM   17  N3  UNL     1      17.190  36.858  18.823  1.00  0.00    -0.359 N 
HETATM   18  C29 UNL     1      16.408  35.002  17.747  1.00  0.00     0.034 A 
HETATM   19  C28 UNL     1      15.955  37.325  18.833  1.00  0.00     0.139 A 
ATOM     20  H3  UNL     1      17.943  37.408  19.237  1.00  0.00     0.166 HD
HETATM   21  S2  UNL     1      15.095  36.071  18.046  1.00  0.00    -0.083 SA
HETATM   22  C30 UNL     1      16.559  33.745  17.142  1.00  0.00     0.046 A 
ENDBRANCH  10  13
ENDBRANCH   3  10
ENDBRANCH   2   3
ENDBRANCH   1   2
BRANCH   1  23
HETATM   23  O1  UNL     1      17.887  28.634  15.003  1.00  0.00    -0.392 OA
ATOM     24  H1  UNL     1      17.387  29.242  15.535  1.00  0.00     0.210 HD
ENDBRANCH   1  23
BRANCH   1  25
HETATM   25  C9  UNL     1      18.996  28.484  12.965  1.00  0.00     0.121 C 
BRANCH  25  26
HETATM   26  C10 UNL     1      17.786  27.625  12.746  1.00  0.00     0.066 C 
BRANCH  26  27
HETATM   27  C11 UNL     1      17.878  26.982  11.379  1.00  0.00    -0.056 A 
HETATM   28  C12 UNL     1      18.012  27.774  10.260  1.00  0.00     0.007 A 
HETATM   29  C13 UNL     1      18.098  27.177   9.013  1.00  0.00     0.001 A 
HETATM   30  C14 UNL     1      18.050  25.804   8.909  1.00  0.00     0.000 A 
HETATM   31  C15 UNL     1      17.915  25.025  10.057  1.00  0.00     0.001 A 
HETATM   32  C16 UNL     1      17.828  25.616  11.294  1.00  0.00     0.007 A 
ENDBRANCH  26  27
ENDBRANCH  25  26
BRANCH  25  33
HETATM   33  N2  UNL     1      20.176  27.652  13.085  1.00  0.00    -0.329 N 
HETATM   34  C17 UNL     1      21.393  28.057  12.464  1.00  0.00     0.361 C 
HETATM   35  O2  UNL     1      21.419  29.131  11.823  1.00  0.00    -0.238 OA
ATOM     36  H2  UNL     1      20.136  26.780  13.612  1.00  0.00     0.165 HD
BRANCH  34  37
HETATM   37  O3  UNL     1      22.566  27.326  12.527  1.00  0.00    -0.296 OA
BRANCH  37  38
HETATM   38  C18 UNL     1      23.536  27.460  11.525  1.00  0.00     0.166 C 
HETATM   39  C19 UNL     1      24.834  26.876  12.075  1.00  0.00     0.204 C 
HETATM   40  O4  UNL     1      24.621  25.524  12.042  1.00  0.00    -0.358 OA
HETATM   41  C20 UNL     1      23.855  25.224  10.929  1.00  0.00     0.266 C 
HETATM   42  O5  UNL     1      22.804  24.421  11.368  1.00  0.00    -0.361 OA
HETATM   43  C23 UNL     1      23.238  26.492  10.425  1.00  0.00     0.075 C 
HETATM   44  C21 UNL     1      21.848  24.616  10.368  1.00  0.00     0.171 C 
HETATM   45  C22 UNL     1      21.766  26.144  10.373  1.00  0.00     0.038 C 
ENDBRANCH  37  38
ENDBRANCH  34  37
ENDBRANCH  25  33
ENDBRANCH   1  25
TORSDOF 15
ENDMDL
