MODEL 9
REMARK VINA RESULT: -9.329261270      0.838      1.597
REMARK  15 active torsions:
REMARK  status: ('A' for Active; 'I' for Inactive)
REMARK    1  A    between atoms: C2_2  and  C3_3 
REMARK    2  A    between atoms: C3_3  and  C4_4 
REMARK    3  A    between atoms: C3_3  and  C6_6 
REMARK    4  A    between atoms: C6_6  and  N1_7 
REMARK    5  A    between atoms: N1_7  and  C7_8 
REMARK    6  A    between atoms: N1_7  and  S1_33 
REMARK    7  A    between atoms: C7_8  and  C8_9 
REMARK    8  A    between atoms: C8_9  and  O1_10 
REMARK    9  A    between atoms: C8_9  and  C9_12 
REMARK   10  A    between atoms: C9_12  and  C10_13 
REMARK   11  A    between atoms: C9_12  and  N2_20 
REMARK   12  A    between atoms: C10_13  and  C11_14 
REMARK       I    between atoms: N2_20  and  C17_22 
REMARK   13  A    between atoms: C17_22  and  O3_24 
REMARK   14  A    between atoms: O3_24  and  C18_25 
REMARK   15  A    between atoms: S1_33  and  C24_36 
ROOT
HETATM    1  C8  UNL     1      20.000  29.356  15.642  1.00  0.00     0.160 C 
ENDROOT
BRANCH   1   2
HETATM    2  C7  UNL     1      19.094  30.380  16.228  1.00  0.00     0.174 C 
BRANCH   2   3
HETATM    3  N1  UNL     1      19.307  31.696  15.745  1.00  0.00    -0.283 N 
BRANCH   3   4
HETATM    4  C6  UNL     1      20.574  32.170  15.479  1.00  0.00     0.081 C 
BRANCH   4   5
HETATM    5  C3  UNL     1      21.413  32.451  16.676  1.00  0.00     0.024 C 
BRANCH   5   6
HETATM    6  C2  UNL     1      21.321  33.834  17.189  1.00  0.00     0.005 C 
HETATM    7  C1  UNL     1      21.326  34.887  16.104  1.00  0.00     0.006 C 
ENDBRANCH   5   6
BRANCH   5   8
HETATM    8  C4  UNL     1      22.880  32.100  16.478  1.00  0.00     0.005 C 
HETATM    9  C5  UNL     1      23.019  31.597  15.053  1.00  0.00     0.006 C 
ENDBRANCH   5   8
ENDBRANCH   4   5
ENDBRANCH   3   4
BRANCH   3  10
HETATM   10  S1  UNL     1      17.917  32.396  15.109  1.00  0.00     0.264 S 
HETATM   11  O6  UNL     1      16.947  31.357  14.638  1.00  0.00    -0.200 OA
HETATM   12  O7  UNL     1      18.250  33.195  13.832  1.00  0.00    -0.200 OA
BRANCH  10  13
HETATM   13  C24 UNL     1      17.116  33.472  16.245  1.00  0.00     0.081 A 
HETATM   14  C25 UNL     1      15.983  33.140  16.947  1.00  0.00     0.027 A 
HETATM   15  C26 UNL     1      15.346  33.949  17.824  1.00  0.00     0.032 A 
HETATM   16  C27 UNL     1      15.846  35.247  18.074  1.00  0.00     0.049 A 
HETATM   17  N3  UNL     1      15.343  36.129  18.885  1.00  0.00    -0.359 N 
HETATM   18  C29 UNL     1      16.977  35.594  17.382  1.00  0.00     0.034 A 
HETATM   19  C28 UNL     1      15.914  37.311  19.026  1.00  0.00     0.139 A 
ATOM     20  H3  UNL     1      14.501  35.906  19.417  1.00  0.00     0.166 HD
HETATM   21  S2  UNL     1      17.244  37.193  17.956  1.00  0.00    -0.083 SA
HETATM   22  C30 UNL     1      17.617  34.734  16.478  1.00  0.00     0.046 A 
ENDBRANCH  10  13
ENDBRANCH   3  10
ENDBRANCH   2   3
ENDBRANCH   1   2
BRANCH   1  23
HETATM   23  O1  UNL     1      20.007  28.174  16.394  1.00  0.00    -0.392 OA
ATOM     24  H1  UNL     1      20.135  27.408  15.847  1.00  0.00     0.210 HD
ENDBRANCH   1  23
BRANCH   1  25
HETATM   25  C9  UNL     1      19.573  28.973  14.254  1.00  0.00     0.121 C 
BRANCH  25  26
HETATM   26  C10 UNL     1      18.228  28.311  14.282  1.00  0.00     0.066 C 
BRANCH  26  27
HETATM   27  C11 UNL     1      17.864  27.872  12.880  1.00  0.00    -0.056 A 
HETATM   28  C12 UNL     1      17.406  28.801  11.971  1.00  0.00     0.007 A 
HETATM   29  C13 UNL     1      17.079  28.390  10.689  1.00  0.00     0.001 A 
HETATM   30  C14 UNL     1      17.216  27.064  10.341  1.00  0.00     0.000 A 
HETATM   31  C15 UNL     1      17.682  26.145  11.279  1.00  0.00     0.001 A 
HETATM   32  C16 UNL     1      18.006  26.550  12.550  1.00  0.00     0.007 A 
ENDBRANCH  26  27
ENDBRANCH  25  26
BRANCH  25  33
HETATM   33  N2  UNL     1      20.558  28.066  13.700  1.00  0.00    -0.329 N 
HETATM   34  C17 UNL     1      21.299  28.446  12.545  1.00  0.00     0.361 C 
HETATM   35  O2  UNL     1      21.085  29.565  12.027  1.00  0.00    -0.238 OA
ATOM     36  H2  UNL     1      20.720  27.158  14.135  1.00  0.00     0.165 HD
BRANCH  34  37
HETATM   37  O3  UNL     1      22.258  27.645  11.950  1.00  0.00    -0.296 OA
BRANCH  37  38
HETATM   38  C18 UNL     1      22.277  26.266  12.196  1.00  0.00     0.166 C 
HETATM   39  C19 UNL     1      21.370  25.612  11.157  1.00  0.00     0.204 C 
HETATM   40  O4  UNL     1      22.104  25.673  10.003  1.00  0.00    -0.358 OA
HETATM   41  C20 UNL     1      23.440  25.506  10.319  1.00  0.00     0.266 C 
HETATM   42  O5  UNL     1      24.135  26.539   9.692  1.00  0.00    -0.361 OA
HETATM   43  C23 UNL     1      23.607  25.716  11.793  1.00  0.00     0.075 C 
HETATM   44  C21 UNL     1      25.299  26.619  10.460  1.00  0.00     0.171 C 
HETATM   45  C22 UNL     1      24.688  26.773  11.855  1.00  0.00     0.038 C 
ENDBRANCH  37  38
ENDBRANCH  34  37
ENDBRANCH  25  33
ENDBRANCH   1  25
TORSDOF 15
ENDMDL
