MODEL 10
REMARK VINA RESULT: -8.169092024      2.868      9.753
REMARK  15 active torsions:
REMARK  status: ('A' for Active; 'I' for Inactive)
REMARK    1  A    between atoms: C2_2  and  N1_3 
REMARK    2  A    between atoms: C2_2  and  C3_7 
REMARK       I    between atoms: C3_7  and  N2_9 
REMARK    3  A    between atoms: N2_9  and  C4_11 
REMARK    4  A    between atoms: C4_11  and  C5_12 
REMARK    5  A    between atoms: C4_11  and  C15_33 
REMARK    6  A    between atoms: C5_12  and  C6_13 
REMARK    7  A    between atoms: C6_13  and  C7_14 
REMARK       I    between atoms: C7_14  and  N3_16 
REMARK    8  A    between atoms: N3_16  and  C8_18 
REMARK    9  A    between atoms: C8_18  and  C9_19 
REMARK   10  A    between atoms: C8_18  and  C14_30 
REMARK   11  A    between atoms: C9_19  and  C10_20 
REMARK   12  A    between atoms: C10_20  and  C11_21 
REMARK   13  A    between atoms: C11_21  and  C12_22 
REMARK   14  A    between atoms: C12_22  and  N4_23 
REMARK   15  A    between atoms: C12_22  and  C13_27 
ROOT
HETATM    1  C7  UNL     1      13.983  64.032  36.679  1.00  0.00     0.218 C 
HETATM    2  O2  UNL     1      12.918  63.382  36.617  1.00  0.00    -0.274 OA
HETATM    3  N3  UNL     1      14.698  64.228  37.870  1.00  0.00    -0.347 N 
ATOM      4  H3  UNL     1      15.566  64.763  37.897  1.00  0.00     0.163 HD
ENDROOT
BRANCH   1   5
HETATM    5  C6  UNL     1      14.521  64.629  35.430  1.00  0.00     0.105 C 
BRANCH   5   6
HETATM    6  C5  UNL     1      15.643  65.604  35.731  1.00  0.00     0.045 C 
BRANCH   6   7
HETATM    7  C4  UNL     1      15.189  66.953  35.218  1.00  0.00     0.186 C 
BRANCH   7   8
HETATM    8  N2  UNL     1      15.056  67.833  36.347  1.00  0.00    -0.345 N 
HETATM    9  C3  UNL     1      14.100  68.868  36.395  1.00  0.00     0.248 C 
HETATM   10  O1  UNL     1      13.310  69.084  35.454  1.00  0.00    -0.271 OA
ATOM     11  H2  UNL     1      15.677  67.703  37.145  1.00  0.00     0.163 HD
BRANCH   9  12
HETATM   12  C2  UNL     1      14.038  69.720  37.600  1.00  0.00     0.270 C 
HETATM   13  C1  UNL     1      12.917  69.235  38.472  1.00  0.00     0.050 C 
BRANCH  12  14
HETATM   14  N1  UNL     1      13.942  71.128  37.290  1.00  0.00    -0.067 N 
ATOM     15  H13 UNL     1      13.810  71.680  38.138  1.00  0.00     0.275 HD
ATOM     16  H12 UNL     1      14.845  71.497  36.990  1.00  0.00     0.275 HD
ATOM     17  H11 UNL     1      13.217  71.336  36.604  1.00  0.00     0.275 HD
ENDBRANCH  12  14
ENDBRANCH   9  12
ENDBRANCH   7   8
BRANCH   7  18
HETATM   18  C15 UNL     1      16.088  67.545  34.234  1.00  0.00     0.196 C 
HETATM   19  O7  UNL     1      15.709  68.474  33.494  1.00  0.00    -0.646 OA
HETATM   20  O8  UNL     1      17.380  67.075  34.113  1.00  0.00    -0.646 OA
ENDBRANCH   7  18
ENDBRANCH   6   7
ENDBRANCH   5   6
ENDBRANCH   1   5
BRANCH   3  21
HETATM   21  C8  UNL     1      14.098  63.593  39.120  1.00  0.00     0.185 C 
BRANCH  21  22
HETATM   22  C9  UNL     1      15.246  62.910  39.730  1.00  0.00     0.036 C 
BRANCH  22  23
HETATM   23  C10 UNL     1      15.057  61.799  40.655  1.00  0.00     0.005 C 
BRANCH  23  24
HETATM   24  C11 UNL     1      14.250  60.650  40.192  1.00  0.00     0.044 C 
BRANCH  24  25
HETATM   25  C12 UNL     1      13.320  60.283  41.397  1.00  0.00     0.283 C 
BRANCH  25  26
HETATM   26  N4  UNL     1      12.834  61.544  41.902  1.00  0.00    -0.065 N 
ATOM     27  H43 UNL     1      13.486  62.318  41.772  1.00  0.00     0.275 HD
ATOM     28  H42 UNL     1      12.070  61.939  41.354  1.00  0.00     0.275 HD
ATOM     29  H41 UNL     1      12.592  61.370  42.877  1.00  0.00     0.275 HD
ENDBRANCH  25  26
BRANCH  25  30
HETATM   30  C13 UNL     1      12.247  59.462  40.811  1.00  0.00     0.204 C 
HETATM   31  O3  UNL     1      11.730  59.794  39.727  1.00  0.00    -0.646 OA
HETATM   32  O4  UNL     1      11.823  58.333  41.458  1.00  0.00    -0.646 OA
ENDBRANCH  25  30
ENDBRANCH  24  25
ENDBRANCH  23  24
ENDBRANCH  22  23
ENDBRANCH  21  22
BRANCH  21  33
HETATM   33  C14 UNL     1      13.556  64.795  39.781  1.00  0.00     0.196 C 
HETATM   34  O5  UNL     1      12.876  64.578  40.862  1.00  0.00    -0.646 OA
HETATM   35  O6  UNL     1      13.649  66.102  39.437  1.00  0.00    -0.646 OA
ENDBRANCH  21  33
ENDBRANCH   3  21
TORSDOF 15
ENDMDL
