MODEL 4
REMARK VINA RESULT: -8.466289326      1.584      2.051
REMARK  15 active torsions:
REMARK  status: ('A' for Active; 'I' for Inactive)
REMARK    1  A    between atoms: C2_2  and  N1_3 
REMARK    2  A    between atoms: C2_2  and  C3_7 
REMARK       I    between atoms: C3_7  and  N2_9 
REMARK    3  A    between atoms: N2_9  and  C4_11 
REMARK    4  A    between atoms: C4_11  and  C5_12 
REMARK    5  A    between atoms: C4_11  and  C15_33 
REMARK    6  A    between atoms: C5_12  and  C6_13 
REMARK    7  A    between atoms: C6_13  and  C7_14 
REMARK       I    between atoms: C7_14  and  N3_16 
REMARK    8  A    between atoms: N3_16  and  C8_18 
REMARK    9  A    between atoms: C8_18  and  C9_19 
REMARK   10  A    between atoms: C8_18  and  C14_30 
REMARK   11  A    between atoms: C9_19  and  C10_20 
REMARK   12  A    between atoms: C10_20  and  C11_21 
REMARK   13  A    between atoms: C11_21  and  C12_22 
REMARK   14  A    between atoms: C12_22  and  N4_23 
REMARK   15  A    between atoms: C12_22  and  C13_27 
ROOT
HETATM    1  C7  UNL     1      13.769  61.101  41.490  1.00  0.00     0.218 C 
HETATM    2  O2  UNL     1      14.904  60.720  41.848  1.00  0.00    -0.274 OA
HETATM    3  N3  UNL     1      13.485  62.417  41.098  1.00  0.00    -0.347 N 
ATOM      4  H3  UNL     1      12.551  62.706  40.810  1.00  0.00     0.163 HD
ENDROOT
BRANCH   1   5
HETATM    5  C6  UNL     1      12.662  60.111  41.479  1.00  0.00     0.105 C 
BRANCH   5   6
HETATM    6  C5  UNL     1      12.691  59.247  42.725  1.00  0.00     0.045 C 
BRANCH   6   7
HETATM    7  C4  UNL     1      11.602  58.211  42.556  1.00  0.00     0.186 C 
BRANCH   7   8
HETATM    8  N2  UNL     1      12.190  57.044  41.957  1.00  0.00    -0.345 N 
HETATM    9  C3  UNL     1      11.999  56.707  40.601  1.00  0.00     0.248 C 
HETATM   10  O1  UNL     1      11.301  57.404  39.838  1.00  0.00    -0.271 OA
ATOM     11  H2  UNL     1      12.769  56.436  42.535  1.00  0.00     0.163 HD
BRANCH   9  12
HETATM   12  C2  UNL     1      12.646  55.489  40.076  1.00  0.00     0.270 C 
HETATM   13  C1  UNL     1      13.954  55.874  39.448  1.00  0.00     0.050 C 
BRANCH  12  14
HETATM   14  N1  UNL     1      11.793  54.736  39.185  1.00  0.00    -0.067 N 
ATOM     15  H13 UNL     1      11.615  55.254  38.325  1.00  0.00     0.275 HD
ATOM     16  H12 UNL     1      12.289  53.934  38.797  1.00  0.00     0.275 HD
ATOM     17  H11 UNL     1      10.919  54.446  39.623  1.00  0.00     0.275 HD
ENDBRANCH  12  14
ENDBRANCH   9  12
ENDBRANCH   7   8
BRANCH   7  18
HETATM   18  C15 UNL     1      10.935  57.844  43.800  1.00  0.00     0.196 C 
HETATM   19  O7  UNL     1      11.399  56.956  44.540  1.00  0.00    -0.646 OA
HETATM   20  O8  UNL     1       9.770  58.486  44.170  1.00  0.00    -0.646 OA
ENDBRANCH   7  18
ENDBRANCH   6   7
ENDBRANCH   5   6
ENDBRANCH   1   5
BRANCH   3  21
HETATM   21  C8  UNL     1      14.661  63.390  41.130  1.00  0.00     0.185 C 
BRANCH  21  22
HETATM   22  C9  UNL     1      15.084  63.445  39.724  1.00  0.00     0.036 C 
BRANCH  22  23
HETATM   23  C10 UNL     1      14.137  63.198  38.644  1.00  0.00     0.005 C 
BRANCH  23  24
HETATM   24  C11 UNL     1      13.957  64.260  37.632  1.00  0.00     0.044 C 
BRANCH  24  25
HETATM   25  C12 UNL     1      14.601  63.698  36.319  1.00  0.00     0.283 C 
BRANCH  25  26
HETATM   26  N4  UNL     1      13.593  63.864  35.299  1.00  0.00    -0.065 N 
ATOM     27  H43 UNL     1      12.849  63.167  35.341  1.00  0.00     0.275 HD
ATOM     28  H42 UNL     1      13.000  64.681  35.437  1.00  0.00     0.275 HD
ATOM     29  H41 UNL     1      14.102  63.869  34.416  1.00  0.00     0.275 HD
ENDBRANCH  25  26
BRANCH  25  30
HETATM   30  C13 UNL     1      15.782  64.545  36.084  1.00  0.00     0.204 C 
HETATM   31  O3  UNL     1      15.851  65.676  36.602  1.00  0.00    -0.646 OA
HETATM   32  O4  UNL     1      16.804  64.085  35.298  1.00  0.00    -0.646 OA
ENDBRANCH  25  30
ENDBRANCH  24  25
ENDBRANCH  23  24
ENDBRANCH  22  23
ENDBRANCH  21  22
BRANCH  21  33
HETATM   33  C14 UNL     1      13.998  64.569  41.717  1.00  0.00     0.196 C 
HETATM   34  O5  UNL     1      13.918  64.577  43.010  1.00  0.00    -0.646 OA
HETATM   35  O6  UNL     1      13.450  65.655  41.122  1.00  0.00    -0.646 OA
ENDBRANCH  21  33
ENDBRANCH   3  21
TORSDOF 15
ENDMDL
