MODEL 2
REMARK VINA RESULT: -8.618890067      1.145      1.226
REMARK  15 active torsions:
REMARK  status: ('A' for Active; 'I' for Inactive)
REMARK    1  A    between atoms: C2_2  and  N1_3 
REMARK    2  A    between atoms: C2_2  and  C3_7 
REMARK       I    between atoms: C3_7  and  N2_9 
REMARK    3  A    between atoms: N2_9  and  C4_11 
REMARK    4  A    between atoms: C4_11  and  C5_12 
REMARK    5  A    between atoms: C4_11  and  C15_33 
REMARK    6  A    between atoms: C5_12  and  C6_13 
REMARK    7  A    between atoms: C6_13  and  C7_14 
REMARK       I    between atoms: C7_14  and  N3_16 
REMARK    8  A    between atoms: N3_16  and  C8_18 
REMARK    9  A    between atoms: C8_18  and  C9_19 
REMARK   10  A    between atoms: C8_18  and  C14_30 
REMARK   11  A    between atoms: C9_19  and  C10_20 
REMARK   12  A    between atoms: C10_20  and  C11_21 
REMARK   13  A    between atoms: C11_21  and  C12_22 
REMARK   14  A    between atoms: C12_22  and  N4_23 
REMARK   15  A    between atoms: C12_22  and  C13_27 
ROOT
HETATM    1  C7  UNL     1      14.350  61.367  40.346  1.00  0.00     0.218 C 
HETATM    2  O2  UNL     1      15.511  61.644  40.718  1.00  0.00    -0.274 OA
HETATM    3  N3  UNL     1      13.527  62.265  39.651  1.00  0.00    -0.347 N 
ATOM      4  H3  UNL     1      12.583  62.017  39.358  1.00  0.00     0.163 HD
ENDROOT
BRANCH   1   5
HETATM    5  C6  UNL     1      13.812  60.018  40.656  1.00  0.00     0.105 C 
BRANCH   5   6
HETATM    6  C5  UNL     1      13.503  59.880  42.135  1.00  0.00     0.045 C 
BRANCH   6   7
HETATM    7  C4  UNL     1      12.336  58.925  42.244  1.00  0.00     0.186 C 
BRANCH   7   8
HETATM    8  N2  UNL     1      12.755  57.652  41.723  1.00  0.00    -0.345 N 
HETATM    9  C3  UNL     1      12.150  57.053  40.600  1.00  0.00     0.248 C 
HETATM   10  O1  UNL     1      11.207  57.595  39.988  1.00  0.00    -0.271 OA
ATOM     11  H2  UNL     1      13.521  57.163  42.185  1.00  0.00     0.163 HD
BRANCH   9  12
HETATM   12  C2  UNL     1      12.653  55.744  40.138  1.00  0.00     0.270 C 
HETATM   13  C1  UNL     1      14.027  55.933  39.565  1.00  0.00     0.050 C 
BRANCH  12  14
HETATM   14  N1  UNL     1      11.747  55.082  39.226  1.00  0.00    -0.067 N 
ATOM     15  H13 UNL     1      12.249  54.429  38.624  1.00  0.00     0.275 HD
ATOM     16  H12 UNL     1      11.147  54.424  39.722  1.00  0.00     0.275 HD
ATOM     17  H11 UNL     1      11.193  55.735  38.673  1.00  0.00     0.275 HD
ENDBRANCH  12  14
ENDBRANCH   9  12
ENDBRANCH   7   8
BRANCH   7  18
HETATM   18  C15 UNL     1      11.830  58.761  43.601  1.00  0.00     0.196 C 
HETATM   19  O7  UNL     1      11.067  59.604  44.109  1.00  0.00    -0.646 OA
HETATM   20  O8  UNL     1      12.198  57.657  44.343  1.00  0.00    -0.646 OA
ENDBRANCH   7  18
ENDBRANCH   6   7
ENDBRANCH   5   6
ENDBRANCH   1   5
BRANCH   3  21
HETATM   21  C8  UNL     1      14.133  63.635  39.361  1.00  0.00     0.185 C 
BRANCH  21  22
HETATM   22  C9  UNL     1      13.850  63.828  37.933  1.00  0.00     0.036 C 
BRANCH  22  23
HETATM   23  C10 UNL     1      14.814  64.481  37.057  1.00  0.00     0.005 C 
BRANCH  23  24
HETATM   24  C11 UNL     1      14.667  64.275  35.600  1.00  0.00     0.044 C 
BRANCH  24  25
HETATM   25  C12 UNL     1      15.766  65.176  34.940  1.00  0.00     0.283 C 
BRANCH  25  26
HETATM   26  N4  UNL     1      16.275  66.001  36.008  1.00  0.00    -0.065 N 
ATOM     27  H43 UNL     1      16.628  65.470  36.805  1.00  0.00     0.275 HD
ATOM     28  H42 UNL     1      17.151  66.472  35.782  1.00  0.00     0.275 HD
ATOM     29  H41 UNL     1      15.515  66.639  36.243  1.00  0.00     0.275 HD
ENDBRANCH  25  26
BRANCH  25  30
HETATM   30  C13 UNL     1      16.774  64.231  34.430  1.00  0.00     0.204 C 
HETATM   31  O3  UNL     1      16.526  63.010  34.405  1.00  0.00    -0.646 OA
HETATM   32  O4  UNL     1      17.980  64.698  33.983  1.00  0.00    -0.646 OA
ENDBRANCH  25  30
ENDBRANCH  24  25
ENDBRANCH  23  24
ENDBRANCH  22  23
ENDBRANCH  21  22
BRANCH  21  33
HETATM   33  C14 UNL     1      13.397  64.451  40.345  1.00  0.00     0.196 C 
HETATM   34  O5  UNL     1      13.173  65.678  39.996  1.00  0.00    -0.646 OA
HETATM   35  O6  UNL     1      12.917  64.128  41.569  1.00  0.00    -0.646 OA
ENDBRANCH  21  33
ENDBRANCH   3  21
TORSDOF 15
ENDMDL
