MODEL 7
REMARK VINA RESULT: -8.265988314      3.099      5.763
REMARK  15 active torsions:
REMARK  status: ('A' for Active; 'I' for Inactive)
REMARK    1  A    between atoms: C2_2  and  N1_3 
REMARK    2  A    between atoms: C2_2  and  C3_7 
REMARK       I    between atoms: C3_7  and  N2_9 
REMARK    3  A    between atoms: N2_9  and  C4_11 
REMARK    4  A    between atoms: C4_11  and  C5_12 
REMARK    5  A    between atoms: C4_11  and  C15_33 
REMARK    6  A    between atoms: C5_12  and  C6_13 
REMARK    7  A    between atoms: C6_13  and  C7_14 
REMARK       I    between atoms: C7_14  and  N3_16 
REMARK    8  A    between atoms: N3_16  and  C8_18 
REMARK    9  A    between atoms: C8_18  and  C9_19 
REMARK   10  A    between atoms: C8_18  and  C14_30 
REMARK   11  A    between atoms: C9_19  and  C10_20 
REMARK   12  A    between atoms: C10_20  and  C11_21 
REMARK   13  A    between atoms: C11_21  and  C12_22 
REMARK   14  A    between atoms: C12_22  and  N4_23 
REMARK   15  A    between atoms: C12_22  and  C13_27 
ROOT
HETATM    1  C7  UNL     1      14.139  64.085  37.257  1.00  0.00     0.218 C 
HETATM    2  O2  UNL     1      13.193  63.565  36.626  1.00  0.00    -0.274 OA
HETATM    3  N3  UNL     1      15.118  64.889  36.654  1.00  0.00    -0.347 N 
ATOM      4  H3  UNL     1      15.881  65.303  37.188  1.00  0.00     0.163 HD
ENDROOT
BRANCH   1   5
HETATM    5  C6  UNL     1      14.234  63.840  38.718  1.00  0.00     0.105 C 
BRANCH   5   6
HETATM    6  C5  UNL     1      13.741  65.038  39.506  1.00  0.00     0.045 C 
BRANCH   6   7
HETATM    7  C4  UNL     1      13.644  64.594  40.949  1.00  0.00     0.186 C 
BRANCH   7   8
HETATM    8  N2  UNL     1      13.744  63.161  40.979  1.00  0.00    -0.345 N 
HETATM    9  C3  UNL     1      13.000  62.365  41.874  1.00  0.00     0.248 C 
HETATM   10  O1  UNL     1      12.207  62.862  42.699  1.00  0.00    -0.271 OA
ATOM     11  H2  UNL     1      14.378  62.701  40.327  1.00  0.00     0.163 HD
BRANCH   9  12
HETATM   12  C2  UNL     1      13.169  60.899  41.827  1.00  0.00     0.270 C 
HETATM   13  C1  UNL     1      14.033  60.554  40.649  1.00  0.00     0.050 C 
BRANCH  12  14
HETATM   14  N1  UNL     1      11.912  60.186  41.833  1.00  0.00    -0.067 N 
ATOM     15  H13 UNL     1      11.126  60.833  41.894  1.00  0.00     0.275 HD
ATOM     16  H12 UNL     1      11.721  59.777  40.919  1.00  0.00     0.275 HD
ATOM     17  H11 UNL     1      11.859  59.480  42.567  1.00  0.00     0.275 HD
ENDBRANCH  12  14
ENDBRANCH   9  12
ENDBRANCH   7   8
BRANCH   7  18
HETATM   18  C15 UNL     1      14.660  65.178  41.817  1.00  0.00     0.196 C 
HETATM   19  O7  UNL     1      14.355  66.006  42.697  1.00  0.00    -0.646 OA
HETATM   20  O8  UNL     1      15.983  64.816  41.668  1.00  0.00    -0.646 OA
ENDBRANCH   7  18
ENDBRANCH   6   7
ENDBRANCH   5   6
ENDBRANCH   1   5
BRANCH   3  21
HETATM   21  C8  UNL     1      14.969  65.106  35.151  1.00  0.00     0.185 C 
BRANCH  21  22
HETATM   22  C9  UNL     1      14.762  66.555  35.044  1.00  0.00     0.036 C 
BRANCH  22  23
HETATM   23  C10 UNL     1      14.918  67.426  36.202  1.00  0.00     0.005 C 
BRANCH  23  24
HETATM   24  C11 UNL     1      14.336  68.782  36.125  1.00  0.00     0.044 C 
BRANCH  24  25
HETATM   25  C12 UNL     1      13.967  69.161  37.600  1.00  0.00     0.283 C 
BRANCH  25  26
HETATM   26  N4  UNL     1      14.723  70.357  37.887  1.00  0.00    -0.065 N 
ATOM     27  H43 UNL     1      15.734  70.220  37.858  1.00  0.00     0.275 HD
ATOM     28  H42 UNL     1      14.676  71.059  37.149  1.00  0.00     0.275 HD
ATOM     29  H41 UNL     1      14.378  70.684  38.789  1.00  0.00     0.275 HD
ENDBRANCH  25  26
BRANCH  25  30
HETATM   30  C13 UNL     1      12.516  69.406  37.576  1.00  0.00     0.204 C 
HETATM   31  O3  UNL     1      11.794  68.959  38.488  1.00  0.00    -0.646 OA
HETATM   32  O4  UNL     1      11.963  70.127  36.552  1.00  0.00    -0.646 OA
ENDBRANCH  25  30
ENDBRANCH  24  25
ENDBRANCH  23  24
ENDBRANCH  22  23
ENDBRANCH  21  22
BRANCH  21  33
HETATM   33  C14 UNL     1      16.247  64.536  34.686  1.00  0.00     0.196 C 
HETATM   34  O5  UNL     1      16.339  63.245  34.750  1.00  0.00    -0.646 OA
HETATM   35  O6  UNL     1      17.355  65.146  34.201  1.00  0.00    -0.646 OA
ENDBRANCH  21  33
ENDBRANCH   3  21
TORSDOF 15
ENDMDL
