MODEL 11
REMARK VINA RESULT: -8.157472751      3.600      5.381
REMARK  15 active torsions:
REMARK  status: ('A' for Active; 'I' for Inactive)
REMARK    1  A    between atoms: C2_2  and  N1_3 
REMARK    2  A    between atoms: C2_2  and  C3_7 
REMARK       I    between atoms: C3_7  and  N2_9 
REMARK    3  A    between atoms: N2_9  and  C4_11 
REMARK    4  A    between atoms: C4_11  and  C5_12 
REMARK    5  A    between atoms: C4_11  and  C15_33 
REMARK    6  A    between atoms: C5_12  and  C6_13 
REMARK    7  A    between atoms: C6_13  and  C7_14 
REMARK       I    between atoms: C7_14  and  N3_16 
REMARK    8  A    between atoms: N3_16  and  C8_18 
REMARK    9  A    between atoms: C8_18  and  C9_19 
REMARK   10  A    between atoms: C8_18  and  C14_30 
REMARK   11  A    between atoms: C9_19  and  C10_20 
REMARK   12  A    between atoms: C10_20  and  C11_21 
REMARK   13  A    between atoms: C11_21  and  C12_22 
REMARK   14  A    between atoms: C12_22  and  N4_23 
REMARK   15  A    between atoms: C12_22  and  C13_27 
ROOT
HETATM    1  C7  UNL     1      14.691  63.481  38.606  1.00  0.00     0.218 C 
HETATM    2  O2  UNL     1      13.448  63.605  38.649  1.00  0.00    -0.274 OA
HETATM    3  N3  UNL     1      15.497  64.115  37.649  1.00  0.00    -0.347 N 
ATOM      4  H3  UNL     1      16.509  64.000  37.633  1.00  0.00     0.163 HD
ENDROOT
BRANCH   1   5
HETATM    5  C6  UNL     1      15.350  62.617  39.618  1.00  0.00     0.105 C 
BRANCH   5   6
HETATM    6  C5  UNL     1      16.155  63.445  40.601  1.00  0.00     0.045 C 
BRANCH   6   7
HETATM    7  C4  UNL     1      15.182  63.939  41.647  1.00  0.00     0.186 C 
BRANCH   7   8
HETATM    8  N2  UNL     1      14.499  62.797  42.191  1.00  0.00    -0.345 N 
HETATM    9  C3  UNL     1      13.095  62.728  42.295  1.00  0.00     0.248 C 
HETATM   10  O1  UNL     1      12.357  63.662  41.921  1.00  0.00    -0.271 OA
ATOM     11  H2  UNL     1      15.053  62.004  42.514  1.00  0.00     0.163 HD
BRANCH   9  12
HETATM   12  C2  UNL     1      12.486  61.510  42.866  1.00  0.00     0.270 C 
HETATM   13  C1  UNL     1      12.751  60.361  41.938  1.00  0.00     0.050 C 
BRANCH  12  14
HETATM   14  N1  UNL     1      11.083  61.673  43.175  1.00  0.00    -0.067 N 
ATOM     15  H13 UNL     1      10.544  61.864  42.331  1.00  0.00     0.275 HD
ATOM     16  H12 UNL     1      10.664  60.783  43.444  1.00  0.00     0.275 HD
ATOM     17  H11 UNL     1      10.913  62.386  43.884  1.00  0.00     0.275 HD
ENDBRANCH  12  14
ENDBRANCH   9  12
ENDBRANCH   7   8
BRANCH   7  18
HETATM   18  C15 UNL     1      15.805  64.700  42.724  1.00  0.00     0.196 C 
HETATM   19  O7  UNL     1      16.568  64.151  43.542  1.00  0.00    -0.646 OA
HETATM   20  O8  UNL     1      15.551  66.051  42.847  1.00  0.00    -0.646 OA
ENDBRANCH   7  18
ENDBRANCH   6   7
ENDBRANCH   5   6
ENDBRANCH   1   5
BRANCH   3  21
HETATM   21  C8  UNL     1      14.764  64.989  36.635  1.00  0.00     0.185 C 
BRANCH  21  22
HETATM   22  C9  UNL     1      15.776  65.987  36.265  1.00  0.00     0.036 C 
BRANCH  22  23
HETATM   23  C10 UNL     1      15.390  67.321  35.821  1.00  0.00     0.005 C 
BRANCH  23  24
HETATM   24  C11 UNL     1      14.417  68.065  36.649  1.00  0.00     0.044 C 
BRANCH  24  25
HETATM   25  C12 UNL     1      13.893  69.223  35.734  1.00  0.00     0.283 C 
BRANCH  25  26
HETATM   26  N4  UNL     1      13.771  68.645  34.418  1.00  0.00    -0.065 N 
ATOM     27  H43 UNL     1      13.951  69.305  33.661  1.00  0.00     0.275 HD
ATOM     28  H42 UNL     1      14.519  67.991  34.186  1.00  0.00     0.275 HD
ATOM     29  H41 UNL     1      12.840  68.231  34.390  1.00  0.00     0.275 HD
ENDBRANCH  25  26
BRANCH  25  30
HETATM   30  C13 UNL     1      12.589  69.597  36.306  1.00  0.00     0.204 C 
HETATM   31  O3  UNL     1      11.680  70.015  35.563  1.00  0.00    -0.646 OA
HETATM   32  O4  UNL     1      12.379  69.484  37.654  1.00  0.00    -0.646 OA
ENDBRANCH  25  30
ENDBRANCH  24  25
ENDBRANCH  23  24
ENDBRANCH  22  23
ENDBRANCH  21  22
BRANCH  21  33
HETATM   33  C14 UNL     1      14.385  63.964  35.645  1.00  0.00     0.196 C 
HETATM   34  O5  UNL     1      15.371  63.371  35.051  1.00  0.00    -0.646 OA
HETATM   35  O6  UNL     1      13.162  63.540  35.245  1.00  0.00    -0.646 OA
ENDBRANCH  21  33
ENDBRANCH   3  21
TORSDOF 15
ENDMDL
