MODEL 1
REMARK VINA RESULT: -8.844669187      0.000      0.000
REMARK  15 active torsions:
REMARK  status: ('A' for Active; 'I' for Inactive)
REMARK    1  A    between atoms: C2_2  and  N1_3 
REMARK    2  A    between atoms: C2_2  and  C3_7 
REMARK       I    between atoms: C3_7  and  N2_9 
REMARK    3  A    between atoms: N2_9  and  C4_11 
REMARK    4  A    between atoms: C4_11  and  C5_12 
REMARK    5  A    between atoms: C4_11  and  C15_33 
REMARK    6  A    between atoms: C5_12  and  C6_13 
REMARK    7  A    between atoms: C6_13  and  C7_14 
REMARK       I    between atoms: C7_14  and  N3_16 
REMARK    8  A    between atoms: N3_16  and  C8_18 
REMARK    9  A    between atoms: C8_18  and  C9_19 
REMARK   10  A    between atoms: C8_18  and  C14_30 
REMARK   11  A    between atoms: C9_19  and  C10_20 
REMARK   12  A    between atoms: C10_20  and  C11_21 
REMARK   13  A    between atoms: C11_21  and  C12_22 
REMARK   14  A    between atoms: C12_22  and  N4_23 
REMARK   15  A    between atoms: C12_22  and  C13_27 
ROOT
HETATM    1  C7  UNL     1      14.364  61.506  40.180  1.00  0.00     0.218 C 
HETATM    2  O2  UNL     1      15.501  61.755  40.637  1.00  0.00    -0.274 OA
HETATM    3  N3  UNL     1      13.621  62.422  39.421  1.00  0.00    -0.347 N 
ATOM      4  H3  UNL     1      12.694  62.197  39.059  1.00  0.00     0.163 HD
ENDROOT
BRANCH   1   5
HETATM    5  C6  UNL     1      13.767  60.175  40.456  1.00  0.00     0.105 C 
BRANCH   5   6
HETATM    6  C5  UNL     1      13.591  59.954  41.946  1.00  0.00     0.045 C 
BRANCH   6   7
HETATM    7  C4  UNL     1      12.420  59.009  42.105  1.00  0.00     0.186 C 
BRANCH   7   8
HETATM    8  N2  UNL     1      12.829  57.715  41.631  1.00  0.00    -0.345 N 
HETATM    9  C3  UNL     1      12.193  57.064  40.554  1.00  0.00     0.248 C 
HETATM   10  O1  UNL     1      11.232  57.576  39.946  1.00  0.00    -0.271 OA
ATOM     11  H2  UNL     1      13.609  57.249  42.093  1.00  0.00     0.163 HD
BRANCH   9  12
HETATM   12  C2  UNL     1      12.686  55.736  40.138  1.00  0.00     0.270 C 
HETATM   13  C1  UNL     1      14.058  55.897  39.550  1.00  0.00     0.050 C 
BRANCH  12  14
HETATM   14  N1  UNL     1      11.772  55.047  39.256  1.00  0.00    -0.067 N 
ATOM     15  H13 UNL     1      12.065  54.080  39.111  1.00  0.00     0.275 HD
ATOM     16  H12 UNL     1      10.877  54.882  39.716  1.00  0.00     0.275 HD
ATOM     17  H11 UNL     1      11.642  55.525  38.365  1.00  0.00     0.275 HD
ENDBRANCH  12  14
ENDBRANCH   9  12
ENDBRANCH   7   8
BRANCH   7  18
HETATM   18  C15 UNL     1      11.929  58.901  43.474  1.00  0.00     0.196 C 
HETATM   19  O7  UNL     1      11.311  59.841  44.011  1.00  0.00    -0.646 OA
HETATM   20  O8  UNL     1      12.147  57.744  44.194  1.00  0.00    -0.646 OA
ENDBRANCH   7  18
ENDBRANCH   6   7
ENDBRANCH   5   6
ENDBRANCH   1   5
BRANCH   3  21
HETATM   21  C8  UNL     1      14.283  63.773  39.170  1.00  0.00     0.185 C 
BRANCH  21  22
HETATM   22  C9  UNL     1      14.121  63.959  37.723  1.00  0.00     0.036 C 
BRANCH  22  23
HETATM   23  C10 UNL     1      15.278  64.037  36.840  1.00  0.00     0.005 C 
BRANCH  23  24
HETATM   24  C11 UNL     1      15.027  64.211  35.393  1.00  0.00     0.044 C 
BRANCH  24  25
HETATM   25  C12 UNL     1      16.287  64.959  34.840  1.00  0.00     0.283 C 
BRANCH  25  26
HETATM   26  N4  UNL     1      16.819  64.100  33.809  1.00  0.00    -0.065 N 
ATOM     27  H43 UNL     1      17.322  64.601  33.077  1.00  0.00     0.275 HD
ATOM     28  H42 UNL     1      17.601  63.524  34.119  1.00  0.00     0.275 HD
ATOM     29  H41 UNL     1      16.022  63.563  33.468  1.00  0.00     0.275 HD
ENDBRANCH  25  26
BRANCH  25  30
HETATM   30  C13 UNL     1      15.768  66.228  34.302  1.00  0.00     0.204 C 
HETATM   31  O3  UNL     1      14.728  66.726  34.775  1.00  0.00    -0.646 OA
HETATM   32  O4  UNL     1      16.430  66.857  33.283  1.00  0.00    -0.646 OA
ENDBRANCH  25  30
ENDBRANCH  24  25
ENDBRANCH  23  24
ENDBRANCH  22  23
ENDBRANCH  21  22
BRANCH  21  33
HETATM   33  C14 UNL     1      13.494  64.617  40.086  1.00  0.00     0.196 C 
HETATM   34  O5  UNL     1      13.300  65.836  39.694  1.00  0.00    -0.646 OA
HETATM   35  O6  UNL     1      12.935  64.326  41.286  1.00  0.00    -0.646 OA
ENDBRANCH  21  33
ENDBRANCH   3  21
TORSDOF 15
ENDMDL
