MODEL 1
REMARK VINA RESULT: -9.277084143      0.000      0.000
REMARK  3 active torsions:
REMARK  status: ('A' for Active; 'I' for Inactive)
REMARK    1  A    between atoms: C5_9  and  C6_10 
REMARK    2  A    between atoms: C6_10  and  N4_11 
REMARK    3  A    between atoms: N4_11  and  C7_13 
ROOT
HETATM    1  N1  UNL     1      -7.577 -18.695  -7.884  1.00  0.00    -0.063 NA
HETATM    2  C1  UNL     1      -7.226 -18.706  -6.507  1.00  0.00     0.195 A 
HETATM    3  N2  UNL     1      -7.103 -17.534  -5.834  1.00  0.00    -0.318 N 
ATOM      4  H2  UNL     1      -7.267 -16.660  -6.333  1.00  0.00     0.169 HD
HETATM    5  C2  UNL     1      -6.773 -17.487  -4.528  1.00  0.00     0.132 A 
HETATM    6  N3  UNL     1      -6.657 -16.244  -3.868  1.00  0.00    -0.082 NA
HETATM    7  C3  UNL     1      -6.549 -18.650  -3.842  1.00  0.00     0.050 A 
HETATM    8  C4  UNL     1      -6.217 -18.583  -2.526  1.00  0.00     0.028 A 
HETATM    9  C5  UNL     1      -5.988 -19.733  -1.815  1.00  0.00    -0.024 A 
HETATM   10  C13 UNL     1      -6.113 -20.932  -2.506  1.00  0.00     0.098 A 
HETATM   11  N5  UNL     1      -6.445 -20.967  -3.811  1.00  0.00    -0.351 N 
ATOM     12  H5  UNL     1      -6.526 -21.870  -4.278  1.00  0.00     0.166 HD
HETATM   13  C14 UNL     1      -6.671 -19.846  -4.514  1.00  0.00     0.121 A 
HETATM   14  N6  UNL     1      -7.002 -19.839  -5.816  1.00  0.00    -0.316 N 
ATOM     15  H6  UNL     1      -7.088 -20.732  -6.301  1.00  0.00     0.170 HD
ENDROOT
BRANCH   9  16
HETATM   16  C6  UNL     1      -5.627 -19.774  -0.404  1.00  0.00     0.160 C 
BRANCH  16  17
HETATM   17  N4  UNL     1      -4.210 -19.830  -0.156  1.00  0.00    -0.384 N 
ATOM     18  H4  UNL     1      -3.744 -20.714   0.049  1.00  0.00     0.160 HD
BRANCH  17  19
HETATM   19  C7  UNL     1      -3.480 -18.609  -0.208  1.00  0.00     0.051 A 
HETATM   20  C8  UNL     1      -2.742 -18.234  -1.332  1.00  0.00     0.054 A 
HETATM   21  C9  UNL     1      -2.035 -17.072  -1.409  1.00  0.00     0.036 A 
HETATM   22 CL1  UNL     1      -1.113 -16.621  -2.835  1.00  0.00    -0.084 Cl
HETATM   23  C10 UNL     1      -2.025 -16.200  -0.338  1.00  0.00     0.026 A 
HETATM   24  C11 UNL     1      -2.741 -16.531   0.797  1.00  0.00     0.028 A 
HETATM   25  C12 UNL     1      -3.448 -17.713   0.847  1.00  0.00     0.060 A 
HETATM   26 CL2  UNL     1      -4.335 -18.071   2.314  1.00  0.00    -0.082 Cl
ENDBRANCH  17  19
ENDBRANCH  16  17
ENDBRANCH   9  16
TORSDOF 3
ENDMDL
