MODEL 2
REMARK VINA RESULT: -9.258334644      1.268      2.153
REMARK  3 active torsions:
REMARK  status: ('A' for Active; 'I' for Inactive)
REMARK    1  A    between atoms: C5_9  and  C6_10 
REMARK    2  A    between atoms: C6_10  and  N4_11 
REMARK    3  A    between atoms: N4_11  and  C7_13 
ROOT
HETATM    1  N1  UNL     1      -7.237 -19.059  -7.503  1.00  0.00    -0.063 NA
HETATM    2  C1  UNL     1      -7.014 -18.887  -6.111  1.00  0.00     0.195 A 
HETATM    3  N2  UNL     1      -6.851 -17.638  -5.604  1.00  0.00    -0.318 N 
ATOM      4  H2  UNL     1      -6.892 -16.840  -6.238  1.00  0.00     0.169 HD
HETATM    5  C2  UNL     1      -6.637 -17.417  -4.292  1.00  0.00     0.132 A 
HETATM    6  N3  UNL     1      -6.473 -16.100  -3.810  1.00  0.00    -0.082 NA
HETATM    7  C3  UNL     1      -6.578 -18.475  -3.426  1.00  0.00     0.050 A 
HETATM    8  C4  UNL     1      -6.362 -18.234  -2.106  1.00  0.00     0.028 A 
HETATM    9  C5  UNL     1      -6.300 -19.276  -1.217  1.00  0.00    -0.024 A 
HETATM   10  C13 UNL     1      -6.466 -20.554  -1.737  1.00  0.00     0.098 A 
HETATM   11  N5  UNL     1      -6.680 -20.762  -3.051  1.00  0.00    -0.351 N 
ATOM     12  H5  UNL     1      -6.797 -21.717  -3.389  1.00  0.00     0.166 HD
HETATM   13  C14 UNL     1      -6.743 -19.748  -3.928  1.00  0.00     0.121 A 
HETATM   14  N6  UNL     1      -6.953 -19.915  -5.244  1.00  0.00    -0.316 N 
ATOM     15  H6  UNL     1      -7.073 -20.862  -5.602  1.00  0.00     0.170 HD
ENDROOT
BRANCH   9  16
HETATM   16  C6  UNL     1      -6.073 -19.129   0.214  1.00  0.00     0.160 C 
BRANCH  16  17
HETATM   17  N4  UNL     1      -4.686 -19.170   0.602  1.00  0.00    -0.384 N 
ATOM     18  H4  UNL     1      -4.226 -20.053   0.824  1.00  0.00     0.160 HD
BRANCH  17  19
HETATM   19  C7  UNL     1      -3.979 -17.937   0.665  1.00  0.00     0.051 A 
HETATM   20  C8  UNL     1      -4.323 -16.929   1.568  1.00  0.00     0.054 A 
HETATM   21  C9  UNL     1      -3.664 -15.740   1.650  1.00  0.00     0.036 A 
HETATM   22 CL1  UNL     1      -4.116 -14.488   2.795  1.00  0.00    -0.084 Cl
HETATM   23  C10 UNL     1      -2.597 -15.486   0.811  1.00  0.00     0.026 A 
HETATM   24  C11 UNL     1      -2.220 -16.455  -0.100  1.00  0.00     0.028 A 
HETATM   25  C12 UNL     1      -2.906 -17.649  -0.161  1.00  0.00     0.060 A 
HETATM   26 CL2  UNL     1      -2.376 -18.833  -1.338  1.00  0.00    -0.082 Cl
ENDBRANCH  17  19
ENDBRANCH  16  17
ENDBRANCH   9  16
TORSDOF 3
ENDMDL
