MODEL 3
REMARK VINA RESULT: -9.190996320      1.427      2.399
REMARK  3 active torsions:
REMARK  status: ('A' for Active; 'I' for Inactive)
REMARK    1  A    between atoms: C5_9  and  C6_10 
REMARK    2  A    between atoms: C6_10  and  N4_11 
REMARK    3  A    between atoms: N4_11  and  C7_13 
ROOT
HETATM    1  N1  UNL     1      -9.186 -17.358  -6.059  1.00  0.00    -0.063 NA
HETATM    2  C1  UNL     1      -8.238 -17.656  -5.043  1.00  0.00     0.195 A 
HETATM    3  N2  UNL     1      -7.291 -16.740  -4.715  1.00  0.00    -0.318 N 
ATOM      4  H2  UNL     1      -7.278 -15.848  -5.209  1.00  0.00     0.169 HD
HETATM    5  C2  UNL     1      -6.368 -16.971  -3.760  1.00  0.00     0.132 A 
HETATM    6  N3  UNL     1      -5.403 -15.988  -3.453  1.00  0.00    -0.082 NA
HETATM    7  C3  UNL     1      -6.371 -18.162  -3.087  1.00  0.00     0.050 A 
HETATM    8  C4  UNL     1      -5.434 -18.377  -2.127  1.00  0.00     0.028 A 
HETATM    9  C5  UNL     1      -5.414 -19.561  -1.437  1.00  0.00    -0.024 A 
HETATM   10  C13 UNL     1      -6.384 -20.498  -1.773  1.00  0.00     0.098 A 
HETATM   11  N5  UNL     1      -7.302 -20.257  -2.731  1.00  0.00    -0.351 N 
ATOM     12  H5  UNL     1      -7.995 -20.973  -2.944  1.00  0.00     0.166 HD
HETATM   13  C14 UNL     1      -7.328 -19.100  -3.410  1.00  0.00     0.121 A 
HETATM   14  N6  UNL     1      -8.225 -18.822  -4.370  1.00  0.00    -0.316 N 
ATOM     15  H6  UNL     1      -8.927 -19.525  -4.599  1.00  0.00     0.170 HD
ENDROOT
BRANCH   9  16
HETATM   16  C6  UNL     1      -4.456 -19.894  -0.391  1.00  0.00     0.160 C 
BRANCH  16  17
HETATM   17  N4  UNL     1      -3.107 -19.473  -0.669  1.00  0.00    -0.384 N 
ATOM     18  H4  UNL     1      -2.413 -20.128  -1.030  1.00  0.00     0.160 HD
BRANCH  17  19
HETATM   19  C7  UNL     1      -2.773 -18.112  -0.421  1.00  0.00     0.051 A 
HETATM   20  C8  UNL     1      -3.006 -17.504   0.813  1.00  0.00     0.054 A 
HETATM   21  C9  UNL     1      -2.697 -16.204   1.077  1.00  0.00     0.036 A 
HETATM   22 CL1  UNL     1      -3.000 -15.461   2.639  1.00  0.00    -0.084 Cl
HETATM   23  C10 UNL     1      -2.123 -15.420   0.096  1.00  0.00     0.026 A 
HETATM   24  C11 UNL     1      -1.873 -15.981  -1.143  1.00  0.00     0.028 A 
HETATM   25  C12 UNL     1      -2.197 -17.299  -1.382  1.00  0.00     0.060 A 
HETATM   26 CL2  UNL     1      -1.854 -17.946  -2.973  1.00  0.00    -0.082 Cl
ENDBRANCH  17  19
ENDBRANCH  16  17
ENDBRANCH   9  16
TORSDOF 3
ENDMDL
