MODEL 2
REMARK VINA RESULT: -7.324966593      2.116      3.072
REMARK  2 active torsions:
REMARK  status: ('A' for Active; 'I' for Inactive)
REMARK    1  A    between atoms: N5_13  and  C6_14 
REMARK    2  A    between atoms: C10_24  and  O6_25 
ROOT
HETATM    1  N1  UNL     1       0.564  43.291  18.712  1.00  0.00    -0.080 NA
HETATM    2  C1  UNL     1      -0.355  42.678  19.607  1.00  0.00     0.148 A 
HETATM    3  N2  UNL     1      -1.662  42.536  19.353  1.00  0.00    -0.339 N 
ATOM      4  H2  UNL     1      -2.038  42.882  18.469  1.00  0.00     0.167 HD
HETATM    5  C2  UNL     1      -2.495  41.949  20.234  1.00  0.00     0.183 A 
HETATM    6  N3  UNL     1      -2.056  41.474  21.413  1.00  0.00    -0.336 N 
ATOM      7  H3  UNL     1      -2.701  41.032  22.068  1.00  0.00     0.168 HD
HETATM    8  C3  UNL     1      -0.759  41.594  21.710  1.00  0.00     0.142 A 
HETATM    9  C4  UNL     1       0.102  42.193  20.818  1.00  0.00     0.119 A 
HETATM   10  N4  UNL     1       1.311  42.169  21.377  1.00  0.00    -0.346 N 
ATOM     11  H4  UNL     1       2.166  42.540  20.960  1.00  0.00     0.167 HD
HETATM   12  C5  UNL     1       1.219  41.580  22.571  1.00  0.00     0.188 A 
HETATM   13  N5  UNL     1      -0.073  41.219  22.783  1.00  0.00    -0.297 N 
ENDROOT
BRANCH  13  14
HETATM   14  C6  UNL     1      -0.511  40.559  23.982  1.00  0.00     0.262 C 
HETATM   15  O1  UNL     1       0.617  40.470  24.832  1.00  0.00    -0.353 OA
HETATM   16  C7  UNL     1       0.113  39.553  25.785  1.00  0.00     0.180 C 
HETATM   17  C8  UNL     1       1.200  39.194  26.753  1.00  0.00     0.216 C 
HETATM   18  C9  UNL     1      -0.247  38.401  24.865  1.00  0.00     0.198 C 
HETATM   19  O2  UNL     1       0.935  38.086  27.501  1.00  0.00    -0.287 OA
HETATM   20  P1  UNL     1      -0.469  37.335  27.051  1.00  0.00     0.408 P 
HETATM   21  O3  UNL     1      -1.404  36.571  28.187  1.00  0.00    -0.624 OA
HETATM   22  O4  UNL     1       0.255  36.050  26.677  1.00  0.00    -0.624 OA
HETATM   23  O5  UNL     1      -1.067  37.515  25.528  1.00  0.00    -0.279 OA
HETATM   24  C10 UNL     1      -0.964  39.140  23.753  1.00  0.00     0.199 C 
BRANCH  24  25
HETATM   25  O6  UNL     1      -2.335  38.989  23.910  1.00  0.00    -0.388 OA
ATOM     26  H6  UNL     1      -2.634  38.119  23.673  1.00  0.00     0.210 HD
ENDBRANCH  24  25
ENDBRANCH  13  14
TORSDOF 2
ENDMDL
