MODEL 4
REMARK VINA RESULT: -7.250048366      4.237      7.080
REMARK  2 active torsions:
REMARK  status: ('A' for Active; 'I' for Inactive)
REMARK    1  A    between atoms: N5_13  and  C6_14 
REMARK    2  A    between atoms: C10_24  and  O6_25 
ROOT
HETATM    1  N1  UNL     1      -2.381  36.287  29.910  1.00  0.00    -0.080 NA
HETATM    2  C1  UNL     1      -2.364  36.009  28.516  1.00  0.00     0.148 A 
HETATM    3  N2  UNL     1      -2.854  34.887  27.973  1.00  0.00    -0.339 N 
ATOM      4  H2  UNL     1      -3.268  34.180  28.580  1.00  0.00     0.167 HD
HETATM    5  C2  UNL     1      -2.813  34.669  26.644  1.00  0.00     0.183 A 
HETATM    6  N3  UNL     1      -2.280  35.565  25.796  1.00  0.00    -0.336 N 
ATOM      7  H3  UNL     1      -2.259  35.383  24.792  1.00  0.00     0.168 HD
HETATM    8  C3  UNL     1      -1.779  36.699  26.293  1.00  0.00     0.142 A 
HETATM    9  C4  UNL     1      -1.813  36.935  27.649  1.00  0.00     0.119 A 
HETATM   10  N4  UNL     1      -1.252  38.126  27.847  1.00  0.00    -0.346 N 
ATOM     11  H4  UNL     1      -1.128  38.582  28.751  1.00  0.00     0.167 HD
HETATM   12  C5  UNL     1      -0.877  38.624  26.666  1.00  0.00     0.188 A 
HETATM   13  N5  UNL     1      -1.205  37.735  25.693  1.00  0.00    -0.297 N 
ENDROOT
BRANCH  13  14
HETATM   14  C6  UNL     1      -0.936  37.970  24.300  1.00  0.00     0.262 C 
HETATM   15  O1  UNL     1       0.462  37.844  24.130  1.00  0.00    -0.353 OA
HETATM   16  C7  UNL     1       0.585  38.395  22.833  1.00  0.00     0.180 C 
HETATM   17  C8  UNL     1       2.036  38.487  22.466  1.00  0.00     0.216 C 
HETATM   18  C9  UNL     1      -0.038  39.757  23.075  1.00  0.00     0.198 C 
HETATM   19  O2  UNL     1       2.290  39.294  21.398  1.00  0.00    -0.287 OA
HETATM   20  P1  UNL     1       0.938  40.081  20.859  1.00  0.00     0.408 P 
HETATM   21  O3  UNL     1       0.757  40.410  19.244  1.00  0.00    -0.624 OA
HETATM   22  O4  UNL     1       1.535  41.451  21.145  1.00  0.00    -0.624 OA
HETATM   23  O5  UNL     1      -0.333  40.354  21.868  1.00  0.00    -0.279 OA
HETATM   24  C10 UNL     1      -1.279  39.367  23.852  1.00  0.00     0.199 C 
BRANCH  24  25
HETATM   25  O6  UNL     1      -2.380  39.397  23.006  1.00  0.00    -0.388 OA
ATOM     26  H6  UNL     1      -2.227  38.928  22.193  1.00  0.00     0.210 HD
ENDBRANCH  24  25
ENDBRANCH  13  14
TORSDOF 2
ENDMDL
