MODEL 5
REMARK VINA RESULT: -7.037504849      4.550      7.311
REMARK  2 active torsions:
REMARK  status: ('A' for Active; 'I' for Inactive)
REMARK    1  A    between atoms: N5_13  and  C6_14 
REMARK    2  A    between atoms: C10_24  and  O6_25 
ROOT
HETATM    1  N1  UNL     1      -1.574  34.420  28.592  1.00  0.00    -0.080 NA
HETATM    2  C1  UNL     1      -1.675  35.796  28.248  1.00  0.00     0.148 A 
HETATM    3  N2  UNL     1      -2.793  36.519  28.387  1.00  0.00    -0.339 N 
ATOM      4  H2  UNL     1      -3.632  36.073  28.761  1.00  0.00     0.167 HD
HETATM    5  C2  UNL     1      -2.840  37.821  28.046  1.00  0.00     0.183 A 
HETATM    6  N3  UNL     1      -1.767  38.461  27.549  1.00  0.00    -0.336 N 
ATOM      7  H3  UNL     1      -1.821  39.448  27.296  1.00  0.00     0.168 HD
HETATM    8  C3  UNL     1      -0.630  37.780  27.392  1.00  0.00     0.142 A 
HETATM    9  C4  UNL     1      -0.568  36.448  27.737  1.00  0.00     0.119 A 
HETATM   10  N4  UNL     1       0.672  36.040  27.475  1.00  0.00    -0.346 N 
ATOM     11  H4  UNL     1       1.032  35.097  27.624  1.00  0.00     0.167 HD
HETATM   12  C5  UNL     1       1.368  37.069  26.986  1.00  0.00     0.188 A 
HETATM   13  N5  UNL     1       0.557  38.158  26.933  1.00  0.00    -0.297 N 
ENDROOT
BRANCH  13  14
HETATM   14  C6  UNL     1       1.002  39.437  26.451  1.00  0.00     0.262 C 
HETATM   15  O1  UNL     1       0.187  39.757  25.339  1.00  0.00    -0.353 OA
HETATM   16  C7  UNL     1       0.932  40.840  24.815  1.00  0.00     0.180 C 
HETATM   17  C8  UNL     1       0.317  41.287  23.522  1.00  0.00     0.216 C 
HETATM   18  C9  UNL     1       2.270  40.155  24.613  1.00  0.00     0.198 C 
HETATM   19  O2  UNL     1       1.124  42.088  22.771  1.00  0.00    -0.287 OA
HETATM   20  P1  UNL     1       2.639  42.253  23.417  1.00  0.00     0.408 P 
HETATM   21  O3  UNL     1       3.468  43.677  23.238  1.00  0.00    -0.624 OA
HETATM   22  O4  UNL     1       3.303  41.629  22.199  1.00  0.00    -0.624 OA
HETATM   23  O5  UNL     1       3.253  41.102  24.420  1.00  0.00    -0.279 OA
HETATM   24  C10 UNL     1       2.416  39.423  25.932  1.00  0.00     0.199 C 
BRANCH  24  25
HETATM   25  O6  UNL     1       3.289  40.125  26.753  1.00  0.00    -0.388 OA
ATOM     26  H6  UNL     1       4.040  40.462  26.279  1.00  0.00     0.210 HD
ENDBRANCH  24  25
ENDBRANCH  13  14
TORSDOF 2
ENDMDL
