MODEL 1
REMARK VINA RESULT: -7.827736043      0.000      0.000
REMARK  6 active torsions:
REMARK  status: ('A' for Active; 'I' for Inactive)
REMARK    1  A    between atoms: N5_13  and  C6_14 
REMARK    2  A    between atoms: C7_16  and  C8_17 
REMARK    3  A    between atoms: C8_17  and  O2_18 
REMARK    4  A    between atoms: O2_18  and  P1_19 
REMARK    5  A    between atoms: C9_23  and  O5_24 
REMARK    6  A    between atoms: C10_26  and  O6_27 
ROOT
HETATM    1  C6  UNL     1      42.416 -13.299  -9.904  1.00  0.00     0.262 C 
HETATM    2  O1  UNL     1      42.156 -13.061 -11.241  1.00  0.00    -0.353 OA
HETATM    3  C7  UNL     1      41.410 -11.917 -11.348  1.00  0.00     0.180 C 
HETATM    4  C9  UNL     1      41.493 -11.168 -10.049  1.00  0.00     0.182 C 
HETATM    5  C10 UNL     1      42.662 -11.901  -9.378  1.00  0.00     0.198 C 
ENDROOT
BRANCH   1   6
HETATM    6  N5  UNL     1      43.526 -14.178  -9.718  1.00  0.00    -0.297 N 
HETATM    7  C3  UNL     1      44.759 -13.989 -10.210  1.00  0.00     0.142 A 
HETATM    8  N3  UNL     1      45.364 -13.045 -10.963  1.00  0.00    -0.336 N 
HETATM    9  C4  UNL     1      45.515 -15.076  -9.790  1.00  0.00     0.119 A 
HETATM   10  C2  UNL     1      46.646 -13.151 -11.293  1.00  0.00     0.183 A 
ATOM     11  H3  UNL     1      44.829 -12.238 -11.283  1.00  0.00     0.168 HD
HETATM   12  N2  UNL     1      47.373 -14.195 -10.890  1.00  0.00    -0.339 N 
HETATM   13  C1  UNL     1      46.857 -15.181 -10.139  1.00  0.00     0.148 A 
ATOM     14  H2  UNL     1      48.354 -14.246 -11.162  1.00  0.00     0.167 HD
HETATM   15  N1  UNL     1      47.657 -16.275  -9.727  1.00  0.00    -0.080 NA
HETATM   16  N4  UNL     1      44.711 -15.866  -9.068  1.00  0.00    -0.346 N 
HETATM   17  C5  UNL     1      43.484 -15.325  -9.016  1.00  0.00     0.188 A 
ATOM     18  H4  UNL     1      44.988 -16.743  -8.627  1.00  0.00     0.167 HD
ENDBRANCH   1   6
BRANCH   5  19
HETATM   19  O6  UNL     1      42.597 -11.812  -8.009  1.00  0.00    -0.388 OA
ATOM     20  H6  UNL     1      43.448 -11.837  -7.588  1.00  0.00     0.210 HD
ENDBRANCH   5  19
BRANCH   3  21
HETATM   21  C8  UNL     1      41.954 -11.023 -12.433  1.00  0.00     0.215 C 
BRANCH  21  22
HETATM   22  O2  UNL     1      43.296 -11.396 -12.609  1.00  0.00    -0.298 OA
BRANCH  22  23
HETATM   23  P1  UNL     1      43.910 -11.471 -14.018  1.00  0.00     0.349 P 
HETATM   24  O3  UNL     1      44.531 -11.128 -15.391  1.00  0.00    -0.635 OA
HETATM   25  O4  UNL     1      44.403 -13.014 -13.954  1.00  0.00    -0.635 OA
HETATM   26  S1  UNL     1      45.209 -10.014 -13.249  1.00  0.00     0.013 SA
ENDBRANCH  22  23
ENDBRANCH  21  22
ENDBRANCH   3  21
BRANCH   4  27
HETATM   27  O5  UNL     1      40.350 -11.463  -9.316  1.00  0.00    -0.390 OA
ATOM     28  H5  UNL     1      40.165 -10.718  -8.756  1.00  0.00     0.210 HD
ENDBRANCH   4  27
TORSDOF 6
ENDMDL
