MODEL 3
REMARK VINA RESULT: -7.481226703      3.628      4.963
REMARK  6 active torsions:
REMARK  status: ('A' for Active; 'I' for Inactive)
REMARK    1  A    between atoms: N5_13  and  C6_14 
REMARK    2  A    between atoms: C7_16  and  C8_17 
REMARK    3  A    between atoms: C8_17  and  O2_18 
REMARK    4  A    between atoms: O2_18  and  P1_19 
REMARK    5  A    between atoms: C9_23  and  O5_24 
REMARK    6  A    between atoms: C10_26  and  O6_27 
ROOT
HETATM    1  C6  UNL     1      42.898 -12.305 -10.488  1.00  0.00     0.262 C 
HETATM    2  O1  UNL     1      43.994 -12.278  -9.647  1.00  0.00    -0.353 OA
HETATM    3  C7  UNL     1      43.692 -12.975  -8.507  1.00  0.00     0.180 C 
HETATM    4  C9  UNL     1      42.470 -13.809  -8.765  1.00  0.00     0.182 C 
HETATM    5  C10 UNL     1      42.387 -13.717 -10.295  1.00  0.00     0.198 C 
ENDROOT
BRANCH   1   6
HETATM    6  N5  UNL     1      43.248 -12.010 -11.841  1.00  0.00    -0.297 N 
HETATM    7  C3  UNL     1      44.384 -12.381 -12.449  1.00  0.00     0.142 A 
HETATM    8  N3  UNL     1      45.488 -13.075 -12.095  1.00  0.00    -0.336 N 
HETATM    9  C4  UNL     1      44.309 -11.887 -13.746  1.00  0.00     0.119 A 
HETATM   10  C2  UNL     1      46.475 -13.279 -12.960  1.00  0.00     0.183 A 
ATOM     11  H3  UNL     1      45.565 -13.447 -11.148  1.00  0.00     0.168 HD
HETATM   12  N2  UNL     1      46.404 -12.805 -14.204  1.00  0.00    -0.339 N 
HETATM   13  C1  UNL     1      45.346 -12.105 -14.646  1.00  0.00     0.148 A 
ATOM     14  H2  UNL     1      47.180 -12.979 -14.843  1.00  0.00     0.167 HD
HETATM   15  N1  UNL     1      45.303 -11.616 -15.975  1.00  0.00    -0.080 NA
HETATM   16  N4  UNL     1      43.141 -11.245 -13.861  1.00  0.00    -0.346 N 
HETATM   17  C5  UNL     1      42.478 -11.312 -12.696  1.00  0.00     0.188 A 
ATOM     18  H4  UNL     1      42.807 -10.776 -14.703  1.00  0.00     0.167 HD
ENDBRANCH   1   6
BRANCH   5  19
HETATM   19  O6  UNL     1      41.104 -13.901 -10.745  1.00  0.00    -0.388 OA
ATOM     20  H6  UNL     1      41.034 -14.545 -11.440  1.00  0.00     0.210 HD
ENDBRANCH   5  19
BRANCH   3  21
HETATM   21  C8  UNL     1      44.817 -13.907  -8.135  1.00  0.00     0.215 C 
BRANCH  21  22
HETATM   22  O2  UNL     1      45.241 -14.505  -9.333  1.00  0.00    -0.298 OA
BRANCH  22  23
HETATM   23  P1  UNL     1      46.302 -15.618  -9.320  1.00  0.00     0.349 P 
HETATM   24  O3  UNL     1      47.631 -16.407  -9.293  1.00  0.00    -0.635 OA
HETATM   25  O4  UNL     1      45.343 -16.823  -8.815  1.00  0.00    -0.635 OA
HETATM   26  S1  UNL     1      47.182 -14.408  -7.848  1.00  0.00     0.013 SA
ENDBRANCH  22  23
ENDBRANCH  21  22
ENDBRANCH   3  21
BRANCH   4  27
HETATM   27  O5  UNL     1      41.374 -13.124  -8.255  1.00  0.00    -0.390 OA
ATOM     28  H5  UNL     1      41.669 -12.259  -7.996  1.00  0.00     0.210 HD
ENDBRANCH   4  27
TORSDOF 6
ENDMDL
