MODEL 2
REMARK VINA RESULT: -7.663051779      0.834      1.017
REMARK  6 active torsions:
REMARK  status: ('A' for Active; 'I' for Inactive)
REMARK    1  A    between atoms: N5_13  and  C6_14 
REMARK    2  A    between atoms: C7_16  and  C8_17 
REMARK    3  A    between atoms: C8_17  and  O2_18 
REMARK    4  A    between atoms: O2_18  and  P1_19 
REMARK    5  A    between atoms: C9_23  and  O5_24 
REMARK    6  A    between atoms: C10_26  and  O6_27 
ROOT
HETATM    1  C6  UNL     1      42.433 -13.311  -9.810  1.00  0.00     0.262 C 
HETATM    2  O1  UNL     1      42.142 -13.159 -11.153  1.00  0.00    -0.353 OA
HETATM    3  C7  UNL     1      41.439 -11.995 -11.323  1.00  0.00     0.180 C 
HETATM    4  C9  UNL     1      41.593 -11.158 -10.085  1.00  0.00     0.182 C 
HETATM    5  C10 UNL     1      42.753 -11.890  -9.395  1.00  0.00     0.198 C 
ENDROOT
BRANCH   1   6
HETATM    6  N5  UNL     1      43.512 -14.220  -9.591  1.00  0.00    -0.297 N 
HETATM    7  C3  UNL     1      44.774 -14.045 -10.010  1.00  0.00     0.142 A 
HETATM    8  N3  UNL     1      45.441 -13.094 -10.699  1.00  0.00    -0.336 N 
HETATM    9  C4  UNL     1      45.483 -15.162  -9.582  1.00  0.00     0.119 A 
HETATM   10  C2  UNL     1      46.736 -13.220 -10.962  1.00  0.00     0.183 A 
ATOM     11  H3  UNL     1      44.941 -12.265 -11.023  1.00  0.00     0.168 HD
HETATM   12  N2  UNL     1      47.417 -14.291 -10.553  1.00  0.00    -0.339 N 
HETATM   13  C1  UNL     1      46.839 -15.287  -9.862  1.00  0.00     0.148 A 
ATOM     14  H2  UNL     1      48.410 -14.357 -10.773  1.00  0.00     0.167 HD
HETATM   15  N1  UNL     1      47.592 -16.411  -9.441  1.00  0.00    -0.080 NA
HETATM   16  N4  UNL     1      44.624 -15.954  -8.931  1.00  0.00    -0.346 N 
HETATM   17  C5  UNL     1      43.407 -15.386  -8.928  1.00  0.00     0.188 A 
ATOM     18  H4  UNL     1      44.857 -16.849  -8.502  1.00  0.00     0.167 HD
ENDBRANCH   1   6
BRANCH   5  19
HETATM   19  O6  UNL     1      42.735 -11.700  -8.036  1.00  0.00    -0.388 OA
ATOM     20  H6  UNL     1      41.865 -11.750  -7.658  1.00  0.00     0.210 HD
ENDBRANCH   5  19
BRANCH   3  21
HETATM   21  C8  UNL     1      41.985 -11.206 -12.486  1.00  0.00     0.215 C 
BRANCH  21  22
HETATM   22  O2  UNL     1      43.174 -11.846 -12.868  1.00  0.00    -0.298 OA
BRANCH  22  23
HETATM   23  P1  UNL     1      44.394 -11.026 -13.324  1.00  0.00     0.349 P 
HETATM   24  O3  UNL     1      45.462 -10.288 -14.162  1.00  0.00    -0.635 OA
HETATM   25  O4  UNL     1      44.664 -10.250 -11.927  1.00  0.00    -0.635 OA
HETATM   26  S1  UNL     1      43.004 -10.174 -14.645  1.00  0.00     0.013 SA
ENDBRANCH  22  23
ENDBRANCH  21  22
ENDBRANCH   3  21
BRANCH   4  27
HETATM   27  O5  UNL     1      40.463 -11.350  -9.301  1.00  0.00    -0.390 OA
ATOM     28  H5  UNL     1      40.594 -10.880  -8.485  1.00  0.00     0.210 HD
ENDBRANCH   4  27
TORSDOF 6
ENDMDL
