MODEL 3
REMARK VINA RESULT: -9.435253201      4.153      9.409
REMARK  11 active torsions:
REMARK  status: ('A' for Active; 'I' for Inactive)
REMARK       I    between atoms: C1_2  and  N1_3 
REMARK    1  A    between atoms: C1_2  and  C14_29 
REMARK    2  A    between atoms: N1_3  and  C2_5 
REMARK    3  A    between atoms: C2_5  and  C3_6 
REMARK    4  A    between atoms: C3_6  and  C4_7 
REMARK    5  A    between atoms: C4_7  and  C5_8 
REMARK    6  A    between atoms: C6_10  and  N2_11 
REMARK    7  A    between atoms: C12_23  and  O3_24 
REMARK    8  A    between atoms: C13_26  and  O4_27 
REMARK    9  A    between atoms: C16_31  and  N6_32 
REMARK   10  A    between atoms: C18_36  and  O7_37 
REMARK   11  A    between atoms: C19_39  and  O8_40 
ROOT
HETATM    1  C5  UNL     1      20.961 -33.175  13.351  1.00  0.00     0.178 C 
HETATM    2  O2  UNL     1      20.942 -33.378  11.990  1.00  0.00    -0.352 OA
HETATM    3  C6  UNL     1      22.247 -33.657  11.582  1.00  0.00     0.262 C 
HETATM    4  C12 UNL     1      23.037 -32.652  12.391  1.00  0.00     0.199 C 
HETATM    5  C13 UNL     1      22.348 -32.784  13.756  1.00  0.00     0.183 C 
ENDROOT
BRANCH   1   6
HETATM    6  C4  UNL     1      20.025 -32.049  13.705  1.00  0.00     0.005 C 
BRANCH   6   7
HETATM    7  C3  UNL     1      20.420 -30.800  13.513  1.00  0.00    -0.009 C 
BRANCH   7   8
HETATM    8  C2  UNL     1      19.629 -29.897  12.651  1.00  0.00     0.150 C 
BRANCH   8   9
HETATM    9  N1  UNL     1      18.256 -29.907  13.185  1.00  0.00    -0.353 N 
HETATM   10  C1  UNL     1      17.228 -30.499  12.452  1.00  0.00     0.254 C 
HETATM   11  O1  UNL     1      17.548 -31.017  11.316  1.00  0.00    -0.268 OA
ATOM     12  H1  UNL     1      18.058 -29.481  14.091  1.00  0.00     0.163 HD
BRANCH  10  13
HETATM   13  C14 UNL     1      15.825 -30.591  12.836  1.00  0.00     0.070 A 
HETATM   14  C15 UNL     1      14.952 -31.330  12.024  1.00  0.00     0.056 A 
HETATM   15  C16 UNL     1      13.615 -31.482  12.294  1.00  0.00     0.106 A 
HETATM   16  C17 UNL     1      13.116 -30.875  13.418  1.00  0.00     0.075 A 
HETATM   17  C18 UNL     1      13.915 -30.127  14.271  1.00  0.00     0.102 A 
HETATM   18  C19 UNL     1      15.267 -30.004  13.953  1.00  0.00     0.114 A 
BRANCH  15  19
HETATM   19  N6  UNL     1      12.759 -32.244  11.438  1.00  0.00    -0.116 N 
HETATM   20  O5  UNL     1      12.348 -31.769  10.375  1.00  0.00    -0.532 OA
HETATM   21  O6  UNL     1      12.388 -33.510  11.794  1.00  0.00    -0.532 OA
ENDBRANCH  15  19
BRANCH  17  22
HETATM   22  O7  UNL     1      13.348 -29.541  15.392  1.00  0.00    -0.358 OA
ATOM     23  H7  UNL     1      13.243 -28.597  15.419  1.00  0.00     0.217 HD
ENDBRANCH  17  22
BRANCH  18  24
HETATM   24  O8  UNL     1      16.076 -29.273  14.778  1.00  0.00    -0.357 OA
ATOM     25  H8  UNL     1      15.733 -28.470  15.153  1.00  0.00     0.217 HD
ENDBRANCH  18  24
ENDBRANCH  10  13
ENDBRANCH   8   9
ENDBRANCH   7   8
ENDBRANCH   6   7
ENDBRANCH   1   6
BRANCH   5  26
HETATM   26  O4  UNL     1      22.948 -33.828  14.484  1.00  0.00    -0.390 OA
ATOM     27  H4  UNL     1      22.282 -34.331  14.939  1.00  0.00     0.210 HD
ENDBRANCH   5  26
BRANCH   3  28
HETATM   28  N2  UNL     1      22.322 -33.390  10.162  1.00  0.00    -0.297 N 
HETATM   29  C7  UNL     1      22.912 -34.088   9.188  1.00  0.00     0.188 A 
HETATM   30  N3  UNL     1      22.717 -33.450   8.020  1.00  0.00    -0.348 N 
HETATM   31  C8  UNL     1      21.997 -32.336   8.243  1.00  0.00     0.093 A 
ATOM     32  H3  UNL     1      23.060 -33.761   7.111  1.00  0.00     0.167 HD
HETATM   33  C9  UNL     1      21.504 -31.316   7.454  1.00  0.00     0.122 A 
HETATM   34  C11 UNL     1      21.751 -32.304   9.593  1.00  0.00     0.140 A 
HETATM   35  N4  UNL     1      20.802 -30.317   7.996  1.00  0.00    -0.360 N 
HETATM   36  C10 UNL     1      20.557 -30.276   9.316  1.00  0.00     0.182 A 
ATOM     37  H4  UNL     1      20.447 -29.573   7.397  1.00  0.00     0.166 HD
HETATM   38  N5  UNL     1      21.033 -31.267  10.087  1.00  0.00    -0.336 N 
ATOM     39  H5  UNL     1      20.847 -31.237  11.089  1.00  0.00     0.168 HD
ENDBRANCH   3  28
BRANCH   4  40
HETATM   40  O3  UNL     1      24.377 -32.975  12.490  1.00  0.00    -0.388 OA
ATOM     41  H3  UNL     1      24.949 -32.229  12.349  1.00  0.00     0.210 HD
ENDBRANCH   4  40
TORSDOF 11
ENDMDL
