MODEL 4
REMARK VINA RESULT: -9.245945994      5.461     10.900
REMARK  11 active torsions:
REMARK  status: ('A' for Active; 'I' for Inactive)
REMARK       I    between atoms: C1_2  and  N1_3 
REMARK    1  A    between atoms: C1_2  and  C14_29 
REMARK    2  A    between atoms: N1_3  and  C2_5 
REMARK    3  A    between atoms: C2_5  and  C3_6 
REMARK    4  A    between atoms: C3_6  and  C4_7 
REMARK    5  A    between atoms: C4_7  and  C5_8 
REMARK    6  A    between atoms: C6_10  and  N2_11 
REMARK    7  A    between atoms: C12_23  and  O3_24 
REMARK    8  A    between atoms: C13_26  and  O4_27 
REMARK    9  A    between atoms: C16_31  and  N6_32 
REMARK   10  A    between atoms: C18_36  and  O7_37 
REMARK   11  A    between atoms: C19_39  and  O8_40 
ROOT
HETATM    1  C5  UNL     1      22.031 -32.857  13.211  1.00  0.00     0.178 C 
HETATM    2  O2  UNL     1      23.281 -33.019  12.660  1.00  0.00    -0.352 OA
HETATM    3  C6  UNL     1      23.932 -34.031  13.367  1.00  0.00     0.262 C 
HETATM    4  C12 UNL     1      23.548 -33.697  14.792  1.00  0.00     0.199 C 
HETATM    5  C13 UNL     1      22.058 -33.376  14.615  1.00  0.00     0.183 C 
ENDROOT
BRANCH   1   6
HETATM    6  C4  UNL     1      21.685 -31.392  13.250  1.00  0.00     0.005 C 
BRANCH   6   7
HETATM    7  C3  UNL     1      20.455 -31.031  13.585  1.00  0.00    -0.009 C 
BRANCH   7   8
HETATM    8  C2  UNL     1      19.647 -30.208  12.660  1.00  0.00     0.150 C 
BRANCH   8   9
HETATM    9  N1  UNL     1      18.280 -30.184  13.210  1.00  0.00    -0.353 N 
HETATM   10  C1  UNL     1      17.211 -30.636  12.435  1.00  0.00     0.254 C 
HETATM   11  O1  UNL     1      17.489 -31.058  11.250  1.00  0.00    -0.268 OA
ATOM     12  H1  UNL     1      18.116 -29.838  14.156  1.00  0.00     0.163 HD
BRANCH  10  13
HETATM   13  C14 UNL     1      15.807 -30.677  12.827  1.00  0.00     0.070 A 
HETATM   14  C15 UNL     1      14.908 -31.401  12.032  1.00  0.00     0.056 A 
HETATM   15  C16 UNL     1      13.568 -31.506  12.310  1.00  0.00     0.106 A 
HETATM   16  C17 UNL     1      13.094 -30.865  13.426  1.00  0.00     0.075 A 
HETATM   17  C18 UNL     1      13.921 -30.129  14.263  1.00  0.00     0.102 A 
HETATM   18  C19 UNL     1      15.274 -30.054  13.937  1.00  0.00     0.114 A 
BRANCH  15  19
HETATM   19  N6  UNL     1      12.684 -32.256  11.471  1.00  0.00    -0.116 N 
HETATM   20  O5  UNL     1      12.259 -31.774  10.417  1.00  0.00    -0.532 OA
HETATM   21  O6  UNL     1      12.303 -33.517  11.833  1.00  0.00    -0.532 OA
ENDBRANCH  15  19
BRANCH  17  22
HETATM   22  O7  UNL     1      13.378 -29.506  15.375  1.00  0.00    -0.358 OA
ATOM     23  H7  UNL     1      13.585 -29.838  16.241  1.00  0.00     0.217 HD
ENDBRANCH  17  22
BRANCH  18  24
HETATM   24  O8  UNL     1      16.109 -29.335  14.746  1.00  0.00    -0.357 OA
ATOM     25  H8  UNL     1      16.182 -29.586  15.659  1.00  0.00     0.217 HD
ENDBRANCH  18  24
ENDBRANCH  10  13
ENDBRANCH   8   9
ENDBRANCH   7   8
ENDBRANCH   6   7
ENDBRANCH   1   6
BRANCH   5  26
HETATM   26  O4  UNL     1      21.310 -34.565  14.702  1.00  0.00    -0.390 OA
ATOM     27  H4  UNL     1      20.976 -34.674  15.584  1.00  0.00     0.210 HD
ENDBRANCH   5  26
BRANCH   3  28
HETATM   28  N2  UNL     1      25.352 -33.875  13.137  1.00  0.00    -0.297 N 
HETATM   29  C7  UNL     1      26.024 -32.869  12.573  1.00  0.00     0.188 A 
HETATM   30  N3  UNL     1      27.336 -33.168  12.578  1.00  0.00    -0.348 N 
HETATM   31  C8  UNL     1      27.508 -34.373  13.150  1.00  0.00     0.093 A 
ATOM     32  H3  UNL     1      28.080 -32.576  12.208  1.00  0.00     0.167 HD
HETATM   33  C9  UNL     1      28.597 -35.177  13.427  1.00  0.00     0.122 A 
HETATM   34  C11 UNL     1      26.256 -34.813  13.500  1.00  0.00     0.140 A 
HETATM   35  N4  UNL     1      28.432 -36.360  14.023  1.00  0.00    -0.360 N 
HETATM   36  C10 UNL     1      27.211 -36.800  14.370  1.00  0.00     0.182 A 
ATOM     37  H4  UNL     1      29.247 -36.940  14.219  1.00  0.00     0.166 HD
HETATM   38  N5  UNL     1      26.149 -36.021  14.103  1.00  0.00    -0.336 N 
ATOM     39  H5  UNL     1      25.222 -36.354  14.366  1.00  0.00     0.168 HD
ENDBRANCH   3  28
BRANCH   4  40
HETATM   40  O3  UNL     1      23.716 -34.760  15.658  1.00  0.00    -0.388 OA
ATOM     41  H3  UNL     1      22.995 -35.377  15.633  1.00  0.00     0.210 HD
ENDBRANCH   4  40
TORSDOF 11
ENDMDL
