MODEL 1
REMARK VINA RESULT: -9.512600763      0.000      0.000
REMARK  11 active torsions:
REMARK  status: ('A' for Active; 'I' for Inactive)
REMARK       I    between atoms: C1_2  and  N1_3 
REMARK    1  A    between atoms: C1_2  and  C14_29 
REMARK    2  A    between atoms: N1_3  and  C2_5 
REMARK    3  A    between atoms: C2_5  and  C3_6 
REMARK    4  A    between atoms: C3_6  and  C4_7 
REMARK    5  A    between atoms: C4_7  and  C5_8 
REMARK    6  A    between atoms: C6_10  and  N2_11 
REMARK    7  A    between atoms: C12_23  and  O3_24 
REMARK    8  A    between atoms: C13_26  and  O4_27 
REMARK    9  A    between atoms: C16_31  and  N6_32 
REMARK   10  A    between atoms: C18_36  and  O7_37 
REMARK   11  A    between atoms: C19_39  and  O8_40 
ROOT
HETATM    1  C5  UNL     1      20.066 -29.370  12.672  1.00  0.00     0.178 C 
HETATM    2  O2  UNL     1      18.719 -29.391  12.389  1.00  0.00    -0.352 OA
HETATM    3  C6  UNL     1      18.117 -30.307  13.251  1.00  0.00     0.262 C 
HETATM    4  C12 UNL     1      19.118 -31.441  13.234  1.00  0.00     0.199 C 
HETATM    5  C13 UNL     1      20.433 -30.658  13.341  1.00  0.00     0.183 C 
ENDROOT
BRANCH   1   6
HETATM    6  C4  UNL     1      20.848 -29.258  11.389  1.00  0.00     0.005 C 
BRANCH   6   7
HETATM    7  C3  UNL     1      20.832 -30.271  10.537  1.00  0.00    -0.009 C 
BRANCH   7   8
HETATM    8  C2  UNL     1      20.390 -30.058   9.142  1.00  0.00     0.150 C 
BRANCH   8   9
HETATM    9  N1  UNL     1      21.439 -29.256   8.489  1.00  0.00    -0.353 N 
HETATM   10  C1  UNL     1      22.233 -29.826   7.494  1.00  0.00     0.254 C 
HETATM   11  O1  UNL     1      21.995 -31.058   7.195  1.00  0.00    -0.268 OA
ATOM     12  H1  UNL     1      21.585 -28.285   8.765  1.00  0.00     0.163 HD
BRANCH  10  13
HETATM   13  C14 UNL     1      23.307 -29.174   6.755  1.00  0.00     0.070 A 
HETATM   14  C15 UNL     1      24.196 -29.969   6.017  1.00  0.00     0.056 A 
HETATM   15  C16 UNL     1      25.239 -29.458   5.287  1.00  0.00     0.106 A 
HETATM   16  C17 UNL     1      25.414 -28.098   5.285  1.00  0.00     0.075 A 
HETATM   17  C18 UNL     1      24.577 -27.245   5.990  1.00  0.00     0.102 A 
HETATM   18  C19 UNL     1      23.532 -27.813   6.716  1.00  0.00     0.114 A 
BRANCH  15  19
HETATM   19  N6  UNL     1      26.124 -30.306   4.548  1.00  0.00    -0.116 N 
HETATM   20  O5  UNL     1      26.963 -29.824   3.782  1.00  0.00    -0.532 OA
HETATM   21  O6  UNL     1      26.045 -31.663   4.687  1.00  0.00    -0.532 OA
ENDBRANCH  15  19
BRANCH  17  22
HETATM   22  O7  UNL     1      24.809 -25.879   5.946  1.00  0.00    -0.358 OA
ATOM     23  H7  UNL     1      24.192 -25.289   6.364  1.00  0.00     0.217 HD
ENDBRANCH  17  22
BRANCH  18  24
HETATM   24  O8  UNL     1      22.693 -26.993   7.419  1.00  0.00    -0.357 OA
ATOM     25  H8  UNL     1      21.777 -27.236   7.489  1.00  0.00     0.217 HD
ENDBRANCH  18  24
ENDBRANCH  10  13
ENDBRANCH   8   9
ENDBRANCH   7   8
ENDBRANCH   6   7
ENDBRANCH   1   6
BRANCH   5  26
HETATM   26  O4  UNL     1      20.731 -30.426  14.696  1.00  0.00    -0.390 OA
ATOM     27  H4  UNL     1      21.610 -30.731  14.892  1.00  0.00     0.210 HD
ENDBRANCH   5  26
BRANCH   3  28
HETATM   28  N2  UNL     1      16.853 -30.691  12.659  1.00  0.00    -0.297 N 
HETATM   29  C7  UNL     1      16.602 -31.440  11.583  1.00  0.00     0.188 A 
HETATM   30  N3  UNL     1      15.270 -31.525  11.416  1.00  0.00    -0.348 N 
HETATM   31  C8  UNL     1      14.660 -30.828  12.391  1.00  0.00     0.093 A 
ATOM     32  H3  UNL     1      14.798 -32.037  10.670  1.00  0.00     0.167 HD
HETATM   33  C9  UNL     1      13.347 -30.561  12.729  1.00  0.00     0.122 A 
HETATM   34  C11 UNL     1      15.661 -30.305  13.171  1.00  0.00     0.140 A 
HETATM   35  N4  UNL     1      13.061 -29.807  13.793  1.00  0.00    -0.360 N 
HETATM   36  C10 UNL     1      14.033 -29.291  14.562  1.00  0.00     0.182 A 
ATOM     37  H4  UNL     1      12.086 -29.620  14.026  1.00  0.00     0.166 HD
HETATM   38  N5  UNL     1      15.311 -29.549  14.238  1.00  0.00    -0.336 N 
ATOM     39  H5  UNL     1      16.050 -29.158  14.822  1.00  0.00     0.168 HD
ENDBRANCH   3  28
BRANCH   4  40
HETATM   40  O3  UNL     1      18.977 -32.301  14.306  1.00  0.00    -0.388 OA
ATOM     41  H3  UNL     1      18.715 -33.177  14.047  1.00  0.00     0.210 HD
ENDBRANCH   4  40
TORSDOF 11
ENDMDL
