MODEL 2
REMARK VINA RESULT: -9.463377809      5.202     10.230
REMARK  11 active torsions:
REMARK  status: ('A' for Active; 'I' for Inactive)
REMARK       I    between atoms: C1_2  and  N1_3 
REMARK    1  A    between atoms: C1_2  and  C14_29 
REMARK    2  A    between atoms: N1_3  and  C2_5 
REMARK    3  A    between atoms: C2_5  and  C3_6 
REMARK    4  A    between atoms: C3_6  and  C4_7 
REMARK    5  A    between atoms: C4_7  and  C5_8 
REMARK    6  A    between atoms: C6_10  and  N2_11 
REMARK    7  A    between atoms: C12_23  and  O3_24 
REMARK    8  A    between atoms: C13_26  and  O4_27 
REMARK    9  A    between atoms: C16_31  and  N6_32 
REMARK   10  A    between atoms: C18_36  and  O7_37 
REMARK   11  A    between atoms: C19_39  and  O8_40 
ROOT
HETATM    1  C5  UNL     1      20.975 -31.674  13.179  1.00  0.00     0.178 C 
HETATM    2  O2  UNL     1      22.265 -32.112  12.988  1.00  0.00    -0.352 OA
HETATM    3  C6  UNL     1      22.329 -33.443  13.399  1.00  0.00     0.262 C 
HETATM    4  C12 UNL     1      21.506 -33.407  14.668  1.00  0.00     0.199 C 
HETATM    5  C13 UNL     1      20.326 -32.538  14.215  1.00  0.00     0.183 C 
ENDROOT
BRANCH   1   6
HETATM    6  C4  UNL     1      20.994 -30.255  13.685  1.00  0.00     0.005 C 
BRANCH   6   7
HETATM    7  C3  UNL     1      20.304 -29.332  13.034  1.00  0.00    -0.009 C 
BRANCH   7   8
HETATM    8  C2  UNL     1      19.446 -29.716  11.893  1.00  0.00     0.150 C 
BRANCH   8   9
HETATM    9  N1  UNL     1      18.053 -29.573  12.352  1.00  0.00    -0.353 N 
HETATM   10  C1  UNL     1      17.204 -30.680  12.352  1.00  0.00     0.254 C 
HETATM   11  O1  UNL     1      17.701 -31.795  11.938  1.00  0.00    -0.268 OA
ATOM     12  H1  UNL     1      17.711 -28.666  12.669  1.00  0.00     0.163 HD
BRANCH  10  13
HETATM   13  C14 UNL     1      15.808 -30.707  12.771  1.00  0.00     0.070 A 
HETATM   14  C15 UNL     1      14.887 -31.430  11.998  1.00  0.00     0.056 A 
HETATM   15  C16 UNL     1      13.552 -31.521  12.302  1.00  0.00     0.106 A 
HETATM   16  C17 UNL     1      13.105 -30.868  13.422  1.00  0.00     0.075 A 
HETATM   17  C18 UNL     1      13.953 -30.132  14.237  1.00  0.00     0.102 A 
HETATM   18  C19 UNL     1      15.300 -30.071  13.885  1.00  0.00     0.114 A 
BRANCH  15  19
HETATM   19  N6  UNL     1      12.646 -32.270  11.486  1.00  0.00    -0.116 N 
HETATM   20  O5  UNL     1      12.168 -31.774  10.462  1.00  0.00    -0.532 OA
HETATM   21  O6  UNL     1      12.304 -33.545  11.836  1.00  0.00    -0.532 OA
ENDBRANCH  15  19
BRANCH  17  22
HETATM   22  O7  UNL     1      13.436 -29.497  15.355  1.00  0.00    -0.358 OA
ATOM     23  H7  UNL     1      13.669 -28.591  15.524  1.00  0.00     0.217 HD
ENDBRANCH  17  22
BRANCH  18  24
HETATM   24  O8  UNL     1      16.157 -29.352  14.673  1.00  0.00    -0.357 OA
ATOM     25  H8  UNL     1      16.437 -29.730  15.498  1.00  0.00     0.217 HD
ENDBRANCH  18  24
ENDBRANCH  10  13
ENDBRANCH   8   9
ENDBRANCH   7   8
ENDBRANCH   6   7
ENDBRANCH   1   6
BRANCH   5  26
HETATM   26  O4  UNL     1      19.348 -33.354  13.615  1.00  0.00    -0.390 OA
ATOM     27  H4  UNL     1      18.526 -32.882  13.553  1.00  0.00     0.210 HD
ENDBRANCH   5  26
BRANCH   3  28
HETATM   28  N2  UNL     1      23.720 -33.749  13.662  1.00  0.00    -0.297 N 
HETATM   29  C7  UNL     1      24.383 -33.797  14.819  1.00  0.00     0.188 A 
HETATM   30  N3  UNL     1      25.663 -34.125  14.571  1.00  0.00    -0.348 N 
HETATM   31  C8  UNL     1      25.824 -34.290  13.246  1.00  0.00     0.093 A 
ATOM     32  H3  UNL     1      26.394 -34.232  15.274  1.00  0.00     0.167 HD
HETATM   33  C9  UNL     1      26.883 -34.621  12.423  1.00  0.00     0.122 A 
HETATM   34  C11 UNL     1      24.597 -34.052  12.679  1.00  0.00     0.140 A 
HETATM   35  N4  UNL     1      26.714 -34.706  11.101  1.00  0.00    -0.360 N 
HETATM   36  C10 UNL     1      25.518 -34.475  10.537  1.00  0.00     0.182 A 
ATOM     37  H4  UNL     1      27.508 -34.951  10.510  1.00  0.00     0.166 HD
HETATM   38  N5  UNL     1      24.485 -34.153  11.333  1.00  0.00    -0.336 N 
ATOM     39  H5  UNL     1      23.576 -33.978  10.905  1.00  0.00     0.168 HD
ENDBRANCH   3  28
BRANCH   4  40
HETATM   40  O3  UNL     1      21.067 -34.656  15.062  1.00  0.00    -0.388 OA
ATOM     41  H3  UNL     1      20.584 -35.111  14.381  1.00  0.00     0.210 HD
ENDBRANCH   4  40
TORSDOF 11
ENDMDL
