MODEL 3
REMARK VINA RESULT: -8.339595655      3.864      5.978
REMARK  11 active torsions:
REMARK  status: ('A' for Active; 'I' for Inactive)
REMARK       I    between atoms: C1_2  and  N1_3 
REMARK    1  A    between atoms: C1_2  and  C14_25 
REMARK    2  A    between atoms: N1_3  and  C2_5 
REMARK    3  A    between atoms: C2_5  and  C3_6 
REMARK    4  A    between atoms: C4_7  and  C5_8 
REMARK    5  A    between atoms: C6_10  and  S1_11 
REMARK    6  A    between atoms: S1_11  and  C7_12 
REMARK    7  A    between atoms: C12_19  and  O3_20 
REMARK    8  A    between atoms: C13_22  and  O4_23 
REMARK    9  A    between atoms: C16_27  and  N3_28 
REMARK   10  A    between atoms: C18_32  and  O7_33 
REMARK   11  A    between atoms: C19_35  and  O8_36 
ROOT
HETATM    1  C3  UNL     1      20.582 -30.756   8.483  1.00  0.00    -0.009 C 
HETATM    2  C4  UNL     1      20.737 -29.676   9.239  1.00  0.00     0.005 C 
ENDROOT
BRANCH   1   3
HETATM    3  C2  UNL     1      21.205 -30.958   7.171  1.00  0.00     0.150 C 
BRANCH   3   4
HETATM    4  N1  UNL     1      20.279 -31.537   6.202  1.00  0.00    -0.353 N 
HETATM    5  C1  UNL     1      20.196 -32.910   5.941  1.00  0.00     0.254 C 
HETATM    6  O1  UNL     1      21.003 -33.639   6.623  1.00  0.00    -0.268 OA
ATOM      7  H1  UNL     1      19.660 -30.909   5.687  1.00  0.00     0.163 HD
BRANCH   5   8
HETATM    8  C14 UNL     1      19.319 -33.588   5.005  1.00  0.00     0.070 A 
HETATM    9  C15 UNL     1      19.140 -33.068   3.722  1.00  0.00     0.056 A 
HETATM   10  C16 UNL     1      18.351 -33.604   2.756  1.00  0.00     0.106 A 
HETATM   11  C17 UNL     1      17.662 -34.758   3.048  1.00  0.00     0.075 A 
HETATM   12  C18 UNL     1      17.791 -35.330   4.304  1.00  0.00     0.102 A 
HETATM   13  C19 UNL     1      18.620 -34.744   5.276  1.00  0.00     0.114 A 
BRANCH  10  14
HETATM   14  N3  UNL     1      18.202 -33.037   1.466  1.00  0.00    -0.116 N 
HETATM   15  O5  UNL     1      19.203 -32.705   0.830  1.00  0.00    -0.532 OA
HETATM   16  O6  UNL     1      16.967 -32.862   0.937  1.00  0.00    -0.532 OA
ENDBRANCH  10  14
BRANCH  12  17
HETATM   17  O7  UNL     1      17.109 -36.476   4.596  1.00  0.00    -0.358 OA
ATOM     18  H7  UNL     1      16.992 -36.734   5.503  1.00  0.00     0.217 HD
ENDBRANCH  12  17
BRANCH  13  19
HETATM   19  O8  UNL     1      18.736 -35.322   6.508  1.00  0.00    -0.357 OA
ATOM     20  H8  UNL     1      17.986 -35.769   6.884  1.00  0.00     0.217 HD
ENDBRANCH  13  19
ENDBRANCH   5   8
ENDBRANCH   3   4
ENDBRANCH   1   3
BRANCH   2  21
HETATM   21  C5  UNL     1      20.131 -29.443  10.549  1.00  0.00     0.177 C 
HETATM   22  O2  UNL     1      19.132 -30.330  10.895  1.00  0.00    -0.361 OA
HETATM   23  C6  UNL     1      18.766 -29.839  12.170  1.00  0.00     0.220 C 
HETATM   24  C12 UNL     1      20.077 -29.554  12.883  1.00  0.00     0.189 C 
HETATM   25  C13 UNL     1      21.065 -29.510  11.708  1.00  0.00     0.182 C 
BRANCH  23  26
HETATM   26  S1  UNL     1      17.878 -31.087  13.117  1.00  0.00    -0.095 SA
BRANCH  26  27
HETATM   27  C7  UNL     1      16.141 -30.751  13.000  1.00  0.00     0.005 A 
HETATM   28  C8  UNL     1      15.329 -31.525  12.206  1.00  0.00     0.035 A 
HETATM   29  C9  UNL     1      13.955 -31.263  12.109  1.00  0.00     0.089 A 
HETATM   30  N2  UNL     1      13.425 -30.228  12.815  1.00  0.00    -0.375 N 
HETATM   31  C10 UNL     1      14.198 -29.458  13.598  1.00  0.00     0.089 A 
ATOM     32  H2  UNL     1      12.426 -30.034  12.748  1.00  0.00     0.164 HD
HETATM   33  C11 UNL     1      15.570 -29.714  13.698  1.00  0.00     0.035 A 
ENDBRANCH  26  27
ENDBRANCH  23  26
BRANCH  24  34
HETATM   34  O3  UNL     1      19.976 -28.309  13.480  1.00  0.00    -0.389 OA
ATOM     35  H3  UNL     1      19.225 -28.323  14.061  1.00  0.00     0.210 HD
ENDBRANCH  24  34
BRANCH  25  36
HETATM   36  O4  UNL     1      21.872 -28.369  11.813  1.00  0.00    -0.390 OA
ATOM     37  H4  UNL     1      22.679 -28.536  12.287  1.00  0.00     0.210 HD
ENDBRANCH  25  36
ENDBRANCH   2  21
TORSDOF 11
ENDMDL
