MODEL 1
REMARK VINA RESULT: -9.385692590      0.000      0.000
REMARK  11 active torsions:
REMARK  status: ('A' for Active; 'I' for Inactive)
REMARK       I    between atoms: C1_2  and  N1_3 
REMARK    1  A    between atoms: C1_2  and  C14_25 
REMARK    2  A    between atoms: N1_3  and  C2_5 
REMARK    3  A    between atoms: C2_5  and  C3_6 
REMARK    4  A    between atoms: C4_7  and  C5_8 
REMARK    5  A    between atoms: C6_10  and  S1_11 
REMARK    6  A    between atoms: S1_11  and  C7_12 
REMARK    7  A    between atoms: C12_19  and  O3_20 
REMARK    8  A    between atoms: C13_22  and  O4_23 
REMARK    9  A    between atoms: C16_27  and  N3_28 
REMARK   10  A    between atoms: C18_32  and  O7_33 
REMARK   11  A    between atoms: C19_35  and  O8_36 
ROOT
HETATM    1  C3  UNL     1      20.400 -31.165   8.636  1.00  0.00    -0.009 C 
HETATM    2  C4  UNL     1      20.567 -30.047   9.332  1.00  0.00     0.005 C 
ENDROOT
BRANCH   1   3
HETATM    3  C2  UNL     1      21.039 -31.456   7.350  1.00  0.00     0.150 C 
BRANCH   3   4
HETATM    4  N1  UNL     1      21.883 -30.356   6.890  1.00  0.00    -0.353 N 
HETATM    5  C1  UNL     1      23.180 -30.536   6.394  1.00  0.00     0.254 C 
HETATM    6  O1  UNL     1      23.585 -31.755   6.370  1.00  0.00    -0.268 OA
ATOM      7  H1  UNL     1      21.509 -29.408   6.932  1.00  0.00     0.163 HD
BRANCH   5   8
HETATM    8  C14 UNL     1      24.100 -29.523   5.913  1.00  0.00     0.070 A 
HETATM    9  C15 UNL     1      25.180 -29.892   5.109  1.00  0.00     0.056 A 
HETATM   10  C16 UNL     1      26.109 -29.046   4.597  1.00  0.00     0.106 A 
HETATM   11  C17 UNL     1      25.992 -27.706   4.883  1.00  0.00     0.075 A 
HETATM   12  C18 UNL     1      24.944 -27.266   5.677  1.00  0.00     0.102 A 
HETATM   13  C19 UNL     1      24.002 -28.176   6.187  1.00  0.00     0.114 A 
BRANCH  10  14
HETATM   14  N3  UNL     1      27.188 -29.471   3.785  1.00  0.00    -0.116 N 
HETATM   15  O5  UNL     1      27.742 -28.662   3.040  1.00  0.00    -0.532 OA
HETATM   16  O6  UNL     1      27.607 -30.759   3.827  1.00  0.00    -0.532 OA
ENDBRANCH  10  14
BRANCH  12  17
HETATM   17  O7  UNL     1      24.826 -25.937   5.962  1.00  0.00    -0.358 OA
ATOM     18  H7  UNL     1      23.963 -25.546   6.030  1.00  0.00     0.217 HD
ENDBRANCH  12  17
BRANCH  13  19
HETATM   19  O8  UNL     1      22.975 -27.725   6.967  1.00  0.00    -0.357 OA
ATOM     20  H8  UNL     1      23.109 -27.633   7.903  1.00  0.00     0.217 HD
ENDBRANCH  13  19
ENDBRANCH   5   8
ENDBRANCH   3   4
ENDBRANCH   1   3
BRANCH   2  21
HETATM   21  C5  UNL     1      19.945 -29.726  10.616  1.00  0.00     0.177 C 
HETATM   22  O2  UNL     1      18.890 -30.541  10.973  1.00  0.00    -0.361 OA
HETATM   23  C6  UNL     1      18.523 -29.977  12.217  1.00  0.00     0.220 C 
HETATM   24  C12 UNL     1      19.831 -29.734  12.951  1.00  0.00     0.189 C 
HETATM   25  C13 UNL     1      20.846 -29.794  11.800  1.00  0.00     0.182 C 
BRANCH  23  26
HETATM   26  S1  UNL     1      17.545 -31.134  13.191  1.00  0.00    -0.095 SA
BRANCH  26  27
HETATM   27  C7  UNL     1      15.831 -30.723  12.998  1.00  0.00     0.005 A 
HETATM   28  C8  UNL     1      15.310 -29.595  13.585  1.00  0.00     0.035 A 
HETATM   29  C9  UNL     1      13.955 -29.266  13.436  1.00  0.00     0.089 A 
HETATM   30  N2  UNL     1      13.152 -30.078  12.698  1.00  0.00    -0.375 N 
HETATM   31  C10 UNL     1      13.638 -31.186  12.115  1.00  0.00     0.089 A 
ATOM     32  H2  UNL     1      12.166 -29.842  12.587  1.00  0.00     0.164 HD
HETATM   33  C11 UNL     1      14.988 -31.520  12.261  1.00  0.00     0.035 A 
ENDBRANCH  26  27
ENDBRANCH  23  26
BRANCH  24  34
HETATM   34  O3  UNL     1      19.786 -28.461  13.493  1.00  0.00    -0.389 OA
ATOM     35  H3  UNL     1      20.641 -28.269  13.859  1.00  0.00     0.210 HD
ENDBRANCH  24  34
BRANCH  25  36
HETATM   36  O4  UNL     1      21.714 -28.695  11.879  1.00  0.00    -0.390 OA
ATOM     37  H4  UNL     1      21.487 -28.102  12.585  1.00  0.00     0.210 HD
ENDBRANCH  25  36
ENDBRANCH   2  21
TORSDOF 11
ENDMDL
