MODEL 6
REMARK VINA RESULT: -8.132611657      3.134      4.759
REMARK  11 active torsions:
REMARK  status: ('A' for Active; 'I' for Inactive)
REMARK       I    between atoms: C1_2  and  N1_3 
REMARK    1  A    between atoms: C1_2  and  C14_25 
REMARK    2  A    between atoms: N1_3  and  C2_5 
REMARK    3  A    between atoms: C2_5  and  C3_6 
REMARK    4  A    between atoms: C4_7  and  C5_8 
REMARK    5  A    between atoms: C6_10  and  S1_11 
REMARK    6  A    between atoms: S1_11  and  C7_12 
REMARK    7  A    between atoms: C12_19  and  O3_20 
REMARK    8  A    between atoms: C13_22  and  O4_23 
REMARK    9  A    between atoms: C16_27  and  N3_28 
REMARK   10  A    between atoms: C18_32  and  O7_33 
REMARK   11  A    between atoms: C19_35  and  O8_36 
ROOT
HETATM    1  C3  UNL     1      20.801 -31.221   9.247  1.00  0.00    -0.009 C 
HETATM    2  C4  UNL     1      20.114 -30.546  10.159  1.00  0.00     0.005 C 
ENDROOT
BRANCH   1   3
HETATM    3  C2  UNL     1      20.729 -30.989   7.801  1.00  0.00     0.150 C 
BRANCH   3   4
HETATM    4  N1  UNL     1      21.664 -29.958   7.358  1.00  0.00    -0.353 N 
HETATM    5  C1  UNL     1      22.818 -30.232   6.615  1.00  0.00     0.254 C 
HETATM    6  O1  UNL     1      23.004 -31.474   6.345  1.00  0.00    -0.268 OA
ATOM      7  H1  UNL     1      21.466 -28.987   7.603  1.00  0.00     0.163 HD
BRANCH   5   8
HETATM    8  C14 UNL     1      23.809 -29.292   6.127  1.00  0.00     0.070 A 
HETATM    9  C15 UNL     1      24.870 -29.749   5.343  1.00  0.00     0.056 A 
HETATM   10  C16 UNL     1      25.859 -28.977   4.825  1.00  0.00     0.106 A 
HETATM   11  C17 UNL     1      25.830 -27.627   5.085  1.00  0.00     0.075 A 
HETATM   12  C18 UNL     1      24.806 -27.102   5.858  1.00  0.00     0.102 A 
HETATM   13  C19 UNL     1      23.800 -27.937   6.374  1.00  0.00     0.114 A 
BRANCH  10  14
HETATM   14  N3  UNL     1      26.916 -29.489   4.034  1.00  0.00    -0.116 N 
HETATM   15  O5  UNL     1      27.154 -30.697   4.048  1.00  0.00    -0.532 OA
HETATM   16  O6  UNL     1      27.660 -28.655   3.267  1.00  0.00    -0.532 OA
ENDBRANCH  10  14
BRANCH  12  17
HETATM   17  O7  UNL     1      24.775 -25.763   6.118  1.00  0.00    -0.358 OA
ATOM     18  H7  UNL     1      25.219 -25.422   6.885  1.00  0.00     0.217 HD
ENDBRANCH  12  17
BRANCH  13  19
HETATM   19  O8  UNL     1      22.798 -27.403   7.134  1.00  0.00    -0.357 OA
ATOM     20  H8  UNL     1      22.042 -27.938   7.348  1.00  0.00     0.217 HD
ENDBRANCH  13  19
ENDBRANCH   5   8
ENDBRANCH   3   4
ENDBRANCH   1   3
BRANCH   2  21
HETATM   21  C5  UNL     1      20.162 -30.752  11.606  1.00  0.00     0.177 C 
HETATM   22  O2  UNL     1      20.271 -32.068  12.004  1.00  0.00    -0.361 OA
HETATM   23  C6  UNL     1      20.284 -31.924  13.411  1.00  0.00     0.220 C 
HETATM   24  C12 UNL     1      21.225 -30.764  13.688  1.00  0.00     0.189 C 
HETATM   25  C13 UNL     1      21.293 -30.087  12.311  1.00  0.00     0.182 C 
BRANCH  23  26
HETATM   26  S1  UNL     1      20.960 -33.391  14.208  1.00  0.00    -0.095 SA
BRANCH  26  27
HETATM   27  C7  UNL     1      22.718 -33.397  13.976  1.00  0.00     0.005 A 
HETATM   28  C8  UNL     1      23.564 -33.641  15.031  1.00  0.00     0.035 A 
HETATM   29  C9  UNL     1      24.955 -33.646  14.853  1.00  0.00     0.089 A 
HETATM   30  N2  UNL     1      25.467 -33.407  13.616  1.00  0.00    -0.375 N 
HETATM   31  C10 UNL     1      24.661 -33.166  12.569  1.00  0.00     0.089 A 
ATOM     32  H2  UNL     1      26.478 -33.410  13.481  1.00  0.00     0.164 HD
HETATM   33  C11 UNL     1      23.272 -33.159  12.740  1.00  0.00     0.035 A 
ENDBRANCH  26  27
ENDBRANCH  23  26
BRANCH  24  34
HETATM   34  O3  UNL     1      20.615 -29.931  14.610  1.00  0.00    -0.389 OA
ATOM     35  H3  UNL     1      21.296 -29.532  15.139  1.00  0.00     0.210 HD
ENDBRANCH  24  34
BRANCH  25  36
HETATM   36  O4  UNL     1      21.099 -28.706  12.455  1.00  0.00    -0.390 OA
ATOM     37  H4  UNL     1      21.758 -28.300  13.005  1.00  0.00     0.210 HD
ENDBRANCH  25  36
ENDBRANCH   2  21
TORSDOF 11
ENDMDL
