MODEL 4
REMARK VINA RESULT: -8.268926825      3.714      5.044
REMARK  11 active torsions:
REMARK  status: ('A' for Active; 'I' for Inactive)
REMARK       I    between atoms: C1_2  and  N1_3 
REMARK    1  A    between atoms: C1_2  and  C14_25 
REMARK    2  A    between atoms: N1_3  and  C2_5 
REMARK    3  A    between atoms: C2_5  and  C3_6 
REMARK    4  A    between atoms: C4_7  and  C5_8 
REMARK    5  A    between atoms: C6_10  and  S1_11 
REMARK    6  A    between atoms: S1_11  and  C7_12 
REMARK    7  A    between atoms: C12_19  and  O3_20 
REMARK    8  A    between atoms: C13_22  and  O4_23 
REMARK    9  A    between atoms: C16_27  and  N3_28 
REMARK   10  A    between atoms: C18_32  and  O7_33 
REMARK   11  A    between atoms: C19_35  and  O8_36 
ROOT
HETATM    1  C3  UNL     1      20.829 -30.812   8.513  1.00  0.00    -0.009 C 
HETATM    2  C4  UNL     1      20.799 -29.705   9.245  1.00  0.00     0.005 C 
ENDROOT
BRANCH   1   3
HETATM    3  C2  UNL     1      21.538 -30.956   7.238  1.00  0.00     0.150 C 
BRANCH   3   4
HETATM    4  N1  UNL     1      20.657 -31.402   6.162  1.00  0.00    -0.353 N 
HETATM    5  C1  UNL     1      21.109 -32.097   5.035  1.00  0.00     0.254 C 
HETATM    6  O1  UNL     1      22.373 -32.322   5.009  1.00  0.00    -0.268 OA
ATOM      7  H1  UNL     1      19.660 -31.195   6.235  1.00  0.00     0.163 HD
BRANCH   5   8
HETATM    8  C14 UNL     1      20.327 -32.584   3.913  1.00  0.00     0.070 A 
HETATM    9  C15 UNL     1      20.823 -32.454   2.615  1.00  0.00     0.056 A 
HETATM   10  C16 UNL     1      20.195 -32.865   1.485  1.00  0.00     0.106 A 
HETATM   11  C17 UNL     1      18.963 -33.463   1.610  1.00  0.00     0.075 A 
HETATM   12  C18 UNL     1      18.408 -33.625   2.869  1.00  0.00     0.102 A 
HETATM   13  C19 UNL     1      19.093 -33.185   4.015  1.00  0.00     0.114 A 
BRANCH  10  14
HETATM   14  N3  UNL     1      20.741 -32.710   0.187  1.00  0.00    -0.116 N 
HETATM   15  O5  UNL     1      20.113 -32.081  -0.665  1.00  0.00    -0.532 OA
HETATM   16  O6  UNL     1      21.946 -33.251  -0.114  1.00  0.00    -0.532 OA
ENDBRANCH  10  14
BRANCH  12  17
HETATM   17  O7  UNL     1      17.185 -34.219   2.996  1.00  0.00    -0.358 OA
ATOM     18  H7  UNL     1      16.956 -34.653   3.809  1.00  0.00     0.217 HD
ENDBRANCH  12  17
BRANCH  13  19
HETATM   19  O8  UNL     1      18.530 -33.353   5.249  1.00  0.00    -0.357 OA
ATOM     20  H8  UNL     1      18.334 -32.589   5.778  1.00  0.00     0.217 HD
ENDBRANCH  13  19
ENDBRANCH   5   8
ENDBRANCH   3   4
ENDBRANCH   1   3
BRANCH   2  21
HETATM   21  C5  UNL     1      20.103 -29.528  10.518  1.00  0.00     0.177 C 
HETATM   22  O2  UNL     1      19.087 -30.431  10.758  1.00  0.00    -0.361 OA
HETATM   23  C6  UNL     1      18.631 -29.993  12.023  1.00  0.00     0.220 C 
HETATM   24  C12 UNL     1      19.888 -29.735  12.837  1.00  0.00     0.189 C 
HETATM   25  C13 UNL     1      20.954 -29.639  11.735  1.00  0.00     0.182 C 
BRANCH  23  26
HETATM   26  S1  UNL     1      17.687 -31.282  12.854  1.00  0.00    -0.095 SA
BRANCH  26  27
HETATM   27  C7  UNL     1      15.976 -30.817  12.850  1.00  0.00     0.005 A 
HETATM   28  C8  UNL     1      15.061 -31.516  12.100  1.00  0.00     0.035 A 
HETATM   29  C9  UNL     1      13.707 -31.152  12.093  1.00  0.00     0.089 A 
HETATM   30  N2  UNL     1      13.301 -30.091  12.841  1.00  0.00    -0.375 N 
HETATM   31  C10 UNL     1      14.176 -29.392  13.582  1.00  0.00     0.089 A 
ATOM     32  H2  UNL     1      12.316 -29.823  12.839  1.00  0.00     0.164 HD
HETATM   33  C11 UNL     1      15.528 -29.750  13.593  1.00  0.00     0.035 A 
ENDBRANCH  26  27
ENDBRANCH  23  26
BRANCH  24  34
HETATM   34  O3  UNL     1      19.739 -28.515  13.475  1.00  0.00    -0.389 OA
ATOM     35  H3  UNL     1      19.055 -28.032  13.026  1.00  0.00     0.210 HD
ENDBRANCH  24  34
BRANCH  25  36
HETATM   36  O4  UNL     1      21.746 -28.501  11.943  1.00  0.00    -0.390 OA
ATOM     37  H4  UNL     1      22.077 -28.445  12.831  1.00  0.00     0.210 HD
ENDBRANCH  25  36
ENDBRANCH   2  21
TORSDOF 11
ENDMDL
