MODEL 3
REMARK VINA RESULT: -7.194588170      1.741      2.563
REMARK  7 active torsions:
REMARK  status: ('A' for Active; 'I' for Inactive)
REMARK    1  A    between atoms: C2_3  and  O2_4 
REMARK    2  A    between atoms: C3_6  and  C4_7 
REMARK    3  A    between atoms: C4_7  and  C5_8 
REMARK    4  A    between atoms: C5_8  and  O3_9 
REMARK    5  A    between atoms: O3_9  and  P1_10 
REMARK    6  A    between atoms: N1_16  and  C8_17 
REMARK    7  A    between atoms: C8_17  and  P2_18 
ROOT
HETATM    1  O1  UNL     1      14.187   8.276  14.023  1.00  0.00    -0.265 OA
HETATM    2  C1  UNL     1      13.948   7.097  14.393  1.00  0.00     0.285 A 
HETATM    3  C2  UNL     1      14.998   6.260  14.718  1.00  0.00     0.141 A 
HETATM    4  C3  UNL     1      14.786   4.959  15.128  1.00  0.00    -0.016 A 
HETATM    5  C6  UNL     1      13.469   4.551  15.193  1.00  0.00     0.028 A 
HETATM    6  C7  UNL     1      12.472   5.407  14.864  1.00  0.00     0.101 A 
HETATM    7  N1  UNL     1      12.666   6.663  14.468  1.00  0.00    -0.288 N 
ENDROOT
BRANCH   4   8
HETATM    8  C4  UNL     1      15.872   4.044  15.481  1.00  0.00     0.068 C 
BRANCH   8   9
HETATM    9  C5  UNL     1      15.443   2.612  15.655  1.00  0.00     0.187 C 
BRANCH   9  10
HETATM   10  O3  UNL     1      16.081   2.084  16.735  1.00  0.00    -0.282 OA
BRANCH  10  11
HETATM   11  P1  UNL     1      15.885   0.531  17.104  1.00  0.00     0.422 P 
HETATM   12  O4  UNL     1      16.506  -0.078  15.861  1.00  0.00    -0.617 OA
HETATM   13  O5  UNL     1      14.441  -0.263  16.820  1.00  0.00    -0.617 OA
HETATM   14  O6  UNL     1      17.007  -0.277  18.065  1.00  0.00    -0.617 OA
ENDBRANCH  10  11
ENDBRANCH   9  10
ENDBRANCH   8   9
ENDBRANCH   4   8
BRANCH   3  15
HETATM   15  O2  UNL     1      16.312   6.696  14.644  1.00  0.00    -0.355 OA
ATOM     16  H2  UNL     1      16.774   6.725  13.815  1.00  0.00     0.218 HD
ENDBRANCH   3  15
BRANCH   7  17
HETATM   17  C8  UNL     1      11.532   7.506  14.141  1.00  0.00     0.214 C 
BRANCH  17  18
HETATM   18  P2  UNL     1      10.713   7.249  12.634  1.00  0.00     0.301 P 
HETATM   19  O7  UNL     1      11.674   8.025  11.724  1.00  0.00    -0.636 OA
HETATM   20  O8  UNL     1       9.447   8.123  12.151  1.00  0.00    -0.636 OA
HETATM   21  O9  UNL     1      11.140   5.872  11.690  1.00  0.00    -0.636 OA
ENDBRANCH  17  18
ENDBRANCH   7  17
TORSDOF 7
ENDMDL
