MODEL 1
REMARK VINA RESULT: -7.559056447      0.000      0.000
REMARK  7 active torsions:
REMARK  status: ('A' for Active; 'I' for Inactive)
REMARK    1  A    between atoms: C2_3  and  O2_4 
REMARK    2  A    between atoms: C3_6  and  C4_7 
REMARK    3  A    between atoms: C4_7  and  C5_8 
REMARK    4  A    between atoms: C5_8  and  O3_9 
REMARK    5  A    between atoms: O3_9  and  P1_10 
REMARK    6  A    between atoms: N1_16  and  C8_17 
REMARK    7  A    between atoms: C8_17  and  P2_18 
ROOT
HETATM    1  O1  UNL     1      14.131   5.300  14.470  1.00  0.00    -0.265 OA
HETATM    2  C1  UNL     1      13.148   4.594  14.813  1.00  0.00     0.285 A 
HETATM    3  C2  UNL     1      13.355   3.287  15.208  1.00  0.00     0.141 A 
HETATM    4  C3  UNL     1      12.307   2.473  15.594  1.00  0.00    -0.016 A 
HETATM    5  C6  UNL     1      11.052   3.045  15.560  1.00  0.00     0.028 A 
HETATM    6  C7  UNL     1      10.898   4.331  15.165  1.00  0.00     0.101 A 
HETATM    7  N1  UNL     1      11.900   5.124  14.792  1.00  0.00    -0.288 N 
ENDROOT
BRANCH   4   8
HETATM    8  C4  UNL     1      12.487   1.084  16.019  1.00  0.00     0.068 C 
BRANCH   8   9
HETATM    9  C5  UNL     1      13.337   0.919  17.250  1.00  0.00     0.187 C 
BRANCH   9  10
HETATM   10  O3  UNL     1      14.343   0.042  16.983  1.00  0.00    -0.282 OA
BRANCH  10  11
HETATM   11  P1  UNL     1      15.867   0.450  17.289  1.00  0.00     0.422 P 
HETATM   12  O4  UNL     1      16.463   0.139  15.929  1.00  0.00    -0.617 OA
HETATM   13  O5  UNL     1      16.925  -0.607  18.038  1.00  0.00    -0.617 OA
HETATM   14  O6  UNL     1      16.379   2.048  17.151  1.00  0.00    -0.617 OA
ENDBRANCH  10  11
ENDBRANCH   9  10
ENDBRANCH   8   9
ENDBRANCH   4   8
BRANCH   3  15
HETATM   15  O2  UNL     1      14.627   2.737  15.233  1.00  0.00    -0.355 OA
ATOM     16  H2  UNL     1      15.360   3.212  15.606  1.00  0.00     0.218 HD
ENDBRANCH   3  15
BRANCH   7  17
HETATM   17  C8  UNL     1      11.635   6.491  14.389  1.00  0.00     0.214 C 
BRANCH  17  18
HETATM   18  P2  UNL     1      11.179   6.799  12.746  1.00  0.00     0.301 P 
HETATM   19  O7  UNL     1      12.573   7.100  12.180  1.00  0.00    -0.636 OA
HETATM   20  O8  UNL     1      10.596   8.214  12.235  1.00  0.00    -0.636 OA
HETATM   21  O9  UNL     1      11.158   5.480  11.636  1.00  0.00    -0.636 OA
ENDBRANCH  17  18
ENDBRANCH   7  17
TORSDOF 7
ENDMDL
