MODEL 6
REMARK VINA RESULT: -6.965687682      1.796      7.404
REMARK  7 active torsions:
REMARK  status: ('A' for Active; 'I' for Inactive)
REMARK    1  A    between atoms: C2_3  and  O2_4 
REMARK    2  A    between atoms: C3_6  and  C4_7 
REMARK    3  A    between atoms: C4_7  and  C5_8 
REMARK    4  A    between atoms: C5_8  and  O3_9 
REMARK    5  A    between atoms: O3_9  and  P1_10 
REMARK    6  A    between atoms: N1_16  and  C8_17 
REMARK    7  A    between atoms: C8_17  and  P2_18 
ROOT
HETATM    1  O1  UNL     1      11.458   0.822  16.607  1.00  0.00    -0.265 OA
HETATM    2  C1  UNL     1      12.226   1.694  16.125  1.00  0.00     0.285 A 
HETATM    3  C2  UNL     1      11.690   2.808  15.509  1.00  0.00     0.141 A 
HETATM    4  C3  UNL     1      12.492   3.791  14.966  1.00  0.00    -0.016 A 
HETATM    5  C6  UNL     1      13.853   3.593  15.077  1.00  0.00     0.028 A 
HETATM    6  C7  UNL     1      14.334   2.485  15.689  1.00  0.00     0.101 A 
HETATM    7  N1  UNL     1      13.569   1.531  16.216  1.00  0.00    -0.288 N 
ENDROOT
BRANCH   4   8
HETATM    8  C4  UNL     1      11.960   4.985  14.307  1.00  0.00     0.068 C 
BRANCH   8   9
HETATM    9  C5  UNL     1      11.161   4.701  13.063  1.00  0.00     0.187 C 
BRANCH   9  10
HETATM   10  O3  UNL     1      11.464   5.632  12.117  1.00  0.00    -0.282 OA
BRANCH  10  11
HETATM   11  P1  UNL     1      11.125   7.182  12.379  1.00  0.00     0.422 P 
HETATM   12  O4  UNL     1      10.100   7.380  11.279  1.00  0.00    -0.617 OA
HETATM   13  O5  UNL     1      12.083   8.405  11.761  1.00  0.00    -0.617 OA
HETATM   14  O6  UNL     1       9.983   7.635  13.529  1.00  0.00    -0.617 OA
ENDBRANCH  10  11
ENDBRANCH   9  10
ENDBRANCH   8   9
ENDBRANCH   4   8
BRANCH   3  15
HETATM   15  O2  UNL     1      10.318   2.982  15.412  1.00  0.00    -0.355 OA
ATOM     16  H2  UNL     1       9.948   3.794  15.086  1.00  0.00     0.218 HD
ENDBRANCH   3  15
BRANCH   7  17
HETATM   17  C8  UNL     1      14.179   0.381  16.857  1.00  0.00     0.214 C 
BRANCH  17  18
HETATM   18  P2  UNL     1      15.863   0.451  17.258  1.00  0.00     0.301 P 
HETATM   19  O7  UNL     1      16.433  -0.004  15.909  1.00  0.00    -0.636 OA
HETATM   20  O8  UNL     1      16.636  -0.721  18.053  1.00  0.00    -0.636 OA
HETATM   21  O9  UNL     1      16.718   1.921  16.975  1.00  0.00    -0.636 OA
ENDBRANCH  17  18
ENDBRANCH   7  17
TORSDOF 7
ENDMDL
