MODEL 2
REMARK VINA RESULT: -7.536209406      1.407      2.314
REMARK  7 active torsions:
REMARK  status: ('A' for Active; 'I' for Inactive)
REMARK    1  A    between atoms: C2_3  and  O2_4 
REMARK    2  A    between atoms: C3_6  and  C4_7 
REMARK    3  A    between atoms: C4_7  and  C5_8 
REMARK    4  A    between atoms: C5_8  and  O3_9 
REMARK    5  A    between atoms: O3_9  and  P1_10 
REMARK    6  A    between atoms: N1_16  and  C8_17 
REMARK    7  A    between atoms: C8_17  and  P2_18 
ROOT
HETATM    1  O1  UNL     1       9.719   4.002  14.576  1.00  0.00    -0.265 OA
HETATM    2  C1  UNL     1      10.948   4.205  14.750  1.00  0.00     0.285 A 
HETATM    3  C2  UNL     1      11.750   3.176  15.203  1.00  0.00     0.141 A 
HETATM    4  C3  UNL     1      13.104   3.350  15.410  1.00  0.00    -0.016 A 
HETATM    5  C6  UNL     1      13.601   4.608  15.137  1.00  0.00     0.028 A 
HETATM    6  C7  UNL     1      12.777   5.588  14.695  1.00  0.00     0.101 A 
HETATM    7  N1  UNL     1      11.470   5.430  14.492  1.00  0.00    -0.288 N 
ENDROOT
BRANCH   4   8
HETATM    8  C4  UNL     1      13.985   2.283  15.888  1.00  0.00     0.068 C 
BRANCH   8   9
HETATM    9  C5  UNL     1      15.450   2.627  15.851  1.00  0.00     0.187 C 
BRANCH   9  10
HETATM   10  O3  UNL     1      16.071   2.044  16.913  1.00  0.00    -0.282 OA
BRANCH  10  11
HETATM   11  P1  UNL     1      15.917   0.464  17.164  1.00  0.00     0.422 P 
HETATM   12  O4  UNL     1      16.568  -0.034  15.888  1.00  0.00    -0.617 OA
HETATM   13  O5  UNL     1      14.500  -0.348  16.804  1.00  0.00    -0.617 OA
HETATM   14  O6  UNL     1      17.052  -0.381  18.076  1.00  0.00    -0.617 OA
ENDBRANCH  10  11
ENDBRANCH   9  10
ENDBRANCH   8   9
ENDBRANCH   4   8
BRANCH   3  15
HETATM   15  O2  UNL     1      11.224   1.921  15.469  1.00  0.00    -0.355 OA
ATOM     16  H2  UNL     1      11.271   1.543  16.339  1.00  0.00     0.218 HD
ENDBRANCH   3  15
BRANCH   7  17
HETATM   17  C8  UNL     1      10.670   6.539  14.011  1.00  0.00     0.214 C 
BRANCH  17  18
HETATM   18  P2  UNL     1      11.017   7.197  12.446  1.00  0.00     0.301 P 
HETATM   19  O7  UNL     1      11.205   5.878  11.686  1.00  0.00    -0.636 OA
HETATM   20  O8  UNL     1      12.476   7.730  12.010  1.00  0.00    -0.636 OA
HETATM   21  O9  UNL     1       9.707   7.483  11.363  1.00  0.00    -0.636 OA
ENDBRANCH  17  18
ENDBRANCH   7  17
TORSDOF 7
ENDMDL
