MODEL 7
REMARK VINA RESULT: -7.638124222      4.147      5.733
REMARK  5 active torsions:
REMARK  status: ('A' for Active; 'I' for Inactive)
REMARK    1  A    between atoms: C2_2  and  C3_3 
REMARK    2  A    between atoms: C8_8  and  O1_9 
REMARK    3  A    between atoms: O1_9  and  S1_10 
REMARK    4  A    between atoms: S1_10  and  N1_11 
REMARK    5  A    between atoms: C17_24  and  O4_25 
ROOT
HETATM    1  C3  UNL     1      -3.698   3.483  14.511  1.00  0.00    -0.023 A 
HETATM    2  C4  UNL     1      -3.202   4.777  14.726  1.00  0.00     0.018 A 
HETATM    3  C5  UNL     1      -3.336   5.762  13.773  1.00  0.00    -0.047 A 
HETATM    4  C6  UNL     1      -3.976   5.439  12.593  1.00  0.00    -0.049 A 
HETATM    5  C7  UNL     1      -4.473   4.200  12.341  1.00  0.00     0.046 A 
HETATM    6  C8  UNL     1      -4.328   3.212  13.315  1.00  0.00     0.098 A 
HETATM    7  C9  UNL     1      -4.105   6.528  11.584  1.00  0.00     0.039 C 
HETATM    8  C10 UNL     1      -2.845   7.311  11.437  1.00  0.00     0.010 C 
HETATM    9  C11 UNL     1      -2.137   7.647  12.696  1.00  0.00    -0.001 C 
HETATM   10  C12 UNL     1      -2.843   7.114  13.954  1.00  0.00     0.024 C 
HETATM   11  C13 UNL     1      -1.902   7.258  15.117  1.00  0.00     0.010 C 
HETATM   12  C14 UNL     1      -1.357   8.634  15.274  1.00  0.00     0.013 C 
HETATM   13  C15 UNL     1      -0.820   9.205  14.010  1.00  0.00    -0.014 C 
HETATM   14  C16 UNL     1       0.411   8.436  13.604  1.00  0.00     0.018 C 
HETATM   15  C17 UNL     1      -0.593  10.680  14.028  1.00  0.00     0.126 C 
HETATM   16  C18 UNL     1      -1.019  11.204  12.648  1.00  0.00     0.033 C 
HETATM   17  C19 UNL     1      -1.431   9.943  11.871  1.00  0.00     0.008 C 
HETATM   18  C20 UNL     1      -1.931   9.091  12.965  1.00  0.00     0.001 C 
ENDROOT
BRANCH   6  19
HETATM   19  O1  UNL     1      -4.841   1.961  13.031  1.00  0.00    -0.216 OA
BRANCH  19  20
HETATM   20  S1  UNL     1      -4.020   0.666  12.359  1.00  0.00     0.360 S 
HETATM   21  O2  UNL     1      -4.197  -0.604  13.155  1.00  0.00    -0.176 OA
HETATM   22  O3  UNL     1      -2.574   1.033  12.203  1.00  0.00    -0.176 OA
BRANCH  20  23
HETATM   23  N1  UNL     1      -4.590   0.315  10.754  1.00  0.00    -0.305 N 
ATOM     24  H12 UNL     1      -5.569   0.384  10.478  1.00  0.00     0.171 HD
ATOM     25  H11 UNL     1      -3.825   0.037  10.139  1.00  0.00     0.171 HD
ENDBRANCH  20  23
ENDBRANCH  19  20
ENDBRANCH   6  19
BRANCH   1  26
HETATM   26  C2  UNL     1      -3.528   2.462  15.564  1.00  0.00     0.037 C 
HETATM   27  C1  UNL     1      -4.779   2.101  16.301  1.00  0.00     0.010 C 
ENDBRANCH   1  26
BRANCH  15  28
HETATM   28  O4  UNL     1       0.788  10.903  14.107  1.00  0.00    -0.395 OA
ATOM     29  H4  UNL     1       1.068  10.692  14.990  1.00  0.00     0.210 HD
ENDBRANCH  15  28
TORSDOF 5
ENDMDL
