MODEL 6
REMARK VINA RESULT: -7.648965488      3.961      5.602
REMARK  5 active torsions:
REMARK  status: ('A' for Active; 'I' for Inactive)
REMARK    1  A    between atoms: C2_2  and  C3_3 
REMARK    2  A    between atoms: C8_8  and  O1_9 
REMARK    3  A    between atoms: O1_9  and  S1_10 
REMARK    4  A    between atoms: S1_10  and  N1_11 
REMARK    5  A    between atoms: C17_24  and  O4_25 
ROOT
HETATM    1  C3  UNL     1      -3.735   2.987  14.472  1.00  0.00    -0.023 A 
HETATM    2  C4  UNL     1      -3.420   4.341  14.656  1.00  0.00     0.018 A 
HETATM    3  C5  UNL     1      -3.477   5.238  13.613  1.00  0.00    -0.047 A 
HETATM    4  C6  UNL     1      -3.856   4.765  12.372  1.00  0.00    -0.049 A 
HETATM    5  C7  UNL     1      -4.171   3.462  12.147  1.00  0.00     0.046 A 
HETATM    6  C8  UNL     1      -4.107   2.566  13.213  1.00  0.00     0.098 A 
HETATM    7  C9  UNL     1      -3.908   5.761  11.266  1.00  0.00     0.039 C 
HETATM    8  C10 UNL     1      -2.728   6.672  11.271  1.00  0.00     0.010 C 
HETATM    9  C11 UNL     1      -2.297   7.171  12.600  1.00  0.00    -0.001 C 
HETATM   10  C12 UNL     1      -3.163   6.646  13.758  1.00  0.00     0.024 C 
HETATM   11  C13 UNL     1      -2.469   6.976  15.049  1.00  0.00     0.010 C 
HETATM   12  C14 UNL     1      -2.102   8.412  15.179  1.00  0.00     0.013 C 
HETATM   13  C15 UNL     1      -1.405   8.955  13.982  1.00  0.00    -0.014 C 
HETATM   14  C16 UNL     1      -0.049   8.306  13.864  1.00  0.00     0.018 C 
HETATM   15  C17 UNL     1      -1.335  10.443  13.911  1.00  0.00     0.126 C 
HETATM   16  C18 UNL     1      -1.553  10.821  12.438  1.00  0.00     0.033 C 
HETATM   17  C19 UNL     1      -1.689   9.472  11.714  1.00  0.00     0.008 C 
HETATM   18  C20 UNL     1      -2.291   8.644  12.774  1.00  0.00     0.001 C 
ENDROOT
BRANCH   6  19
HETATM   19  O1  UNL     1      -4.431   1.248  12.954  1.00  0.00    -0.216 OA
BRANCH  19  20
HETATM   20  S1  UNL     1      -3.747   0.253  11.795  1.00  0.00     0.360 S 
HETATM   21  O2  UNL     1      -4.371   0.438  10.434  1.00  0.00    -0.176 OA
HETATM   22  O3  UNL     1      -3.834  -1.171  12.262  1.00  0.00    -0.176 OA
BRANCH  20  23
HETATM   23  N1  UNL     1      -2.050   0.578  11.598  1.00  0.00    -0.305 N 
ATOM     24  H12 UNL     1      -1.680   1.240  10.916  1.00  0.00     0.171 HD
ATOM     25  H11 UNL     1      -1.487   0.028  12.247  1.00  0.00     0.171 HD
ENDBRANCH  20  23
ENDBRANCH  19  20
ENDBRANCH   6  19
BRANCH   1  26
HETATM   26  C2  UNL     1      -3.657   2.066  15.623  1.00  0.00     0.037 C 
HETATM   27  C1  UNL     1      -4.925   1.924  16.404  1.00  0.00     0.010 C 
ENDBRANCH   1  26
BRANCH  15  28
HETATM   28  O4  UNL     1      -0.021  10.828  14.209  1.00  0.00    -0.395 OA
ATOM     29  H4  UNL     1       0.452  10.914  13.390  1.00  0.00     0.210 HD
ENDBRANCH  15  28
TORSDOF 5
ENDMDL
