MODEL 2
REMARK VINA RESULT: -8.154415945      1.517      3.228
REMARK  5 active torsions:
REMARK  status: ('A' for Active; 'I' for Inactive)
REMARK    1  A    between atoms: C2_2  and  C3_3 
REMARK    2  A    between atoms: C8_8  and  O1_9 
REMARK    3  A    between atoms: O1_9  and  S1_10 
REMARK    4  A    between atoms: S1_10  and  N1_11 
REMARK    5  A    between atoms: C17_24  and  O4_25 
ROOT
HETATM    1  C3  UNL     1      -4.293   3.607  13.783  1.00  0.00    -0.023 A 
HETATM    2  C4  UNL     1      -3.700   4.176  12.646  1.00  0.00     0.018 A 
HETATM    3  C5  UNL     1      -3.352   3.405  11.559  1.00  0.00    -0.047 A 
HETATM    4  C6  UNL     1      -3.604   2.049  11.619  1.00  0.00    -0.049 A 
HETATM    5  C7  UNL     1      -4.177   1.455  12.699  1.00  0.00     0.046 A 
HETATM    6  C8  UNL     1      -4.523   2.248  13.792  1.00  0.00     0.098 A 
HETATM    7  C9  UNL     1      -3.215   1.245  10.427  1.00  0.00     0.039 C 
HETATM    8  C10 UNL     1      -1.872   1.625   9.904  1.00  0.00     0.010 C 
HETATM    9  C11 UNL     1      -1.580   3.079   9.854  1.00  0.00    -0.001 C 
HETATM   10  C12 UNL     1      -2.740   3.951  10.363  1.00  0.00     0.024 C 
HETATM   11  C13 UNL     1      -2.231   5.354  10.536  1.00  0.00     0.010 C 
HETATM   12  C14 UNL     1      -1.560   5.898   9.324  1.00  0.00     0.013 C 
HETATM   13  C15 UNL     1      -0.549   4.973   8.743  1.00  0.00    -0.014 C 
HETATM   14  C16 UNL     1       0.609   4.845   9.699  1.00  0.00     0.018 C 
HETATM   15  C17 UNL     1      -0.112   5.305   7.356  1.00  0.00     0.126 C 
HETATM   16  C18 UNL     1       0.035   3.968   6.613  1.00  0.00     0.033 C 
HETATM   17  C19 UNL     1      -0.288   2.904   7.675  1.00  0.00     0.008 C 
HETATM   18  C20 UNL     1      -1.252   3.633   8.519  1.00  0.00     0.001 C 
ENDROOT
BRANCH   6  19
HETATM   19  O1  UNL     1      -5.102   1.616  14.876  1.00  0.00    -0.216 OA
BRANCH  19  20
HETATM   20  S1  UNL     1      -4.445   0.374  15.786  1.00  0.00     0.360 S 
HETATM   21  O2  UNL     1      -3.059   0.696  16.287  1.00  0.00    -0.176 OA
HETATM   22  O3  UNL     1      -4.468  -0.889  14.975  1.00  0.00    -0.176 OA
BRANCH  20  23
HETATM   23  N1  UNL     1      -5.406   0.042  17.196  1.00  0.00    -0.305 N 
ATOM     24  H12 UNL     1      -5.310   0.552  18.074  1.00  0.00     0.171 HD
ATOM     25  H11 UNL     1      -6.066  -0.718  17.028  1.00  0.00     0.171 HD
ENDBRANCH  20  23
ENDBRANCH  19  20
ENDBRANCH   6  19
BRANCH   1  26
HETATM   26  C2  UNL     1      -4.647   4.477  14.923  1.00  0.00     0.037 C 
HETATM   27  C1  UNL     1      -5.998   5.112  14.835  1.00  0.00     0.010 C 
ENDBRANCH   1  26
BRANCH  15  28
HETATM   28  O4  UNL     1       1.180   5.841   7.427  1.00  0.00    -0.395 OA
ATOM     29  H4  UNL     1       1.799   5.123   7.368  1.00  0.00     0.210 HD
ENDBRANCH  15  28
TORSDOF 5
ENDMDL
