MODEL 5
REMARK VINA RESULT: -7.699963210      4.369      5.993
REMARK  5 active torsions:
REMARK  status: ('A' for Active; 'I' for Inactive)
REMARK    1  A    between atoms: C2_2  and  C3_3 
REMARK    2  A    between atoms: C8_8  and  O1_9 
REMARK    3  A    between atoms: O1_9  and  S1_10 
REMARK    4  A    between atoms: S1_10  and  N1_11 
REMARK    5  A    between atoms: C17_24  and  O4_25 
ROOT
HETATM    1  C3  UNL     1      -3.728   3.815  14.187  1.00  0.00    -0.023 A 
HETATM    2  C4  UNL     1      -3.190   5.070  14.510  1.00  0.00     0.018 A 
HETATM    3  C5  UNL     1      -3.265   6.128  13.632  1.00  0.00    -0.047 A 
HETATM    4  C6  UNL     1      -3.889   5.919  12.418  1.00  0.00    -0.049 A 
HETATM    5  C7  UNL     1      -4.424   4.721  12.063  1.00  0.00     0.046 A 
HETATM    6  C8  UNL     1      -4.339   3.659  12.962  1.00  0.00     0.098 A 
HETATM    7  C9  UNL     1      -3.953   7.084  11.491  1.00  0.00     0.039 C 
HETATM    8  C10 UNL     1      -2.662   7.827  11.430  1.00  0.00     0.010 C 
HETATM    9  C11 UNL     1      -1.971   8.040  12.726  1.00  0.00    -0.001 C 
HETATM   10  C12 UNL     1      -2.727   7.442  13.924  1.00  0.00     0.024 C 
HETATM   11  C13 UNL     1      -1.809   7.463  15.114  1.00  0.00     0.010 C 
HETATM   12  C14 UNL     1      -1.217   8.801  15.387  1.00  0.00     0.013 C 
HETATM   13  C15 UNL     1      -0.630   9.444  14.180  1.00  0.00    -0.014 C 
HETATM   14  C16 UNL     1       0.582   8.660  13.744  1.00  0.00     0.018 C 
HETATM   15  C17 UNL     1      -0.349  10.903  14.315  1.00  0.00     0.126 C 
HETATM   16  C18 UNL     1      -0.722  11.545  12.970  1.00  0.00     0.033 C 
HETATM   17  C19 UNL     1      -1.163  10.362  12.091  1.00  0.00     0.008 C 
HETATM   18  C20 UNL     1      -1.719   9.451  13.107  1.00  0.00     0.001 C 
ENDROOT
BRANCH   6  19
HETATM   19  O1  UNL     1      -4.891   2.454  12.574  1.00  0.00    -0.216 OA
BRANCH  19  20
HETATM   20  S1  UNL     1      -4.103   1.181  11.823  1.00  0.00     0.360 S 
HETATM   21  O2  UNL     1      -4.439   1.079  10.356  1.00  0.00    -0.176 OA
HETATM   22  O3  UNL     1      -4.417  -0.089  12.560  1.00  0.00    -0.176 OA
BRANCH  20  23
HETATM   23  N1  UNL     1      -2.376   1.360  11.914  1.00  0.00    -0.305 N 
ATOM     24  H12 UNL     1      -1.824   1.082  12.725  1.00  0.00     0.171 HD
ATOM     25  H11 UNL     1      -1.998   1.774  11.061  1.00  0.00     0.171 HD
ENDBRANCH  20  23
ENDBRANCH  19  20
ENDBRANCH   6  19
BRANCH   1  26
HETATM   26  C2  UNL     1      -3.621   2.712  15.164  1.00  0.00     0.037 C 
HETATM   27  C1  UNL     1      -4.858   2.457  15.964  1.00  0.00     0.010 C 
ENDBRANCH   1  26
BRANCH  15  28
HETATM   28  O4  UNL     1       1.037  11.066  14.440  1.00  0.00    -0.395 OA
ATOM     29  H4  UNL     1       1.239  11.153  15.364  1.00  0.00     0.210 HD
ENDBRANCH  15  28
TORSDOF 5
ENDMDL
