MODEL 16
REMARK VINA RESULT: -7.127447557      1.726      3.455
REMARK  5 active torsions:
REMARK  status: ('A' for Active; 'I' for Inactive)
REMARK    1  A    between atoms: C2_2  and  C3_3 
REMARK    2  A    between atoms: C8_8  and  O1_9 
REMARK    3  A    between atoms: O1_9  and  S1_10 
REMARK    4  A    between atoms: S1_10  and  N1_11 
REMARK    5  A    between atoms: C17_24  and  O4_25 
ROOT
HETATM    1  C3  UNL     1      -4.830   2.978  14.757  1.00  0.00    -0.023 A 
HETATM    2  C4  UNL     1      -4.619   3.466  13.458  1.00  0.00     0.018 A 
HETATM    3  C5  UNL     1      -3.964   2.714  12.509  1.00  0.00    -0.047 A 
HETATM    4  C6  UNL     1      -3.518   1.458  12.871  1.00  0.00    -0.049 A 
HETATM    5  C7  UNL     1      -3.700   0.945  14.116  1.00  0.00     0.046 A 
HETATM    6  C8  UNL     1      -4.365   1.718  15.067  1.00  0.00     0.098 A 
HETATM    7  C9  UNL     1      -2.814   0.672  11.821  1.00  0.00     0.039 C 
HETATM    8  C10 UNL     1      -1.841   1.500  11.053  1.00  0.00     0.010 C 
HETATM    9  C11 UNL     1      -2.300   2.860  10.675  1.00  0.00    -0.001 C 
HETATM   10  C12 UNL     1      -3.726   3.177  11.155  1.00  0.00     0.024 C 
HETATM   11  C13 UNL     1      -3.966   4.649  10.974  1.00  0.00     0.010 C 
HETATM   12  C14 UNL     1      -3.676   5.135   9.598  1.00  0.00     0.013 C 
HETATM   13  C15 UNL     1      -2.356   4.685   9.078  1.00  0.00    -0.014 C 
HETATM   14  C16 UNL     1      -1.261   5.352   9.871  1.00  0.00     0.018 C 
HETATM   15  C17 UNL     1      -2.170   4.839   7.606  1.00  0.00     0.126 C 
HETATM   16  C18 UNL     1      -1.405   3.594   7.131  1.00  0.00     0.033 C 
HETATM   17  C19 UNL     1      -1.140   2.794   8.417  1.00  0.00     0.008 C 
HETATM   18  C20 UNL     1      -2.317   3.163   9.224  1.00  0.00     0.001 C 
ENDROOT
BRANCH   6  19
HETATM   19  O1  UNL     1      -4.534   1.170  16.324  1.00  0.00    -0.216 OA
BRANCH  19  20
HETATM   20  S1  UNL     1      -5.947   0.541  16.965  1.00  0.00     0.360 S 
HETATM   21  O2  UNL     1      -5.778  -0.877  17.452  1.00  0.00    -0.176 OA
HETATM   22  O3  UNL     1      -7.040   0.655  15.944  1.00  0.00    -0.176 OA
BRANCH  20  23
HETATM   23  N1  UNL     1      -6.489   1.463  18.336  1.00  0.00    -0.305 N 
ATOM     24  H12 UNL     1      -5.902   1.666  19.145  1.00  0.00     0.171 HD
ATOM     25  H11 UNL     1      -7.457   1.767  18.223  1.00  0.00     0.171 HD
ENDBRANCH  20  23
ENDBRANCH  19  20
ENDBRANCH   6  19
BRANCH   1  26
HETATM   26  C2  UNL     1      -5.538   3.824  15.738  1.00  0.00     0.037 C 
HETATM   27  C1  UNL     1      -6.152   5.066  15.174  1.00  0.00     0.010 C 
ENDBRANCH   1  26
BRANCH  15  28
HETATM   28  O4  UNL     1      -1.305   5.919   7.390  1.00  0.00    -0.395 OA
ATOM     29  H4  UNL     1      -0.902   6.142   8.221  1.00  0.00     0.210 HD
ENDBRANCH  15  28
TORSDOF 5
ENDMDL
