MODEL 2
REMARK VINA RESULT: -8.202428561      3.741      5.261
REMARK  5 active torsions:
REMARK  status: ('A' for Active; 'I' for Inactive)
REMARK    1  A    between atoms: C2_2  and  C3_3 
REMARK    2  A    between atoms: C8_8  and  O1_9 
REMARK    3  A    between atoms: O1_9  and  S1_10 
REMARK    4  A    between atoms: S1_10  and  N1_11 
REMARK    5  A    between atoms: C17_24  and  O4_25 
ROOT
HETATM    1  C3  UNL     1      -3.367   0.481  12.072  1.00  0.00    -0.023 A 
HETATM    2  C4  UNL     1      -2.423   1.077  11.222  1.00  0.00     0.018 A 
HETATM    3  C5  UNL     1      -1.926   2.336  11.476  1.00  0.00    -0.047 A 
HETATM    4  C6  UNL     1      -2.384   2.999  12.597  1.00  0.00    -0.049 A 
HETATM    5  C7  UNL     1      -3.296   2.461  13.449  1.00  0.00     0.046 A 
HETATM    6  C8  UNL     1      -3.791   1.186  13.177  1.00  0.00     0.098 A 
HETATM    7  C9  UNL     1      -1.826   4.358  12.843  1.00  0.00     0.039 C 
HETATM    8  C10 UNL     1      -1.760   5.174  11.597  1.00  0.00     0.010 C 
HETATM    9  C11 UNL     1      -1.289   4.468  10.381  1.00  0.00    -0.001 C 
HETATM   10  C12 UNL     1      -0.948   2.989  10.628  1.00  0.00     0.024 C 
HETATM   11  C13 UNL     1      -0.768   2.320   9.295  1.00  0.00     0.010 C 
HETATM   12  C14 UNL     1       0.199   3.016   8.404  1.00  0.00     0.013 C 
HETATM   13  C15 UNL     1      -0.043   4.481   8.299  1.00  0.00    -0.014 C 
HETATM   14  C16 UNL     1      -1.344   4.715   7.574  1.00  0.00     0.018 C 
HETATM   15  C17 UNL     1       1.083   5.269   7.719  1.00  0.00     0.126 C 
HETATM   16  C18 UNL     1       1.157   6.579   8.519  1.00  0.00     0.033 C 
HETATM   17  C19 UNL     1      -0.011   6.484   9.514  1.00  0.00     0.008 C 
HETATM   18  C20 UNL     1      -0.082   5.027   9.727  1.00  0.00     0.001 C 
ENDROOT
BRANCH   6  19
HETATM   19  O1  UNL     1      -4.719   0.665  14.059  1.00  0.00    -0.216 OA
BRANCH  19  20
HETATM   20  S1  UNL     1      -4.574   0.555  15.724  1.00  0.00     0.360 S 
HETATM   21  O2  UNL     1      -3.135   0.511  16.176  1.00  0.00    -0.176 OA
HETATM   22  O3  UNL     1      -5.349  -0.638  16.203  1.00  0.00    -0.176 OA
BRANCH  20  23
HETATM   23  N1  UNL     1      -5.290   1.927  16.516  1.00  0.00    -0.305 N 
ATOM     24  H12 UNL     1      -4.769   2.562  17.122  1.00  0.00     0.171 HD
ATOM     25  H11 UNL     1      -6.282   2.009  16.296  1.00  0.00     0.171 HD
ENDBRANCH  20  23
ENDBRANCH  19  20
ENDBRANCH   6  19
BRANCH   1  26
HETATM   26  C2  UNL     1      -3.869  -0.871  11.755  1.00  0.00     0.037 C 
HETATM   27  C1  UNL     1      -2.822  -1.849  11.325  1.00  0.00     0.010 C 
ENDBRANCH   1  26
BRANCH  15  28
HETATM   28  O4  UNL     1       0.726   5.640   6.417  1.00  0.00    -0.395 OA
ATOM     29  H4  UNL     1       1.188   6.443   6.204  1.00  0.00     0.210 HD
ENDBRANCH  15  28
TORSDOF 5
ENDMDL
