MODEL 1
REMARK VINA RESULT: -8.588460207      0.000      0.000
REMARK  5 active torsions:
REMARK  status: ('A' for Active; 'I' for Inactive)
REMARK    1  A    between atoms: C2_2  and  C3_3 
REMARK    2  A    between atoms: C8_8  and  O1_9 
REMARK    3  A    between atoms: O1_9  and  S1_10 
REMARK    4  A    between atoms: S1_10  and  N1_11 
REMARK    5  A    between atoms: C17_24  and  O4_25 
ROOT
HETATM    1  C3  UNL     1      -5.176   4.096  15.035  1.00  0.00    -0.023 A 
HETATM    2  C4  UNL     1      -4.508   5.283  14.699  1.00  0.00     0.018 A 
HETATM    3  C5  UNL     1      -3.334   5.265  13.979  1.00  0.00    -0.047 A 
HETATM    4  C6  UNL     1      -2.829   4.039  13.594  1.00  0.00    -0.049 A 
HETATM    5  C7  UNL     1      -3.442   2.864  13.896  1.00  0.00     0.046 A 
HETATM    6  C8  UNL     1      -4.629   2.899  14.626  1.00  0.00     0.098 A 
HETATM    7  C9  UNL     1      -1.558   4.055  12.817  1.00  0.00     0.039 C 
HETATM    8  C10 UNL     1      -0.563   5.008  13.384  1.00  0.00     0.010 C 
HETATM    9  C11 UNL     1      -1.096   6.322  13.821  1.00  0.00    -0.001 C 
HETATM   10  C12 UNL     1      -2.612   6.466  13.607  1.00  0.00     0.024 C 
HETATM   11  C13 UNL     1      -3.074   7.694  14.339  1.00  0.00     0.010 C 
HETATM   12  C14 UNL     1      -2.302   8.919  13.995  1.00  0.00     0.013 C 
HETATM   13  C15 UNL     1      -0.828   8.723  14.048  1.00  0.00    -0.014 C 
HETATM   14  C16 UNL     1      -0.412   8.495  15.479  1.00  0.00     0.018 C 
HETATM   15  C17 UNL     1      -0.023   9.788  13.381  1.00  0.00     0.126 C 
HETATM   16  C18 UNL     1       1.140   9.077  12.672  1.00  0.00     0.033 C 
HETATM   17  C19 UNL     1       0.957   7.593  13.032  1.00  0.00     0.008 C 
HETATM   18  C20 UNL     1      -0.509   7.515  13.165  1.00  0.00     0.001 C 
ENDROOT
BRANCH   6  19
HETATM   19  O1  UNL     1      -5.229   1.689  14.920  1.00  0.00    -0.216 OA
BRANCH  19  20
HETATM   20  S1  UNL     1      -4.549   0.403  15.749  1.00  0.00     0.360 S 
HETATM   21  O2  UNL     1      -3.173   0.722  16.280  1.00  0.00    -0.176 OA
HETATM   22  O3  UNL     1      -4.539  -0.803  14.856  1.00  0.00    -0.176 OA
BRANCH  20  23
HETATM   23  N1  UNL     1      -5.508  -0.043  17.129  1.00  0.00    -0.305 N 
ATOM     24  H12 UNL     1      -6.223  -0.771  17.105  1.00  0.00     0.171 HD
ATOM     25  H11 UNL     1      -5.263   0.511  17.949  1.00  0.00     0.171 HD
ENDBRANCH  20  23
ENDBRANCH  19  20
ENDBRANCH   6  19
BRANCH   1  26
HETATM   26  C2  UNL     1      -6.432   4.170  15.808  1.00  0.00     0.037 C 
HETATM   27  C1  UNL     1      -6.397   3.480  17.134  1.00  0.00     0.010 C 
ENDBRANCH   1  26
BRANCH  15  28
HETATM   28  O4  UNL     1       0.567  10.573  14.380  1.00  0.00    -0.395 OA
ATOM     29  H4  UNL     1       0.669  11.453  14.039  1.00  0.00     0.210 HD
ENDBRANCH  15  28
TORSDOF 5
ENDMDL
