MODEL 8
REMARK VINA RESULT: -7.710153911      4.983      8.098
REMARK  5 active torsions:
REMARK  status: ('A' for Active; 'I' for Inactive)
REMARK    1  A    between atoms: C2_2  and  C3_3 
REMARK    2  A    between atoms: C8_8  and  O1_9 
REMARK    3  A    between atoms: O1_9  and  S1_10 
REMARK    4  A    between atoms: S1_10  and  N1_11 
REMARK    5  A    between atoms: C17_24  and  O4_25 
ROOT
HETATM    1  C3  UNL     1      -2.208   3.420  10.198  1.00  0.00    -0.023 A 
HETATM    2  C4  UNL     1      -2.837   2.646  11.184  1.00  0.00     0.018 A 
HETATM    3  C5  UNL     1      -3.827   3.171  11.983  1.00  0.00    -0.047 A 
HETATM    4  C6  UNL     1      -4.187   4.490  11.787  1.00  0.00    -0.049 A 
HETATM    5  C7  UNL     1      -3.606   5.277  10.844  1.00  0.00     0.046 A 
HETATM    6  C8  UNL     1      -2.604   4.731  10.043  1.00  0.00     0.098 A 
HETATM    7  C9  UNL     1      -5.262   5.026  12.668  1.00  0.00     0.039 C 
HETATM    8  C10 UNL     1      -5.082   4.616  14.090  1.00  0.00     0.010 C 
HETATM    9  C11 UNL     1      -4.675   3.207  14.314  1.00  0.00    -0.001 C 
HETATM   10  C12 UNL     1      -4.507   2.407  13.012  1.00  0.00     0.024 C 
HETATM   11  C13 UNL     1      -3.825   1.110  13.344  1.00  0.00     0.010 C 
HETATM   12  C14 UNL     1      -4.493   0.347  14.433  1.00  0.00     0.013 C 
HETATM   13  C15 UNL     1      -4.799   1.174  15.631  1.00  0.00    -0.014 C 
HETATM   14  C16 UNL     1      -3.507   1.579  16.294  1.00  0.00     0.018 C 
HETATM   15  C17 UNL     1      -5.767   0.565  16.590  1.00  0.00     0.126 C 
HETATM   16  C18 UNL     1      -6.666   1.708  17.087  1.00  0.00     0.033 C 
HETATM   17  C19 UNL     1      -6.105   2.963  16.399  1.00  0.00     0.008 C 
HETATM   18  C20 UNL     1      -5.592   2.387  15.142  1.00  0.00     0.001 C 
ENDROOT
BRANCH   6  19
HETATM   19  O1  UNL     1      -2.031   5.556   9.094  1.00  0.00    -0.216 OA
BRANCH  19  20
HETATM   20  S1  UNL     1      -2.484   5.712   7.490  1.00  0.00     0.360 S 
HETATM   21  O2  UNL     1      -2.802   7.139   7.116  1.00  0.00    -0.176 OA
HETATM   22  O3  UNL     1      -3.637   4.791   7.217  1.00  0.00    -0.176 OA
BRANCH  20  23
HETATM   23  N1  UNL     1      -1.214   5.201   6.418  1.00  0.00    -0.305 N 
ATOM     24  H12 UNL     1      -0.507   4.511   6.672  1.00  0.00     0.171 HD
ATOM     25  H11 UNL     1      -1.272   5.678   5.517  1.00  0.00     0.171 HD
ENDBRANCH  20  23
ENDBRANCH  19  20
ENDBRANCH   6  19
BRANCH   1  26
HETATM   26  C2  UNL     1      -1.151   2.809   9.367  1.00  0.00     0.037 C 
HETATM   27  C1  UNL     1       0.230   2.903   9.934  1.00  0.00     0.010 C 
ENDBRANCH   1  26
BRANCH  15  28
HETATM   28  O4  UNL     1      -5.050   0.132  17.712  1.00  0.00    -0.395 OA
ATOM     29  H4  UNL     1      -4.779  -0.765  17.559  1.00  0.00     0.210 HD
ENDBRANCH  15  28
TORSDOF 5
ENDMDL
