MODEL 13
REMARK VINA RESULT: -7.517517903      4.366      5.752
REMARK  5 active torsions:
REMARK  status: ('A' for Active; 'I' for Inactive)
REMARK    1  A    between atoms: C2_2  and  C3_3 
REMARK    2  A    between atoms: C8_8  and  O1_9 
REMARK    3  A    between atoms: O1_9  and  S1_10 
REMARK    4  A    between atoms: S1_10  and  N1_11 
REMARK    5  A    between atoms: C17_24  and  O4_25 
ROOT
HETATM    1  C3  UNL     1      -3.073   2.319  11.609  1.00  0.00    -0.023 A 
HETATM    2  C4  UNL     1      -3.380   3.393  10.761  1.00  0.00     0.018 A 
HETATM    3  C5  UNL     1      -3.829   4.594  11.261  1.00  0.00    -0.047 A 
HETATM    4  C6  UNL     1      -3.970   4.714  12.630  1.00  0.00    -0.049 A 
HETATM    5  C7  UNL     1      -3.684   3.702  13.490  1.00  0.00     0.046 A 
HETATM    6  C8  UNL     1      -3.230   2.491  12.968  1.00  0.00     0.098 A 
HETATM    7  C9  UNL     1      -4.458   6.027  13.137  1.00  0.00     0.039 C 
HETATM    8  C10 UNL     1      -5.591   6.559  12.328  1.00  0.00     0.010 C 
HETATM    9  C11 UNL     1      -5.461   6.417  10.857  1.00  0.00    -0.001 C 
HETATM   10  C12 UNL     1      -4.155   5.731  10.423  1.00  0.00     0.024 C 
HETATM   11  C13 UNL     1      -4.268   5.388   8.964  1.00  0.00     0.010 C 
HETATM   12  C14 UNL     1      -4.651   6.543   8.108  1.00  0.00     0.013 C 
HETATM   13  C15 UNL     1      -5.822   7.300   8.626  1.00  0.00    -0.014 C 
HETATM   14  C16 UNL     1      -7.052   6.433   8.531  1.00  0.00     0.018 C 
HETATM   15  C17 UNL     1      -6.024   8.647   8.017  1.00  0.00     0.126 C 
HETATM   16  C18 UNL     1      -6.469   9.579   9.155  1.00  0.00     0.033 C 
HETATM   17  C19 UNL     1      -6.551   8.663  10.388  1.00  0.00     0.008 C 
HETATM   18  C20 UNL     1      -5.502   7.676  10.073  1.00  0.00     0.001 C 
ENDROOT
BRANCH   6  19
HETATM   19  O1  UNL     1      -2.949   1.479  13.866  1.00  0.00    -0.216 OA
BRANCH  19  20
HETATM   20  S1  UNL     1      -4.017   0.752  14.931  1.00  0.00     0.360 S 
HETATM   21  O2  UNL     1      -3.385   0.450  16.267  1.00  0.00    -0.176 OA
HETATM   22  O3  UNL     1      -4.584  -0.480  14.288  1.00  0.00    -0.176 OA
BRANCH  20  23
HETATM   23  N1  UNL     1      -5.382   1.778  15.261  1.00  0.00    -0.305 N 
ATOM     24  H12 UNL     1      -5.369   2.790  15.133  1.00  0.00     0.171 HD
ATOM     25  H11 UNL     1      -6.182   1.239  15.594  1.00  0.00     0.171 HD
ENDBRANCH  20  23
ENDBRANCH  19  20
ENDBRANCH   6  19
BRANCH   1  26
HETATM   26  C2  UNL     1      -2.594   1.051  11.023  1.00  0.00     0.037 C 
HETATM   27  C1  UNL     1      -1.116   0.972  10.812  1.00  0.00     0.010 C 
ENDBRANCH   1  26
BRANCH  15  28
HETATM   28  O4  UNL     1      -7.117   8.568   7.145  1.00  0.00    -0.395 OA
ATOM     29  H4  UNL     1      -7.872   8.283   7.646  1.00  0.00     0.210 HD
ENDBRANCH  15  28
TORSDOF 5
ENDMDL
