MODEL 1
REMARK VINA RESULT: -10.288009175      0.000      0.000
REMARK  7 active torsions:
REMARK  status: ('A' for Active; 'I' for Inactive)
REMARK    1  A    between atoms: C3_3  and  C4_4 
REMARK    2  A    between atoms: C4_4  and  N1_5 
REMARK    3  A    between atoms: N1_5  and  C6_7 
REMARK    4  A    between atoms: C6_7  and  O1_8 
REMARK    5  A    between atoms: C6_7  and  C7_10 
REMARK    6  A    between atoms: C7_10  and  C8_11 
REMARK    7  A    between atoms: C8_11  and  C9_12 
ROOT
HETATM    1  C6  UNL     1      55.120  17.843 127.126  1.00  0.00     0.141 C 
ENDROOT
BRANCH   1   2
HETATM    2  N1  UNL     1      54.717  19.258 127.132  1.00  0.00    -0.342 N 
HETATM    3  C5  UNL     1      55.805  20.174 127.066  1.00  0.00     0.158 C 
BRANCH   2   4
HETATM    4  C4  UNL     1      53.346  19.527 127.085  1.00  0.00     0.107 C 
BRANCH   4   5
HETATM    5  C3  UNL     1      52.648  19.695 125.808  1.00  0.00     0.014 A 
HETATM    6  C2  UNL     1      52.635  20.709 124.886  1.00  0.00     0.020 A 
HETATM    7  C1  UNL     1      53.661  21.812 124.797  1.00  0.00     0.069 C 
HETATM    8  N4  UNL     1      51.604  20.538 124.073  1.00  0.00    -0.353 N 
HETATM    9  C22 UNL     1      50.913  19.430 124.428  1.00  0.00     0.045 A 
HETATM   10  C23 UNL     1      51.264  21.399 122.949  1.00  0.00     0.156 C 
HETATM   11  C17 UNL     1      51.532  18.873 125.509  1.00  0.00     0.004 A 
HETATM   12  C21 UNL     1      49.724  18.889 123.938  1.00  0.00     0.030 A 
HETATM   13  C18 UNL     1      50.980  17.749 126.150  1.00  0.00     0.014 A 
HETATM   14  C19 UNL     1      49.817  17.226 125.677  1.00  0.00     0.001 A 
HETATM   15  C20 UNL     1      49.187  17.771 124.588  1.00  0.00     0.002 A 
ENDBRANCH   4   5
ENDBRANCH   2   4
ENDBRANCH   1   2
BRANCH   1  16
HETATM   16  O1  UNL     1      56.393  17.670 126.919  1.00  0.00    -0.346 OA
ATOM     17  H1  UNL     1      56.730  16.865 127.294  1.00  0.00     0.219 HD
ENDBRANCH   1  16
BRANCH   1  18
HETATM   18  C7  UNL     1      54.214  16.826 127.345  1.00  0.00     0.057 C 
BRANCH  18  19
HETATM   19  C8  UNL     1      54.147  16.041 128.394  1.00  0.00     0.017 C 
BRANCH  19  20
HETATM   20  C9  UNL     1      54.515  16.653 129.704  1.00  0.00    -0.020 A 
HETATM   21  C10 UNL     1      53.745  17.579 130.336  1.00  0.00     0.101 A 
HETATM   22  N2  UNL     1      54.144  18.252 131.431  1.00  0.00    -0.351 N 
HETATM   23  C11 UNL     1      55.387  18.045 131.995  1.00  0.00     0.114 A 
ATOM     24  H2  UNL     1      53.513  18.932 131.855  1.00  0.00     0.166 HD
HETATM   25  C12 UNL     1      56.185  17.123 131.387  1.00  0.00    -0.013 A 
HETATM   26  N3  UNL     1      55.813  18.848 133.084  1.00  0.00    -0.313 N 
HETATM   27  C13 UNL     1      55.758  16.412 130.238  1.00  0.00     0.023 A 
HETATM   28  C14 UNL     1      57.568  16.905 131.892  1.00  0.00     0.051 C 
HETATM   29  C15 UNL     1      57.665  17.261 133.354  1.00  0.00     0.108 C 
HETATM   30  C16 UNL     1      57.191  18.677 133.552  1.00  0.00     0.223 C 
HETATM   31  O2  UNL     1      57.835  19.558 134.023  1.00  0.00    -0.273 OA
ATOM     32  H3  UNL     1      55.184  19.519 133.525  1.00  0.00     0.170 HD
ENDBRANCH  19  20
ENDBRANCH  18  19
ENDBRANCH   1  18
TORSDOF 7
ENDMDL
