MODEL 3
REMARK VINA RESULT: -10.127257188      1.247      1.337
REMARK  7 active torsions:
REMARK  status: ('A' for Active; 'I' for Inactive)
REMARK    1  A    between atoms: C3_3  and  C4_4 
REMARK    2  A    between atoms: C4_4  and  N1_5 
REMARK    3  A    between atoms: N1_5  and  C6_7 
REMARK    4  A    between atoms: C6_7  and  O1_8 
REMARK    5  A    between atoms: C6_7  and  C7_10 
REMARK    6  A    between atoms: C7_10  and  C8_11 
REMARK    7  A    between atoms: C8_11  and  C9_12 
ROOT
HETATM    1  C6  UNL     1      53.775  17.267 127.306  1.00  0.00     0.141 C 
ENDROOT
BRANCH   1   2
HETATM    2  N1  UNL     1      53.820  18.732 127.432  1.00  0.00    -0.342 N 
HETATM    3  C5  UNL     1      55.108  19.250 127.745  1.00  0.00     0.158 C 
BRANCH   2   4
HETATM    4  C4  UNL     1      52.650  19.431 127.123  1.00  0.00     0.107 C 
BRANCH   4   5
HETATM    5  C3  UNL     1      52.218  19.616 125.735  1.00  0.00     0.014 A 
HETATM    6  C2  UNL     1      52.449  20.607 124.817  1.00  0.00     0.020 A 
HETATM    7  C1  UNL     1      53.546  21.638 124.914  1.00  0.00     0.069 C 
HETATM    8  N4  UNL     1      51.581  20.486 123.825  1.00  0.00    -0.353 N 
HETATM    9  C22 UNL     1      50.761  19.434 124.054  1.00  0.00     0.045 A 
HETATM   10  C23 UNL     1      51.520  21.341 122.648  1.00  0.00     0.156 C 
HETATM   11  C17 UNL     1      51.125  18.862 125.237  1.00  0.00     0.004 A 
HETATM   12  C21 UNL     1      49.652  18.960 123.351  1.00  0.00     0.030 A 
HETATM   13  C18 UNL     1      50.386  17.792 125.773  1.00  0.00     0.014 A 
HETATM   14  C19 UNL     1      49.300  17.335 125.092  1.00  0.00     0.001 A 
HETATM   15  C20 UNL     1      48.926  17.895 123.899  1.00  0.00     0.002 A 
ENDBRANCH   4   5
ENDBRANCH   2   4
ENDBRANCH   1   2
BRANCH   1  16
HETATM   16  O1  UNL     1      54.632  16.796 126.447  1.00  0.00    -0.346 OA
ATOM     17  H1  UNL     1      55.098  16.030 126.761  1.00  0.00     0.219 HD
ENDBRANCH   1  16
BRANCH   1  18
HETATM   18  C7  UNL     1      52.911  16.496 128.057  1.00  0.00     0.057 C 
BRANCH  18  19
HETATM   19  C8  UNL     1      53.210  15.780 129.114  1.00  0.00     0.017 C 
BRANCH  19  20
HETATM   20  C9  UNL     1      54.288  16.316 129.996  1.00  0.00    -0.020 A 
HETATM   21  C10 UNL     1      54.122  17.401 130.799  1.00  0.00     0.101 A 
HETATM   22  N2  UNL     1      55.130  17.986 131.472  1.00  0.00    -0.351 N 
HETATM   23  C11 UNL     1      56.426  17.516 131.387  1.00  0.00     0.114 A 
ATOM     24  H2  UNL     1      54.933  18.797 132.059  1.00  0.00     0.166 HD
HETATM   25  C12 UNL     1      56.628  16.430 130.591  1.00  0.00    -0.013 A 
HETATM   26  N3  UNL     1      57.477  18.222 132.026  1.00  0.00    -0.313 N 
HETATM   27  C13 UNL     1      55.562  15.813 129.889  1.00  0.00     0.023 A 
HETATM   28  C14 UNL     1      58.010  15.917 130.389  1.00  0.00     0.051 C 
HETATM   29  C15 UNL     1      58.886  16.267 131.566  1.00  0.00     0.108 C 
HETATM   30  C16 UNL     1      58.846  17.756 131.788  1.00  0.00     0.223 C 
HETATM   31  O2  UNL     1      59.789  18.479 131.775  1.00  0.00    -0.273 OA
ATOM     32  H3  UNL     1      57.288  19.024 132.627  1.00  0.00     0.170 HD
ENDBRANCH  19  20
ENDBRANCH  18  19
ENDBRANCH   1  18
TORSDOF 7
ENDMDL
