MODEL 2
REMARK VINA RESULT: -10.285787378      2.480      3.629
REMARK  7 active torsions:
REMARK  status: ('A' for Active; 'I' for Inactive)
REMARK    1  A    between atoms: C3_3  and  C4_4 
REMARK    2  A    between atoms: C4_4  and  N1_5 
REMARK    3  A    between atoms: N1_5  and  C6_7 
REMARK    4  A    between atoms: C6_7  and  O1_8 
REMARK    5  A    between atoms: C6_7  and  C7_10 
REMARK    6  A    between atoms: C7_10  and  C8_11 
REMARK    7  A    between atoms: C8_11  and  C9_12 
ROOT
HETATM    1  C6  UNL     1      51.728  17.120 128.373  1.00  0.00     0.141 C 
ENDROOT
BRANCH   1   2
HETATM    2  N1  UNL     1      51.889  18.347 127.576  1.00  0.00    -0.342 N 
HETATM    3  C5  UNL     1      51.970  19.537 128.352  1.00  0.00     0.158 C 
BRANCH   2   4
HETATM    4  C4  UNL     1      52.057  18.191 126.198  1.00  0.00     0.107 C 
BRANCH   4   5
HETATM    5  C3  UNL     1      51.363  19.060 125.244  1.00  0.00     0.014 A 
HETATM    6  C2  UNL     1      50.268  18.868 124.443  1.00  0.00     0.020 A 
HETATM    7  C1  UNL     1      49.252  17.766 124.615  1.00  0.00     0.069 C 
HETATM    8  N4  UNL     1      50.232  19.824 123.527  1.00  0.00    -0.353 N 
HETATM    9  C22 UNL     1      51.285  20.659 123.687  1.00  0.00     0.045 A 
HETATM   10  C23 UNL     1      49.206  19.975 122.505  1.00  0.00     0.156 C 
HETATM   11  C17 UNL     1      52.018  20.217 124.750  1.00  0.00     0.004 A 
HETATM   12  C21 UNL     1      51.721  21.748 122.932  1.00  0.00     0.030 A 
HETATM   13  C18 UNL     1      53.227  20.847 125.097  1.00  0.00     0.014 A 
HETATM   14  C19 UNL     1      53.656  21.904 124.356  1.00  0.00     0.001 A 
HETATM   15  C20 UNL     1      52.927  22.363 123.290  1.00  0.00     0.002 A 
ENDBRANCH   4   5
ENDBRANCH   2   4
ENDBRANCH   1   2
BRANCH   1  16
HETATM   16  O1  UNL     1      51.206  17.330 129.546  1.00  0.00    -0.346 OA
ATOM     17  H1  UNL     1      51.654  16.869 130.245  1.00  0.00     0.219 HD
ENDBRANCH   1  16
BRANCH   1  18
HETATM   18  C7  UNL     1      52.085  15.881 127.882  1.00  0.00     0.057 C 
BRANCH  18  19
HETATM   19  C8  UNL     1      53.009  15.080 128.359  1.00  0.00     0.017 C 
BRANCH  19  20
HETATM   20  C9  UNL     1      54.338  15.697 128.643  1.00  0.00    -0.020 A 
HETATM   21  C10 UNL     1      55.018  16.449 127.738  1.00  0.00     0.101 A 
HETATM   22  N2  UNL     1      56.282  16.872 127.927  1.00  0.00    -0.351 N 
HETATM   23  C11 UNL     1      56.985  16.562 129.074  1.00  0.00     0.114 A 
ATOM     24  H2  UNL     1      56.732  17.436 127.205  1.00  0.00     0.166 HD
HETATM   25  C12 UNL     1      56.333  15.809 130.003  1.00  0.00    -0.013 A 
HETATM   26  N3  UNL     1      58.349  16.935 129.191  1.00  0.00    -0.313 N 
HETATM   27  C13 UNL     1      55.000  15.371 129.802  1.00  0.00     0.023 A 
HETATM   28  C14 UNL     1      57.055  15.370 131.228  1.00  0.00     0.051 C 
HETATM   29  C15 UNL     1      58.172  16.326 131.560  1.00  0.00     0.108 C 
HETATM   30  C16 UNL     1      59.082  16.461 130.368  1.00  0.00     0.223 C 
HETATM   31  O2  UNL     1      60.245  16.217 130.359  1.00  0.00    -0.273 OA
ATOM     32  H3  UNL     1      58.802  17.513 128.482  1.00  0.00     0.170 HD
ENDBRANCH  19  20
ENDBRANCH  18  19
ENDBRANCH   1  18
TORSDOF 7
ENDMDL
