MODEL 6
REMARK VINA RESULT: -9.190318122      2.667     10.516
REMARK  14 active torsions:
REMARK  status: ('A' for Active; 'I' for Inactive)
REMARK    1  A    between atoms: O1_2  and  C2_3 
REMARK    2  A    between atoms: C5_6  and  S1_7 
REMARK    3  A    between atoms: S1_7  and  N1_10 
REMARK    4  A    between atoms: N1_10  and  C6_11 
REMARK    5  A    between atoms: N1_10  and  C10_15 
REMARK    6  A    between atoms: C6_11  and  C7_12 
REMARK    7  A    between atoms: C10_15  and  C11_16 
REMARK    8  A    between atoms: C11_16  and  O4_17 
REMARK    9  A    between atoms: C11_16  and  C12_19 
REMARK   10  A    between atoms: C12_19  and  C13_20 
REMARK   11  A    between atoms: C12_19  and  N2_27 
REMARK   12  A    between atoms: C13_20  and  C14_21 
REMARK       I    between atoms: N2_27  and  C20_29 
REMARK   13  A    between atoms: C20_29  and  O6_31 
REMARK   14  A    between atoms: O6_31  and  C21_32 
ROOT
HETATM    1  C12 UNL     1      16.058  23.135  17.542  1.00  0.00     0.026 C 
ENDROOT
BRANCH   1   2
HETATM    2  C11 UNL     1      14.676  23.534  17.181  1.00  0.00     0.178 C 
BRANCH   2   3
HETATM    3  C10 UNL     1      13.668  22.421  17.128  1.00  0.00     0.145 C 
BRANCH   3   4
HETATM    4  N1  UNL     1      14.005  21.354  16.233  1.00  0.00    -0.203 NA
BRANCH   4   5
HETATM    5  S1  UNL     1      13.653  21.629  14.591  1.00  0.00     0.243 S 
HETATM    6  O2  UNL     1      13.658  23.116  14.268  1.00  0.00    -0.206 OA
HETATM    7  O3  UNL     1      14.793  21.066  13.744  1.00  0.00    -0.206 OA
BRANCH   5   8
HETATM    8  C5  UNL     1      12.173  20.965  14.012  1.00  0.00     0.074 A 
HETATM    9  C4  UNL     1      12.250  19.870  13.139  1.00  0.00     0.027 A 
HETATM   10  C3  UNL     1      11.108  19.293  12.648  1.00  0.00     0.038 A 
HETATM   11  C2  UNL     1       9.890  19.797  13.019  1.00  0.00     0.068 A 
HETATM   12  C30 UNL     1       9.821  20.877  13.881  1.00  0.00     0.038 A 
HETATM   13  C29 UNL     1      10.937  21.470  14.384  1.00  0.00     0.027 A 
BRANCH  11  14
HETATM   14  O1  UNL     1       8.742  19.227  12.535  1.00  0.00    -0.356 OA
HETATM   15  C1  UNL     1       8.727  18.149  11.647  1.00  0.00     0.210 C 
ENDBRANCH  11  14
ENDBRANCH   5   8
ENDBRANCH   4   5
BRANCH   4  16
HETATM   16  C6  UNL     1      13.574  20.053  16.640  1.00  0.00     0.111 C 
BRANCH  16  17
HETATM   17  C7  UNL     1      12.814  19.975  17.915  1.00  0.00    -0.009 C 
HETATM   18  C8  UNL     1      11.401  19.508  17.582  1.00  0.00     0.011 C 
HETATM   19  C9  UNL     1      13.488  19.167  18.959  1.00  0.00     0.011 C 
ENDBRANCH  16  17
ENDBRANCH   4  16
ENDBRANCH   3   4
ENDBRANCH   2   3
BRANCH   2  20
HETATM   20  O4  UNL     1      14.243  24.426  18.195  1.00  0.00    -0.389 OA
ATOM     21  H4  UNL     1      14.956  25.037  18.343  1.00  0.00     0.210 HD
ENDBRANCH   2  20
ENDBRANCH   1   2
BRANCH   1  22
HETATM   22  C13 UNL     1      16.298  22.504  18.850  1.00  0.00     0.094 C 
BRANCH  22  23
HETATM   23  C14 UNL     1      17.562  22.702  19.528  1.00  0.00    -0.053 A 
HETATM   24  C15 UNL     1      17.904  23.758  20.318  1.00  0.00     0.007 A 
HETATM   25  C16 UNL     1      19.149  23.861  20.897  1.00  0.00     0.001 A 
HETATM   26  C17 UNL     1      20.123  22.879  20.697  1.00  0.00     0.000 A 
HETATM   27  C18 UNL     1      19.795  21.801  19.900  1.00  0.00     0.001 A 
HETATM   28  C19 UNL     1      18.547  21.720  19.333  1.00  0.00     0.007 A 
ENDBRANCH  22  23
ENDBRANCH   1  22
BRANCH   1  29
HETATM   29  N2  UNL     1      17.044  24.123  17.135  1.00  0.00    -0.307 N 
HETATM   30  C20 UNL     1      18.099  23.905  16.245  1.00  0.00     0.365 C 
HETATM   31  O5  UNL     1      18.217  22.744  15.744  1.00  0.00    -0.238 OA
ATOM     32  H2  UNL     1      16.959  25.057  17.534  1.00  0.00     0.170 HD
BRANCH  30  33
HETATM   33  O6  UNL     1      19.025  24.884  15.876  1.00  0.00    -0.296 OA
BRANCH  33  34
HETATM   34  C21 UNL     1      19.506  25.738  16.867  1.00  0.00     0.167 C 
HETATM   35  C22 UNL     1      20.580  25.137  17.738  1.00  0.00     0.204 C 
HETATM   36  O7  UNL     1      21.372  26.148  18.199  1.00  0.00    -0.358 OA
HETATM   37  C23 UNL     1      21.037  27.341  17.591  1.00  0.00     0.270 C 
HETATM   38  O8  UNL     1      22.176  27.943  17.137  1.00  0.00    -0.331 OA
HETATM   39  C28 UNL     1      20.194  26.977  16.359  1.00  0.00     0.082 C 
HETATM   40  C24 UNL     1      22.307  27.763  15.783  1.00  0.00     0.267 C 
HETATM   41  O9  UNL     1      21.736  28.892  15.166  1.00  0.00    -0.361 OA
HETATM   42  C27 UNL     1      21.308  26.680  15.377  1.00  0.00     0.054 C 
HETATM   43  C25 UNL     1      21.340  28.511  13.907  1.00  0.00     0.171 C 
HETATM   44  C26 UNL     1      20.953  27.050  13.975  1.00  0.00     0.036 C 
ENDBRANCH  33  34
ENDBRANCH  30  33
ENDBRANCH   1  29
TORSDOF 14
ENDMDL
