MODEL 2
REMARK VINA RESULT: -9.352586245      2.526     10.506
REMARK  14 active torsions:
REMARK  status: ('A' for Active; 'I' for Inactive)
REMARK    1  A    between atoms: O1_2  and  C2_3 
REMARK    2  A    between atoms: C5_6  and  S1_7 
REMARK    3  A    between atoms: S1_7  and  N1_10 
REMARK    4  A    between atoms: N1_10  and  C6_11 
REMARK    5  A    between atoms: N1_10  and  C10_15 
REMARK    6  A    between atoms: C6_11  and  C7_12 
REMARK    7  A    between atoms: C10_15  and  C11_16 
REMARK    8  A    between atoms: C11_16  and  O4_17 
REMARK    9  A    between atoms: C11_16  and  C12_19 
REMARK   10  A    between atoms: C12_19  and  C13_20 
REMARK   11  A    between atoms: C12_19  and  N2_27 
REMARK   12  A    between atoms: C13_20  and  C14_21 
REMARK       I    between atoms: N2_27  and  C20_29 
REMARK   13  A    between atoms: C20_29  and  O6_31 
REMARK   14  A    between atoms: O6_31  and  C21_32 
ROOT
HETATM    1  C12 UNL     1      18.997  23.285  18.767  1.00  0.00     0.026 C 
ENDROOT
BRANCH   1   2
HETATM    2  C11 UNL     1      17.815  22.397  18.646  1.00  0.00     0.178 C 
BRANCH   2   3
HETATM    3  C10 UNL     1      16.564  23.043  18.121  1.00  0.00     0.145 C 
BRANCH   3   4
HETATM    4  N1  UNL     1      15.708  22.167  17.378  1.00  0.00    -0.203 NA
BRANCH   4   5
HETATM    5  S1  UNL     1      15.572  22.504  15.715  1.00  0.00     0.243 S 
HETATM    6  O2  UNL     1      15.679  23.998  15.445  1.00  0.00    -0.206 OA
HETATM    7  O3  UNL     1      16.784  21.914  14.995  1.00  0.00    -0.206 OA
BRANCH   5   8
HETATM    8  C5  UNL     1      14.149  21.924  14.938  1.00  0.00     0.074 A 
HETATM    9  C4  UNL     1      14.199  20.649  14.356  1.00  0.00     0.027 A 
HETATM   10  C3  UNL     1      13.098  20.129  13.729  1.00  0.00     0.038 A 
HETATM   11  C2  UNL     1      11.946  20.867  13.675  1.00  0.00     0.068 A 
HETATM   12  C30 UNL     1      11.902  22.124  14.251  1.00  0.00     0.038 A 
HETATM   13  C29 UNL     1      12.979  22.666  14.881  1.00  0.00     0.027 A 
BRANCH  11  14
HETATM   14  O1  UNL     1      10.839  20.356  13.050  1.00  0.00    -0.356 OA
HETATM   15  C1  UNL     1       9.607  21.011  12.999  1.00  0.00     0.210 C 
ENDBRANCH  11  14
ENDBRANCH   5   8
ENDBRANCH   4   5
BRANCH   4  16
HETATM   16  C6  UNL     1      14.425  21.925  17.960  1.00  0.00     0.111 C 
BRANCH  16  17
HETATM   17  C7  UNL     1      14.110  20.515  18.309  1.00  0.00    -0.009 C 
HETATM   18  C8  UNL     1      12.684  20.234  17.851  1.00  0.00     0.011 C 
HETATM   19  C9  UNL     1      15.109  19.543  17.805  1.00  0.00     0.011 C 
ENDBRANCH  16  17
ENDBRANCH   4  16
ENDBRANCH   3   4
ENDBRANCH   2   3
BRANCH   2  20
HETATM   20  O4  UNL     1      18.172  21.387  17.717  1.00  0.00    -0.389 OA
ATOM     21  H4  UNL     1      18.679  20.743  18.197  1.00  0.00     0.210 HD
ENDBRANCH   2  20
ENDBRANCH   1   2
BRANCH   1  22
HETATM   22  C13 UNL     1      19.674  23.397  20.068  1.00  0.00     0.094 C 
BRANCH  22  23
HETATM   23  C14 UNL     1      21.093  23.688  20.122  1.00  0.00    -0.053 A 
HETATM   24  C15 UNL     1      21.726  24.478  21.032  1.00  0.00     0.007 A 
HETATM   25  C16 UNL     1      23.082  24.710  20.977  1.00  0.00     0.001 A 
HETATM   26  C17 UNL     1      23.873  24.139  19.976  1.00  0.00     0.000 A 
HETATM   27  C18 UNL     1      23.249  23.335  19.045  1.00  0.00     0.001 A 
HETATM   28  C19 UNL     1      21.895  23.119  19.121  1.00  0.00     0.007 A 
ENDBRANCH  22  23
ENDBRANCH   1  22
BRANCH   1  29
HETATM   29  N2  UNL     1      18.827  24.534  18.041  1.00  0.00    -0.307 N 
HETATM   30  C20 UNL     1      19.064  24.725  16.677  1.00  0.00     0.365 C 
HETATM   31  O5  UNL     1      19.468  23.726  16.004  1.00  0.00    -0.238 OA
ATOM     32  H2  UNL     1      18.506  25.341  18.574  1.00  0.00     0.170 HD
BRANCH  30  33
HETATM   33  O6  UNL     1      18.885  25.942  16.016  1.00  0.00    -0.296 OA
BRANCH  33  34
HETATM   34  C21 UNL     1      19.809  26.298  15.035  1.00  0.00     0.167 C 
HETATM   35  C22 UNL     1      19.475  27.571  14.299  1.00  0.00     0.204 C 
HETATM   36  O7  UNL     1      20.641  28.133  13.867  1.00  0.00    -0.358 OA
HETATM   37  C23 UNL     1      21.727  27.453  14.382  1.00  0.00     0.270 C 
HETATM   38  O8  UNL     1      22.604  28.356  14.912  1.00  0.00    -0.331 OA
HETATM   39  C28 UNL     1      21.191  26.604  15.545  1.00  0.00     0.082 C 
HETATM   40  C24 UNL     1      22.495  28.386  16.280  1.00  0.00     0.267 C 
HETATM   41  O9  UNL     1      23.459  27.494  16.784  1.00  0.00    -0.361 OA
HETATM   42  C27 UNL     1      21.205  27.649  16.641  1.00  0.00     0.054 C 
HETATM   43  C25 UNL     1      23.019  27.075  18.017  1.00  0.00     0.171 C 
HETATM   44  C26 UNL     1      21.507  27.070  17.984  1.00  0.00     0.036 C 
ENDBRANCH  33  34
ENDBRANCH  30  33
ENDBRANCH   1  29
TORSDOF 14
ENDMDL
