MODEL 1
REMARK VINA RESULT: -9.431108512      0.000      0.000
REMARK  14 active torsions:
REMARK  status: ('A' for Active; 'I' for Inactive)
REMARK    1  A    between atoms: O1_2  and  C2_3 
REMARK    2  A    between atoms: C5_6  and  S1_7 
REMARK    3  A    between atoms: S1_7  and  N1_10 
REMARK    4  A    between atoms: N1_10  and  C6_11 
REMARK    5  A    between atoms: N1_10  and  C10_15 
REMARK    6  A    between atoms: C6_11  and  C7_12 
REMARK    7  A    between atoms: C10_15  and  C11_16 
REMARK    8  A    between atoms: C11_16  and  O4_17 
REMARK    9  A    between atoms: C11_16  and  C12_19 
REMARK   10  A    between atoms: C12_19  and  C13_20 
REMARK   11  A    between atoms: C12_19  and  N2_27 
REMARK   12  A    between atoms: C13_20  and  C14_21 
REMARK       I    between atoms: N2_27  and  C20_29 
REMARK   13  A    between atoms: C20_29  and  O6_31 
REMARK   14  A    between atoms: O6_31  and  C21_32 
ROOT
HETATM    1  C12 UNL     1      15.775  23.328  17.261  1.00  0.00     0.026 C 
ENDROOT
BRANCH   1   2
HETATM    2  C11 UNL     1      16.281  24.488  18.034  1.00  0.00     0.178 C 
BRANCH   2   3
HETATM    3  C10 UNL     1      17.018  25.530  17.240  1.00  0.00     0.145 C 
BRANCH   3   4
HETATM    4  N1  UNL     1      18.445  25.407  17.274  1.00  0.00    -0.203 NA
BRANCH   4   5
HETATM    5  S1  UNL     1      19.229  25.494  15.766  1.00  0.00     0.243 S 
HETATM    6  O2  UNL     1      19.830  24.150  15.379  1.00  0.00    -0.206 OA
HETATM    7  O3  UNL     1      18.181  25.752  14.684  1.00  0.00    -0.206 OA
BRANCH   5   8
HETATM    8  C5  UNL     1      20.460  26.689  15.620  1.00  0.00     0.074 A 
HETATM    9  C4  UNL     1      21.126  27.083  16.789  1.00  0.00     0.027 A 
HETATM   10  C3  UNL     1      22.118  28.025  16.738  1.00  0.00     0.038 A 
HETATM   11  C2  UNL     1      22.455  28.579  15.532  1.00  0.00     0.068 A 
HETATM   12  C30 UNL     1      21.795  28.187  14.382  1.00  0.00     0.038 A 
HETATM   13  C29 UNL     1      20.806  27.253  14.401  1.00  0.00     0.027 A 
BRANCH  11  14
HETATM   14  O1  UNL     1      23.446  29.523  15.470  1.00  0.00    -0.356 OA
HETATM   15  C1  UNL     1      24.801  29.236  15.651  1.00  0.00     0.210 C 
ENDBRANCH  11  14
ENDBRANCH   5   8
ENDBRANCH   4   5
BRANCH   4  16
HETATM   16  C6  UNL     1      18.948  24.320  18.054  1.00  0.00     0.111 C 
BRANCH  16  17
HETATM   17  C7  UNL     1      19.905  24.668  19.137  1.00  0.00    -0.009 C 
HETATM   18  C8  UNL     1      19.229  24.358  20.467  1.00  0.00     0.011 C 
HETATM   19  C9  UNL     1      21.238  24.040  18.974  1.00  0.00     0.011 C 
ENDBRANCH  16  17
ENDBRANCH   4  16
ENDBRANCH   3   4
ENDBRANCH   2   3
BRANCH   2  20
HETATM   20  O4  UNL     1      15.140  25.127  18.582  1.00  0.00    -0.389 OA
ATOM     21  H4  UNL     1      14.382  24.729  18.170  1.00  0.00     0.210 HD
ENDBRANCH   2  20
ENDBRANCH   1   2
BRANCH   1  22
HETATM   22  C13 UNL     1      15.601  23.463  15.806  1.00  0.00     0.094 C 
BRANCH  22  23
HETATM   23  C14 UNL     1      14.571  22.702  15.127  1.00  0.00    -0.053 A 
HETATM   24  C15 UNL     1      13.266  23.057  14.975  1.00  0.00     0.007 A 
HETATM   25  C16 UNL     1      12.360  22.244  14.331  1.00  0.00     0.001 A 
HETATM   26  C17 UNL     1      12.746  21.010  13.801  1.00  0.00     0.000 A 
HETATM   27  C18 UNL     1      14.065  20.634  13.945  1.00  0.00     0.001 A 
HETATM   28  C19 UNL     1      14.950  21.461  14.591  1.00  0.00     0.007 A 
ENDBRANCH  22  23
ENDBRANCH   1  22
BRANCH   1  29
HETATM   29  N2  UNL     1      14.710  22.622  17.955  1.00  0.00    -0.307 N 
HETATM   30  C20 UNL     1      14.754  21.292  18.380  1.00  0.00     0.365 C 
HETATM   31  O5  UNL     1      15.811  20.631  18.140  1.00  0.00    -0.238 OA
ATOM     32  H2  UNL     1      13.856  23.144  18.149  1.00  0.00     0.170 HD
BRANCH  30  33
HETATM   33  O6  UNL     1      13.708  20.650  19.049  1.00  0.00    -0.296 OA
BRANCH  33  34
HETATM   34  C21 UNL     1      13.716  19.258  19.097  1.00  0.00     0.167 C 
HETATM   35  C22 UNL     1      13.199  18.677  20.389  1.00  0.00     0.204 C 
HETATM   36  O7  UNL     1      12.680  17.443  20.125  1.00  0.00    -0.358 OA
HETATM   37  C23 UNL     1      12.647  17.212  18.764  1.00  0.00     0.270 C 
HETATM   38  O8  UNL     1      11.408  16.752  18.422  1.00  0.00    -0.331 OA
HETATM   39  C28 UNL     1      12.827  18.580  18.090  1.00  0.00     0.082 C 
HETATM   40  C24 UNL     1      10.664  17.756  17.853  1.00  0.00     0.267 C 
HETATM   41  O9  UNL     1      10.838  17.652  16.461  1.00  0.00    -0.361 OA
HETATM   42  C27 UNL     1      11.394  19.068  18.136  1.00  0.00     0.054 C 
HETATM   43  C25 UNL     1      10.612  18.899  15.929  1.00  0.00     0.171 C 
HETATM   44  C26 UNL     1      11.037  19.919  16.962  1.00  0.00     0.036 C 
ENDBRANCH  33  34
ENDBRANCH  30  33
ENDBRANCH   1  29
TORSDOF 14
ENDMDL
