MODEL 4
REMARK VINA RESULT: -9.219837473      2.120     10.943
REMARK  14 active torsions:
REMARK  status: ('A' for Active; 'I' for Inactive)
REMARK    1  A    between atoms: O1_2  and  C2_3 
REMARK    2  A    between atoms: C5_6  and  S1_7 
REMARK    3  A    between atoms: S1_7  and  N1_10 
REMARK    4  A    between atoms: N1_10  and  C6_11 
REMARK    5  A    between atoms: N1_10  and  C10_15 
REMARK    6  A    between atoms: C6_11  and  C7_12 
REMARK    7  A    between atoms: C10_15  and  C11_16 
REMARK    8  A    between atoms: C11_16  and  O4_17 
REMARK    9  A    between atoms: C11_16  and  C12_19 
REMARK   10  A    between atoms: C12_19  and  C13_20 
REMARK   11  A    between atoms: C12_19  and  N2_27 
REMARK   12  A    between atoms: C13_20  and  C14_21 
REMARK       I    between atoms: N2_27  and  C20_29 
REMARK   13  A    between atoms: C20_29  and  O6_31 
REMARK   14  A    between atoms: O6_31  and  C21_32 
ROOT
HETATM    1  C12 UNL     1      17.449  24.404  18.108  1.00  0.00     0.026 C 
ENDROOT
BRANCH   1   2
HETATM    2  C11 UNL     1      16.009  24.195  17.820  1.00  0.00     0.178 C 
BRANCH   2   3
HETATM    3  C10 UNL     1      15.456  22.851  18.200  1.00  0.00     0.145 C 
BRANCH   3   4
HETATM    4  N1  UNL     1      14.870  22.119  17.116  1.00  0.00    -0.203 NA
BRANCH   4   5
HETATM    5  S1  UNL     1      14.155  20.631  17.532  1.00  0.00     0.243 S 
HETATM    6  O2  UNL     1      15.153  19.489  17.418  1.00  0.00    -0.206 OA
HETATM    7  O3  UNL     1      13.797  20.659  19.018  1.00  0.00    -0.206 OA
BRANCH   5   8
HETATM    8  C5  UNL     1      12.744  20.196  16.647  1.00  0.00     0.074 A 
HETATM    9  C4  UNL     1      12.861  20.075  15.255  1.00  0.00     0.027 A 
HETATM   10  C3  UNL     1      11.776  19.726  14.495  1.00  0.00     0.038 A 
HETATM   11  C2  UNL     1      10.574  19.495  15.109  1.00  0.00     0.068 A 
HETATM   12  C30 UNL     1      10.465  19.615  16.483  1.00  0.00     0.038 A 
HETATM   13  C29 UNL     1      11.524  19.960  17.263  1.00  0.00     0.027 A 
BRANCH  11  14
HETATM   14  O1  UNL     1       9.483  19.145  14.358  1.00  0.00    -0.356 OA
HETATM   15  C1  UNL     1       9.457  19.186  12.963  1.00  0.00     0.210 C 
ENDBRANCH  11  14
ENDBRANCH   5   8
ENDBRANCH   4   5
BRANCH   4  16
HETATM   16  C6  UNL     1      15.688  21.988  15.952  1.00  0.00     0.111 C 
BRANCH  16  17
HETATM   17  C7  UNL     1      15.291  22.795  14.768  1.00  0.00    -0.009 C 
HETATM   18  C8  UNL     1      15.504  21.932  13.529  1.00  0.00     0.011 C 
HETATM   19  C9  UNL     1      13.930  23.374  14.875  1.00  0.00     0.011 C 
ENDBRANCH  16  17
ENDBRANCH   4  16
ENDBRANCH   3   4
ENDBRANCH   2   3
BRANCH   2  20
HETATM   20  O4  UNL     1      15.307  25.156  18.593  1.00  0.00    -0.389 OA
ATOM     21  H4  UNL     1      15.763  25.222  19.423  1.00  0.00     0.210 HD
ENDBRANCH   2  20
ENDBRANCH   1   2
BRANCH   1  22
HETATM   22  C13 UNL     1      17.943  24.171  19.474  1.00  0.00     0.094 C 
BRANCH  22  23
HETATM   23  C14 UNL     1      19.367  24.071  19.721  1.00  0.00    -0.053 A 
HETATM   24  C15 UNL     1      20.260  23.305  19.035  1.00  0.00     0.007 A 
HETATM   25  C16 UNL     1      21.595  23.265  19.371  1.00  0.00     0.001 A 
HETATM   26  C17 UNL     1      22.094  24.015  20.440  1.00  0.00     0.000 A 
HETATM   27  C18 UNL     1      21.204  24.797  21.147  1.00  0.00     0.001 A 
HETATM   28  C19 UNL     1      19.878  24.821  20.793  1.00  0.00     0.007 A 
ENDBRANCH  22  23
ENDBRANCH   1  22
BRANCH   1  29
HETATM   29  N2  UNL     1      17.981  25.582  17.443  1.00  0.00    -0.307 N 
HETATM   30  C20 UNL     1      18.612  25.601  16.196  1.00  0.00     0.365 C 
HETATM   31  O5  UNL     1      18.739  24.496  15.583  1.00  0.00    -0.238 OA
ATOM     32  H2  UNL     1      17.887  26.473  17.929  1.00  0.00     0.170 HD
BRANCH  30  33
HETATM   33  O6  UNL     1      19.108  26.758  15.589  1.00  0.00    -0.296 OA
BRANCH  33  34
HETATM   34  C21 UNL     1      20.323  26.674  14.913  1.00  0.00     0.167 C 
HETATM   35  C22 UNL     1      20.618  27.849  14.015  1.00  0.00     0.204 C 
HETATM   36  O7  UNL     1      21.972  27.983  13.917  1.00  0.00    -0.358 OA
HETATM   37  C23 UNL     1      22.608  27.124  14.791  1.00  0.00     0.270 C 
HETATM   38  O8  UNL     1      23.550  27.821  15.492  1.00  0.00    -0.331 OA
HETATM   39  C28 UNL     1      21.542  26.663  15.796  1.00  0.00     0.082 C 
HETATM   40  C24 UNL     1      23.094  28.108  16.755  1.00  0.00     0.267 C 
HETATM   41  O9  UNL     1      23.556  27.080  17.597  1.00  0.00    -0.361 OA
HETATM   42  C27 UNL     1      21.591  27.830  16.760  1.00  0.00     0.054 C 
HETATM   43  C25 UNL     1      22.694  27.011  18.665  1.00  0.00     0.171 C 
HETATM   44  C26 UNL     1      21.324  27.422  18.172  1.00  0.00     0.036 C 
ENDBRANCH  33  34
ENDBRANCH  30  33
ENDBRANCH   1  29
TORSDOF 14
ENDMDL
