MODEL 1
REMARK VINA RESULT: -11.913222339      0.000      0.000
REMARK  5 active torsions:
REMARK  status: ('A' for Active; 'I' for Inactive)
REMARK       I    between atoms: C1_2  and  N1_3 
REMARK    1  A    between atoms: C1_2  and  C8_11 
REMARK    2  A    between atoms: N1_3  and  C2_5 
REMARK    3  A    between atoms: C8_11  and  C9_12 
REMARK    4  A    between atoms: C8_11  and  N2_18 
REMARK    5  A    between atoms: C15_19  and  C16_20 
ROOT
HETATM    1  N2  UNL     1      12.648  24.239   3.639  1.00  0.00    -0.293 N 
HETATM    2  C15 UNL     1      13.629  24.791   2.938  1.00  0.00     0.123 A 
HETATM    3  N3  UNL     1      13.043  25.843   2.251  1.00  0.00    -0.340 N 
ATOM      4  H3  UNL     1      13.540  26.471   1.620  1.00  0.00     0.167 HD
HETATM    5  C22 UNL     1      11.754  25.919   2.525  1.00  0.00     0.061 A 
HETATM    6  C23 UNL     1      10.713  26.756   2.129  1.00  0.00     0.032 A 
HETATM    7  C24 UNL     1       9.434  26.581   2.604  1.00  0.00     0.002 A 
HETATM    8  C25 UNL     1       9.168  25.566   3.486  1.00  0.00     0.002 A 
HETATM    9  C26 UNL     1      10.180  24.734   3.888  1.00  0.00     0.032 A 
HETATM   10  C27 UNL     1      11.462  24.918   3.405  1.00  0.00     0.068 A 
ENDROOT
BRANCH   1  11
HETATM   11  C8  UNL     1      12.733  23.135   4.567  1.00  0.00     0.090 C 
BRANCH  11  12
HETATM   12  C1  UNL     1      11.999  21.914   4.149  1.00  0.00     0.265 C 
HETATM   13  O1  UNL     1      11.074  21.415   4.871  1.00  0.00    -0.266 OA
HETATM   14  N1  UNL     1      12.269  21.229   2.944  1.00  0.00    -0.351 N 
ATOM     15  H1  UNL     1      12.999  21.586   2.328  1.00  0.00     0.163 HD
BRANCH  14  16
HETATM   16  C2  UNL     1      11.536  20.025   2.548  1.00  0.00     0.084 C 
HETATM   17  C3  UNL     1      10.623  20.434   1.409  1.00  0.00     0.025 C 
HETATM   18  C4  UNL     1       9.644  19.302   1.119  1.00  0.00     0.002 C 
HETATM   19  C5  UNL     1      10.357  17.976   1.203  1.00  0.00     0.000 C 
HETATM   20  C6  UNL     1      11.835  18.143   0.913  1.00  0.00     0.002 C 
HETATM   21  C7  UNL     1      12.504  18.990   1.966  1.00  0.00     0.025 C 
ENDBRANCH  14  16
ENDBRANCH  11  12
BRANCH  11  22
HETATM   22  C9  UNL     1      12.619  23.444   6.005  1.00  0.00     0.042 C 
HETATM   23  C10 UNL     1      13.260  24.818   6.273  1.00  0.00     0.011 C 
HETATM   24  C11 UNL     1      12.848  25.194   7.686  1.00  0.00     0.001 C 
HETATM   25  C12 UNL     1      13.232  24.070   8.604  1.00  0.00     0.000 C 
HETATM   26  C13 UNL     1      14.109  23.025   7.968  1.00  0.00     0.001 C 
HETATM   27  C14 UNL     1      13.451  22.380   6.755  1.00  0.00     0.011 C 
ENDBRANCH  11  22
ENDBRANCH   1  11
BRANCH   2  28
HETATM   28  C16 UNL     1      15.065  24.535   2.829  1.00  0.00     0.009 A 
HETATM   29  C17 UNL     1      15.713  23.801   1.902  1.00  0.00     0.017 A 
HETATM   30  C18 UNL     1      17.095  23.551   1.923  1.00  0.00     0.025 A 
HETATM   31  C19 UNL     1      17.843  24.080   2.941  1.00  0.00     0.034 A 
HETATM   32 CL1  UNL     1      19.577  23.794   3.011  1.00  0.00    -0.084 Cl
HETATM   33  C20 UNL     1      17.238  24.839   3.917  1.00  0.00     0.025 A 
HETATM   34  C21 UNL     1      15.886  25.052   3.849  1.00  0.00     0.017 A 
ENDBRANCH   2  28
TORSDOF 5
ENDMDL
