MODEL 2
REMARK VINA RESULT: -11.182171023      2.515      6.762
REMARK  5 active torsions:
REMARK  status: ('A' for Active; 'I' for Inactive)
REMARK       I    between atoms: C1_2  and  N1_3 
REMARK    1  A    between atoms: C1_2  and  C8_11 
REMARK    2  A    between atoms: N1_3  and  C2_5 
REMARK    3  A    between atoms: C8_11  and  C9_12 
REMARK    4  A    between atoms: C8_11  and  N2_18 
REMARK    5  A    between atoms: C15_19  and  C16_20 
ROOT
HETATM    1  N2  UNL     1      12.168  23.652   4.844  1.00  0.00    -0.293 N 
HETATM    2  C15 UNL     1      11.857  22.365   4.768  1.00  0.00     0.123 A 
HETATM    3  N3  UNL     1      11.931  21.893   6.070  1.00  0.00    -0.340 N 
ATOM      4  H3  UNL     1      11.743  20.929   6.348  1.00  0.00     0.167 HD
HETATM    5  C22 UNL     1      12.277  22.860   6.899  1.00  0.00     0.061 A 
HETATM    6  C23 UNL     1      12.493  22.947   8.272  1.00  0.00     0.032 A 
HETATM    7  C24 UNL     1      12.855  24.134   8.866  1.00  0.00     0.002 A 
HETATM    8  C25 UNL     1      13.010  25.260   8.099  1.00  0.00     0.002 A 
HETATM    9  C26 UNL     1      12.801  25.192   6.746  1.00  0.00     0.032 A 
HETATM   10  C27 UNL     1      12.437  23.995   6.159  1.00  0.00     0.068 A 
ENDROOT
BRANCH   1  11
HETATM   11  C8  UNL     1      12.191  24.623   3.774  1.00  0.00     0.090 C 
BRANCH  11  12
HETATM   12  C1  UNL     1      13.521  25.229   3.512  1.00  0.00     0.265 C 
HETATM   13  O1  UNL     1      13.636  26.439   3.130  1.00  0.00    -0.266 OA
HETATM   14  N1  UNL     1      14.732  24.518   3.665  1.00  0.00    -0.351 N 
ATOM     15  H1  UNL     1      14.698  23.546   3.970  1.00  0.00     0.163 HD
BRANCH  14  16
HETATM   16  C2  UNL     1      16.036  25.132   3.401  1.00  0.00     0.084 C 
HETATM   17  C3  UNL     1      16.537  25.662   4.731  1.00  0.00     0.025 C 
HETATM   18  C4  UNL     1      17.760  26.540   4.492  1.00  0.00     0.002 C 
HETATM   19  C5  UNL     1      18.641  25.913   3.440  1.00  0.00     0.000 C 
HETATM   20  C6  UNL     1      18.441  24.412   3.399  1.00  0.00     0.002 C 
HETATM   21  C7  UNL     1      17.040  24.061   2.966  1.00  0.00     0.025 C 
ENDBRANCH  14  16
ENDBRANCH  11  12
BRANCH  11  22
HETATM   22  C9  UNL     1      11.068  25.577   3.697  1.00  0.00     0.042 C 
HETATM   23  C10 UNL     1       9.782  24.875   4.170  1.00  0.00     0.011 C 
HETATM   24  C11 UNL     1       8.753  25.979   4.344  1.00  0.00     0.001 C 
HETATM   25  C12 UNL     1       8.675  26.757   3.062  1.00  0.00     0.000 C 
HETATM   26  C13 UNL     1       9.408  26.124   1.910  1.00  0.00     0.001 C 
HETATM   27  C14 UNL     1      10.890  25.933   2.204  1.00  0.00     0.011 C 
ENDBRANCH  11  22
ENDBRANCH   1  11
BRANCH   2  28
HETATM   28  C16 UNL     1      11.446  21.484   3.676  1.00  0.00     0.009 A 
HETATM   29  C17 UNL     1      10.243  21.413   3.069  1.00  0.00     0.017 A 
HETATM   30  C18 UNL     1       9.920  20.477   2.073  1.00  0.00     0.025 A 
HETATM   31  C19 UNL     1      10.875  19.576   1.684  1.00  0.00     0.034 A 
HETATM   32 CL1  UNL     1      10.516  18.384   0.440  1.00  0.00    -0.084 Cl
HETATM   33  C20 UNL     1      12.122  19.599   2.265  1.00  0.00     0.025 A 
HETATM   34  C21 UNL     1      12.384  20.533   3.233  1.00  0.00     0.017 A 
ENDBRANCH   2  28
TORSDOF 5
ENDMDL
