MODEL 3
REMARK VINA RESULT: -11.070342688      2.258      5.188
REMARK  5 active torsions:
REMARK  status: ('A' for Active; 'I' for Inactive)
REMARK       I    between atoms: C1_2  and  N1_3 
REMARK    1  A    between atoms: C1_2  and  C8_11 
REMARK    2  A    between atoms: N1_3  and  C2_5 
REMARK    3  A    between atoms: C8_11  and  C9_12 
REMARK    4  A    between atoms: C8_11  and  N2_18 
REMARK    5  A    between atoms: C15_19  and  C16_20 
ROOT
HETATM    1  N2  UNL     1      13.643  23.835   4.513  1.00  0.00    -0.293 N 
HETATM    2  C15 UNL     1      14.118  24.203   5.695  1.00  0.00     0.123 A 
HETATM    3  N3  UNL     1      15.484  24.351   5.512  1.00  0.00    -0.340 N 
ATOM      4  H3  UNL     1      16.139  24.632   6.241  1.00  0.00     0.167 HD
HETATM    5  C22 UNL     1      15.820  24.078   4.264  1.00  0.00     0.061 A 
HETATM    6  C23 UNL     1      17.016  24.065   3.549  1.00  0.00     0.032 A 
HETATM    7  C24 UNL     1      17.048  23.729   2.216  1.00  0.00     0.002 A 
HETATM    8  C25 UNL     1      15.885  23.399   1.568  1.00  0.00     0.002 A 
HETATM    9  C26 UNL     1      14.700  23.407   2.256  1.00  0.00     0.032 A 
HETATM   10  C27 UNL     1      14.678  23.746   3.596  1.00  0.00     0.068 A 
ENDROOT
BRANCH   1  11
HETATM   11  C8  UNL     1      12.266  23.599   4.145  1.00  0.00     0.090 C 
BRANCH  11  12
HETATM   12  C1  UNL     1      11.923  22.175   3.900  1.00  0.00     0.265 C 
HETATM   13  O1  UNL     1      11.875  21.329   4.852  1.00  0.00    -0.266 OA
HETATM   14  N1  UNL     1      11.630  21.666   2.615  1.00  0.00    -0.351 N 
ATOM     15  H1  UNL     1      11.653  22.300   1.817  1.00  0.00     0.163 HD
BRANCH  14  16
HETATM   16  C2  UNL     1      11.296  20.258   2.391  1.00  0.00     0.084 C 
HETATM   17  C3  UNL     1      10.477  20.210   1.115  1.00  0.00     0.025 C 
HETATM   18  C4  UNL     1       9.873  18.819   0.958  1.00  0.00     0.002 C 
HETATM   19  C5  UNL     1      10.885  17.775   1.358  1.00  0.00     0.000 C 
HETATM   20  C6  UNL     1      12.295  18.300   1.179  1.00  0.00     0.002 C 
HETATM   21  C7  UNL     1      12.569  19.456   2.107  1.00  0.00     0.025 C 
ENDBRANCH  14  16
ENDBRANCH  11  12
BRANCH  11  22
HETATM   22  C9  UNL     1      11.644  24.541   3.195  1.00  0.00     0.042 C 
HETATM   23  C10 UNL     1      12.165  25.960   3.484  1.00  0.00     0.011 C 
HETATM   24  C11 UNL     1      11.723  26.808   2.304  1.00  0.00     0.001 C 
HETATM   25  C12 UNL     1      10.239  26.645   2.136  1.00  0.00     0.000 C 
HETATM   26  C13 UNL     1       9.565  25.926   3.273  1.00  0.00     0.001 C 
HETATM   27  C14 UNL     1      10.126  24.526   3.484  1.00  0.00     0.011 C 
ENDBRANCH  11  22
ENDBRANCH   1  11
BRANCH   2  28
HETATM   28  C16 UNL     1      13.502  24.496   6.988  1.00  0.00     0.009 A 
HETATM   29  C17 UNL     1      13.308  25.699   7.567  1.00  0.00     0.017 A 
HETATM   30  C18 UNL     1      12.771  25.875   8.852  1.00  0.00     0.025 A 
HETATM   31  C19 UNL     1      12.417  24.767   9.574  1.00  0.00     0.034 A 
HETATM   32 CL1  UNL     1      11.742  24.938  11.189  1.00  0.00    -0.084 Cl
HETATM   33  C20 UNL     1      12.590  23.511   9.037  1.00  0.00     0.025 A 
HETATM   34  C21 UNL     1      13.119  23.396   7.778  1.00  0.00     0.017 A 
ENDBRANCH   2  28
TORSDOF 5
ENDMDL
