MODEL 5
REMARK VINA RESULT: -10.429869256      1.130      4.955
REMARK  5 active torsions:
REMARK  status: ('A' for Active; 'I' for Inactive)
REMARK       I    between atoms: C1_2  and  N1_3 
REMARK    1  A    between atoms: C1_2  and  C8_11 
REMARK    2  A    between atoms: N1_3  and  C2_5 
REMARK    3  A    between atoms: C8_11  and  C9_12 
REMARK    4  A    between atoms: C8_11  and  N2_18 
REMARK    5  A    between atoms: C15_19  and  C16_20 
ROOT
HETATM    1  N2  UNL     1      12.123  23.906   2.940  1.00  0.00    -0.293 N 
HETATM    2  C15 UNL     1      13.257  24.532   2.656  1.00  0.00     0.123 A 
HETATM    3  N3  UNL     1      12.889  25.825   2.320  1.00  0.00    -0.340 N 
ATOM      4  H3  UNL     1      13.541  26.563   2.051  1.00  0.00     0.167 HD
HETATM    5  C22 UNL     1      11.579  25.972   2.394  1.00  0.00     0.061 A 
HETATM    6  C23 UNL     1      10.693  27.024   2.172  1.00  0.00     0.032 A 
HETATM    7  C24 UNL     1       9.337  26.866   2.341  1.00  0.00     0.002 A 
HETATM    8  C25 UNL     1       8.837  25.652   2.734  1.00  0.00     0.002 A 
HETATM    9  C26 UNL     1       9.693  24.606   2.957  1.00  0.00     0.032 A 
HETATM   10  C27 UNL     1      11.055  24.775   2.786  1.00  0.00     0.068 A 
ENDROOT
BRANCH   1  11
HETATM   11  C8  UNL     1      11.951  22.547   3.398  1.00  0.00     0.090 C 
BRANCH  11  12
HETATM   12  C1  UNL     1      12.457  22.284   4.769  1.00  0.00     0.265 C 
HETATM   13  O1  UNL     1      12.647  21.097   5.192  1.00  0.00    -0.266 OA
HETATM   14  N1  UNL     1      12.757  23.315   5.688  1.00  0.00    -0.351 N 
ATOM     15  H1  UNL     1      12.624  24.285   5.401  1.00  0.00     0.163 HD
BRANCH  14  16
HETATM   16  C2  UNL     1      13.254  23.038   7.037  1.00  0.00     0.084 C 
HETATM   17  C3  UNL     1      14.194  24.175   7.390  1.00  0.00     0.025 C 
HETATM   18  C4  UNL     1      14.948  23.825   8.667  1.00  0.00     0.002 C 
HETATM   19  C5  UNL     1      14.013  23.161   9.646  1.00  0.00     0.000 C 
HETATM   20  C6  UNL     1      12.581  23.587   9.393  1.00  0.00     0.002 C 
HETATM   21  C7  UNL     1      12.102  23.113   8.044  1.00  0.00     0.025 C 
ENDBRANCH  14  16
ENDBRANCH  11  12
BRANCH  11  22
HETATM   22  C9  UNL     1      12.229  21.463   2.436  1.00  0.00     0.042 C 
HETATM   23  C10 UNL     1      11.089  20.430   2.504  1.00  0.00     0.011 C 
HETATM   24  C11 UNL     1      11.287  19.522   1.303  1.00  0.00     0.001 C 
HETATM   25  C12 UNL     1      12.693  18.994   1.337  1.00  0.00     0.000 C 
HETATM   26  C13 UNL     1      13.427  19.278   2.620  1.00  0.00     0.001 C 
HETATM   27  C14 UNL     1      13.526  20.769   2.911  1.00  0.00     0.011 C 
ENDBRANCH  11  22
ENDBRANCH   1  11
BRANCH   2  28
HETATM   28  C16 UNL     1      14.666  24.142   2.690  1.00  0.00     0.009 A 
HETATM   29  C17 UNL     1      15.526  24.212   3.727  1.00  0.00     0.017 A 
HETATM   30  C18 UNL     1      16.888  23.881   3.642  1.00  0.00     0.025 A 
HETATM   31  C19 UNL     1      17.388  23.459   2.439  1.00  0.00     0.034 A 
HETATM   32 CL1  UNL     1      19.087  23.034   2.283  1.00  0.00    -0.084 Cl
HETATM   33  C20 UNL     1      16.559  23.365   1.344  1.00  0.00     0.025 A 
HETATM   34  C21 UNL     1      15.238  23.702   1.482  1.00  0.00     0.017 A 
ENDBRANCH   2  28
TORSDOF 5
ENDMDL
