MODEL 4
REMARK VINA RESULT: -10.762357099      0.661      1.101
REMARK  5 active torsions:
REMARK  status: ('A' for Active; 'I' for Inactive)
REMARK       I    between atoms: C1_2  and  N1_3 
REMARK    1  A    between atoms: C1_2  and  C8_11 
REMARK    2  A    between atoms: N1_3  and  C2_5 
REMARK    3  A    between atoms: C8_11  and  C9_12 
REMARK    4  A    between atoms: C8_11  and  N2_18 
REMARK    5  A    between atoms: C15_19  and  C16_20 
ROOT
HETATM    1  N2  UNL     1      12.621  24.132   3.255  1.00  0.00    -0.293 N 
HETATM    2  C15 UNL     1      13.646  24.807   2.753  1.00  0.00     0.123 A 
HETATM    3  N3  UNL     1      13.103  25.981   2.253  1.00  0.00    -0.340 N 
ATOM      4  H3  UNL     1      13.639  26.721   1.800  1.00  0.00     0.167 HD
HETATM    5  C22 UNL     1      11.797  26.009   2.444  1.00  0.00     0.061 A 
HETATM    6  C23 UNL     1      10.781  26.916   2.150  1.00  0.00     0.032 A 
HETATM    7  C24 UNL     1       9.472  26.658   2.487  1.00  0.00     0.002 A 
HETATM    8  C25 UNL     1       9.151  25.486   3.124  1.00  0.00     0.002 A 
HETATM    9  C26 UNL     1      10.138  24.583   3.420  1.00  0.00     0.032 A 
HETATM   10  C27 UNL     1      11.450  24.852   3.078  1.00  0.00     0.068 A 
ENDROOT
BRANCH   1  11
HETATM   11  C8  UNL     1      12.647  22.862   3.943  1.00  0.00     0.090 C 
BRANCH  11  12
HETATM   12  C1  UNL     1      11.940  21.760   3.243  1.00  0.00     0.265 C 
HETATM   13  O1  UNL     1      10.999  21.110   3.806  1.00  0.00    -0.266 OA
HETATM   14  N1  UNL     1      12.255  21.360   1.925  1.00  0.00    -0.351 N 
ATOM     15  H1  UNL     1      13.000  21.847   1.428  1.00  0.00     0.163 HD
BRANCH  14  16
HETATM   16  C2  UNL     1      11.548  20.269   1.251  1.00  0.00     0.084 C 
HETATM   17  C3  UNL     1      11.672  19.056   2.153  1.00  0.00     0.025 C 
HETATM   18  C4  UNL     1      11.189  17.821   1.401  1.00  0.00     0.002 C 
HETATM   19  C5  UNL     1       9.959  18.161   0.597  1.00  0.00     0.000 C 
HETATM   20  C6  UNL     1       9.220  19.329   1.216  1.00  0.00     0.002 C 
HETATM   21  C7  UNL     1      10.052  20.586   1.169  1.00  0.00     0.025 C 
ENDBRANCH  14  16
ENDBRANCH  11  12
BRANCH  11  22
HETATM   22  C9  UNL     1      12.445  22.876   5.405  1.00  0.00     0.042 C 
HETATM   23  C10 UNL     1      13.027  24.180   5.978  1.00  0.00     0.011 C 
HETATM   24  C11 UNL     1      12.526  24.259   7.410  1.00  0.00     0.001 C 
HETATM   25  C12 UNL     1      12.892  22.981   8.108  1.00  0.00     0.000 C 
HETATM   26  C13 UNL     1      13.835  22.102   7.332  1.00  0.00     0.001 C 
HETATM   27  C14 UNL     1      13.266  21.699   5.978  1.00  0.00     0.011 C 
ENDBRANCH  11  22
ENDBRANCH   1  11
BRANCH   2  28
HETATM   28  C16 UNL     1      15.088  24.569   2.698  1.00  0.00     0.009 A 
HETATM   29  C17 UNL     1      15.777  23.827   1.808  1.00  0.00     0.017 A 
HETATM   30  C18 UNL     1      17.160  23.596   1.881  1.00  0.00     0.025 A 
HETATM   31  C19 UNL     1      17.865  24.154   2.915  1.00  0.00     0.034 A 
HETATM   32 CL1  UNL     1      19.600  23.892   3.049  1.00  0.00    -0.084 Cl
HETATM   33  C20 UNL     1      17.218  24.922   3.855  1.00  0.00     0.025 A 
HETATM   34  C21 UNL     1      15.866  25.115   3.736  1.00  0.00     0.017 A 
ENDBRANCH   2  28
TORSDOF 5
ENDMDL
