MODEL 7
REMARK VINA RESULT: -7.538985532      2.424      3.911
REMARK  4 active torsions:
REMARK  status: ('A' for Active; 'I' for Inactive)
REMARK    1  A    between atoms: C2_2  and  C3_3 
REMARK    2  A    between atoms: C8_8  and  O1_9 
REMARK    3  A    between atoms: O1_9  and  S1_10 
REMARK    4  A    between atoms: S1_10  and  N1_11 
ROOT
HETATM    1  C3  UNL     1      -1.967   4.941  11.037  1.00  0.00    -0.023 A 
HETATM    2  C4  UNL     1      -2.629   3.958  11.751  1.00  0.00     0.018 A 
HETATM    3  C5  UNL     1      -3.819   4.234  12.390  1.00  0.00    -0.047 A 
HETATM    4  C6  UNL     1      -4.382   5.491  12.338  1.00  0.00    -0.049 A 
HETATM    5  C7  UNL     1      -3.729   6.479  11.628  1.00  0.00     0.046 A 
HETATM    6  C8  UNL     1      -2.541   6.193  10.993  1.00  0.00     0.098 A 
HETATM    7  C9  UNL     1      -5.661   5.753  13.035  1.00  0.00     0.039 C 
HETATM    8  C10 UNL     1      -5.864   4.989  14.288  1.00  0.00     0.010 C 
HETATM    9  C11 UNL     1      -4.937   3.828  14.492  1.00  0.00    -0.000 C 
HETATM   10  C12 UNL     1      -4.536   3.200  13.152  1.00  0.00     0.024 C 
HETATM   11  C13 UNL     1      -3.720   1.967  13.341  1.00  0.00     0.011 C 
HETATM   12  C14 UNL     1      -4.491   0.941  14.145  1.00  0.00     0.018 C 
HETATM   13  C15 UNL     1      -4.728   1.546  15.503  1.00  0.00     0.021 C 
HETATM   14  C16 UNL     1      -3.456   1.875  16.215  1.00  0.00     0.024 C 
HETATM   15  C17 UNL     1      -5.579   0.754  16.395  1.00  0.00     0.135 C 
HETATM   16  O4  UNL     1      -5.681  -0.453  16.439  1.00  0.00    -0.297 OA
HETATM   17  C18 UNL     1      -6.316   1.716  17.257  1.00  0.00     0.079 C 
HETATM   18  C19 UNL     1      -6.037   3.100  16.654  1.00  0.00     0.013 C 
HETATM   19  C20 UNL     1      -5.610   2.766  15.276  1.00  0.00     0.006 C 
ENDROOT
BRANCH   6  20
HETATM   20  O1  UNL     1      -1.882   7.202  10.273  1.00  0.00    -0.216 OA
BRANCH  20  21
HETATM   21  S1  UNL     1      -1.032   8.374  11.165  1.00  0.00     0.360 S 
HETATM   22  O2  UNL     1       0.091   8.948  10.324  1.00  0.00    -0.176 OA
HETATM   23  O3  UNL     1      -1.896   9.532  11.559  1.00  0.00    -0.176 OA
BRANCH  21  24
HETATM   24  N1  UNL     1      -0.383   7.701  12.634  1.00  0.00    -0.305 N 
ATOM     25  H12 UNL     1      -0.881   7.706  13.524  1.00  0.00     0.171 HD
ATOM     26  H11 UNL     1       0.546   7.310  12.483  1.00  0.00     0.171 HD
ENDBRANCH  21  24
ENDBRANCH  20  21
ENDBRANCH   6  20
BRANCH   1  27
HETATM   27  C2  UNL     1      -0.698   4.681  10.345  1.00  0.00     0.037 C 
HETATM   28  C1  UNL     1       0.325   4.001  11.249  1.00  0.00     0.010 C 
ENDBRANCH   1  27
TORSDOF 4
ENDMDL
