MODEL 6
REMARK VINA RESULT: -7.701726276      1.707      2.060
REMARK  4 active torsions:
REMARK  status: ('A' for Active; 'I' for Inactive)
REMARK    1  A    between atoms: C2_2  and  C3_3 
REMARK    2  A    between atoms: C8_8  and  O1_9 
REMARK    3  A    between atoms: O1_9  and  S1_10 
REMARK    4  A    between atoms: S1_10  and  N1_11 
ROOT
HETATM    1  C3  UNL     1      -2.876   6.306  10.853  1.00  0.00    -0.023 A 
HETATM    2  C4  UNL     1      -3.597   6.039  12.003  1.00  0.00     0.018 A 
HETATM    3  C5  UNL     1      -3.031   5.323  13.036  1.00  0.00    -0.047 A 
HETATM    4  C6  UNL     1      -1.736   4.856  12.957  1.00  0.00    -0.049 A 
HETATM    5  C7  UNL     1      -1.009   5.118  11.812  1.00  0.00     0.046 A 
HETATM    6  C8  UNL     1      -1.584   5.834  10.786  1.00  0.00     0.098 A 
HETATM    7  C9  UNL     1      -1.160   4.092  14.085  1.00  0.00     0.039 C 
HETATM    8  C10 UNL     1      -2.122   3.249  14.833  1.00  0.00     0.010 C 
HETATM    9  C11 UNL     1      -3.570   3.545  14.579  1.00  0.00    -0.000 C 
HETATM   10  C12 UNL     1      -3.783   5.031  14.267  1.00  0.00     0.024 C 
HETATM   11  C13 UNL     1      -5.230   5.367  14.139  1.00  0.00     0.011 C 
HETATM   12  C14 UNL     1      -5.965   5.032  15.421  1.00  0.00     0.018 C 
HETATM   13  C15 UNL     1      -5.855   3.542  15.604  1.00  0.00     0.021 C 
HETATM   14  C16 UNL     1      -6.464   2.777  14.473  1.00  0.00     0.024 C 
HETATM   15  C17 UNL     1      -6.396   3.031  16.866  1.00  0.00     0.135 C 
HETATM   16  O4  UNL     1      -7.326   3.475  17.505  1.00  0.00    -0.297 OA
HETATM   17  C18 UNL     1      -5.582   1.842  17.236  1.00  0.00     0.079 C 
HETATM   18  C19 UNL     1      -4.396   1.842  16.263  1.00  0.00     0.013 C 
HETATM   19  C20 UNL     1      -4.373   3.244  15.787  1.00  0.00     0.006 C 
ENDROOT
BRANCH   6  20
HETATM   20  O1  UNL     1      -0.839   6.096   9.625  1.00  0.00    -0.216 OA
BRANCH  20  21
HETATM   21  S1  UNL     1      -0.649   4.827   8.511  1.00  0.00     0.360 S 
HETATM   22  O2  UNL     1       0.543   3.974   8.899  1.00  0.00    -0.176 OA
HETATM   23  O3  UNL     1      -1.832   3.908   8.482  1.00  0.00    -0.176 OA
BRANCH  21  24
HETATM   24  N1  UNL     1      -0.437   5.433   6.892  1.00  0.00    -0.305 N 
ATOM     25  H12 UNL     1      -0.577   6.409   6.634  1.00  0.00     0.171 HD
ATOM     26  H11 UNL     1      -0.158   4.689   6.253  1.00  0.00     0.171 HD
ENDBRANCH  21  24
ENDBRANCH  20  21
ENDBRANCH   6  20
BRANCH   1  27
HETATM   27  C2  UNL     1      -3.449   7.065   9.733  1.00  0.00     0.037 C 
HETATM   28  C1  UNL     1      -4.619   7.942  10.167  1.00  0.00     0.010 C 
ENDBRANCH   1  27
TORSDOF 4
ENDMDL
