MODEL 1
REMARK VINA RESULT: -8.002551493      0.000      0.000
REMARK  4 active torsions:
REMARK  status: ('A' for Active; 'I' for Inactive)
REMARK    1  A    between atoms: C2_2  and  C3_3 
REMARK    2  A    between atoms: C8_8  and  O1_9 
REMARK    3  A    between atoms: O1_9  and  S1_10 
REMARK    4  A    between atoms: S1_10  and  N1_11 
ROOT
HETATM    1  C3  UNL     1      -4.994   6.651  11.289  1.00  0.00    -0.023 A 
HETATM    2  C4  UNL     1      -5.243   6.135  12.548  1.00  0.00     0.018 A 
HETATM    3  C5  UNL     1      -4.307   5.346  13.182  1.00  0.00    -0.047 A 
HETATM    4  C6  UNL     1      -3.101   5.048  12.583  1.00  0.00    -0.049 A 
HETATM    5  C7  UNL     1      -2.844   5.560  11.327  1.00  0.00     0.046 A 
HETATM    6  C8  UNL     1      -3.785   6.347  10.703  1.00  0.00     0.098 A 
HETATM    7  C9  UNL     1      -2.118   4.199  13.292  1.00  0.00     0.039 C 
HETATM    8  C10 UNL     1      -2.703   3.148  14.159  1.00  0.00     0.010 C 
HETATM    9  C11 UNL     1      -4.161   3.308  14.471  1.00  0.00    -0.000 C 
HETATM   10  C12 UNL     1      -4.555   4.789  14.521  1.00  0.00     0.024 C 
HETATM   11  C13 UNL     1      -5.970   4.970  14.956  1.00  0.00     0.011 C 
HETATM   12  C14 UNL     1      -6.182   4.366  16.330  1.00  0.00     0.018 C 
HETATM   13  C15 UNL     1      -5.929   2.888  16.194  1.00  0.00     0.021 C 
HETATM   14  C16 UNL     1      -6.855   2.234  15.220  1.00  0.00     0.024 C 
HETATM   15  C17 UNL     1      -5.956   2.137  17.452  1.00  0.00     0.135 C 
HETATM   16  O4  UNL     1      -6.623   2.371  18.437  1.00  0.00    -0.297 OA
HETATM   17  C18 UNL     1      -4.998   1.010  17.304  1.00  0.00     0.079 C 
HETATM   18  C19 UNL     1      -4.237   1.291  16.001  1.00  0.00     0.013 C 
HETATM   19  C20 UNL     1      -4.464   2.741  15.806  1.00  0.00     0.006 C 
ENDROOT
BRANCH   6  20
HETATM   20  O1  UNL     1      -3.517   6.863   9.425  1.00  0.00    -0.216 OA
BRANCH  20  21
HETATM   21  S1  UNL     1      -3.809   5.849   8.093  1.00  0.00     0.360 S 
HETATM   22  O2  UNL     1      -3.846   4.402   8.545  1.00  0.00    -0.176 OA
HETATM   23  O3  UNL     1      -5.132   6.120   7.445  1.00  0.00    -0.176 OA
BRANCH  21  24
HETATM   24  N1  UNL     1      -2.591   6.051   6.865  1.00  0.00    -0.305 N 
ATOM     25  H12 UNL     1      -2.400   6.939   6.402  1.00  0.00     0.171 HD
ATOM     26  H11 UNL     1      -2.105   5.174   6.679  1.00  0.00     0.171 HD
ENDBRANCH  21  24
ENDBRANCH  20  21
ENDBRANCH   6  20
BRANCH   1  27
HETATM   27  C2  UNL     1      -5.969   7.495  10.586  1.00  0.00     0.037 C 
HETATM   28  C1  UNL     1      -7.292   7.600  11.339  1.00  0.00     0.010 C 
ENDBRANCH   1  27
TORSDOF 4
ENDMDL
