MODEL 3
REMARK VINA RESULT: -7.908440017      4.274      7.165
REMARK  4 active torsions:
REMARK  status: ('A' for Active; 'I' for Inactive)
REMARK    1  A    between atoms: C2_2  and  C3_3 
REMARK    2  A    between atoms: C8_8  and  O1_9 
REMARK    3  A    between atoms: O1_9  and  S1_10 
REMARK    4  A    between atoms: S1_10  and  N1_11 
ROOT
HETATM    1  C3  UNL     1      -5.179   3.783  14.183  1.00  0.00    -0.023 A 
HETATM    2  C4  UNL     1      -4.509   4.889  13.690  1.00  0.00     0.018 A 
HETATM    3  C5  UNL     1      -3.316   4.744  13.015  1.00  0.00    -0.047 A 
HETATM    4  C6  UNL     1      -2.757   3.500  12.811  1.00  0.00    -0.049 A 
HETATM    5  C7  UNL     1      -3.419   2.391  13.299  1.00  0.00     0.046 A 
HETATM    6  C8  UNL     1      -4.610   2.546  13.972  1.00  0.00     0.098 A 
HETATM    7  C9  UNL     1      -1.475   3.381  12.081  1.00  0.00     0.039 C 
HETATM    8  C10 UNL     1      -0.531   4.506  12.278  1.00  0.00     0.010 C 
HETATM    9  C11 UNL     1      -1.120   5.743  12.886  1.00  0.00    -0.000 C 
HETATM   10  C12 UNL     1      -2.591   5.909  12.484  1.00  0.00     0.024 C 
HETATM   11  C13 UNL     1      -3.156   7.199  12.973  1.00  0.00     0.011 C 
HETATM   12  C14 UNL     1      -2.367   8.367  12.416  1.00  0.00     0.018 C 
HETATM   13  C15 UNL     1      -0.969   8.242  12.961  1.00  0.00     0.021 C 
HETATM   14  C16 UNL     1      -0.930   8.289  14.455  1.00  0.00     0.024 C 
HETATM   15  C17 UNL     1      -0.009   9.213  12.432  1.00  0.00     0.135 C 
HETATM   16  O4  UNL     1      -0.229  10.349  12.071  1.00  0.00    -0.297 OA
HETATM   17  C18 UNL     1       1.319   8.542  12.413  1.00  0.00     0.079 C 
HETATM   18  C19 UNL     1       1.033   7.066  12.721  1.00  0.00     0.013 C 
HETATM   19  C20 UNL     1      -0.407   6.946  12.396  1.00  0.00     0.006 C 
ENDROOT
BRANCH   6  20
HETATM   20  O1  UNL     1      -5.277   1.414  14.466  1.00  0.00    -0.216 OA
BRANCH  20  21
HETATM   21  S1  UNL     1      -4.516   0.534  15.705  1.00  0.00     0.360 S 
HETATM   22  O2  UNL     1      -4.033  -0.799  15.169  1.00  0.00    -0.176 OA
HETATM   23  O3  UNL     1      -3.307   1.234  16.245  1.00  0.00    -0.176 OA
BRANCH  21  24
HETATM   24  N1  UNL     1      -5.594   0.273  17.048  1.00  0.00    -0.305 N 
ATOM     25  H12 UNL     1      -5.501  -0.504  17.701  1.00  0.00     0.171 HD
ATOM     26  H11 UNL     1      -6.315   0.992  17.088  1.00  0.00     0.171 HD
ENDBRANCH  21  24
ENDBRANCH  20  21
ENDBRANCH   6  20
BRANCH   1  27
HETATM   27  C2  UNL     1      -6.452   3.902  14.906  1.00  0.00     0.037 C 
HETATM   28  C1  UNL     1      -6.255   3.939  16.419  1.00  0.00     0.010 C 
ENDBRANCH   1  27
TORSDOF 4
ENDMDL
