MODEL 17
REMARK VINA RESULT: -7.213776546      3.756      7.356
REMARK  4 active torsions:
REMARK  status: ('A' for Active; 'I' for Inactive)
REMARK    1  A    between atoms: C2_2  and  C3_3 
REMARK    2  A    between atoms: C8_8  and  O1_9 
REMARK    3  A    between atoms: O1_9  and  S1_10 
REMARK    4  A    between atoms: S1_10  and  N1_11 
ROOT
HETATM    1  C3  UNL     1      -4.412   4.440  14.713  1.00  0.00    -0.023 A 
HETATM    2  C4  UNL     1      -4.089   5.418  13.790  1.00  0.00     0.018 A 
HETATM    3  C5  UNL     1      -2.858   5.419  13.168  1.00  0.00    -0.047 A 
HETATM    4  C6  UNL     1      -1.917   4.450  13.446  1.00  0.00    -0.049 A 
HETATM    5  C7  UNL     1      -2.231   3.469  14.366  1.00  0.00     0.046 A 
HETATM    6  C8  UNL     1      -3.463   3.478  14.981  1.00  0.00     0.098 A 
HETATM    7  C9  UNL     1      -0.607   4.480  12.760  1.00  0.00     0.039 C 
HETATM    8  C10 UNL     1      -0.090   5.833  12.447  1.00  0.00     0.010 C 
HETATM    9  C11 UNL     1      -1.092   6.944  12.544  1.00  0.00    -0.000 C 
HETATM   10  C12 UNL     1      -2.499   6.451  12.183  1.00  0.00     0.024 C 
HETATM   11  C13 UNL     1      -3.485   7.569  12.149  1.00  0.00     0.011 C 
HETATM   12  C14 UNL     1      -3.064   8.614  11.136  1.00  0.00     0.018 C 
HETATM   13  C15 UNL     1      -1.751   9.175  11.616  1.00  0.00     0.021 C 
HETATM   14  C16 UNL     1      -1.857   9.810  12.965  1.00  0.00     0.024 C 
HETATM   15  C17 UNL     1      -1.108  10.117  10.697  1.00  0.00     0.135 C 
HETATM   16  O4  UNL     1      -1.647  10.883   9.927  1.00  0.00    -0.297 OA
HETATM   17  C18 UNL     1       0.361   9.965  10.879  1.00  0.00     0.079 C 
HETATM   18  C19 UNL     1       0.534   8.720  11.760  1.00  0.00     0.013 C 
HETATM   19  C20 UNL     1      -0.759   8.021  11.583  1.00  0.00     0.006 C 
ENDROOT
BRANCH   6  20
HETATM   20  O1  UNL     1      -3.775   2.478  15.916  1.00  0.00    -0.216 OA
BRANCH  20  21
HETATM   21  S1  UNL     1      -4.344   0.993  15.316  1.00  0.00     0.360 S 
HETATM   22  O2  UNL     1      -3.467  -0.137  15.820  1.00  0.00    -0.176 OA
HETATM   23  O3  UNL     1      -5.735   0.684  15.777  1.00  0.00    -0.176 OA
BRANCH  21  24
HETATM   24  N1  UNL     1      -4.372   0.984  13.575  1.00  0.00    -0.305 N 
ATOM     25  H12 UNL     1      -5.058   1.497  13.020  1.00  0.00     0.171 HD
ATOM     26  H11 UNL     1      -3.622   0.407  13.196  1.00  0.00     0.171 HD
ENDBRANCH  21  24
ENDBRANCH  20  21
ENDBRANCH   6  20
BRANCH   1  27
HETATM   27  C2  UNL     1      -5.713   4.410  15.393  1.00  0.00     0.037 C 
HETATM   28  C1  UNL     1      -6.759   5.258  14.677  1.00  0.00     0.010 C 
ENDBRANCH   1  27
TORSDOF 4
ENDMDL
