MODEL 20
REMARK VINA RESULT: -7.109996017      4.442      7.142
REMARK  4 active torsions:
REMARK  status: ('A' for Active; 'I' for Inactive)
REMARK    1  A    between atoms: C2_2  and  C3_3 
REMARK    2  A    between atoms: C8_8  and  O1_9 
REMARK    3  A    between atoms: O1_9  and  S1_10 
REMARK    4  A    between atoms: S1_10  and  N1_11 
ROOT
HETATM    1  C3  UNL     1      -3.510   3.945  14.765  1.00  0.00    -0.023 A 
HETATM    2  C4  UNL     1      -3.198   5.244  14.406  1.00  0.00     0.018 A 
HETATM    3  C5  UNL     1      -2.177   5.501  13.516  1.00  0.00    -0.047 A 
HETATM    4  C6  UNL     1      -1.441   4.477  12.959  1.00  0.00    -0.049 A 
HETATM    5  C7  UNL     1      -1.746   3.177  13.312  1.00  0.00     0.046 A 
HETATM    6  C8  UNL     1      -2.767   2.932  14.202  1.00  0.00     0.098 A 
HETATM    7  C9  UNL     1      -0.353   4.788  12.006  1.00  0.00     0.039 C 
HETATM    8  C10 UNL     1       0.369   6.056  12.265  1.00  0.00     0.010 C 
HETATM    9  C11 UNL     1      -0.307   6.999  13.214  1.00  0.00    -0.000 C 
HETATM   10  C12 UNL     1      -1.833   6.876  13.122  1.00  0.00     0.024 C 
HETATM   11  C13 UNL     1      -2.522   7.896  13.963  1.00  0.00     0.011 C 
HETATM   12  C14 UNL     1      -2.123   9.293  13.534  1.00  0.00     0.018 C 
HETATM   13  C15 UNL     1      -0.643   9.414  13.785  1.00  0.00     0.021 C 
HETATM   14  C16 UNL     1      -0.288   9.221  15.224  1.00  0.00     0.024 C 
HETATM   15  C17 UNL     1      -0.035  10.659  13.310  1.00  0.00     0.135 C 
HETATM   16  O4  UNL     1      -0.550  11.754  13.241  1.00  0.00    -0.297 OA
HETATM   17  C18 UNL     1       1.363  10.336  12.917  1.00  0.00     0.079 C 
HETATM   18  C19 UNL     1       1.451   8.804  12.953  1.00  0.00     0.013 C 
HETATM   19  C20 UNL     1       0.028   8.401  12.869  1.00  0.00     0.006 C 
ENDROOT
BRANCH   6  20
HETATM   20  O1  UNL     1      -3.071   1.608  14.557  1.00  0.00    -0.216 OA
BRANCH  20  21
HETATM   21  S1  UNL     1      -3.963   0.683  13.444  1.00  0.00     0.360 S 
HETATM   22  O2  UNL     1      -3.020  -0.059  12.517  1.00  0.00    -0.176 OA
HETATM   23  O3  UNL     1      -4.804  -0.362  14.111  1.00  0.00    -0.176 OA
BRANCH  21  24
HETATM   24  N1  UNL     1      -5.041   1.683  12.511  1.00  0.00    -0.305 N 
ATOM     25  H12 UNL     1      -5.999   1.892  12.790  1.00  0.00     0.171 HD
ATOM     26  H11 UNL     1      -4.588   2.024  11.664  1.00  0.00     0.171 HD
ENDBRANCH  21  24
ENDBRANCH  20  21
ENDBRANCH   6  20
BRANCH   1  27
HETATM   27  C2  UNL     1      -4.591   3.637  15.711  1.00  0.00     0.037 C 
HETATM   28  C1  UNL     1      -5.962   4.030  15.170  1.00  0.00     0.010 C 
ENDBRANCH   1  27
TORSDOF 4
ENDMDL
