MODEL 4
REMARK VINA RESULT: -5.294069377      8.127     10.019
REMARK  6 active torsions:
REMARK  status: ('A' for Active; 'I' for Inactive)
REMARK    1  A    between atoms: O1_1  and  C1_3 
REMARK    2  A    between atoms: C1_3  and  C2_4 
REMARK    3  A    between atoms: C3_6  and  O3_7 
REMARK    4  A    between atoms: C4_9  and  O4_10 
REMARK    5  A    between atoms: C5_12  and  O5_13 
REMARK    6  A    between atoms: C6_15  and  O6_16 
ROOT
HETATM    1  C2  UNL     1      13.321   8.935  13.145  1.00  0.00     0.179 C 
HETATM    2  O2  UNL     1      13.092   9.173  14.461  1.00  0.00    -0.349 OA
HETATM    3  C3  UNL     1      13.610   8.271  15.356  1.00  0.00     0.288 C 
HETATM    4  C4  UNL     1      15.073   8.006  15.202  1.00  0.00     0.204 C 
HETATM    5  C5  UNL     1      15.575   8.711  13.962  1.00  0.00     0.183 C 
HETATM    6  C6  UNL     1      14.639   8.246  12.854  1.00  0.00     0.180 C 
ENDROOT
BRANCH   1   7
HETATM    7  C1  UNL     1      12.171   8.251  12.436  1.00  0.00     0.198 C 
BRANCH   7   8
HETATM    8  O1  UNL     1      12.410   8.223  11.062  1.00  0.00    -0.398 OA
ATOM      9  H1  UNL     1      11.588   8.282  10.590  1.00  0.00     0.209 HD
ENDBRANCH   7   8
ENDBRANCH   1   7
BRANCH   6  10
HETATM   10  O6  UNL     1      14.421   6.877  13.009  1.00  0.00    -0.390 OA
ATOM     11  H6  UNL     1      14.335   6.512  12.137  1.00  0.00     0.210 HD
ENDBRANCH   6  10
BRANCH   3  12
HETATM   12  O3  UNL     1      12.854   7.078  15.348  1.00  0.00    -0.369 OA
ATOM     13  H3  UNL     1      11.997   7.226  15.729  1.00  0.00     0.212 HD
ENDBRANCH   3  12
BRANCH   5  14
HETATM   14  O5  UNL     1      16.896   8.439  13.678  1.00  0.00    -0.390 OA
ATOM     15  H5  UNL     1      17.221   7.663  14.120  1.00  0.00     0.210 HD
ENDBRANCH   5  14
BRANCH   4  16
HETATM   16  O4  UNL     1      15.820   8.304  16.322  1.00  0.00    -0.388 OA
ATOM     17  H4  UNL     1      15.846   9.230  16.535  1.00  0.00     0.210 HD
ENDBRANCH   4  16
TORSDOF 6
ENDMDL
