MODEL 2
REMARK VINA RESULT: -5.555127212      6.882      8.349
REMARK  6 active torsions:
REMARK  status: ('A' for Active; 'I' for Inactive)
REMARK    1  A    between atoms: O1_1  and  C1_3 
REMARK    2  A    between atoms: C1_3  and  C2_4 
REMARK    3  A    between atoms: C3_6  and  O3_7 
REMARK    4  A    between atoms: C4_9  and  O4_10 
REMARK    5  A    between atoms: C5_12  and  O5_13 
REMARK    6  A    between atoms: C6_15  and  O6_16 
ROOT
HETATM    1  C2  UNL     1      25.159  -0.220  14.037  1.00  0.00     0.179 C 
HETATM    2  O2  UNL     1      25.033   1.040  13.550  1.00  0.00    -0.349 OA
HETATM    3  C3  UNL     1      26.031   1.490  12.722  1.00  0.00     0.288 C 
HETATM    4  C4  UNL     1      26.335   0.596  11.563  1.00  0.00     0.204 C 
HETATM    5  C5  UNL     1      25.539  -0.682  11.705  1.00  0.00     0.183 C 
HETATM    6  C6  UNL     1      25.867  -1.183  13.105  1.00  0.00     0.180 C 
ENDROOT
BRANCH   1   7
HETATM    7  C1  UNL     1      25.733  -0.282  15.436  1.00  0.00     0.198 C 
BRANCH   7   8
HETATM    8  O1  UNL     1      26.136  -1.585  15.727  1.00  0.00    -0.398 OA
ATOM      9  H1  UNL     1      26.955  -1.570  16.208  1.00  0.00     0.209 HD
ENDBRANCH   7   8
ENDBRANCH   1   7
BRANCH   6  10
HETATM   10  O6  UNL     1      27.236  -1.019  13.321  1.00  0.00    -0.390 OA
ATOM     11  H6  UNL     1      27.388  -0.087  13.418  1.00  0.00     0.210 HD
ENDBRANCH   6  10
BRANCH   3  12
HETATM   12  O3  UNL     1      27.190   1.798  13.469  1.00  0.00    -0.369 OA
ATOM     13  H3  UNL     1      27.939   1.896  12.893  1.00  0.00     0.212 HD
ENDBRANCH   3  12
BRANCH   5  14
HETATM   14  O5  UNL     1      25.834  -1.616  10.735  1.00  0.00    -0.390 OA
ATOM     15  H5  UNL     1      26.727  -1.936  10.782  1.00  0.00     0.210 HD
ENDBRANCH   5  14
BRANCH   4  16
HETATM   16  O4  UNL     1      26.167   1.193  10.332  1.00  0.00    -0.388 OA
ATOM     17  H4  UNL     1      25.287   1.118   9.982  1.00  0.00     0.210 HD
ENDBRANCH   4  16
TORSDOF 6
ENDMDL
