MODEL 6
REMARK VINA RESULT: -5.165253900      6.605      8.636
REMARK  6 active torsions:
REMARK  status: ('A' for Active; 'I' for Inactive)
REMARK    1  A    between atoms: O1_1  and  C1_3 
REMARK    2  A    between atoms: C1_3  and  C2_4 
REMARK    3  A    between atoms: C3_6  and  O3_7 
REMARK    4  A    between atoms: C4_9  and  O4_10 
REMARK    5  A    between atoms: C5_12  and  O5_13 
REMARK    6  A    between atoms: C6_15  and  O6_16 
ROOT
HETATM    1  C2  UNL     1      26.518  -0.174  12.486  1.00  0.00     0.179 C 
HETATM    2  O2  UNL     1      26.709   0.565  13.607  1.00  0.00    -0.349 OA
HETATM    3  C3  UNL     1      25.769   0.446  14.600  1.00  0.00     0.288 C 
HETATM    4  C4  UNL     1      25.492  -0.957  15.035  1.00  0.00     0.204 C 
HETATM    5  C5  UNL     1      26.237  -1.911  14.129  1.00  0.00     0.183 C 
HETATM    6  C6  UNL     1      25.825  -1.501  12.721  1.00  0.00     0.180 C 
ENDROOT
BRANCH   1   7
HETATM    7  C1  UNL     1      25.874   0.592  11.349  1.00  0.00     0.198 C 
BRANCH   7   8
HETATM    8  O1  UNL     1      25.518  -0.287  10.327  1.00  0.00    -0.398 OA
ATOM      9  H1  UNL     1      24.572  -0.356  10.275  1.00  0.00     0.209 HD
ENDBRANCH   7   8
ENDBRANCH   1   7
BRANCH   6  10
HETATM   10  O6  UNL     1      24.453  -1.244  12.723  1.00  0.00    -0.390 OA
ATOM     11  H6  UNL     1      24.126  -1.509  13.574  1.00  0.00     0.210 HD
ENDBRANCH   6  10
BRANCH   3  12
HETATM   12  O3  UNL     1      24.586   1.130  14.242  1.00  0.00    -0.369 OA
ATOM     13  H3  UNL     1      23.831   0.562  14.344  1.00  0.00     0.212 HD
ENDBRANCH   3  12
BRANCH   5  14
HETATM   14  O5  UNL     1      25.960  -3.236  14.388  1.00  0.00    -0.390 OA
ATOM     15  H5  UNL     1      26.168  -3.812  13.662  1.00  0.00     0.210 HD
ENDBRANCH   5  14
BRANCH   4  16
HETATM   16  O4  UNL     1      25.740  -1.190  16.371  1.00  0.00    -0.388 OA
ATOM     17  H4  UNL     1      25.203  -1.876  16.751  1.00  0.00     0.210 HD
ENDBRANCH   4  16
TORSDOF 6
ENDMDL
