MODEL 9
REMARK VINA RESULT: -5.049322302      1.138      1.412
REMARK  6 active torsions:
REMARK  status: ('A' for Active; 'I' for Inactive)
REMARK    1  A    between atoms: O1_1  and  C1_3 
REMARK    2  A    between atoms: C1_3  and  C2_4 
REMARK    3  A    between atoms: C3_6  and  O3_7 
REMARK    4  A    between atoms: C4_9  and  O4_10 
REMARK    5  A    between atoms: C5_12  and  O5_13 
REMARK    6  A    between atoms: C6_15  and  O6_16 
ROOT
HETATM    1  C2  UNL     1      19.930   2.548  18.784  1.00  0.00     0.179 C 
HETATM    2  O2  UNL     1      21.167   1.995  18.859  1.00  0.00    -0.349 OA
HETATM    3  C3  UNL     1      21.530   1.141  17.847  1.00  0.00     0.288 C 
HETATM    4  C4  UNL     1      21.377   1.701  16.470  1.00  0.00     0.204 C 
HETATM    5  C5  UNL     1      20.698   3.050  16.558  1.00  0.00     0.183 C 
HETATM    6  C6  UNL     1      19.437   2.789  17.372  1.00  0.00     0.180 C 
ENDROOT
BRANCH   1   7
HETATM    7  C1  UNL     1      18.888   1.834  19.620  1.00  0.00     0.198 C 
BRANCH   7   8
HETATM    8  O1  UNL     1      19.419   0.650  20.130  1.00  0.00    -0.398 OA
ATOM      9  H1  UNL     1      20.320   0.788  20.396  1.00  0.00     0.209 HD
ENDBRANCH   7   8
ENDBRANCH   1   7
BRANCH   6  10
HETATM   10  O6  UNL     1      18.871   1.592  16.933  1.00  0.00    -0.390 OA
ATOM     11  H6  UNL     1      18.402   1.788  16.131  1.00  0.00     0.210 HD
ENDBRANCH   6  10
BRANCH   3  12
HETATM   12  O3  UNL     1      20.868  -0.099  17.988  1.00  0.00    -0.369 OA
ATOM     13  H3  UNL     1      20.421  -0.330  17.182  1.00  0.00     0.212 HD
ENDBRANCH   3  12
BRANCH   5  14
HETATM   14  O5  UNL     1      20.419   3.600  15.326  1.00  0.00    -0.390 OA
ATOM     15  H5  UNL     1      20.467   4.549  15.319  1.00  0.00     0.210 HD
ENDBRANCH   5  14
BRANCH   4  16
HETATM   16  O4  UNL     1      22.550   1.744  15.747  1.00  0.00    -0.388 OA
ATOM     17  H4  UNL     1      22.883   2.621  15.600  1.00  0.00     0.210 HD
ENDBRANCH   4  16
TORSDOF 6
ENDMDL
