MODEL 4
REMARK VINA RESULT: -5.558690602      3.079      5.662
REMARK  4 active torsions:
REMARK  status: ('A' for Active; 'I' for Inactive)
REMARK    1  A    between atoms: C1_2  and  C2_4 
REMARK    2  A    between atoms: C2_4  and  C3_5 
REMARK    3  A    between atoms: C3_5  and  C4_6 
REMARK    4  A    between atoms: C4_6  and  C5_8 
ROOT
HETATM    1  C3  UNL     1      14.206  23.356  -5.752  1.00  0.00     0.101 C 
ENDROOT
BRANCH   1   2
HETATM    2  C2  UNL     1      14.074  23.028  -7.214  1.00  0.00     0.121 C 
BRANCH   2   3
HETATM    3  C1  UNL     1      14.937  21.888  -7.612  1.00  0.00     0.172 C 
HETATM    4  O1  UNL     1      15.325  21.022  -6.777  1.00  0.00    -0.648 OA
HETATM    5  O2  UNL     1      15.363  21.712  -8.920  1.00  0.00    -0.648 OA
ENDBRANCH   2   3
ENDBRANCH   1   2
BRANCH   1   6
HETATM    6  C4  UNL     1      13.633  24.675  -5.414  1.00  0.00     0.225 C 
HETATM    7  O3  UNL     1      14.243  25.727  -5.693  1.00  0.00    -0.286 OA
BRANCH   6   8
HETATM    8  C5  UNL     1      12.349  24.763  -4.750  1.00  0.00     0.246 C 
HETATM    9  O4  UNL     1      12.060  24.000  -3.764  1.00  0.00    -0.642 OA
HETATM   10  O5  UNL     1      11.367  25.668  -5.136  1.00  0.00    -0.642 OA
ENDBRANCH   6   8
ENDBRANCH   1   6
TORSDOF 4
ENDMDL
