MODEL 9
REMARK VINA RESULT: -5.436423203      3.113      5.782
REMARK  4 active torsions:
REMARK  status: ('A' for Active; 'I' for Inactive)
REMARK    1  A    between atoms: C1_2  and  C2_4 
REMARK    2  A    between atoms: C2_4  and  C3_5 
REMARK    3  A    between atoms: C3_5  and  C4_6 
REMARK    4  A    between atoms: C4_6  and  C5_8 
ROOT
HETATM    1  C3  UNL     1      14.140  23.217  -5.483  1.00  0.00     0.101 C 
ENDROOT
BRANCH   1   2
HETATM    2  C2  UNL     1      14.058  23.080  -6.978  1.00  0.00     0.121 C 
BRANCH   2   3
HETATM    3  C1  UNL     1      14.888  21.960  -7.484  1.00  0.00     0.172 C 
HETATM    4  O1  UNL     1      15.325  21.054  -6.718  1.00  0.00    -0.648 OA
HETATM    5  O2  UNL     1      15.231  21.846  -8.824  1.00  0.00    -0.648 OA
ENDBRANCH   2   3
ENDBRANCH   1   2
BRANCH   1   6
HETATM    6  C4  UNL     1      14.193  24.627  -5.045  1.00  0.00     0.225 C 
HETATM    7  O3  UNL     1      14.143  25.556  -5.877  1.00  0.00    -0.286 OA
BRANCH   6   8
HETATM    8  C5  UNL     1      14.306  24.949  -3.638  1.00  0.00     0.246 C 
HETATM    9  O4  UNL     1      13.458  24.507  -2.788  1.00  0.00    -0.642 OA
HETATM   10  O5  UNL     1      15.327  25.746  -3.133  1.00  0.00    -0.642 OA
ENDBRANCH   6   8
ENDBRANCH   1   6
TORSDOF 4
ENDMDL
