MODEL 11
REMARK VINA RESULT: -5.430622060      1.077      2.092
REMARK  4 active torsions:
REMARK  status: ('A' for Active; 'I' for Inactive)
REMARK    1  A    between atoms: C1_2  and  C2_4 
REMARK    2  A    between atoms: C2_4  and  C3_5 
REMARK    3  A    between atoms: C3_5  and  C4_6 
REMARK    4  A    between atoms: C4_6  and  C5_8 
ROOT
HETATM    1  C3  UNL     1      13.689  25.399  -2.431  1.00  0.00     0.101 C 
ENDROOT
BRANCH   1   2
HETATM    2  C2  UNL     1      13.650  26.884  -2.672  1.00  0.00     0.121 C 
BRANCH   2   3
HETATM    3  C1  UNL     1      13.585  27.654  -1.406  1.00  0.00     0.172 C 
HETATM    4  O1  UNL     1      13.849  27.125  -0.288  1.00  0.00    -0.648 OA
HETATM    5  O2  UNL     1      13.231  28.995  -1.380  1.00  0.00    -0.648 OA
ENDBRANCH   2   3
ENDBRANCH   1   2
BRANCH   1   6
HETATM    6  C4  UNL     1      13.377  24.620  -3.648  1.00  0.00     0.225 C 
HETATM    7  O3  UNL     1      12.320  23.963  -3.732  1.00  0.00    -0.286 OA
BRANCH   6   8
HETATM    8  C5  UNL     1      14.302  24.610  -4.762  1.00  0.00     0.246 C 
HETATM    9  O4  UNL     1      15.355  23.884  -4.741  1.00  0.00    -0.642 OA
HETATM   10  O5  UNL     1      14.104  25.375  -5.905  1.00  0.00    -0.642 OA
ENDBRANCH   6   8
ENDBRANCH   1   6
TORSDOF 4
ENDMDL
