MODEL 2
REMARK VINA RESULT: -5.600018835      0.107      1.018
REMARK  4 active torsions:
REMARK  status: ('A' for Active; 'I' for Inactive)
REMARK    1  A    between atoms: C1_2  and  C2_4 
REMARK    2  A    between atoms: C2_4  and  C3_5 
REMARK    3  A    between atoms: C3_5  and  C4_6 
REMARK    4  A    between atoms: C4_6  and  C5_8 
ROOT
HETATM    1  C3  UNL     1      14.341  26.313  -3.489  1.00  0.00     0.101 C 
ENDROOT
BRANCH   1   2
HETATM    2  C2  UNL     1      13.360  27.291  -2.904  1.00  0.00     0.121 C 
BRANCH   2   3
HETATM    3  C1  UNL     1      13.703  27.661  -1.509  1.00  0.00     0.172 C 
HETATM    4  O1  UNL     1      13.425  28.799  -1.033  1.00  0.00    -0.648 OA
HETATM    5  O2  UNL     1      14.347  26.780  -0.652  1.00  0.00    -0.648 OA
ENDBRANCH   2   3
ENDBRANCH   1   2
BRANCH   1   6
HETATM    6  C4  UNL     1      13.794  25.593  -4.658  1.00  0.00     0.225 C 
HETATM    7  O3  UNL     1      14.236  25.809  -5.805  1.00  0.00    -0.286 OA
BRANCH   6   8
HETATM    8  C5  UNL     1      12.732  24.624  -4.485  1.00  0.00     0.246 C 
HETATM    9  O4  UNL     1      11.631  24.726  -5.128  1.00  0.00    -0.642 OA
HETATM   10  O5  UNL     1      12.843  23.539  -3.623  1.00  0.00    -0.642 OA
ENDBRANCH   6   8
ENDBRANCH   1   6
TORSDOF 4
ENDMDL
