MODEL 18
REMARK VINA RESULT: -4.691274668      2.724      5.325
REMARK  1 active torsions:
REMARK  status: ('A' for Active; 'I' for Inactive)
REMARK    1  A    between atoms: C2_5  and  C3_6 
ROOT
HETATM    1  C1  UNL     1      26.171   9.769   8.028  1.00  0.00     0.179 C 
HETATM    2  N1  UNL     1      25.330   9.101   8.986  1.00  0.00    -0.283 N 
HETATM    3  N2  UNL     1      24.002   9.016   8.878  1.00  0.00    -0.296 N 
ATOM      4  H2  UNL     1      23.449   9.409   8.116  1.00  0.00     0.187 HD
HETATM    5  C2  UNL     1      23.508   8.337   9.919  1.00  0.00     0.068 A 
HETATM    6  C7  UNL     1      24.588   7.997  10.692  1.00  0.00     0.079 A 
HETATM    7  C8  UNL     1      25.763   8.482  10.105  1.00  0.00     0.134 A 
HETATM    8  N3  UNL     1      27.089   8.348  10.579  1.00  0.00    -0.081 NA
ENDROOT
BRANCH   5   9
HETATM    9  C3  UNL     1      22.089   8.039  10.150  1.00  0.00     0.033 A 
HETATM   10  C4  UNL     1      20.996   8.376   9.428  1.00  0.00     0.021 A 
HETATM   11  C5  UNL     1      19.796   7.967   9.871  1.00  0.00     0.008 A 
HETATM   12  C6  UNL     1      19.776   7.234  11.030  1.00  0.00     0.050 A 
HETATM   13  S1  UNL     1      21.428   7.146  11.452  1.00  0.00    -0.100 SA
ENDBRANCH   5   9
TORSDOF 1
ENDMDL
