MODEL 7
REMARK VINA RESULT: -5.202297630      2.758      5.229
REMARK  1 active torsions:
REMARK  status: ('A' for Active; 'I' for Inactive)
REMARK    1  A    between atoms: C2_5  and  C3_6 
ROOT
HETATM    1  C1  UNL     1      26.206  10.660   8.825  1.00  0.00     0.179 C 
HETATM    2  N1  UNL     1      25.458   9.639   9.511  1.00  0.00    -0.283 N 
HETATM    3  N2  UNL     1      24.127   9.540   9.471  1.00  0.00    -0.296 N 
ATOM      4  H2  UNL     1      23.507  10.166   8.958  1.00  0.00     0.187 HD
HETATM    5  C2  UNL     1      23.732   8.494  10.206  1.00  0.00     0.068 A 
HETATM    6  C7  UNL     1      24.878   7.937  10.713  1.00  0.00     0.079 A 
HETATM    7  C8  UNL     1      25.992   8.663  10.275  1.00  0.00     0.134 A 
HETATM    8  N3  UNL     1      27.354   8.421  10.569  1.00  0.00    -0.081 NA
ENDROOT
BRANCH   5   9
HETATM    9  C3  UNL     1      22.342   8.064  10.403  1.00  0.00     0.033 A 
HETATM   10  C4  UNL     1      21.797   7.277  11.360  1.00  0.00     0.021 A 
HETATM   11  C5  UNL     1      20.477   7.039  11.305  1.00  0.00     0.008 A 
HETATM   12  C6  UNL     1      19.782   7.616  10.274  1.00  0.00     0.050 A 
HETATM   13  S1  UNL     1      20.996   8.467   9.427  1.00  0.00    -0.100 SA
ENDBRANCH   5   9
TORSDOF 1
ENDMDL
