MODEL 9
REMARK VINA RESULT: -5.046236543      2.806      5.060
REMARK  1 active torsions:
REMARK  status: ('A' for Active; 'I' for Inactive)
REMARK    1  A    between atoms: C2_5  and  C3_6 
ROOT
HETATM    1  C1  UNL     1      27.226   7.964  10.913  1.00  0.00     0.179 C 
HETATM    2  N1  UNL     1      25.926   8.379  10.452  1.00  0.00    -0.283 N 
HETATM    3  N2  UNL     1      24.785   7.792  10.819  1.00  0.00    -0.296 N 
ATOM      4  H2  UNL     1      24.712   6.999  11.456  1.00  0.00     0.187 HD
HETATM    5  C2  UNL     1      23.753   8.403  10.226  1.00  0.00     0.068 A 
HETATM    6  C7  UNL     1      24.299   9.405   9.466  1.00  0.00     0.079 A 
HETATM    7  C8  UNL     1      25.692   9.400   9.601  1.00  0.00     0.134 A 
HETATM    8  N3  UNL     1      26.626  10.267   8.988  1.00  0.00    -0.081 NA
ENDROOT
BRANCH   5   9
HETATM    9  C3  UNL     1      22.340   8.042  10.385  1.00  0.00     0.033 A 
HETATM   10  C4  UNL     1      21.733   7.272  11.318  1.00  0.00     0.021 A 
HETATM   11  C5  UNL     1      20.404   7.103  11.229  1.00  0.00     0.008 A 
HETATM   12  C6  UNL     1      19.763   7.728  10.190  1.00  0.00     0.050 A 
HETATM   13  S1  UNL     1      21.040   8.526   9.383  1.00  0.00    -0.100 SA
ENDBRANCH   5   9
TORSDOF 1
ENDMDL
