MODEL 2
REMARK VINA RESULT: -5.559136783      1.133      1.652
REMARK  1 active torsions:
REMARK  status: ('A' for Active; 'I' for Inactive)
REMARK    1  A    between atoms: C2_5  and  C3_6 
ROOT
HETATM    1  C1  UNL     1      19.888   8.685   8.082  1.00  0.00     0.179 C 
HETATM    2  N1  UNL     1      20.915   8.388   9.047  1.00  0.00    -0.283 N 
HETATM    3  N2  UNL     1      22.219   8.560   8.821  1.00  0.00    -0.296 N 
ATOM      4  H2  UNL     1      22.622   8.915   7.955  1.00  0.00     0.187 HD
HETATM    5  C2  UNL     1      22.915   8.196   9.904  1.00  0.00     0.068 A 
HETATM    6  C7  UNL     1      21.986   7.786  10.826  1.00  0.00     0.079 A 
HETATM    7  C8  UNL     1      20.699   7.904  10.288  1.00  0.00     0.134 A 
HETATM    8  N3  UNL     1      19.468   7.587  10.909  1.00  0.00    -0.081 NA
ENDROOT
BRANCH   5   9
HETATM    9  C3  UNL     1      24.376   8.243  10.037  1.00  0.00     0.033 A 
HETATM   10  C4  UNL     1      25.209   7.498  10.800  1.00  0.00     0.021 A 
HETATM   11  C5  UNL     1      26.525   7.753  10.731  1.00  0.00     0.008 A 
HETATM   12  C6  UNL     1      26.923   8.757   9.885  1.00  0.00     0.050 A 
HETATM   13  S1  UNL     1      25.446   9.301   9.223  1.00  0.00    -0.100 SA
ENDBRANCH   5   9
TORSDOF 1
ENDMDL
