MODEL 3
REMARK VINA RESULT: -5.497707090      0.886      1.129
REMARK  1 active torsions:
REMARK  status: ('A' for Active; 'I' for Inactive)
REMARK    1  A    between atoms: C2_5  and  C3_6 
ROOT
HETATM    1  C1  UNL     1      19.348   7.546  10.896  1.00  0.00     0.179 C 
HETATM    2  N1  UNL     1      20.528   7.927  10.167  1.00  0.00    -0.283 N 
HETATM    3  N2  UNL     1      21.762   7.879  10.672  1.00  0.00    -0.296 N 
ATOM      4  H2  UNL     1      21.999   7.571  11.615  1.00  0.00     0.187 HD
HETATM    5  C2  UNL     1      22.642   8.296   9.754  1.00  0.00     0.068 A 
HETATM    6  C7  UNL     1      21.902   8.611   8.643  1.00  0.00     0.079 A 
HETATM    7  C8  UNL     1      20.545   8.379   8.895  1.00  0.00     0.134 A 
HETATM    8  N3  UNL     1      19.454   8.575   8.016  1.00  0.00    -0.081 NA
ENDROOT
BRANCH   5   9
HETATM    9  C3  UNL     1      24.095   8.383   9.940  1.00  0.00     0.033 A 
HETATM   10  C4  UNL     1      25.001   9.213   9.372  1.00  0.00     0.021 A 
HETATM   11  C5  UNL     1      26.289   9.077   9.725  1.00  0.00     0.008 A 
HETATM   12  C6  UNL     1      26.586   8.099  10.639  1.00  0.00     0.050 A 
HETATM   13  S1  UNL     1      25.058   7.412  10.968  1.00  0.00    -0.100 SA
ENDBRANCH   5   9
TORSDOF 1
ENDMDL
