MODEL 20
REMARK VINA RESULT: -4.600820625      3.041      5.624
REMARK  1 active torsions:
REMARK  status: ('A' for Active; 'I' for Inactive)
REMARK    1  A    between atoms: C2_5  and  C3_6 
ROOT
HETATM    1  C1  UNL     1      28.056   9.732   8.915  1.00  0.00     0.179 C 
HETATM    2  N1  UNL     1      26.975   9.048   9.575  1.00  0.00    -0.283 N 
HETATM    3  N2  UNL     1      25.692   9.188   9.238  1.00  0.00    -0.296 N 
ATOM      4  H2  UNL     1      25.343   9.784   8.488  1.00  0.00     0.187 HD
HETATM    5  C2  UNL     1      24.932   8.427  10.034  1.00  0.00     0.068 A 
HETATM    6  C7  UNL     1      25.799   7.799  10.891  1.00  0.00     0.079 A 
HETATM    7  C8  UNL     1      27.113   8.190  10.608  1.00  0.00     0.134 A 
HETATM    8  N3  UNL     1      28.300   7.776  11.256  1.00  0.00    -0.081 NA
ENDROOT
BRANCH   5   9
HETATM    9  C3  UNL     1      23.470   8.315   9.969  1.00  0.00     0.033 A 
HETATM   10  C4  UNL     1      22.585   7.868  10.890  1.00  0.00     0.021 A 
HETATM   11  C5  UNL     1      21.282   7.873  10.568  1.00  0.00     0.008 A 
HETATM   12  C6  UNL     1      20.950   8.333   9.319  1.00  0.00     0.050 A 
HETATM   13  S1  UNL     1      22.467   8.741   8.650  1.00  0.00    -0.100 SA
ENDBRANCH   5   9
TORSDOF 1
ENDMDL
