MODEL 1
REMARK VINA RESULT: -5.668279302      0.000      0.000
REMARK  1 active torsions:
REMARK  status: ('A' for Active; 'I' for Inactive)
REMARK    1  A    between atoms: C2_5  and  C3_6 
ROOT
HETATM    1  C1  UNL     1      19.331   7.558  10.913  1.00  0.00     0.179 C 
HETATM    2  N1  UNL     1      20.523   7.920  10.192  1.00  0.00    -0.283 N 
HETATM    3  N2  UNL     1      21.752   7.851  10.707  1.00  0.00    -0.296 N 
ATOM      4  H2  UNL     1      21.976   7.539  11.652  1.00  0.00     0.187 HD
HETATM    5  C2  UNL     1      22.646   8.253   9.796  1.00  0.00     0.068 A 
HETATM    6  C7  UNL     1      21.920   8.579   8.679  1.00  0.00     0.079 A 
HETATM    7  C8  UNL     1      20.557   8.371   8.921  1.00  0.00     0.134 A 
HETATM    8  N3  UNL     1      19.476   8.584   8.033  1.00  0.00    -0.081 NA
ENDROOT
BRANCH   5   9
HETATM    9  C3  UNL     1      24.099   8.315   9.992  1.00  0.00     0.033 A 
HETATM   10  C4  UNL     1      24.894   7.648  10.860  1.00  0.00     0.021 A 
HETATM   11  C5  UNL     1      26.212   7.898  10.828  1.00  0.00     0.008 A 
HETATM   12  C6  UNL     1      26.651   8.818   9.910  1.00  0.00     0.050 A 
HETATM   13  S1  UNL     1      25.208   9.293   9.131  1.00  0.00    -0.100 SA
ENDBRANCH   5   9
TORSDOF 1
ENDMDL
