MODEL 5
REMARK VINA RESULT: -5.298855541      3.098      5.107
REMARK  1 active torsions:
REMARK  status: ('A' for Active; 'I' for Inactive)
REMARK    1  A    between atoms: C2_5  and  C3_6 
ROOT
HETATM    1  C1  UNL     1      25.469  12.169   8.761  1.00  0.00     0.179 C 
HETATM    2  N1  UNL     1      25.064  10.851   9.177  1.00  0.00    -0.283 N 
HETATM    3  N2  UNL     1      23.804  10.514   9.456  1.00  0.00    -0.296 N 
ATOM      4  H2  UNL     1      23.003  11.144   9.406  1.00  0.00     0.187 HD
HETATM    5  C2  UNL     1      23.750   9.226   9.812  1.00  0.00     0.068 A 
HETATM    6  C7  UNL     1      25.040   8.765   9.743  1.00  0.00     0.079 A 
HETATM    7  C8  UNL     1      25.893   9.798   9.338  1.00  0.00     0.134 A 
HETATM    8  N3  UNL     1      27.293   9.741   9.144  1.00  0.00    -0.081 NA
ENDROOT
BRANCH   5   9
HETATM    9  C3  UNL     1      22.536   8.493  10.190  1.00  0.00     0.033 A 
HETATM   10  C4  UNL     1      22.315   7.635  11.213  1.00  0.00     0.021 A 
HETATM   11  C5  UNL     1      21.092   7.096  11.332  1.00  0.00     0.008 A 
HETATM   12  C6  UNL     1      20.156   7.460  10.398  1.00  0.00     0.050 A 
HETATM   13  S1  UNL     1      21.021   8.539   9.396  1.00  0.00    -0.100 SA
ENDBRANCH   5   9
TORSDOF 1
ENDMDL
