MODEL 13
REMARK VINA RESULT: -10.287712616      1.885      2.772
REMARK  1 active torsions:
REMARK  status: ('A' for Active; 'I' for Inactive)
REMARK    1  A    between atoms: C15_20  and  O2_21 
ROOT
HETATM    1  C1  UNL     1      22.399   5.036  17.396  1.00  0.00     0.051 C 
HETATM    2  C2  UNL     1      22.597   6.288  16.613  1.00  0.00    -0.023 A 
HETATM    3  C3  UNL     1      22.644   7.471  17.283  1.00  0.00    -0.010 A 
HETATM    4  C4  UNL     1      22.527   7.472  18.668  1.00  0.00     0.030 A 
HETATM    5  C5  UNL     1      22.591   8.646  19.376  1.00  0.00     0.092 A 
HETATM    6  N1  UNL     1      22.769   9.786  18.697  1.00  0.00    -0.333 N 
ATOM      7  H1  UNL     1      22.820  10.667  19.209  1.00  0.00     0.168 HD
HETATM    8  C6  UNL     1      22.883   9.797  17.339  1.00  0.00     0.256 A 
HETATM    9  O1  UNL     1      23.051  10.913  16.809  1.00  0.00    -0.267 OA
HETATM   10  C7  UNL     1      22.827   8.657  16.563  1.00  0.00     0.050 A 
HETATM   11  C8  UNL     1      22.955   8.637  15.194  1.00  0.00    -0.032 A 
HETATM   12  C9  UNL     1      23.053   9.877  14.430  1.00  0.00     0.050 C 
HETATM   13  C10 UNL     1      22.908   7.423  14.537  1.00  0.00     0.011 A 
HETATM   14  C11 UNL     1      22.727   6.238  15.239  1.00  0.00     0.051 A 
HETATM   15  N2  UNL     1      22.725   5.177  14.408  1.00  0.00    -0.354 N 
ATOM     16  H2  UNL     1      22.608   4.199  14.671  1.00  0.00     0.166 HD
HETATM   17  C12 UNL     1      22.905   5.653  13.172  1.00  0.00     0.044 A 
HETATM   18  C13 UNL     1      22.999   5.009  11.935  1.00  0.00     0.033 A 
HETATM   19  C14 UNL     1      23.206   5.714  10.777  1.00  0.00     0.039 A 
HETATM   20  C15 UNL     1      23.323   7.082  10.837  1.00  0.00     0.066 A 
HETATM   21  C16 UNL     1      23.234   7.763  12.063  1.00  0.00     0.051 A 
HETATM   22  C17 UNL     1      23.027   7.035  13.195  1.00  0.00     0.006 A 
ENDROOT
BRANCH  20  23
HETATM   23  O2  UNL     1      23.532   7.829   9.705  1.00  0.00    -0.361 OA
ATOM     24  H2  UNL     1      23.443   7.449   8.839  1.00  0.00     0.217 HD
ENDBRANCH  20  23
TORSDOF 1
ENDMDL
