MODEL 2
REMARK VINA RESULT: -10.794706466      2.376      6.226
REMARK  1 active torsions:
REMARK  status: ('A' for Active; 'I' for Inactive)
REMARK    1  A    between atoms: C15_20  and  O2_21 
ROOT
HETATM    1  C1  UNL     1      23.105   9.948  15.899  1.00  0.00     0.051 C 
HETATM    2  C2  UNL     1      23.053   8.983  14.764  1.00  0.00    -0.023 A 
HETATM    3  C3  UNL     1      23.150   9.469  13.497  1.00  0.00    -0.010 A 
HETATM    4  C4  UNL     1      23.316  10.835  13.304  1.00  0.00     0.030 A 
HETATM    5  C5  UNL     1      23.439  11.355  12.039  1.00  0.00     0.092 A 
HETATM    6  N1  UNL     1      23.395  10.510  11.001  1.00  0.00    -0.333 N 
ATOM      7  H1  UNL     1      23.486  10.880  10.055  1.00  0.00     0.168 HD
HETATM    8  C6  UNL     1      23.232   9.168  11.179  1.00  0.00     0.256 A 
HETATM    9  O1  UNL     1      23.210   8.474  10.144  1.00  0.00    -0.267 OA
HETATM   10  C7  UNL     1      23.100   8.577  12.419  1.00  0.00     0.050 A 
HETATM   11  C8  UNL     1      22.951   7.226  12.628  1.00  0.00    -0.032 A 
HETATM   12  C9  UNL     1      22.806   6.304  11.507  1.00  0.00     0.050 C 
HETATM   13  C10 UNL     1      22.859   6.759  13.924  1.00  0.00     0.011 A 
HETATM   14  C11 UNL     1      22.907   7.632  15.004  1.00  0.00     0.051 A 
HETATM   15  N2  UNL     1      22.811   6.965  16.172  1.00  0.00    -0.354 N 
ATOM     16  H2  UNL     1      22.818   7.373  17.107  1.00  0.00     0.166 HD
HETATM   17  C12 UNL     1      22.705   5.668  15.870  1.00  0.00     0.044 A 
HETATM   18  C13 UNL     1      22.592   4.533  16.679  1.00  0.00     0.033 A 
HETATM   19  C14 UNL     1      22.512   3.276  16.138  1.00  0.00     0.039 A 
HETATM   20  C15 UNL     1      22.542   3.130  14.772  1.00  0.00     0.066 A 
HETATM   21  C16 UNL     1      22.654   4.248  13.927  1.00  0.00     0.051 A 
HETATM   22  C17 UNL     1      22.731   5.484  14.495  1.00  0.00     0.006 A 
ENDROOT
BRANCH  20  23
HETATM   23  O2  UNL     1      22.465   1.892  14.185  1.00  0.00    -0.361 OA
ATOM     24  H2  UNL     1      23.035   1.652  13.463  1.00  0.00     0.217 HD
ENDBRANCH  20  23
TORSDOF 1
ENDMDL
