MODEL 6
REMARK VINA RESULT: -10.465776503      1.434      5.740
REMARK  1 active torsions:
REMARK  status: ('A' for Active; 'I' for Inactive)
REMARK    1  A    between atoms: C15_20  and  O2_21 
ROOT
HETATM    1  C1  UNL     1      22.739   3.818  12.015  1.00  0.00     0.051 C 
HETATM    2  C2  UNL     1      22.753   5.057  12.844  1.00  0.00    -0.023 A 
HETATM    3  C3  UNL     1      22.861   6.257  12.212  1.00  0.00    -0.010 A 
HETATM    4  C4  UNL     1      22.933   6.290  10.825  1.00  0.00     0.030 A 
HETATM    5  C5  UNL     1      23.021   7.486  10.156  1.00  0.00     0.092 A 
HETATM    6  N1  UNL     1      23.035   8.614  10.876  1.00  0.00    -0.333 N 
ATOM      7  H1  UNL     1      23.099   9.511  10.394  1.00  0.00     0.168 HD
HETATM    8  C6  UNL     1      22.966   8.593  12.238  1.00  0.00     0.256 A 
HETATM    9  O1  UNL     1      22.982   9.702  12.807  1.00  0.00    -0.267 OA
HETATM   10  C7  UNL     1      22.878   7.430  12.975  1.00  0.00     0.050 A 
HETATM   11  C8  UNL     1      22.791   7.380  14.347  1.00  0.00    -0.032 A 
HETATM   12  C9  UNL     1      22.901   8.592  15.151  1.00  0.00     0.050 C 
HETATM   13  C10 UNL     1      22.678   6.150  14.963  1.00  0.00     0.011 A 
HETATM   14  C11 UNL     1      22.660   4.977  14.219  1.00  0.00     0.051 A 
HETATM   15  N2  UNL     1      22.531   3.898  15.017  1.00  0.00    -0.354 N 
ATOM     16  H2  UNL     1      22.494   2.923  14.719  1.00  0.00     0.166 HD
HETATM   17  C12 UNL     1      22.462   4.350  16.272  1.00  0.00     0.044 A 
HETATM   18  C13 UNL     1      22.313   3.683  17.491  1.00  0.00     0.033 A 
HETATM   19  C14 UNL     1      22.248   4.369  18.677  1.00  0.00     0.039 A 
HETATM   20  C15 UNL     1      22.333   5.740  18.664  1.00  0.00     0.066 A 
HETATM   21  C16 UNL     1      22.484   6.445  17.457  1.00  0.00     0.051 A 
HETATM   22  C17 UNL     1      22.545   5.735  16.296  1.00  0.00     0.006 A 
ENDROOT
BRANCH  20  23
HETATM   23  O2  UNL     1      22.272   6.470  19.825  1.00  0.00    -0.361 OA
ATOM     24  H2  UNL     1      23.033   6.932  20.158  1.00  0.00     0.217 HD
ENDBRANCH  20  23
TORSDOF 1
ENDMDL
