MODEL 12
REMARK VINA RESULT: -10.300330107      1.427      1.949
REMARK  1 active torsions:
REMARK  status: ('A' for Active; 'I' for Inactive)
REMARK    1  A    between atoms: C15_20  and  O2_21 
ROOT
HETATM    1  C1  UNL     1      22.324   3.802  16.930  1.00  0.00     0.051 C 
HETATM    2  C2  UNL     1      22.499   5.189  16.412  1.00  0.00    -0.023 A 
HETATM    3  C3  UNL     1      22.493   6.218  17.302  1.00  0.00    -0.010 A 
HETATM    4  C4  UNL     1      22.346   5.944  18.656  1.00  0.00     0.030 A 
HETATM    5  C5  UNL     1      22.357   6.958  19.582  1.00  0.00     0.092 A 
HETATM    6  N1  UNL     1      22.513   8.213  19.144  1.00  0.00    -0.333 N 
ATOM      7  H1  UNL     1      22.524   8.978  19.819  1.00  0.00     0.168 HD
HETATM    8  C6  UNL     1      22.657   8.494  17.817  1.00  0.00     0.256 A 
HETATM    9  O1  UNL     1      22.800   9.696  17.521  1.00  0.00    -0.267 OA
HETATM   10  C7  UNL     1      22.654   7.527  16.832  1.00  0.00     0.050 A 
HETATM   11  C8  UNL     1      22.813   7.779  15.490  1.00  0.00    -0.032 A 
HETATM   12  C9  UNL     1      22.888   9.147  14.986  1.00  0.00     0.050 C 
HETATM   13  C10 UNL     1      22.819   6.717  14.608  1.00  0.00     0.011 A 
HETATM   14  C11 UNL     1      22.661   5.413  15.059  1.00  0.00     0.051 A 
HETATM   15  N2  UNL     1      22.711   4.536  14.037  1.00  0.00    -0.354 N 
ATOM     16  H2  UNL     1      22.619   3.522  14.101  1.00  0.00     0.166 HD
HETATM   17  C12 UNL     1      22.903   5.249  12.923  1.00  0.00     0.044 A 
HETATM   18  C13 UNL     1      23.044   4.863  11.588  1.00  0.00     0.033 A 
HETATM   19  C14 UNL     1      23.254   5.787  10.596  1.00  0.00     0.039 A 
HETATM   20  C15 UNL     1      23.326   7.119  10.925  1.00  0.00     0.066 A 
HETATM   21  C16 UNL     1      23.188   7.545  12.257  1.00  0.00     0.051 A 
HETATM   22  C17 UNL     1      22.980   6.602  13.220  1.00  0.00     0.006 A 
ENDROOT
BRANCH  20  23
HETATM   23  O2  UNL     1      23.536   8.080   9.967  1.00  0.00    -0.361 OA
ATOM     24  H2  UNL     1      22.963   8.158   9.213  1.00  0.00     0.217 HD
ENDBRANCH  20  23
TORSDOF 1
ENDMDL
