MODEL 7
REMARK VINA RESULT: -10.386519902      2.164      6.499
REMARK  1 active torsions:
REMARK  status: ('A' for Active; 'I' for Inactive)
REMARK    1  A    between atoms: C15_20  and  O2_21 
ROOT
HETATM    1  C1  UNL     1      23.086   8.912  14.147  1.00  0.00     0.051 C 
HETATM    2  C2  UNL     1      22.917   7.439  14.305  1.00  0.00    -0.023 A 
HETATM    3  C3  UNL     1      22.945   6.661  13.190  1.00  0.00    -0.010 A 
HETATM    4  C4  UNL     1      23.149   7.256  11.951  1.00  0.00     0.030 A 
HETATM    5  C5  UNL     1      23.203   6.497  10.808  1.00  0.00     0.092 A 
HETATM    6  N1  UNL     1      23.055   5.171  10.922  1.00  0.00    -0.333 N 
ATOM      7  H1  UNL     1      23.093   4.592  10.083  1.00  0.00     0.168 HD
HETATM    8  C6  UNL     1      22.853   4.577  12.132  1.00  0.00     0.256 A 
HETATM    9  O1  UNL     1      22.733   3.336  12.123  1.00  0.00    -0.267 OA
HETATM   10  C7  UNL     1      22.786   5.276  13.320  1.00  0.00     0.050 A 
HETATM   11  C8  UNL     1      22.600   4.701  14.555  1.00  0.00    -0.032 A 
HETATM   12  C9  UNL     1      22.342   3.271  14.687  1.00  0.00     0.050 C 
HETATM   13  C10 UNL     1      22.580   5.513  15.672  1.00  0.00     0.011 A 
HETATM   14  C11 UNL     1      22.737   6.889  15.558  1.00  0.00     0.051 A 
HETATM   15  N2  UNL     1      22.697   7.483  16.768  1.00  0.00    -0.354 N 
ATOM     16  H2  UNL     1      22.785   8.482  16.957  1.00  0.00     0.166 HD
HETATM   17  C12 UNL     1      22.521   6.514  17.670  1.00  0.00     0.044 A 
HETATM   18  C13 UNL     1      22.421   6.552  19.064  1.00  0.00     0.033 A 
HETATM   19  C14 UNL     1      22.255   5.407  19.799  1.00  0.00     0.039 A 
HETATM   20  C15 UNL     1      22.184   4.198  19.150  1.00  0.00     0.066 A 
HETATM   21  C16 UNL     1      22.279   4.121  17.750  1.00  0.00     0.051 A 
HETATM   22  C17 UNL     1      22.444   5.277  17.048  1.00  0.00     0.006 A 
ENDROOT
BRANCH  20  23
HETATM   23  O2  UNL     1      22.019   3.025  19.843  1.00  0.00    -0.361 OA
ATOM     24  H2  UNL     1      21.416   2.964  20.575  1.00  0.00     0.217 HD
ENDBRANCH  20  23
TORSDOF 1
ENDMDL
