MODEL 1
REMARK VINA RESULT: -11.006873339      0.000      0.000
REMARK  12 active torsions:
REMARK  status: ('A' for Active; 'I' for Inactive)
REMARK    1  A    between atoms: C2_2  and  C4_4 
REMARK    2  A    between atoms: C4_4  and  N1_5 
REMARK       I    between atoms: N1_5  and  C5_7 
REMARK    3  A    between atoms: C5_7  and  C6_9 
REMARK    4  A    between atoms: C6_9  and  C7_10 
REMARK    5  A    between atoms: C6_9  and  C35_52 
REMARK    6  A    between atoms: C7_10  and  C8_11 
REMARK    7  A    between atoms: C8_11  and  O2_12 
REMARK    8  A    between atoms: C8_11  and  C9_14 
REMARK    9  A    between atoms: C18_24  and  C19_25 
REMARK   10  A    between atoms: C25_33  and  O4_34 
REMARK   11  A    between atoms: C30_40  and  N3_41 
REMARK   12  A    between atoms: N3_41  and  S1_43 
ROOT
HETATM    1  C9  UNL     1     -11.668 -21.979 -29.958  1.00  0.00     0.137 C 
HETATM    2  C10 UNL     1     -12.423 -21.233 -31.038  1.00  0.00     0.195 C 
HETATM    3  O3  UNL     1     -11.580 -20.886 -32.095  1.00  0.00    -0.385 OA
HETATM    4  C11 UNL     1     -12.297 -20.782 -33.285  1.00  0.00     0.206 C 
HETATM    5  C12 UNL     1     -12.824 -22.086 -33.807  1.00  0.00    -0.034 A 
HETATM    6  C13 UNL     1     -14.233 -22.134 -33.639  1.00  0.00     0.009 A 
HETATM    7  C14 UNL     1     -14.996 -23.208 -33.994  1.00  0.00     0.001 A 
HETATM    8  C15 UNL     1     -14.302 -24.251 -34.531  1.00  0.00     0.009 A 
HETATM    9  C16 UNL     1     -12.890 -24.259 -34.722  1.00  0.00    -0.030 A 
HETATM   10  C17 UNL     1     -12.146 -23.149 -34.350  1.00  0.00     0.019 A 
HETATM   11  C18 UNL     1     -12.488 -25.561 -35.299  1.00  0.00     0.150 C 
HETATM   12  N2  UNL     1     -11.419 -26.329 -34.768  1.00  0.00    -0.358 N 
ATOM     13  H2  UNL     1     -11.178 -27.128 -35.353  1.00  0.00     0.162 HD
HETATM   14  C25 UNL     1     -10.628 -26.234 -33.631  1.00  0.00     0.147 C 
HETATM   15  C26 UNL     1     -10.809 -26.020 -32.190  1.00  0.00     0.018 A 
HETATM   16  C27 UNL     1     -11.658 -25.183 -31.492  1.00  0.00     0.033 A 
HETATM   17  C28 UNL     1     -11.544 -25.138 -30.118  1.00  0.00     0.035 A 
HETATM   18  C29 UNL     1     -10.585 -25.941 -29.442  1.00  0.00     0.047 A 
HETATM   19  C30 UNL     1      -9.733 -26.782 -30.103  1.00  0.00     0.046 A 
HETATM   20  C33 UNL     1      -9.864 -26.800 -31.456  1.00  0.00     0.046 A 
HETATM   21  C34 UNL     1     -12.237 -24.286 -29.119  1.00  0.00     0.252 C 
HETATM   22  O7  UNL     1     -12.645 -24.903 -28.052  1.00  0.00    -0.268 OA
HETATM   23  N4  UNL     1     -12.500 -22.881 -29.190  1.00  0.00    -0.348 N 
ATOM     24  H4  UNL     1     -13.300 -22.503 -28.683  1.00  0.00     0.163 HD
ENDROOT
BRANCH   1  25
HETATM   25  C8  UNL     1     -11.012 -20.938 -29.081  1.00  0.00     0.143 C 
BRANCH  25  26
HETATM   26  C7  UNL     1     -12.009 -19.944 -28.641  1.00  0.00     0.048 C 
BRANCH  26  27
HETATM   27  C6  UNL     1     -11.460 -18.759 -27.868  1.00  0.00     0.083 C 
BRANCH  27  28
HETATM   28  C5  UNL     1     -11.057 -19.333 -26.533  1.00  0.00     0.222 C 
HETATM   29  N1  UNL     1      -9.834 -19.014 -25.894  1.00  0.00    -0.360 N 
ATOM     30  H1  UNL     1      -9.195 -18.369 -26.359  1.00  0.00     0.162 HD
HETATM   31  O1  UNL     1     -11.808 -20.147 -25.901  1.00  0.00    -0.273 OA
BRANCH  29  32
HETATM   32  C4  UNL     1      -9.448 -19.564 -24.608  1.00  0.00     0.126 C 
BRANCH  32  33
HETATM   33  C2  UNL     1      -8.099 -19.091 -24.138  1.00  0.00    -0.005 C 
HETATM   34  C1  UNL     1      -7.057 -20.171 -24.453  1.00  0.00     0.011 C 
HETATM   35  C3  UNL     1      -7.650 -17.841 -24.876  1.00  0.00     0.011 C 
ENDBRANCH  32  33
ENDBRANCH  29  32
ENDBRANCH  27  28
BRANCH  27  36
HETATM   36  C35 UNL     1     -12.570 -17.791 -27.592  1.00  0.00    -0.010 C 
HETATM   37  C36 UNL     1     -12.289 -16.408 -28.148  1.00  0.00     0.010 C 
HETATM   38  C37 UNL     1     -13.905 -18.270 -28.155  1.00  0.00     0.010 C 
ENDBRANCH  27  36
ENDBRANCH  26  27
ENDBRANCH  25  26
BRANCH  25  39
HETATM   39  O2  UNL     1      -9.910 -20.472 -29.766  1.00  0.00    -0.393 OA
ATOM     40  H2  UNL     1      -9.441 -21.091 -30.314  1.00  0.00     0.210 HD
ENDBRANCH  25  39
ENDBRANCH   1  25
BRANCH  19  41
HETATM   41  N3  UNL     1      -8.791 -27.563 -29.384  1.00  0.00    -0.281 N 
HETATM   42  C31 UNL     1      -8.987 -27.689 -27.954  1.00  0.00     0.169 C 
BRANCH  41  43
HETATM   43  S1  UNL     1      -7.463 -28.355 -30.126  1.00  0.00     0.228 S 
HETATM   44  C32 UNL     1      -6.106 -27.174 -30.122  1.00  0.00     0.186 C 
HETATM   45  O5  UNL     1      -7.760 -28.597 -31.578  1.00  0.00    -0.206 OA
HETATM   46  O6  UNL     1      -7.121 -29.589 -29.386  1.00  0.00    -0.206 OA
ENDBRANCH  41  43
ENDBRANCH  19  41
BRANCH  14  47
HETATM   47  O4  UNL     1      -9.350 -26.394 -34.040  1.00  0.00    -0.346 OA
ATOM     48  H4  UNL     1      -8.970 -27.061 -33.479  1.00  0.00     0.219 HD
ENDBRANCH  14  47
BRANCH  11  49
HETATM   49  C19 UNL     1     -12.389 -25.366 -36.792  1.00  0.00    -0.031 A 
HETATM   50  C20 UNL     1     -12.109 -24.141 -37.352  1.00  0.00     0.009 A 
HETATM   51  C21 UNL     1     -12.021 -23.969 -38.720  1.00  0.00     0.001 A 
HETATM   52  C22 UNL     1     -12.219 -25.049 -39.519  1.00  0.00     0.000 A 
HETATM   53  C23 UNL     1     -12.500 -26.283 -38.994  1.00  0.00     0.001 A 
HETATM   54  C24 UNL     1     -12.585 -26.437 -37.614  1.00  0.00     0.009 A 
ENDBRANCH  11  49
TORSDOF 12
ENDMDL
