MODEL 3
REMARK VINA RESULT: -10.897578299      0.659      1.065
REMARK  12 active torsions:
REMARK  status: ('A' for Active; 'I' for Inactive)
REMARK    1  A    between atoms: C2_2  and  C4_4 
REMARK    2  A    between atoms: C4_4  and  N1_5 
REMARK       I    between atoms: N1_5  and  C5_7 
REMARK    3  A    between atoms: C5_7  and  C6_9 
REMARK    4  A    between atoms: C6_9  and  C7_10 
REMARK    5  A    between atoms: C6_9  and  C35_52 
REMARK    6  A    between atoms: C7_10  and  C8_11 
REMARK    7  A    between atoms: C8_11  and  O2_12 
REMARK    8  A    between atoms: C8_11  and  C9_14 
REMARK    9  A    between atoms: C18_24  and  C19_25 
REMARK   10  A    between atoms: C25_33  and  O4_34 
REMARK   11  A    between atoms: C30_40  and  N3_41 
REMARK   12  A    between atoms: N3_41  and  S1_43 
ROOT
HETATM    1  C9  UNL     1     -11.248 -21.938 -30.002  1.00  0.00     0.137 C 
HETATM    2  C10 UNL     1     -12.003 -21.175 -31.070  1.00  0.00     0.195 C 
HETATM    3  O3  UNL     1     -11.182 -20.888 -32.162  1.00  0.00    -0.385 OA
HETATM    4  C11 UNL     1     -11.934 -20.769 -33.328  1.00  0.00     0.206 C 
HETATM    5  C12 UNL     1     -12.542 -22.055 -33.807  1.00  0.00    -0.034 A 
HETATM    6  C13 UNL     1     -13.945 -22.030 -33.590  1.00  0.00     0.009 A 
HETATM    7  C14 UNL     1     -14.771 -23.071 -33.899  1.00  0.00     0.001 A 
HETATM    8  C15 UNL     1     -14.148 -24.156 -34.439  1.00  0.00     0.009 A 
HETATM    9  C16 UNL     1     -12.746 -24.237 -34.677  1.00  0.00    -0.030 A 
HETATM   10  C17 UNL     1     -11.936 -23.159 -34.353  1.00  0.00     0.019 A 
HETATM   11  C18 UNL     1     -12.429 -25.567 -35.243  1.00  0.00     0.150 C 
HETATM   12  N2  UNL     1     -11.380 -26.378 -34.734  1.00  0.00    -0.358 N 
ATOM     13  H2  UNL     1     -11.199 -27.198 -35.311  1.00  0.00     0.162 HD
HETATM   14  C25 UNL     1     -10.546 -26.302 -33.627  1.00  0.00     0.147 C 
HETATM   15  C26 UNL     1     -10.665 -26.054 -32.184  1.00  0.00     0.018 A 
HETATM   16  C27 UNL     1     -11.448 -25.164 -31.474  1.00  0.00     0.033 A 
HETATM   17  C28 UNL     1     -11.285 -25.102 -30.106  1.00  0.00     0.035 A 
HETATM   18  C29 UNL     1     -10.343 -25.939 -29.448  1.00  0.00     0.047 A 
HETATM   19  C30 UNL     1      -9.556 -26.832 -30.121  1.00  0.00     0.046 A 
HETATM   20  C33 UNL     1      -9.735 -26.867 -31.469  1.00  0.00     0.046 A 
HETATM   21  C34 UNL     1     -11.899 -24.198 -29.100  1.00  0.00     0.252 C 
HETATM   22  O7  UNL     1     -12.300 -24.776 -28.009  1.00  0.00    -0.268 OA
HETATM   23  N4  UNL     1     -12.096 -22.784 -29.190  1.00  0.00    -0.348 N 
ATOM     24  H4  UNL     1     -12.858 -22.358 -28.663  1.00  0.00     0.163 HD
ENDROOT
BRANCH   1  25
HETATM   25  C8  UNL     1     -10.511 -20.915 -29.169  1.00  0.00     0.143 C 
BRANCH  25  26
HETATM   26  C7  UNL     1     -11.403 -20.374 -28.126  1.00  0.00     0.048 C 
BRANCH  26  27
HETATM   27  C6  UNL     1     -11.540 -18.863 -28.095  1.00  0.00     0.083 C 
BRANCH  27  28
HETATM   28  C5  UNL     1     -10.774 -18.438 -26.868  1.00  0.00     0.222 C 
HETATM   29  N1  UNL     1     -10.235 -19.361 -25.938  1.00  0.00    -0.360 N 
ATOM     30  H1  UNL     1     -10.374 -20.358 -26.105  1.00  0.00     0.162 HD
HETATM   31  O1  UNL     1     -10.568 -17.208 -26.599  1.00  0.00    -0.273 OA
BRANCH  29  32
HETATM   32  C4  UNL     1      -9.495 -18.952 -24.759  1.00  0.00     0.126 C 
BRANCH  32  33
HETATM   33  C2  UNL     1      -8.023 -18.764 -25.016  1.00  0.00    -0.005 C 
HETATM   34  C1  UNL     1      -7.594 -17.399 -24.463  1.00  0.00     0.011 C 
HETATM   35  C3  UNL     1      -7.186 -19.801 -24.286  1.00  0.00     0.011 C 
ENDBRANCH  32  33
ENDBRANCH  29  32
ENDBRANCH  27  28
BRANCH  27  36
HETATM   36  C35 UNL     1     -12.972 -18.501 -27.844  1.00  0.00    -0.010 C 
HETATM   37  C36 UNL     1     -13.333 -17.134 -28.395  1.00  0.00     0.010 C 
HETATM   38  C37 UNL     1     -13.937 -19.524 -28.435  1.00  0.00     0.010 C 
ENDBRANCH  27  36
ENDBRANCH  26  27
ENDBRANCH  25  26
BRANCH  25  39
HETATM   39  O2  UNL     1      -9.941 -20.017 -30.045  1.00  0.00    -0.393 OA
ATOM     40  H2  UNL     1      -9.691 -20.341 -30.902  1.00  0.00     0.210 HD
ENDBRANCH  25  39
ENDBRANCH   1  25
BRANCH  19  41
HETATM   41  N3  UNL     1      -8.629 -27.647 -29.419  1.00  0.00    -0.281 N 
HETATM   42  C31 UNL     1      -8.871 -27.862 -28.008  1.00  0.00     0.169 C 
BRANCH  41  43
HETATM   43  S1  UNL     1      -7.267 -28.377 -30.163  1.00  0.00     0.228 S 
HETATM   44  C32 UNL     1      -5.949 -27.153 -30.112  1.00  0.00     0.186 C 
HETATM   45  O5  UNL     1      -7.538 -28.592 -31.624  1.00  0.00    -0.206 OA
HETATM   46  O6  UNL     1      -6.894 -29.616 -29.448  1.00  0.00    -0.206 OA
ENDBRANCH  41  43
ENDBRANCH  19  41
BRANCH  14  47
HETATM   47  O4  UNL     1      -9.292 -26.533 -34.076  1.00  0.00    -0.346 OA
ATOM     48  H4  UNL     1      -8.835 -25.701 -34.033  1.00  0.00     0.219 HD
ENDBRANCH  14  47
BRANCH  11  49
HETATM   49  C19 UNL     1     -12.372 -25.404 -36.742  1.00  0.00    -0.031 A 
HETATM   50  C20 UNL     1     -12.594 -26.456 -37.601  1.00  0.00     0.009 A 
HETATM   51  C21 UNL     1     -12.540 -26.299 -38.972  1.00  0.00     0.001 A 
HETATM   52  C22 UNL     1     -12.259 -25.068 -39.469  1.00  0.00     0.000 A 
HETATM   53  C23 UNL     1     -12.033 -23.999 -38.642  1.00  0.00     0.001 A 
HETATM   54  C24 UNL     1     -12.092 -24.175 -37.263  1.00  0.00     0.009 A 
ENDBRANCH  11  49
TORSDOF 12
ENDMDL
