MODEL 2
REMARK VINA RESULT: -10.909902139      1.706      2.417
REMARK  12 active torsions:
REMARK  status: ('A' for Active; 'I' for Inactive)
REMARK    1  A    between atoms: C2_2  and  C4_4 
REMARK    2  A    between atoms: C4_4  and  N1_5 
REMARK       I    between atoms: N1_5  and  C5_7 
REMARK    3  A    between atoms: C5_7  and  C6_9 
REMARK    4  A    between atoms: C6_9  and  C7_10 
REMARK    5  A    between atoms: C6_9  and  C35_52 
REMARK    6  A    between atoms: C7_10  and  C8_11 
REMARK    7  A    between atoms: C8_11  and  O2_12 
REMARK    8  A    between atoms: C8_11  and  C9_14 
REMARK    9  A    between atoms: C18_24  and  C19_25 
REMARK   10  A    between atoms: C25_33  and  O4_34 
REMARK   11  A    between atoms: C30_40  and  N3_41 
REMARK   12  A    between atoms: N3_41  and  S1_43 
ROOT
HETATM    1  C9  UNL     1     -13.083 -21.859 -29.688  1.00  0.00     0.137 C 
HETATM    2  C10 UNL     1     -13.751 -21.172 -30.860  1.00  0.00     0.195 C 
HETATM    3  O3  UNL     1     -12.807 -20.715 -31.782  1.00  0.00    -0.385 OA
HETATM    4  C11 UNL     1     -13.354 -20.660 -33.062  1.00  0.00     0.206 C 
HETATM    5  C12 UNL     1     -13.659 -22.000 -33.664  1.00  0.00    -0.034 A 
HETATM    6  C13 UNL     1     -15.064 -22.199 -33.702  1.00  0.00     0.009 A 
HETATM    7  C14 UNL     1     -15.650 -23.338 -34.171  1.00  0.00     0.001 A 
HETATM    8  C15 UNL     1     -14.779 -24.291 -34.609  1.00  0.00     0.009 A 
HETATM    9  C16 UNL     1     -13.362 -24.147 -34.593  1.00  0.00    -0.030 A 
HETATM   10  C17 UNL     1     -12.801 -22.974 -34.111  1.00  0.00     0.019 A 
HETATM   11  C18 UNL     1     -12.746 -25.387 -35.116  1.00  0.00     0.150 C 
HETATM   12  N2  UNL     1     -11.687 -26.051 -34.441  1.00  0.00    -0.358 N 
ATOM     13  H2  UNL     1     -11.282 -26.808 -34.990  1.00  0.00     0.162 HD
HETATM   14  C25 UNL     1     -11.082 -25.900 -33.201  1.00  0.00     0.147 C 
HETATM   15  C26 UNL     1     -11.488 -25.737 -31.800  1.00  0.00     0.018 A 
HETATM   16  C27 UNL     1     -12.512 -25.009 -31.226  1.00  0.00     0.033 A 
HETATM   17  C28 UNL     1     -12.602 -24.983 -29.850  1.00  0.00     0.035 A 
HETATM   18  C29 UNL     1     -11.669 -25.697 -29.048  1.00  0.00     0.047 A 
HETATM   19  C30 UNL     1     -10.647 -26.429 -29.584  1.00  0.00     0.046 A 
HETATM   20  C33 UNL     1     -10.580 -26.431 -30.943  1.00  0.00     0.046 A 
HETATM   21  C34 UNL     1     -13.517 -24.230 -28.956  1.00  0.00     0.252 C 
HETATM   22  O7  UNL     1     -14.006 -24.910 -27.963  1.00  0.00    -0.268 OA
HETATM   23  N4  UNL     1     -13.915 -22.859 -29.054  1.00  0.00    -0.348 N 
ATOM     24  H4  UNL     1     -14.815 -22.578 -28.665  1.00  0.00     0.163 HD
ENDROOT
BRANCH   1  25
HETATM   25  C8  UNL     1     -12.673 -20.774 -28.718  1.00  0.00     0.143 C 
BRANCH  25  26
HETATM   26  C7  UNL     1     -11.538 -21.232 -27.896  1.00  0.00     0.048 C 
BRANCH  26  27
HETATM   27  C6  UNL     1     -11.699 -21.060 -26.396  1.00  0.00     0.083 C 
BRANCH  27  28
HETATM   28  C5  UNL     1     -11.102 -19.706 -26.105  1.00  0.00     0.222 C 
HETATM   29  N1  UNL     1      -9.756 -19.528 -25.700  1.00  0.00    -0.360 N 
ATOM     30  H1  UNL     1      -9.165 -20.353 -25.597  1.00  0.00     0.162 HD
HETATM   31  O1  UNL     1     -11.787 -18.635 -26.211  1.00  0.00    -0.273 OA
BRANCH  29  32
HETATM   32  C4  UNL     1      -9.182 -18.224 -25.424  1.00  0.00     0.126 C 
BRANCH  32  33
HETATM   33  C2  UNL     1      -7.732 -18.286 -25.021  1.00  0.00    -0.005 C 
HETATM   34  C1  UNL     1      -7.468 -17.215 -23.956  1.00  0.00     0.011 C 
HETATM   35  C3  UNL     1      -7.380 -19.618 -24.381  1.00  0.00     0.011 C 
ENDBRANCH  32  33
ENDBRANCH  29  32
ENDBRANCH  27  28
BRANCH  27  36
HETATM   36  C35 UNL     1     -10.839 -22.060 -25.687  1.00  0.00    -0.010 C 
HETATM   37  C36 UNL     1     -11.436 -22.511 -24.367  1.00  0.00     0.010 C 
HETATM   38  C37 UNL     1     -10.575 -23.298 -26.540  1.00  0.00     0.010 C 
ENDBRANCH  27  36
ENDBRANCH  26  27
ENDBRANCH  25  26
BRANCH  25  39
HETATM   39  O2  UNL     1     -13.815 -20.372 -28.059  1.00  0.00    -0.393 OA
ATOM     40  H2  UNL     1     -14.377 -19.746 -28.499  1.00  0.00     0.210 HD
ENDBRANCH  25  39
ENDBRANCH   1  25
BRANCH  19  41
HETATM   41  N3  UNL     1      -9.740 -27.124 -28.742  1.00  0.00    -0.281 N 
HETATM   42  C31 UNL     1      -8.329 -27.000 -29.042  1.00  0.00     0.169 C 
BRANCH  41  43
HETATM   43  S1  UNL     1     -10.237 -28.077 -27.406  1.00  0.00     0.228 S 
HETATM   44  C32 UNL     1      -8.982 -29.350 -27.200  1.00  0.00     0.186 C 
HETATM   45  O5  UNL     1     -11.492 -28.825 -27.753  1.00  0.00    -0.206 OA
HETATM   46  O6  UNL     1     -10.373 -27.237 -26.197  1.00  0.00    -0.206 OA
ENDBRANCH  41  43
ENDBRANCH  19  41
BRANCH  14  47
HETATM   47  O4  UNL     1      -9.749 -25.916 -33.422  1.00  0.00    -0.346 OA
ATOM     48  H4  UNL     1      -9.361 -26.384 -32.691  1.00  0.00     0.219 HD
ENDBRANCH  14  47
BRANCH  11  49
HETATM   49  C19 UNL     1     -12.455 -25.150 -36.578  1.00  0.00    -0.031 A 
HETATM   50  C20 UNL     1     -12.223 -23.891 -37.081  1.00  0.00     0.009 A 
HETATM   51  C21 UNL     1     -11.960 -23.680 -38.421  1.00  0.00     0.001 A 
HETATM   52  C22 UNL     1     -11.932 -24.756 -39.249  1.00  0.00     0.000 A 
HETATM   53  C23 UNL     1     -12.158 -26.024 -38.780  1.00  0.00     0.001 A 
HETATM   54  C24 UNL     1     -12.422 -26.216 -37.427  1.00  0.00     0.009 A 
ENDBRANCH  11  49
TORSDOF 12
ENDMDL
