MODEL 20
REMARK VINA RESULT: -6.233135906      2.505      3.086
REMARK  7 active torsions:
REMARK  status: ('A' for Active; 'I' for Inactive)
REMARK    1  A    between atoms: C2_2  and  C3_3 
REMARK    2  A    between atoms: C3_3  and  C4_4 
REMARK    3  A    between atoms: C4_4  and  C5_5 
REMARK    4  A    between atoms: C4_4  and  C12_21 
REMARK       I    between atoms: C5_5  and  N1_7 
REMARK    5  A    between atoms: N1_7  and  C6_9 
REMARK    6  A    between atoms: C9_12  and  S1_13 
REMARK    7  A    between atoms: S1_13  and  N2_14 
ROOT
HETATM    1  C6  UNL     1      -4.377   4.265  14.562  1.00  0.00     0.034 A 
HETATM    2  C7  UNL     1      -5.689   4.414  15.033  1.00  0.00     0.031 A 
HETATM    3  C8  UNL     1      -6.248   3.474  15.869  1.00  0.00     0.027 A 
HETATM    4  C9  UNL     1      -5.553   2.371  16.268  1.00  0.00     0.079 A 
HETATM    5  C10 UNL     1      -4.273   2.217  15.813  1.00  0.00     0.027 A 
HETATM    6  C11 UNL     1      -3.678   3.151  14.965  1.00  0.00     0.031 A 
ENDROOT
BRANCH   1   7
HETATM    7  N1  UNL     1      -3.882   5.258  13.705  1.00  0.00    -0.327 N 
HETATM    8  C5  UNL     1      -2.570   5.779  13.620  1.00  0.00     0.227 C 
HETATM    9  O1  UNL     1      -1.709   5.317  14.403  1.00  0.00    -0.273 OA
ATOM     10  H1  UNL     1      -4.559   5.659  13.056  1.00  0.00     0.169 HD
BRANCH   8  11
HETATM   11  C4  UNL     1      -2.216   6.848  12.628  1.00  0.00     0.085 C 
BRANCH  11  12
HETATM   12  C3  UNL     1      -1.556   8.037  13.201  1.00  0.00     0.014 C 
BRANCH  12  13
HETATM   13  C2  UNL     1      -2.181   8.744  14.330  1.00  0.00    -0.004 C 
HETATM   14  C1  UNL     1      -1.426   8.697  15.636  1.00  0.00     0.005 C 
ENDBRANCH  12  13
ENDBRANCH  11  12
BRANCH  11  15
HETATM   15  C12 UNL     1      -1.590   6.268  11.395  1.00  0.00    -0.039 C 
HETATM   16  C13 UNL     1      -0.075   6.218  11.579  1.00  0.00     0.015 C 
HETATM   17  C14 UNL     1      -1.827   7.249  10.257  1.00  0.00     0.015 C 
HETATM   18  C15 UNL     1      -2.073   4.928  10.988  1.00  0.00     0.015 C 
ENDBRANCH  11  15
ENDBRANCH   8  11
ENDBRANCH   1   7
BRANCH   4  19
HETATM   19  S1  UNL     1      -6.307   1.197  17.337  1.00  0.00     0.256 S 
HETATM   20  O2  UNL     1      -7.736   1.026  16.887  1.00  0.00    -0.201 OA
HETATM   21  O3  UNL     1      -5.545  -0.107  17.235  1.00  0.00    -0.201 OA
BRANCH  19  22
HETATM   22  N2  UNL     1      -6.257   1.837  18.938  1.00  0.00    -0.324 N 
ATOM     23  H22 UNL     1      -5.411   1.989  19.486  1.00  0.00     0.169 HD
ATOM     24  H21 UNL     1      -7.216   2.030  19.226  1.00  0.00     0.169 HD
ENDBRANCH  19  22
ENDBRANCH   4  19
TORSDOF 7
ENDMDL
