MODEL 13
REMARK VINA RESULT: -6.312917523      2.926      3.721
REMARK  7 active torsions:
REMARK  status: ('A' for Active; 'I' for Inactive)
REMARK    1  A    between atoms: C2_2  and  C3_3 
REMARK    2  A    between atoms: C3_3  and  C4_4 
REMARK    3  A    between atoms: C4_4  and  C5_5 
REMARK    4  A    between atoms: C4_4  and  C12_21 
REMARK       I    between atoms: C5_5  and  N1_7 
REMARK    5  A    between atoms: N1_7  and  C6_9 
REMARK    6  A    between atoms: C9_12  and  S1_13 
REMARK    7  A    between atoms: S1_13  and  N2_14 
ROOT
HETATM    1  C6  UNL     1      -4.284   4.157  14.513  1.00  0.00     0.034 A 
HETATM    2  C7  UNL     1      -3.615   3.029  15.011  1.00  0.00     0.031 A 
HETATM    3  C8  UNL     1      -4.248   2.156  15.866  1.00  0.00     0.027 A 
HETATM    4  C9  UNL     1      -5.539   2.353  16.261  1.00  0.00     0.079 A 
HETATM    5  C10 UNL     1      -6.198   3.450  15.782  1.00  0.00     0.027 A 
HETATM    6  C11 UNL     1      -5.585   4.354  14.913  1.00  0.00     0.031 A 
ENDROOT
BRANCH   1   7
HETATM    7  N1  UNL     1      -3.570   5.005  13.655  1.00  0.00    -0.327 N 
HETATM    8  C5  UNL     1      -2.231   5.448  13.763  1.00  0.00     0.227 C 
HETATM    9  O1  UNL     1      -1.566   5.053  14.747  1.00  0.00    -0.273 OA
ATOM     10  H1  UNL     1      -4.085   5.348  12.845  1.00  0.00     0.169 HD
BRANCH   8  11
HETATM   11  C4  UNL     1      -1.626   6.360  12.737  1.00  0.00     0.085 C 
BRANCH  11  12
HETATM   12  C3  UNL     1      -1.139   7.652  13.260  1.00  0.00     0.014 C 
BRANCH  12  13
HETATM   13  C2  UNL     1      -2.019   8.473  14.105  1.00  0.00    -0.004 C 
HETATM   14  C1  UNL     1      -1.554   8.692  15.524  1.00  0.00     0.005 C 
ENDBRANCH  12  13
ENDBRANCH  11  12
BRANCH  11  15
HETATM   15  C12 UNL     1      -0.695   5.618  11.824  1.00  0.00    -0.039 C 
HETATM   16  C13 UNL     1       0.743   6.031  12.130  1.00  0.00     0.015 C 
HETATM   17  C14 UNL     1      -0.963   6.104  10.407  1.00  0.00     0.015 C 
HETATM   18  C15 UNL     1      -0.792   4.140  11.856  1.00  0.00     0.015 C 
ENDBRANCH  11  15
ENDBRANCH   8  11
ENDBRANCH   1   7
BRANCH   4  19
HETATM   19  S1  UNL     1      -6.307   1.211  17.355  1.00  0.00     0.256 S 
HETATM   20  O2  UNL     1      -7.737   1.045  16.906  1.00  0.00    -0.201 OA
HETATM   21  O3  UNL     1      -5.559  -0.103  17.284  1.00  0.00    -0.201 OA
BRANCH  19  22
HETATM   22  N2  UNL     1      -6.252   1.886  18.941  1.00  0.00    -0.324 N 
ATOM     23  H22 UNL     1      -5.465   1.816  19.585  1.00  0.00     0.169 HD
ATOM     24  H21 UNL     1      -7.140   2.360  19.108  1.00  0.00     0.169 HD
ENDBRANCH  19  22
ENDBRANCH   4  19
TORSDOF 7
ENDMDL
