MODEL 3
REMARK VINA RESULT: -3.947382776      1.510      5.024
REMARK  16 active torsions:
REMARK  status: ('A' for Active; 'I' for Inactive)
REMARK    1  A    between atoms: C1_2  and  C2_4 
REMARK    2  A    between atoms: C2_4  and  O3_5 
REMARK    3  A    between atoms: C2_4  and  C3_7 
REMARK    4  A    between atoms: C3_7  and  O4_8 
REMARK    5  A    between atoms: C3_7  and  C4_10 
REMARK    6  A    between atoms: C4_10  and  O5_11 
REMARK    7  A    between atoms: C4_10  and  C11_27 
REMARK    8  A    between atoms: O5_11  and  C5_12 
REMARK    9  A    between atoms: C6_14  and  C7_15 
REMARK   10  A    between atoms: C7_15  and  O7_16 
REMARK   11  A    between atoms: C8_18  and  O8_19 
REMARK   12  A    between atoms: C9_21  and  O9_22 
REMARK   13  A    between atoms: C10_24  and  O10_25 
REMARK   14  A    between atoms: C11_27  and  O11_28 
REMARK   15  A    between atoms: C11_27  and  C12_30 
REMARK   16  A    between atoms: C12_30  and  O12_31 
ROOT
HETATM    1  C4  UNL     1      22.349   1.951  17.833  1.00  0.00     0.187 C 
ENDROOT
BRANCH   1   2
HETATM    2  C3  UNL     1      22.217   3.447  17.617  1.00  0.00     0.189 C 
BRANCH   2   3
HETATM    3  C2  UNL     1      23.347   4.297  18.023  1.00  0.00     0.250 C 
BRANCH   3   4
HETATM    4  C1  UNL     1      24.125   4.904  16.906  1.00  0.00     0.205 C 
HETATM    5  O1  UNL     1      23.936   6.052  16.455  1.00  0.00    -0.646 OA
HETATM    6  O2  UNL     1      25.132   4.156  16.316  1.00  0.00    -0.646 OA
ENDBRANCH   3   4
BRANCH   3   7
HETATM    7  O3  UNL     1      24.223   3.717  18.957  1.00  0.00    -0.382 OA
ATOM      8  H3  UNL     1      24.053   4.070  19.823  1.00  0.00     0.210 HD
ENDBRANCH   3   7
ENDBRANCH   2   3
BRANCH   2   9
HETATM    9  O4  UNL     1      22.128   3.561  16.200  1.00  0.00    -0.390 OA
ATOM     10  H4  UNL     1      21.580   2.841  15.913  1.00  0.00     0.210 HD
ENDBRANCH   2   9
ENDBRANCH   1   2
BRANCH   1  11
HETATM   11  O5  UNL     1      23.338   1.481  16.941  1.00  0.00    -0.348 OA
BRANCH  11  12
HETATM   12  C5  UNL     1      24.172   0.530  17.476  1.00  0.00     0.292 C 
HETATM   13  O6  UNL     1      23.851  -0.675  16.824  1.00  0.00    -0.348 OA
HETATM   14  C6  UNL     1      24.719  -1.699  17.189  1.00  0.00     0.179 C 
HETATM   15  C8  UNL     1      25.073  -1.663  18.636  1.00  0.00     0.180 C 
HETATM   16  C9  UNL     1      23.901  -1.058  19.377  1.00  0.00     0.183 C 
HETATM   17  C10 UNL     1      23.912   0.417  18.960  1.00  0.00     0.204 C 
BRANCH  14  18
HETATM   18  C7  UNL     1      24.064  -3.006  16.801  1.00  0.00     0.198 C 
BRANCH  18  19
HETATM   19  O7  UNL     1      22.779  -2.811  16.298  1.00  0.00    -0.398 OA
ATOM     20  H7  UNL     1      22.410  -3.615  15.954  1.00  0.00     0.209 HD
ENDBRANCH  18  19
ENDBRANCH  14  18
BRANCH  15  21
HETATM   21  O8  UNL     1      25.440  -2.895  19.157  1.00  0.00    -0.390 OA
ATOM     22  H8  UNL     1      25.696  -2.867  20.071  1.00  0.00     0.210 HD
ENDBRANCH  15  21
BRANCH  16  23
HETATM   23  O9  UNL     1      22.702  -1.661  19.034  1.00  0.00    -0.390 OA
ATOM     24  H9  UNL     1      21.958  -1.094  19.200  1.00  0.00     0.210 HD
ENDBRANCH  16  23
BRANCH  17  25
HETATM   25  O10 UNL     1      24.964   0.981  19.687  1.00  0.00    -0.388 OA
ATOM     26  H10 UNL     1      25.569   0.307  19.974  1.00  0.00     0.210 HD
ENDBRANCH  17  25
ENDBRANCH  11  12
ENDBRANCH   1  11
BRANCH   1  27
HETATM   27  C11 UNL     1      21.104   1.167  17.732  1.00  0.00     0.173 C 
BRANCH  27  28
HETATM   28  O11 UNL     1      20.349   1.380  16.593  1.00  0.00    -0.391 OA
ATOM     29  H11 UNL     1      20.776   1.173  15.770  1.00  0.00     0.210 HD
ENDBRANCH  27  28
BRANCH  27  30
HETATM   30  C12 UNL     1      20.225   1.222  18.961  1.00  0.00     0.198 C 
BRANCH  30  31
HETATM   31  O12 UNL     1      20.197  -0.059  19.555  1.00  0.00    -0.398 OA
ATOM     32  H12 UNL     1      19.326  -0.217  19.899  1.00  0.00     0.209 HD
ENDBRANCH  30  31
ENDBRANCH  27  30
ENDBRANCH   1  27
TORSDOF 16
ENDMDL
