MODEL 2
REMARK VINA RESULT: -4.053710862      3.009      5.884
REMARK  16 active torsions:
REMARK  status: ('A' for Active; 'I' for Inactive)
REMARK    1  A    between atoms: C1_2  and  C2_4 
REMARK    2  A    between atoms: C2_4  and  O3_5 
REMARK    3  A    between atoms: C2_4  and  C3_7 
REMARK    4  A    between atoms: C3_7  and  O4_8 
REMARK    5  A    between atoms: C3_7  and  C4_10 
REMARK    6  A    between atoms: C4_10  and  O5_11 
REMARK    7  A    between atoms: C4_10  and  C11_27 
REMARK    8  A    between atoms: O5_11  and  C5_12 
REMARK    9  A    between atoms: C6_14  and  C7_15 
REMARK   10  A    between atoms: C7_15  and  O7_16 
REMARK   11  A    between atoms: C8_18  and  O8_19 
REMARK   12  A    between atoms: C9_21  and  O9_22 
REMARK   13  A    between atoms: C10_24  and  O10_25 
REMARK   14  A    between atoms: C11_27  and  O11_28 
REMARK   15  A    between atoms: C11_27  and  C12_30 
REMARK   16  A    between atoms: C12_30  and  O12_31 
ROOT
HETATM    1  C4  UNL     1      23.476   4.699  15.110  1.00  0.00     0.187 C 
ENDROOT
BRANCH   1   2
HETATM    2  C3  UNL     1      23.182   3.266  15.512  1.00  0.00     0.189 C 
BRANCH   2   3
HETATM    3  C2  UNL     1      23.451   2.880  16.906  1.00  0.00     0.250 C 
BRANCH   3   4
HETATM    4  C1  UNL     1      22.329   2.199  17.610  1.00  0.00     0.205 C 
HETATM    5  O1  UNL     1      21.373   2.789  18.154  1.00  0.00    -0.646 OA
HETATM    6  O2  UNL     1      22.329   0.814  17.677  1.00  0.00    -0.646 OA
ENDBRANCH   3   4
BRANCH   3   7
HETATM    7  O3  UNL     1      23.975   3.903  17.716  1.00  0.00    -0.382 OA
ATOM      8  H3  UNL     1      24.344   4.589  17.173  1.00  0.00     0.210 HD
ENDBRANCH   3   7
ENDBRANCH   2   3
BRANCH   2   9
HETATM    9  O4  UNL     1      21.771   3.167  15.343  1.00  0.00    -0.390 OA
ATOM     10  H4  UNL     1      21.581   3.554  14.497  1.00  0.00     0.210 HD
ENDBRANCH   2   9
ENDBRANCH   1   2
BRANCH   1  11
HETATM   11  O5  UNL     1      22.518   5.521  15.743  1.00  0.00    -0.348 OA
BRANCH  11  12
HETATM   12  C5  UNL     1      23.048   6.611  16.387  1.00  0.00     0.292 C 
HETATM   13  O6  UNL     1      22.502   6.597  17.684  1.00  0.00    -0.348 OA
HETATM   14  C6  UNL     1      23.061   7.588  18.485  1.00  0.00     0.179 C 
HETATM   15  C8  UNL     1      23.290   8.861  17.747  1.00  0.00     0.180 C 
HETATM   16  C9  UNL     1      22.241   8.952  16.660  1.00  0.00     0.183 C 
HETATM   17  C10 UNL     1      22.644   7.868  15.654  1.00  0.00     0.204 C 
BRANCH  14  18
HETATM   18  C7  UNL     1      22.144   7.780  19.672  1.00  0.00     0.198 C 
BRANCH  18  19
HETATM   19  O7  UNL     1      22.857   8.066  20.835  1.00  0.00    -0.398 OA
ATOM     20  H7  UNL     1      23.351   7.314  21.140  1.00  0.00     0.209 HD
ENDBRANCH  18  19
ENDBRANCH  14  18
BRANCH  15  21
HETATM   21  O8  UNL     1      23.301   9.987  18.557  1.00  0.00    -0.390 OA
ATOM     22  H8  UNL     1      23.469  10.797  18.089  1.00  0.00     0.210 HD
ENDBRANCH  15  21
BRANCH  16  23
HETATM   23  O9  UNL     1      20.965   8.725  17.149  1.00  0.00    -0.390 OA
ATOM     24  H9  UNL     1      20.888   7.873  17.561  1.00  0.00     0.210 HD
ENDBRANCH  16  23
BRANCH  17  25
HETATM   25  O10 UNL     1      23.736   8.411  14.971  1.00  0.00    -0.388 OA
ATOM     26  H10 UNL     1      23.540   8.500  14.046  1.00  0.00     0.210 HD
ENDBRANCH  17  25
ENDBRANCH  11  12
ENDBRANCH   1  11
BRANCH   1  27
HETATM   27  C11 UNL     1      23.554   4.965  13.661  1.00  0.00     0.173 C 
BRANCH  27  28
HETATM   28  O11 UNL     1      23.165   3.924  12.837  1.00  0.00    -0.391 OA
ATOM     29  H11 UNL     1      23.818   3.252  12.682  1.00  0.00     0.210 HD
ENDBRANCH  27  28
BRANCH  27  30
HETATM   30  C12 UNL     1      24.874   5.536  13.197  1.00  0.00     0.198 C 
BRANCH  30  31
HETATM   31  O12 UNL     1      24.658   6.850  12.726  1.00  0.00    -0.398 OA
ATOM     32  H12 UNL     1      25.304   7.044  12.057  1.00  0.00     0.209 HD
ENDBRANCH  30  31
ENDBRANCH  27  30
ENDBRANCH   1  27
TORSDOF 16
ENDMDL
