MODEL 1
REMARK VINA RESULT: -4.417964921      0.000      0.000
REMARK  16 active torsions:
REMARK  status: ('A' for Active; 'I' for Inactive)
REMARK    1  A    between atoms: C1_2  and  C2_4 
REMARK    2  A    between atoms: C2_4  and  O3_5 
REMARK    3  A    between atoms: C2_4  and  C3_7 
REMARK    4  A    between atoms: C3_7  and  O4_8 
REMARK    5  A    between atoms: C3_7  and  C4_10 
REMARK    6  A    between atoms: C4_10  and  O5_11 
REMARK    7  A    between atoms: C4_10  and  C11_27 
REMARK    8  A    between atoms: O5_11  and  C5_12 
REMARK    9  A    between atoms: C6_14  and  C7_15 
REMARK   10  A    between atoms: C7_15  and  O7_16 
REMARK   11  A    between atoms: C8_18  and  O8_19 
REMARK   12  A    between atoms: C9_21  and  O9_22 
REMARK   13  A    between atoms: C10_24  and  O10_25 
REMARK   14  A    between atoms: C11_27  and  O11_28 
REMARK   15  A    between atoms: C11_27  and  C12_30 
REMARK   16  A    between atoms: C12_30  and  O12_31 
ROOT
HETATM    1  C4  UNL     1      22.348   0.907  18.785  1.00  0.00     0.187 C 
ENDROOT
BRANCH   1   2
HETATM    2  C3  UNL     1      23.124  -0.384  18.603  1.00  0.00     0.189 C 
BRANCH   2   3
HETATM    3  C2  UNL     1      24.144  -0.422  17.543  1.00  0.00     0.250 C 
BRANCH   3   4
HETATM    4  C1  UNL     1      25.547  -0.602  18.011  1.00  0.00     0.205 C 
HETATM    5  O1  UNL     1      26.063  -1.703  18.294  1.00  0.00    -0.646 OA
HETATM    6  O2  UNL     1      26.350   0.520  18.149  1.00  0.00    -0.646 OA
ENDBRANCH   3   4
BRANCH   3   7
HETATM    7  O3  UNL     1      24.080   0.633  16.617  1.00  0.00    -0.382 OA
ATOM      8  H3  UNL     1      23.720   1.408  17.032  1.00  0.00     0.210 HD
ENDBRANCH   3   7
ENDBRANCH   2   3
BRANCH   2   9
HETATM    9  O4  UNL     1      23.831  -0.511  19.832  1.00  0.00    -0.390 OA
ATOM     10  H4  UNL     1      23.284  -1.048  20.394  1.00  0.00     0.210 HD
ENDBRANCH   2   9
ENDBRANCH   1   2
BRANCH   1  11
HETATM   11  O5  UNL     1      23.138   1.767  19.579  1.00  0.00    -0.348 OA
BRANCH  11  12
HETATM   12  C5  UNL     1      23.320   3.018  19.044  1.00  0.00     0.292 C 
HETATM   13  O6  UNL     1      22.833   2.950  17.726  1.00  0.00    -0.348 OA
HETATM   14  C6  UNL     1      22.846   4.198  17.111  1.00  0.00     0.179 C 
HETATM   15  C8  UNL     1      24.055   4.995  17.456  1.00  0.00     0.180 C 
HETATM   16  C9  UNL     1      25.181   4.022  17.726  1.00  0.00     0.183 C 
HETATM   17  C10 UNL     1      24.794   3.352  19.049  1.00  0.00     0.204 C 
BRANCH  14  18
HETATM   18  C7  UNL     1      22.727   3.969  15.620  1.00  0.00     0.198 C 
BRANCH  18  19
HETATM   19  O7  UNL     1      22.592   2.616  15.315  1.00  0.00    -0.398 OA
ATOM     20  H7  UNL     1      22.764   2.443  14.397  1.00  0.00     0.209 HD
ENDBRANCH  18  19
ENDBRANCH  14  18
BRANCH  15  21
HETATM   21  O8  UNL     1      24.400   5.940  16.500  1.00  0.00    -0.390 OA
ATOM     22  H8  UNL     1      24.279   6.838  16.784  1.00  0.00     0.210 HD
ENDBRANCH  15  21
BRANCH  16  23
HETATM   23  O9  UNL     1      25.311   3.084  16.715  1.00  0.00    -0.390 OA
ATOM     24  H9  UNL     1      25.980   3.328  16.086  1.00  0.00     0.210 HD
ENDBRANCH  16  23
BRANCH  17  25
HETATM   25  O10 UNL     1      25.076   4.311  20.025  1.00  0.00    -0.388 OA
ATOM     26  H10 UNL     1      25.271   5.150  19.622  1.00  0.00     0.210 HD
ENDBRANCH  17  25
ENDBRANCH  11  12
ENDBRANCH   1  11
BRANCH   1  27
HETATM   27  C11 UNL     1      20.979   0.773  19.318  1.00  0.00     0.173 C 
BRANCH  27  28
HETATM   28  O11 UNL     1      20.711  -0.402  19.998  1.00  0.00    -0.391 OA
ATOM     29  H11 UNL     1      19.982  -0.913  19.668  1.00  0.00     0.210 HD
ENDBRANCH  27  28
BRANCH  27  30
HETATM   30  C12 UNL     1      19.883   1.063  18.319  1.00  0.00     0.198 C 
BRANCH  30  31
HETATM   31  O12 UNL     1      20.476   1.395  17.081  1.00  0.00    -0.398 OA
ATOM     32  H12 UNL     1      19.790   1.648  16.474  1.00  0.00     0.209 HD
ENDBRANCH  30  31
ENDBRANCH  27  30
ENDBRANCH   1  27
TORSDOF 16
ENDMDL
