MODEL 13
REMARK VINA RESULT: -6.483806693      2.321      3.309
REMARK  7 active torsions:
REMARK  status: ('A' for Active; 'I' for Inactive)
REMARK    1  A    between atoms: C2_2  and  C3_3 
REMARK    2  A    between atoms: C3_3  and  C5_5 
REMARK    3  A    between atoms: C5_5  and  C6_6 
REMARK    4  A    between atoms: C6_6  and  C7_7 
REMARK       I    between atoms: C7_7  and  N1_9 
REMARK    5  A    between atoms: N1_9  and  C8_11 
REMARK    6  A    between atoms: C11_14  and  S1_15 
REMARK    7  A    between atoms: S1_15  and  N2_16 
ROOT
HETATM    1  C8  UNL     1      -4.400   4.693  14.615  1.00  0.00     0.034 A 
HETATM    2  C9  UNL     1      -3.607   3.647  14.959  1.00  0.00     0.031 A 
HETATM    3  C10 UNL     1      -4.095   2.538  15.678  1.00  0.00     0.027 A 
HETATM    4  C11 UNL     1      -5.413   2.478  16.060  1.00  0.00     0.079 A 
HETATM    5  C12 UNL     1      -6.233   3.521  15.725  1.00  0.00     0.027 A 
HETATM    6  C13 UNL     1      -5.739   4.592  15.025  1.00  0.00     0.031 A 
ENDROOT
BRANCH   1   7
HETATM    7  N1  UNL     1      -3.990   5.843  13.913  1.00  0.00    -0.327 N 
HETATM    8  C7  UNL     1      -4.227   6.086  12.546  1.00  0.00     0.222 C 
HETATM    9  O1  UNL     1      -4.836   5.262  11.844  1.00  0.00    -0.273 OA
ATOM     10  H1  UNL     1      -3.481   6.555  14.436  1.00  0.00     0.169 HD
BRANCH   8  11
HETATM   11  C6  UNL     1      -3.706   7.381  12.003  1.00  0.00     0.103 C 
BRANCH  11  12
HETATM   12  C5  UNL     1      -2.514   7.900  12.748  1.00  0.00     0.013 C 
BRANCH  12  13
HETATM   13  C3  UNL     1      -2.050   9.208  12.196  1.00  0.00    -0.019 C 
HETATM   14  C4  UNL     1      -3.092   9.776  11.243  1.00  0.00     0.010 C 
BRANCH  13  15
HETATM   15  C2  UNL     1      -1.819  10.179  13.348  1.00  0.00    -0.000 C 
HETATM   16  C1  UNL     1      -1.830   9.481  14.670  1.00  0.00     0.005 C 
ENDBRANCH  13  15
ENDBRANCH  12  13
ENDBRANCH  11  12
ENDBRANCH   8  11
ENDBRANCH   1   7
BRANCH   4  17
HETATM   17  S1  UNL     1      -6.030   1.084  16.965  1.00  0.00     0.256 S 
HETATM   18  O2  UNL     1      -5.437   1.114  18.324  1.00  0.00    -0.201 OA
HETATM   19  O3  UNL     1      -5.568  -0.176  16.277  1.00  0.00    -0.201 OA
BRANCH  17  20
HETATM   20  N2  UNL     1      -7.738   1.127  16.948  1.00  0.00    -0.324 N 
ATOM     21  H22 UNL     1      -8.342   0.444  17.405  1.00  0.00     0.169 HD
ATOM     22  H21 UNL     1      -8.041   1.939  16.411  1.00  0.00     0.169 HD
ENDBRANCH  17  20
ENDBRANCH   4  17
TORSDOF 7
ENDMDL
