MODEL 7
REMARK VINA RESULT: -6.755994371      1.421      2.061
REMARK  7 active torsions:
REMARK  status: ('A' for Active; 'I' for Inactive)
REMARK    1  A    between atoms: C2_2  and  C3_3 
REMARK    2  A    between atoms: C3_3  and  C5_5 
REMARK    3  A    between atoms: C5_5  and  C6_6 
REMARK    4  A    between atoms: C6_6  and  C7_7 
REMARK       I    between atoms: C7_7  and  N1_9 
REMARK    5  A    between atoms: N1_9  and  C8_11 
REMARK    6  A    between atoms: C11_14  and  S1_15 
REMARK    7  A    between atoms: S1_15  and  N2_16 
ROOT
HETATM    1  C8  UNL     1      -4.877   5.161  13.451  1.00  0.00     0.034 A 
HETATM    2  C9  UNL     1      -5.755   4.821  14.428  1.00  0.00     0.031 A 
HETATM    3  C10 UNL     1      -5.704   3.578  15.088  1.00  0.00     0.027 A 
HETATM    4  C11 UNL     1      -4.745   2.651  14.758  1.00  0.00     0.079 A 
HETATM    5  C12 UNL     1      -3.847   2.970  13.776  1.00  0.00     0.027 A 
HETATM    6  C13 UNL     1      -3.914   4.186  13.146  1.00  0.00     0.031 A 
ENDROOT
BRANCH   1   7
HETATM    7  N1  UNL     1      -4.868   6.372  12.734  1.00  0.00    -0.327 N 
HETATM    8  C7  UNL     1      -5.252   6.520  11.387  1.00  0.00     0.222 C 
HETATM    9  O1  UNL     1      -5.633   5.547  10.718  1.00  0.00    -0.273 OA
ATOM     10  H1  UNL     1      -4.560   7.208  13.230  1.00  0.00     0.169 HD
BRANCH   8  11
HETATM   11  C6  UNL     1      -5.170   7.907  10.824  1.00  0.00     0.103 C 
BRANCH  11  12
HETATM   12  C5  UNL     1      -6.487   8.621  10.811  1.00  0.00     0.013 C 
BRANCH  12  13
HETATM   13  C3  UNL     1      -6.913   8.961   9.421  1.00  0.00    -0.019 C 
HETATM   14  C4  UNL     1      -5.764   8.732   8.449  1.00  0.00     0.010 C 
BRANCH  13  15
HETATM   15  C2  UNL     1      -8.098   8.083   9.036  1.00  0.00    -0.000 C 
HETATM   16  C1  UNL     1      -7.706   7.021   8.061  1.00  0.00     0.005 C 
ENDBRANCH  13  15
ENDBRANCH  12  13
ENDBRANCH  11  12
ENDBRANCH   8  11
ENDBRANCH   1   7
BRANCH   4  17
HETATM   17  S1  UNL     1      -4.678   1.085  15.586  1.00  0.00     0.256 S 
HETATM   18  O2  UNL     1      -3.373   0.984  16.282  1.00  0.00    -0.201 OA
HETATM   19  O3  UNL     1      -4.744  -0.008  14.549  1.00  0.00    -0.201 OA
BRANCH  17  20
HETATM   20  N2  UNL     1      -6.033   0.948  16.619  1.00  0.00    -0.324 N 
ATOM     21  H22 UNL     1      -6.338   1.665  17.277  1.00  0.00     0.169 HD
ATOM     22  H21 UNL     1      -6.474   0.042  16.464  1.00  0.00     0.169 HD
ENDBRANCH  17  20
ENDBRANCH   4  17
TORSDOF 7
ENDMDL
