MODEL 14
REMARK VINA RESULT: -6.414195036      2.968      3.867
REMARK  7 active torsions:
REMARK  status: ('A' for Active; 'I' for Inactive)
REMARK    1  A    between atoms: C2_2  and  C3_3 
REMARK    2  A    between atoms: C3_3  and  C5_5 
REMARK    3  A    between atoms: C5_5  and  C6_6 
REMARK    4  A    between atoms: C6_6  and  C7_7 
REMARK       I    between atoms: C7_7  and  N1_9 
REMARK    5  A    between atoms: N1_9  and  C8_11 
REMARK    6  A    between atoms: C11_14  and  S1_15 
REMARK    7  A    between atoms: S1_15  and  N2_16 
ROOT
HETATM    1  C8  UNL     1      -4.381   4.230  14.377  1.00  0.00     0.034 A 
HETATM    2  C9  UNL     1      -3.677   3.215  14.939  1.00  0.00     0.031 A 
HETATM    3  C10 UNL     1      -4.267   2.287  15.818  1.00  0.00     0.027 A 
HETATM    4  C11 UNL     1      -5.599   2.379  16.142  1.00  0.00     0.079 A 
HETATM    5  C12 UNL     1      -6.330   3.394  15.587  1.00  0.00     0.027 A 
HETATM    6  C13 UNL     1      -5.737   4.288  14.733  1.00  0.00     0.031 A 
ENDROOT
BRANCH   1   7
HETATM    7  N1  UNL     1      -3.866   5.206  13.502  1.00  0.00    -0.327 N 
HETATM    8  C7  UNL     1      -3.412   6.483  13.888  1.00  0.00     0.222 C 
HETATM    9  O1  UNL     1      -3.445   6.843  15.076  1.00  0.00    -0.273 OA
ATOM     10  H1  UNL     1      -3.817   4.970  12.512  1.00  0.00     0.169 HD
BRANCH   8  11
HETATM   11  C6  UNL     1      -2.896   7.362  12.790  1.00  0.00     0.103 C 
BRANCH  11  12
HETATM   12  C5  UNL     1      -1.522   7.898  13.055  1.00  0.00     0.013 C 
BRANCH  12  13
HETATM   13  C3  UNL     1      -1.492   9.389  12.981  1.00  0.00    -0.019 C 
HETATM   14  C4  UNL     1      -2.540   9.887  11.996  1.00  0.00     0.010 C 
BRANCH  13  15
HETATM   15  C2  UNL     1      -1.773   9.960  14.367  1.00  0.00    -0.000 C 
HETATM   16  C1  UNL     1      -0.960   9.279  15.420  1.00  0.00     0.005 C 
ENDBRANCH  13  15
ENDBRANCH  12  13
ENDBRANCH  11  12
ENDBRANCH   8  11
ENDBRANCH   1   7
BRANCH   4  17
HETATM   17  S1  UNL     1      -6.344   1.213  17.249  1.00  0.00     0.256 S 
HETATM   18  O2  UNL     1      -5.645  -0.085  17.094  1.00  0.00    -0.201 OA
HETATM   19  O3  UNL     1      -7.785   1.023  16.845  1.00  0.00    -0.201 OA
BRANCH  17  20
HETATM   20  N2  UNL     1      -6.295   1.848  18.834  1.00  0.00    -0.324 N 
ATOM     21  H22 UNL     1      -5.443   2.002  19.374  1.00  0.00     0.169 HD
ATOM     22  H21 UNL     1      -7.248   2.042  19.141  1.00  0.00     0.169 HD
ENDBRANCH  17  20
ENDBRANCH   4  17
TORSDOF 7
ENDMDL
