MODEL 6
REMARK VINA RESULT: -6.809357813      1.420      1.815
REMARK  7 active torsions:
REMARK  status: ('A' for Active; 'I' for Inactive)
REMARK    1  A    between atoms: C2_2  and  C3_3 
REMARK    2  A    between atoms: C3_3  and  C5_5 
REMARK    3  A    between atoms: C5_5  and  C6_6 
REMARK    4  A    between atoms: C6_6  and  C7_7 
REMARK       I    between atoms: C7_7  and  N1_9 
REMARK    5  A    between atoms: N1_9  and  C8_11 
REMARK    6  A    between atoms: C11_14  and  S1_15 
REMARK    7  A    between atoms: S1_15  and  N2_16 
ROOT
HETATM    1  C8  UNL     1      -4.785   5.027  13.283  1.00  0.00     0.034 A 
HETATM    2  C9  UNL     1      -3.976   4.007  12.902  1.00  0.00     0.031 A 
HETATM    3  C10 UNL     1      -3.932   2.781  13.594  1.00  0.00     0.027 A 
HETATM    4  C11 UNL     1      -4.722   2.574  14.699  1.00  0.00     0.079 A 
HETATM    5  C12 UNL     1      -5.547   3.588  15.104  1.00  0.00     0.027 A 
HETATM    6  C13 UNL     1      -5.575   4.774  14.416  1.00  0.00     0.031 A 
ENDROOT
BRANCH   1   7
HETATM    7  N1  UNL     1      -4.877   6.284  12.657  1.00  0.00    -0.327 N 
HETATM    8  C7  UNL     1      -5.285   6.500  11.326  1.00  0.00     0.222 C 
HETATM    9  O1  UNL     1      -5.598   5.551  10.589  1.00  0.00    -0.273 OA
ATOM     10  H1  UNL     1      -4.630   7.104  13.211  1.00  0.00     0.169 HD
BRANCH   8  11
HETATM   11  C6  UNL     1      -5.318   7.925  10.866  1.00  0.00     0.103 C 
BRANCH  11  12
HETATM   12  C5  UNL     1      -6.700   8.502  10.815  1.00  0.00     0.013 C 
BRANCH  12  13
HETATM   13  C3  UNL     1      -7.053   8.957   9.438  1.00  0.00    -0.019 C 
HETATM   14  C4  UNL     1      -5.837   8.867   8.526  1.00  0.00     0.010 C 
BRANCH  13  15
HETATM   15  C2  UNL     1      -8.172   8.074   8.895  1.00  0.00    -0.000 C 
HETATM   16  C1  UNL     1      -7.640   6.977   8.031  1.00  0.00     0.005 C 
ENDBRANCH  13  15
ENDBRANCH  12  13
ENDBRANCH  11  12
ENDBRANCH   8  11
ENDBRANCH   1   7
BRANCH   4  17
HETATM   17  S1  UNL     1      -4.670   1.033  15.573  1.00  0.00     0.256 S 
HETATM   18  O2  UNL     1      -3.369   0.943  16.277  1.00  0.00    -0.201 OA
HETATM   19  O3  UNL     1      -4.740  -0.090  14.569  1.00  0.00    -0.201 OA
BRANCH  17  20
HETATM   20  N2  UNL     1      -6.030   0.936  16.603  1.00  0.00    -0.324 N 
ATOM     21  H22 UNL     1      -6.350   1.686  17.217  1.00  0.00     0.169 HD
ATOM     22  H21 UNL     1      -6.457   0.016  16.499  1.00  0.00     0.169 HD
ENDBRANCH  17  20
ENDBRANCH   4  17
TORSDOF 7
ENDMDL
