MODEL 12
REMARK VINA RESULT: -6.524313031      2.687      3.753
REMARK  7 active torsions:
REMARK  status: ('A' for Active; 'I' for Inactive)
REMARK    1  A    between atoms: C2_2  and  C3_3 
REMARK    2  A    between atoms: C3_3  and  C5_5 
REMARK    3  A    between atoms: C5_5  and  C6_6 
REMARK    4  A    between atoms: C6_6  and  C7_7 
REMARK       I    between atoms: C7_7  and  N1_9 
REMARK    5  A    between atoms: N1_9  and  C8_11 
REMARK    6  A    between atoms: C11_14  and  S1_15 
REMARK    7  A    between atoms: S1_15  and  N2_16 
ROOT
HETATM    1  C8  UNL     1      -4.475   4.785  14.761  1.00  0.00     0.034 A 
HETATM    2  C9  UNL     1      -5.763   4.665  15.172  1.00  0.00     0.031 A 
HETATM    3  C10 UNL     1      -6.241   3.512  15.823  1.00  0.00     0.027 A 
HETATM    4  C11 UNL     1      -5.404   2.450  16.069  1.00  0.00     0.079 A 
HETATM    5  C12 UNL     1      -4.100   2.547  15.663  1.00  0.00     0.027 A 
HETATM    6  C13 UNL     1      -3.654   3.679  15.031  1.00  0.00     0.031 A 
ENDROOT
BRANCH   1   7
HETATM    7  N1  UNL     1      -3.923   5.894  14.093  1.00  0.00    -0.327 N 
HETATM    8  C7  UNL     1      -4.149   6.222  12.741  1.00  0.00     0.222 C 
HETATM    9  O1  UNL     1      -4.877   5.518  12.024  1.00  0.00    -0.273 OA
ATOM     10  H1  UNL     1      -3.311   6.509  14.630  1.00  0.00     0.169 HD
BRANCH   8  11
HETATM   11  C6  UNL     1      -3.463   7.455  12.236  1.00  0.00     0.103 C 
BRANCH  11  12
HETATM   12  C5  UNL     1      -2.142   7.712  12.893  1.00  0.00     0.013 C 
BRANCH  12  13
HETATM   13  C3  UNL     1      -2.228   8.832  13.877  1.00  0.00    -0.019 C 
HETATM   14  C4  UNL     1      -1.473   8.475  15.149  1.00  0.00     0.010 C 
BRANCH  13  15
HETATM   15  C2  UNL     1      -1.625  10.086  13.253  1.00  0.00    -0.000 C 
HETATM   16  C1  UNL     1      -2.065  11.324  13.966  1.00  0.00     0.005 C 
ENDBRANCH  13  15
ENDBRANCH  12  13
ENDBRANCH  11  12
ENDBRANCH   8  11
ENDBRANCH   1   7
BRANCH   4  17
HETATM   17  S1  UNL     1      -6.002   0.996  16.887  1.00  0.00     0.256 S 
HETATM   18  O2  UNL     1      -5.371   0.925  18.226  1.00  0.00    -0.201 OA
HETATM   19  O3  UNL     1      -5.566  -0.212  16.097  1.00  0.00    -0.201 OA
BRANCH  17  20
HETATM   20  N2  UNL     1      -7.710   1.046  16.922  1.00  0.00    -0.324 N 
ATOM     21  H22 UNL     1      -8.264   1.871  17.150  1.00  0.00     0.169 HD
ATOM     22  H21 UNL     1      -8.071   0.123  16.679  1.00  0.00     0.169 HD
ENDBRANCH  17  20
ENDBRANCH   4  17
TORSDOF 7
ENDMDL
