MODEL 10
REMARK VINA RESULT: -6.594012536      2.424      3.618
REMARK  7 active torsions:
REMARK  status: ('A' for Active; 'I' for Inactive)
REMARK    1  A    between atoms: C2_2  and  C3_3 
REMARK    2  A    between atoms: C3_3  and  C5_5 
REMARK    3  A    between atoms: C5_5  and  C6_6 
REMARK    4  A    between atoms: C6_6  and  C7_7 
REMARK       I    between atoms: C7_7  and  N1_9 
REMARK    5  A    between atoms: N1_9  and  C8_11 
REMARK    6  A    between atoms: C11_14  and  S1_15 
REMARK    7  A    between atoms: S1_15  and  N2_16 
ROOT
HETATM    1  C8  UNL     1      -4.494   4.767  14.725  1.00  0.00     0.034 A 
HETATM    2  C9  UNL     1      -5.782   4.661  15.140  1.00  0.00     0.031 A 
HETATM    3  C10 UNL     1      -6.262   3.527  15.822  1.00  0.00     0.027 A 
HETATM    4  C11 UNL     1      -5.428   2.470  16.095  1.00  0.00     0.079 A 
HETATM    5  C12 UNL     1      -4.125   2.552  15.686  1.00  0.00     0.027 A 
HETATM    6  C13 UNL     1      -3.676   3.666  15.023  1.00  0.00     0.031 A 
ENDROOT
BRANCH   1   7
HETATM    7  N1  UNL     1      -3.939   5.856  14.027  1.00  0.00    -0.327 N 
HETATM    8  C7  UNL     1      -4.164   6.147  12.667  1.00  0.00     0.222 C 
HETATM    9  O1  UNL     1      -4.894   5.426  11.968  1.00  0.00    -0.273 OA
ATOM     10  H1  UNL     1      -3.327   6.484  14.547  1.00  0.00     0.169 HD
BRANCH   8  11
HETATM   11  C6  UNL     1      -3.476   7.364  12.128  1.00  0.00     0.103 C 
BRANCH  11  12
HETATM   12  C5  UNL     1      -2.134   7.611  12.747  1.00  0.00     0.013 C 
BRANCH  12  13
HETATM   13  C3  UNL     1      -1.761   9.055  12.689  1.00  0.00    -0.019 C 
HETATM   14  C4  UNL     1      -2.670   9.794  11.718  1.00  0.00     0.010 C 
BRANCH  13  15
HETATM   15  C2  UNL     1      -1.896   9.658  14.084  1.00  0.00    -0.000 C 
HETATM   16  C1  UNL     1      -1.782   8.617  15.150  1.00  0.00     0.005 C 
ENDBRANCH  13  15
ENDBRANCH  12  13
ENDBRANCH  11  12
ENDBRANCH   8  11
ENDBRANCH   1   7
BRANCH   4  17
HETATM   17  S1  UNL     1      -6.030   1.040  16.952  1.00  0.00     0.256 S 
HETATM   18  O2  UNL     1      -5.398   1.003  18.293  1.00  0.00    -0.201 OA
HETATM   19  O3  UNL     1      -5.597  -0.190  16.194  1.00  0.00    -0.201 OA
BRANCH  17  20
HETATM   20  N2  UNL     1      -7.737   1.095  16.986  1.00  0.00    -0.324 N 
ATOM     21  H22 UNL     1      -8.337   0.347  17.334  1.00  0.00     0.169 HD
ATOM     22  H21 UNL     1      -8.046   1.989  16.604  1.00  0.00     0.169 HD
ENDBRANCH  17  20
ENDBRANCH   4  17
TORSDOF 7
ENDMDL
