MODEL 2
REMARK VINA RESULT: -5.115688280      1.593      7.119
REMARK  12 active torsions:
REMARK  status: ('A' for Active; 'I' for Inactive)
REMARK    1  A    between atoms: O1_1  and  C1_3 
REMARK    2  A    between atoms: C1_3  and  C2_4 
REMARK    3  A    between atoms: C3_6  and  S1_7 
REMARK    4  A    between atoms: S1_7  and  C4_8 
REMARK    5  A    between atoms: C5_10  and  C6_11 
REMARK    6  A    between atoms: C6_11  and  O4_12 
REMARK    7  A    between atoms: C7_14  and  O5_15 
REMARK    8  A    between atoms: C8_17  and  O6_18 
REMARK    9  A    between atoms: C9_20  and  O7_21 
REMARK   10  A    between atoms: C10_23  and  O8_24 
REMARK   11  A    between atoms: C11_26  and  O9_27 
REMARK   12  A    between atoms: C12_29  and  O10_30 
ROOT
HETATM    1  S1  UNL     1      23.337   4.775  16.899  1.00  0.00    -0.100 SA
ENDROOT
BRANCH   1   2
HETATM    2  C3  UNL     1      23.968   4.918  15.218  1.00  0.00     0.217 C 
HETATM    3  O2  UNL     1      24.248   6.219  14.845  1.00  0.00    -0.363 OA
HETATM    4  C2  UNL     1      25.098   6.135  13.731  1.00  0.00     0.178 C 
HETATM    5  C12 UNL     1      24.291   5.660  12.555  1.00  0.00     0.180 C 
HETATM    6  C11 UNL     1      23.789   4.264  12.889  1.00  0.00     0.181 C 
HETATM    7  C10 UNL     1      22.997   4.358  14.186  1.00  0.00     0.188 C 
BRANCH   4   8
HETATM    8  C1  UNL     1      25.834   7.418  13.475  1.00  0.00     0.198 C 
BRANCH   8   9
HETATM    9  O1  UNL     1      24.918   8.465  13.633  1.00  0.00    -0.398 OA
ATOM     10  H1  UNL     1      25.075   9.088  12.933  1.00  0.00     0.209 HD
ENDBRANCH   8   9
ENDBRANCH   4   8
BRANCH   5  11
HETATM   11  O10 UNL     1      23.169   6.466  12.367  1.00  0.00    -0.390 OA
ATOM     12  H10 UNL     1      23.201   6.897  11.521  1.00  0.00     0.210 HD
ENDBRANCH   5  11
BRANCH   6  13
HETATM   13  O9  UNL     1      23.048   3.707  11.863  1.00  0.00    -0.390 OA
ATOM     14  H9  UNL     1      23.241   4.105  11.022  1.00  0.00     0.210 HD
ENDBRANCH   6  13
BRANCH   7  15
HETATM   15  O8  UNL     1      22.592   3.075  14.559  1.00  0.00    -0.389 OA
ATOM     16  H8  UNL     1      21.894   2.776  13.988  1.00  0.00     0.210 HD
ENDBRANCH   7  15
ENDBRANCH   1   2
BRANCH   1  17
HETATM   17  C4  UNL     1      24.209   3.382  17.685  1.00  0.00     0.217 C 
HETATM   18  O3  UNL     1      23.786   2.227  17.092  1.00  0.00    -0.363 OA
HETATM   19  C5  UNL     1      22.899   1.464  17.816  1.00  0.00     0.178 C 
HETATM   20  C7  UNL     1      23.430   1.060  19.177  1.00  0.00     0.180 C 
HETATM   21  C8  UNL     1      24.462   2.040  19.689  1.00  0.00     0.181 C 
HETATM   22  C9  UNL     1      24.130   3.419  19.175  1.00  0.00     0.188 C 
BRANCH  19  23
HETATM   23  C6  UNL     1      21.507   2.026  17.873  1.00  0.00     0.198 C 
BRANCH  23  24
HETATM   24  O4  UNL     1      20.938   2.030  16.589  1.00  0.00    -0.398 OA
ATOM     25  H4  UNL     1      21.129   1.211  16.147  1.00  0.00     0.209 HD
ENDBRANCH  23  24
ENDBRANCH  19  23
BRANCH  20  26
HETATM   26  O5  UNL     1      22.368   0.888  20.052  1.00  0.00    -0.390 OA
ATOM     27  H5  UNL     1      22.255  -0.039  20.230  1.00  0.00     0.210 HD
ENDBRANCH  20  26
BRANCH  21  28
HETATM   28  O6  UNL     1      24.605   1.987  21.062  1.00  0.00    -0.390 OA
ATOM     29  H6  UNL     1      24.717   2.848  21.448  1.00  0.00     0.210 HD
ENDBRANCH  21  28
BRANCH  22  30
HETATM   30  O7  UNL     1      25.137   4.272  19.655  1.00  0.00    -0.389 OA
ATOM     31  H7  UNL     1      25.824   3.742  20.039  1.00  0.00     0.210 HD
ENDBRANCH  22  30
ENDBRANCH   1  17
TORSDOF 12
ENDMDL
