MODEL 3
REMARK VINA RESULT: -5.040196745      2.430      7.293
REMARK  12 active torsions:
REMARK  status: ('A' for Active; 'I' for Inactive)
REMARK    1  A    between atoms: O1_1  and  C1_3 
REMARK    2  A    between atoms: C1_3  and  C2_4 
REMARK    3  A    between atoms: C3_6  and  S1_7 
REMARK    4  A    between atoms: S1_7  and  C4_8 
REMARK    5  A    between atoms: C5_10  and  C6_11 
REMARK    6  A    between atoms: C6_11  and  O4_12 
REMARK    7  A    between atoms: C7_14  and  O5_15 
REMARK    8  A    between atoms: C8_17  and  O6_18 
REMARK    9  A    between atoms: C9_20  and  O7_21 
REMARK   10  A    between atoms: C10_23  and  O8_24 
REMARK   11  A    between atoms: C11_26  and  O9_27 
REMARK   12  A    between atoms: C12_29  and  O10_30 
ROOT
HETATM    1  S1  UNL     1      23.902   1.636  17.429  1.00  0.00    -0.100 SA
ENDROOT
BRANCH   1   2
HETATM    2  C3  UNL     1      24.063   3.287  16.729  1.00  0.00     0.217 C 
HETATM    3  O2  UNL     1      24.214   4.277  17.682  1.00  0.00    -0.363 OA
HETATM    4  C2  UNL     1      24.740   5.392  17.011  1.00  0.00     0.178 C 
HETATM    5  C12 UNL     1      23.658   5.979  16.148  1.00  0.00     0.180 C 
HETATM    6  C11 UNL     1      23.285   4.926  15.118  1.00  0.00     0.181 C 
HETATM    7  C10 UNL     1      22.863   3.673  15.873  1.00  0.00     0.188 C 
BRANCH   4   8
HETATM    8  C1  UNL     1      25.361   6.383  17.953  1.00  0.00     0.198 C 
BRANCH   8   9
HETATM    9  O1  UNL     1      24.491   6.532  19.039  1.00  0.00    -0.398 OA
ATOM     10  H1  UNL     1      24.716   5.865  19.677  1.00  0.00     0.209 HD
ENDBRANCH   8   9
ENDBRANCH   4   8
BRANCH   5  11
HETATM   11  O10 UNL     1      22.514   6.243  16.900  1.00  0.00    -0.390 OA
ATOM     12  H10 UNL     1      22.111   7.058  16.627  1.00  0.00     0.210 HD
ENDBRANCH   5  11
BRANCH   6  13
HETATM   13  O9  UNL     1      22.309   5.362  14.242  1.00  0.00    -0.390 OA
ATOM     14  H9  UNL     1      22.661   5.568  13.384  1.00  0.00     0.210 HD
ENDBRANCH   6  13
BRANCH   7  15
HETATM   15  O8  UNL     1      22.592   2.661  14.948  1.00  0.00    -0.389 OA
ATOM     16  H8  UNL     1      23.247   2.665  14.261  1.00  0.00     0.210 HD
ENDBRANCH   7  15
ENDBRANCH   1   2
BRANCH   1  17
HETATM   17  C4  UNL     1      22.457   1.658  18.537  1.00  0.00     0.217 C 
HETATM   18  O3  UNL     1      22.886   1.376  19.802  1.00  0.00    -0.363 OA
HETATM   19  C5  UNL     1      22.625   0.104  20.261  1.00  0.00     0.178 C 
HETATM   20  C7  UNL     1      21.151  -0.248  20.236  1.00  0.00     0.180 C 
HETATM   21  C8  UNL     1      20.403   0.545  19.188  1.00  0.00     0.181 C 
HETATM   22  C9  UNL     1      21.327   0.825  18.029  1.00  0.00     0.188 C 
BRANCH  19  23
HETATM   23  C6  UNL     1      23.493  -0.961  19.653  1.00  0.00     0.198 C 
BRANCH  23  24
HETATM   24  O4  UNL     1      23.852  -1.903  20.630  1.00  0.00    -0.398 OA
ATOM     25  H4  UNL     1      24.797  -1.915  20.738  1.00  0.00     0.209 HD
ENDBRANCH  23  24
ENDBRANCH  19  23
BRANCH  20  26
HETATM   26  O5  UNL     1      21.009  -1.619  20.080  1.00  0.00    -0.390 OA
ATOM     27  H5  UNL     1      20.148  -1.807  19.727  1.00  0.00     0.210 HD
ENDBRANCH  20  26
BRANCH  21  28
HETATM   28  O6  UNL     1      19.221  -0.062  18.810  1.00  0.00    -0.390 OA
ATOM     29  H6  UNL     1      18.835   0.341  18.041  1.00  0.00     0.210 HD
ENDBRANCH  21  28
BRANCH  22  30
HETATM   30  O7  UNL     1      20.588   1.587  17.109  1.00  0.00    -0.389 OA
ATOM     31  H7  UNL     1      19.664   1.428  17.259  1.00  0.00     0.210 HD
ENDBRANCH  22  30
ENDBRANCH   1  17
TORSDOF 12
ENDMDL
