MODEL 7
REMARK VINA RESULT: -4.905252280      3.680      7.986
REMARK  12 active torsions:
REMARK  status: ('A' for Active; 'I' for Inactive)
REMARK    1  A    between atoms: O1_1  and  C1_3 
REMARK    2  A    between atoms: C1_3  and  C2_4 
REMARK    3  A    between atoms: C3_6  and  S1_7 
REMARK    4  A    between atoms: S1_7  and  C4_8 
REMARK    5  A    between atoms: C5_10  and  C6_11 
REMARK    6  A    between atoms: C6_11  and  O4_12 
REMARK    7  A    between atoms: C7_14  and  O5_15 
REMARK    8  A    between atoms: C8_17  and  O6_18 
REMARK    9  A    between atoms: C9_20  and  O7_21 
REMARK   10  A    between atoms: C10_23  and  O8_24 
REMARK   11  A    between atoms: C11_26  and  O9_27 
REMARK   12  A    between atoms: C12_29  and  O10_30 
ROOT
HETATM    1  S1  UNL     1      25.038  -0.296  17.839  1.00  0.00    -0.100 SA
ENDROOT
BRANCH   1   2
HETATM    2  C3  UNL     1      23.798   1.000  17.994  1.00  0.00     0.217 C 
HETATM    3  O2  UNL     1      22.513   0.568  17.726  1.00  0.00    -0.363 OA
HETATM    4  C2  UNL     1      21.651   1.525  18.285  1.00  0.00     0.178 C 
HETATM    5  C12 UNL     1      21.722   2.771  17.448  1.00  0.00     0.180 C 
HETATM    6  C11 UNL     1      23.147   3.292  17.537  1.00  0.00     0.181 C 
HETATM    7  C10 UNL     1      24.073   2.178  17.069  1.00  0.00     0.188 C 
BRANCH   4   8
HETATM    8  C1  UNL     1      20.256   1.000  18.466  1.00  0.00     0.198 C 
BRANCH   8   9
HETATM    9  O1  UNL     1      20.032   0.052  17.461  1.00  0.00    -0.398 OA
ATOM     10  H1  UNL     1      19.116   0.109  17.215  1.00  0.00     0.209 HD
ENDBRANCH   8   9
ENDBRANCH   4   8
BRANCH   5  11
HETATM   11  O10 UNL     1      21.472   2.481  16.107  1.00  0.00    -0.390 OA
ATOM     12  H10 UNL     1      22.284   2.429  15.617  1.00  0.00     0.210 HD
ENDBRANCH   5  11
BRANCH   6  13
HETATM   13  O9  UNL     1      23.330   4.461  16.822  1.00  0.00    -0.390 OA
ATOM     14  H9  UNL     1      24.227   4.563  16.525  1.00  0.00     0.210 HD
ENDBRANCH   6  13
BRANCH   7  15
HETATM   15  O8  UNL     1      25.396   2.603  17.216  1.00  0.00    -0.389 OA
ATOM     16  H8  UNL     1      25.427   3.550  17.282  1.00  0.00     0.210 HD
ENDBRANCH   7  15
ENDBRANCH   1   2
BRANCH   1  17
HETATM   17  C4  UNL     1      24.207  -1.881  18.176  1.00  0.00     0.217 C 
HETATM   18  O3  UNL     1      25.057  -2.660  18.908  1.00  0.00    -0.363 OA
HETATM   19  C5  UNL     1      25.686  -3.677  18.226  1.00  0.00     0.178 C 
HETATM   20  C7  UNL     1      24.720  -4.634  17.556  1.00  0.00     0.180 C 
HETATM   21  C8  UNL     1      23.399  -3.968  17.242  1.00  0.00     0.181 C 
HETATM   22  C9  UNL     1      23.640  -2.509  16.946  1.00  0.00     0.188 C 
BRANCH  19  23
HETATM   23  C6  UNL     1      26.784  -3.216  17.309  1.00  0.00     0.198 C 
BRANCH  23  24
HETATM   24  O4  UNL     1      27.865  -4.110  17.370  1.00  0.00    -0.398 OA
ATOM     25  H4  UNL     1      27.779  -4.771  16.692  1.00  0.00     0.209 HD
ENDBRANCH  23  24
ENDBRANCH  19  23
BRANCH  20  26
HETATM   26  O5  UNL     1      25.324  -5.190  16.439  1.00  0.00    -0.390 OA
ATOM     27  H5  UNL     1      24.686  -5.706  15.960  1.00  0.00     0.210 HD
ENDBRANCH  20  26
BRANCH  21  28
HETATM   28  O6  UNL     1      22.703  -4.621  16.243  1.00  0.00    -0.390 OA
ATOM     29  H6  UNL     1      23.021  -5.504  16.096  1.00  0.00     0.210 HD
ENDBRANCH  21  28
BRANCH  22  30
HETATM   30  O7  UNL     1      22.380  -1.942  16.695  1.00  0.00    -0.389 OA
ATOM     31  H7  UNL     1      22.280  -1.830  15.758  1.00  0.00     0.210 HD
ENDBRANCH  22  30
ENDBRANCH   1  17
TORSDOF 12
ENDMDL
