MODEL 1
REMARK VINA RESULT: -5.281001821      0.000      0.000
REMARK  12 active torsions:
REMARK  status: ('A' for Active; 'I' for Inactive)
REMARK    1  A    between atoms: O1_1  and  C1_3 
REMARK    2  A    between atoms: C1_3  and  C2_4 
REMARK    3  A    between atoms: C3_6  and  S1_7 
REMARK    4  A    between atoms: S1_7  and  C4_8 
REMARK    5  A    between atoms: C5_10  and  C6_11 
REMARK    6  A    between atoms: C6_11  and  O4_12 
REMARK    7  A    between atoms: C7_14  and  O5_15 
REMARK    8  A    between atoms: C8_17  and  O6_18 
REMARK    9  A    between atoms: C9_20  and  O7_21 
REMARK   10  A    between atoms: C10_23  and  O8_24 
REMARK   11  A    between atoms: C11_26  and  O9_27 
REMARK   12  A    between atoms: C12_29  and  O10_30 
ROOT
HETATM    1  S1  UNL     1      22.482   3.917  15.500  1.00  0.00    -0.100 SA
ENDROOT
BRANCH   1   2
HETATM    2  C3  UNL     1      23.341   3.000  16.790  1.00  0.00     0.217 C 
HETATM    3  O2  UNL     1      22.877   1.707  16.948  1.00  0.00    -0.363 OA
HETATM    4  C2  UNL     1      23.878   1.012  17.645  1.00  0.00     0.178 C 
HETATM    5  C12 UNL     1      23.889   1.497  19.067  1.00  0.00     0.180 C 
HETATM    6  C11 UNL     1      24.255   2.971  19.037  1.00  0.00     0.181 C 
HETATM    7  C10 UNL     1      23.240   3.679  18.149  1.00  0.00     0.188 C 
BRANCH   4   8
HETATM    8  C1  UNL     1      23.733  -0.477  17.518  1.00  0.00     0.198 C 
BRANCH   8   9
HETATM    9  O1  UNL     1      22.365  -0.771  17.576  1.00  0.00    -0.398 OA
ATOM     10  H1  UNL     1      22.166  -1.021  18.471  1.00  0.00     0.209 HD
ENDBRANCH   8   9
ENDBRANCH   4   8
BRANCH   5  11
HETATM   11  O10 UNL     1      22.618   1.400  19.633  1.00  0.00    -0.390 OA
ATOM     12  H10 UNL     1      21.945   1.511  18.971  1.00  0.00     0.210 HD
ENDBRANCH   5  11
BRANCH   6  13
HETATM   13  O9  UNL     1      24.323   3.528  20.301  1.00  0.00    -0.390 OA
ATOM     14  H9  UNL     1      24.697   2.930  20.938  1.00  0.00     0.210 HD
ENDBRANCH   6  13
BRANCH   7  15
HETATM   15  O8  UNL     1      23.601   5.024  18.039  1.00  0.00    -0.389 OA
ATOM     16  H8  UNL     1      23.384   5.485  18.841  1.00  0.00     0.210 HD
ENDBRANCH   7  15
ENDBRANCH   1   2
BRANCH   1  17
HETATM   17  C4  UNL     1      23.753   4.664  14.431  1.00  0.00     0.217 C 
HETATM   18  O3  UNL     1      24.468   5.555  15.179  1.00  0.00    -0.363 OA
HETATM   19  C5  UNL     1      24.185   6.886  14.969  1.00  0.00     0.178 C 
HETATM   20  C7  UNL     1      24.367   7.316  13.527  1.00  0.00     0.180 C 
HETATM   21  C8  UNL     1      24.195   6.156  12.571  1.00  0.00     0.181 C 
HETATM   22  C9  UNL     1      23.195   5.185  13.148  1.00  0.00     0.188 C 
BRANCH  19  23
HETATM   23  C6  UNL     1      22.876   7.337  15.554  1.00  0.00     0.198 C 
BRANCH  23  24
HETATM   24  O4  UNL     1      22.939   8.704  15.871  1.00  0.00    -0.398 OA
ATOM     25  H4  UNL     1      23.371   9.180  15.172  1.00  0.00     0.209 HD
ENDBRANCH  23  24
ENDBRANCH  19  23
BRANCH  20  26
HETATM   26  O5  UNL     1      23.515   8.374  13.252  1.00  0.00    -0.390 OA
ATOM     27  H5  UNL     1      22.782   8.061  12.735  1.00  0.00     0.210 HD
ENDBRANCH  20  26
BRANCH  21  28
HETATM   28  O6  UNL     1      23.880   6.569  11.291  1.00  0.00    -0.390 OA
ATOM     29  H6  UNL     1      23.126   6.112  10.937  1.00  0.00     0.210 HD
ENDBRANCH  21  28
BRANCH  22  30
HETATM   30  O7  UNL     1      23.104   4.122  12.236  1.00  0.00    -0.389 OA
ATOM     31  H7  UNL     1      22.185   3.939  12.076  1.00  0.00     0.210 HD
ENDBRANCH  22  30
ENDBRANCH   1  17
TORSDOF 12
ENDMDL
