MODEL 4
REMARK VINA RESULT: -8.803627175      1.157      2.260
REMARK  8 active torsions:
REMARK  status: ('A' for Active; 'I' for Inactive)
REMARK    1  A    between atoms: C4_9  and  C5_10 
REMARK    2  A    between atoms: C5_10  and  N3_11 
REMARK    3  A    between atoms: N3_11  and  C6_13 
REMARK    4  A    between atoms: C6_13  and  C7_14 
REMARK    5  A    between atoms: C6_13  and  C8_17 
REMARK    6  A    between atoms: C7_14  and  O2_15 
REMARK    7  A    between atoms: C8_17  and  C9_18 
REMARK    8  A    between atoms: C9_18  and  P1_19 
ROOT
HETATM    1  O1  UNL     1      66.213  38.138  79.904  1.00  0.00    -0.266 OA
HETATM    2  C1  UNL     1      65.532  37.545  79.031  1.00  0.00     0.275 A 
HETATM    3  N1  UNL     1      66.120  37.257  77.859  1.00  0.00    -0.318 N 
ATOM      4  H1  UNL     1      67.092  37.520  77.698  1.00  0.00     0.169 HD
HETATM    5  C2  UNL     1      65.424  36.621  76.894  1.00  0.00     0.184 A 
HETATM    6  N2  UNL     1      64.141  36.249  77.048  1.00  0.00    -0.350 N 
ATOM      7  H2  UNL     1      63.647  35.768  76.296  1.00  0.00     0.166 HD
HETATM    8  C3  UNL     1      63.520  36.520  78.206  1.00  0.00     0.075 A 
HETATM    9  C4  UNL     1      62.225  36.259  78.633  1.00  0.00     0.004 A 
HETATM   10  C10 UNL     1      62.166  36.769  79.912  1.00  0.00     0.099 A 
HETATM   11  N4  UNL     1      63.373  37.314  80.237  1.00  0.00    -0.359 N 
ATOM     12  H4  UNL     1      63.598  37.760  81.126  1.00  0.00     0.165 HD
HETATM   13  C11 UNL     1      64.217  37.170  79.203  1.00  0.00     0.128 A 
ENDROOT
BRANCH   9  14
HETATM   14  C5  UNL     1      61.172  35.568  77.827  1.00  0.00     0.157 C 
BRANCH  14  15
HETATM   15  N3  UNL     1      60.563  36.437  76.887  1.00  0.00    -0.411 N 
ATOM     16  H3  UNL     1      60.186  37.348  77.152  1.00  0.00     0.154 HD
BRANCH  15  17
HETATM   17  C6  UNL     1      60.511  35.941  75.517  1.00  0.00     0.101 C 
BRANCH  17  18
HETATM   18  C7  UNL     1      61.469  36.651  74.623  1.00  0.00     0.188 C 
BRANCH  18  19
HETATM   19  O2  UNL     1      60.850  37.314  73.568  1.00  0.00    -0.399 OA
ATOM     20  H2  UNL     1      60.178  37.924  73.850  1.00  0.00     0.209 HD
ENDBRANCH  18  19
ENDBRANCH  17  18
BRANCH  17  21
HETATM   21  C8  UNL     1      59.119  36.129  75.048  1.00  0.00     0.040 C 
BRANCH  21  22
HETATM   22  C9  UNL     1      58.361  34.862  74.745  1.00  0.00     0.148 C 
BRANCH  22  23
HETATM   23  P1  UNL     1      57.542  34.229  76.145  1.00  0.00     0.259 P 
HETATM   24  O3  UNL     1      57.777  34.926  77.645  1.00  0.00    -0.640 OA
HETATM   25  O4  UNL     1      56.348  33.089  75.980  1.00  0.00    -0.640 OA
HETATM   26  O5  UNL     1      58.529  33.133  76.567  1.00  0.00    -0.640 OA
ENDBRANCH  22  23
ENDBRANCH  21  22
ENDBRANCH  17  21
ENDBRANCH  15  17
ENDBRANCH  14  15
ENDBRANCH   9  14
TORSDOF 8
ENDMDL
