MODEL 5
REMARK VINA RESULT: -8.798541164      4.577      7.188
REMARK  8 active torsions:
REMARK  status: ('A' for Active; 'I' for Inactive)
REMARK    1  A    between atoms: C4_9  and  C5_10 
REMARK    2  A    between atoms: C5_10  and  N3_11 
REMARK    3  A    between atoms: N3_11  and  C6_13 
REMARK    4  A    between atoms: C6_13  and  C7_14 
REMARK    5  A    between atoms: C6_13  and  C8_17 
REMARK    6  A    between atoms: C7_14  and  O2_15 
REMARK    7  A    between atoms: C8_17  and  C9_18 
REMARK    8  A    between atoms: C9_18  and  P1_19 
ROOT
HETATM    1  O1  UNL     1      56.689  34.457  76.980  1.00  0.00    -0.266 OA
HETATM    2  C1  UNL     1      57.530  34.139  76.104  1.00  0.00     0.275 A 
HETATM    3  N1  UNL     1      58.112  32.933  76.196  1.00  0.00    -0.318 N 
ATOM      4  H1  UNL     1      57.868  32.306  76.962  1.00  0.00     0.169 HD
HETATM    5  C2  UNL     1      59.021  32.551  75.275  1.00  0.00     0.184 A 
HETATM    6  N2  UNL     1      59.383  33.334  74.243  1.00  0.00    -0.350 N 
ATOM      7  H2  UNL     1      60.073  33.010  73.565  1.00  0.00     0.166 HD
HETATM    8  C3  UNL     1      58.822  34.546  74.118  1.00  0.00     0.075 A 
HETATM    9  C4  UNL     1      59.003  35.545  73.171  1.00  0.00     0.004 A 
HETATM   10  C10 UNL     1      58.155  36.559  73.562  1.00  0.00     0.099 A 
HETATM   11  N4  UNL     1      57.496  36.184  74.695  1.00  0.00    -0.359 N 
ATOM     12  H4  UNL     1      56.810  36.752  75.193  1.00  0.00     0.165 HD
HETATM   13  C11 UNL     1      57.891  34.952  75.051  1.00  0.00     0.128 A 
ENDROOT
BRANCH   9  14
HETATM   14  C5  UNL     1      59.934  35.470  72.004  1.00  0.00     0.157 C 
BRANCH  14  15
HETATM   15  N3  UNL     1      61.131  36.196  72.228  1.00  0.00    -0.411 N 
ATOM     16  H3  UNL     1      61.474  36.897  71.571  1.00  0.00     0.154 HD
BRANCH  15  17
HETATM   17  C6  UNL     1      61.838  35.871  73.461  1.00  0.00     0.101 C 
BRANCH  17  18
HETATM   18  C7  UNL     1      62.039  37.067  74.329  1.00  0.00     0.188 C 
BRANCH  18  19
HETATM   19  O2  UNL     1      61.187  37.099  75.429  1.00  0.00    -0.399 OA
ATOM     20  H2  UNL     1      61.200  37.929  75.890  1.00  0.00     0.209 HD
ENDBRANCH  18  19
ENDBRANCH  17  18
BRANCH  17  21
HETATM   21  C8  UNL     1      63.141  35.288  73.065  1.00  0.00     0.040 C 
BRANCH  21  22
HETATM   22  C9  UNL     1      64.293  36.258  73.009  1.00  0.00     0.148 C 
BRANCH  22  23
HETATM   23  P1  UNL     1      65.323  35.985  71.632  1.00  0.00     0.259 P 
HETATM   24  O3  UNL     1      65.306  34.510  70.847  1.00  0.00    -0.640 OA
HETATM   25  O4  UNL     1      66.153  37.242  70.939  1.00  0.00    -0.640 OA
HETATM   26  O5  UNL     1      66.606  35.527  72.337  1.00  0.00    -0.640 OA
ENDBRANCH  22  23
ENDBRANCH  21  22
ENDBRANCH  17  21
ENDBRANCH  15  17
ENDBRANCH  14  15
ENDBRANCH   9  14
TORSDOF 8
ENDMDL
