MODEL 1
REMARK VINA RESULT: -9.038235849      0.000      0.000
REMARK  8 active torsions:
REMARK  status: ('A' for Active; 'I' for Inactive)
REMARK    1  A    between atoms: C4_9  and  C5_10 
REMARK    2  A    between atoms: C5_10  and  N3_11 
REMARK    3  A    between atoms: N3_11  and  C6_13 
REMARK    4  A    between atoms: C6_13  and  C7_14 
REMARK    5  A    between atoms: C6_13  and  C8_17 
REMARK    6  A    between atoms: C7_14  and  O2_15 
REMARK    7  A    between atoms: C8_17  and  C9_18 
REMARK    8  A    between atoms: C9_18  and  P1_19 
ROOT
HETATM    1  O1  UNL     1      66.094  38.090  79.804  1.00  0.00    -0.266 OA
HETATM    2  C1  UNL     1      65.033  37.536  79.425  1.00  0.00     0.275 A 
HETATM    3  N1  UNL     1      64.016  37.451  80.297  1.00  0.00    -0.318 N 
ATOM      4  H1  UNL     1      64.119  37.830  81.238  1.00  0.00     0.169 HD
HETATM    5  C2  UNL     1      62.859  36.864  79.928  1.00  0.00     0.184 A 
HETATM    6  N2  UNL     1      62.664  36.347  78.702  1.00  0.00    -0.350 N 
ATOM      7  H2  UNL     1      61.774  35.911  78.460  1.00  0.00     0.166 HD
HETATM    8  C3  UNL     1      63.657  36.413  77.803  1.00  0.00     0.075 A 
HETATM    9  C4  UNL     1      63.734  35.970  76.490  1.00  0.00     0.004 A 
HETATM   10  C10 UNL     1      65.001  36.318  76.074  1.00  0.00     0.099 A 
HETATM   11  N4  UNL     1      65.656  36.942  77.094  1.00  0.00    -0.359 N 
ATOM     12  H4  UNL     1      66.610  37.300  77.051  1.00  0.00     0.165 HD
HETATM   13  C11 UNL     1      64.847  37.010  78.164  1.00  0.00     0.128 A 
ENDROOT
BRANCH   9  14
HETATM   14  C5  UNL     1      62.639  35.273  75.748  1.00  0.00     0.157 C 
BRANCH  14  15
HETATM   15  N3  UNL     1      61.499  36.098  75.578  1.00  0.00    -0.411 N 
ATOM     16  H3  UNL     1      61.264  36.845  76.232  1.00  0.00     0.154 HD
BRANCH  15  17
HETATM   17  C6  UNL     1      60.685  35.806  74.404  1.00  0.00     0.101 C 
BRANCH  17  18
HETATM   18  C7  UNL     1      61.196  36.487  73.179  1.00  0.00     0.188 C 
BRANCH  18  19
HETATM   19  O2  UNL     1      61.596  37.800  73.406  1.00  0.00    -0.399 OA
ATOM     20  H2  UNL     1      62.539  37.904  73.447  1.00  0.00     0.209 HD
ENDBRANCH  18  19
ENDBRANCH  17  18
BRANCH  17  21
HETATM   21  C8  UNL     1      59.309  36.256  74.717  1.00  0.00     0.040 C 
BRANCH  21  22
HETATM   22  C9  UNL     1      58.247  35.189  74.641  1.00  0.00     0.148 C 
BRANCH  22  23
HETATM   23  P1  UNL     1      58.109  34.285  76.123  1.00  0.00     0.259 P 
HETATM   24  O3  UNL     1      56.759  34.455  77.091  1.00  0.00    -0.640 OA
HETATM   25  O4  UNL     1      59.191  33.078  76.477  1.00  0.00    -0.640 OA
HETATM   26  O5  UNL     1      58.844  35.225  77.086  1.00  0.00    -0.640 OA
ENDBRANCH  22  23
ENDBRANCH  21  22
ENDBRANCH  17  21
ENDBRANCH  15  17
ENDBRANCH  14  15
ENDBRANCH   9  14
TORSDOF 8
ENDMDL
