MODEL 3
REMARK VINA RESULT: -8.885503780      3.188      4.685
REMARK  8 active torsions:
REMARK  status: ('A' for Active; 'I' for Inactive)
REMARK    1  A    between atoms: C4_9  and  C5_10 
REMARK    2  A    between atoms: C5_10  and  N3_11 
REMARK    3  A    between atoms: N3_11  and  C6_13 
REMARK    4  A    between atoms: C6_13  and  C7_14 
REMARK    5  A    between atoms: C6_13  and  C8_17 
REMARK    6  A    between atoms: C7_14  and  O2_15 
REMARK    7  A    between atoms: C8_17  and  C9_18 
REMARK    8  A    between atoms: C9_18  and  P1_19 
ROOT
HETATM    1  O1  UNL     1      66.125  38.203  79.861  1.00  0.00    -0.266 OA
HETATM    2  C1  UNL     1      65.081  37.612  79.492  1.00  0.00     0.275 A 
HETATM    3  N1  UNL     1      64.068  37.513  80.366  1.00  0.00    -0.318 N 
ATOM      4  H1  UNL     1      64.159  37.912  81.300  1.00  0.00     0.169 HD
HETATM    5  C2  UNL     1      62.927  36.886  80.009  1.00  0.00     0.184 A 
HETATM    6  N2  UNL     1      62.747  36.342  78.793  1.00  0.00    -0.350 N 
ATOM      7  H2  UNL     1      61.870  35.876  78.559  1.00  0.00     0.166 HD
HETATM    8  C3  UNL     1      63.738  36.421  77.892  1.00  0.00     0.075 A 
HETATM    9  C4  UNL     1      63.828  35.956  76.587  1.00  0.00     0.004 A 
HETATM   10  C10 UNL     1      65.083  36.333  76.164  1.00  0.00     0.099 A 
HETATM   11  N4  UNL     1      65.720  36.994  77.172  1.00  0.00    -0.359 N 
ATOM     12  H4  UNL     1      66.664  37.379  77.122  1.00  0.00     0.165 HD
HETATM   13  C11 UNL     1      64.910  37.058  78.241  1.00  0.00     0.128 A 
ENDROOT
BRANCH   9  14
HETATM   14  C5  UNL     1      62.753  35.214  75.859  1.00  0.00     0.157 C 
BRANCH  14  15
HETATM   15  N3  UNL     1      62.131  36.012  74.866  1.00  0.00    -0.411 N 
ATOM     16  H3  UNL     1      61.836  36.972  75.044  1.00  0.00     0.154 HD
BRANCH  15  17
HETATM   17  C6  UNL     1      61.941  35.366  73.572  1.00  0.00     0.101 C 
BRANCH  17  18
HETATM   18  C7  UNL     1      61.162  34.099  73.683  1.00  0.00     0.188 C 
BRANCH  18  19
HETATM   19  O2  UNL     1      61.169  33.346  72.513  1.00  0.00    -0.399 OA
ATOM     20  H2  UNL     1      60.836  32.464  72.632  1.00  0.00     0.209 HD
ENDBRANCH  18  19
ENDBRANCH  17  18
BRANCH  17  21
HETATM   21  C8  UNL     1      63.292  35.104  73.024  1.00  0.00     0.040 C 
BRANCH  21  22
HETATM   22  C9  UNL     1      64.117  36.329  72.724  1.00  0.00     0.148 C 
BRANCH  22  23
HETATM   23  P1  UNL     1      65.291  36.047  71.469  1.00  0.00     0.259 P 
HETATM   24  O3  UNL     1      65.375  34.560  70.713  1.00  0.00    -0.640 OA
HETATM   25  O4  UNL     1      66.177  37.303  70.847  1.00  0.00    -0.640 OA
HETATM   26  O5  UNL     1      66.496  35.617  72.315  1.00  0.00    -0.640 OA
ENDBRANCH  22  23
ENDBRANCH  21  22
ENDBRANCH  17  21
ENDBRANCH  15  17
ENDBRANCH  14  15
ENDBRANCH   9  14
TORSDOF 8
ENDMDL
