MODEL 7
REMARK VINA RESULT: -7.357860573      1.597      4.490
REMARK  2 active torsions:
REMARK  status: ('A' for Active; 'I' for Inactive)
REMARK    1  A    between atoms: C14_17  and  O4_18 
REMARK    2  A    between atoms: O4_18  and  C15_19 
ROOT
HETATM    1  C1  UNL     1      16.558  14.263  15.768  1.00  0.00     0.025 C 
HETATM    2  C2  UNL     1      16.886  13.876  16.969  1.00  0.00     0.017 C 
HETATM    3  C3  UNL     1      18.075  13.037  17.252  1.00  0.00     0.289 C 
HETATM    4  O1  UNL     1      18.809  12.500  16.367  1.00  0.00    -0.260 OA
HETATM    5  O2  UNL     1      18.202  12.972  18.640  1.00  0.00    -0.311 OA
HETATM    6  C4  UNL     1      16.878  13.005  19.100  1.00  0.00     0.143 C 
HETATM    7  C5  UNL     1      16.726  13.008  20.558  1.00  0.00     0.038 C 
HETATM    8  C6  UNL     1      15.403  13.451  21.090  1.00  0.00    -0.007 C 
HETATM    9  C7  UNL     1      15.448  13.350  22.602  1.00  0.00     0.011 C 
HETATM   10  C8  UNL     1      15.095  14.799  20.612  1.00  0.00     0.030 C 
HETATM   11  C9  UNL     1      14.405  15.720  21.515  1.00  0.00    -0.017 C 
HETATM   12  C10 UNL     1      13.868  16.657  20.729  1.00  0.00     0.047 C 
HETATM   13  C11 UNL     1      14.201  16.346  19.332  1.00  0.00     0.160 C 
HETATM   14  O3  UNL     1      14.401  17.190  18.456  1.00  0.00    -0.292 OA
HETATM   15  C12 UNL     1      14.198  14.867  19.395  1.00  0.00     0.055 C 
HETATM   16  C13 UNL     1      12.849  14.364  19.877  1.00  0.00     0.027 C 
HETATM   17  C14 UNL     1      14.774  14.088  18.313  1.00  0.00     0.159 C 
HETATM   18  C17 UNL     1      16.287  14.112  18.307  1.00  0.00     0.084 C 
ENDROOT
BRANCH  17  19
HETATM   19  O4  UNL     1      14.181  14.127  17.058  1.00  0.00    -0.314 OA
BRANCH  19  20
HETATM   20  C15 UNL     1      12.956  14.585  16.700  1.00  0.00     0.255 C 
HETATM   21  C16 UNL     1      11.670  13.882  16.829  1.00  0.00     0.126 C 
HETATM   22  O5  UNL     1      12.967  15.731  16.214  1.00  0.00    -0.266 OA
ENDBRANCH  19  20
ENDBRANCH  17  19
TORSDOF 2
ENDMDL
