MODEL 8
REMARK VINA RESULT: -7.290710317      1.949      4.037
REMARK  2 active torsions:
REMARK  status: ('A' for Active; 'I' for Inactive)
REMARK    1  A    between atoms: C14_17  and  O4_18 
REMARK    2  A    between atoms: O4_18  and  C15_19 
ROOT
HETATM    1  C1  UNL     1      15.893  15.217  18.898  1.00  0.00     0.025 C 
HETATM    2  C2  UNL     1      14.623  14.933  18.834  1.00  0.00     0.017 C 
HETATM    3  C3  UNL     1      13.796  14.649  20.031  1.00  0.00     0.289 C 
HETATM    4  O1  UNL     1      14.251  14.515  21.209  1.00  0.00    -0.260 OA
HETATM    5  O2  UNL     1      12.473  14.563  19.598  1.00  0.00    -0.311 OA
HETATM    6  C4  UNL     1      12.576  14.018  18.309  1.00  0.00     0.143 C 
HETATM    7  C5  UNL     1      11.307  13.875  17.591  1.00  0.00     0.038 C 
HETATM    8  C6  UNL     1      11.394  13.698  16.111  1.00  0.00    -0.007 C 
HETATM    9  C7  UNL     1       9.986  13.540  15.574  1.00  0.00     0.011 C 
HETATM   10  C8  UNL     1      12.115  14.822  15.513  1.00  0.00     0.030 C 
HETATM   11  C9  UNL     1      11.674  15.321  14.210  1.00  0.00    -0.017 C 
HETATM   12  C10 UNL     1      12.716  15.994  13.713  1.00  0.00     0.047 C 
HETATM   13  C11 UNL     1      13.822  15.929  14.679  1.00  0.00     0.160 C 
HETATM   14  O3  UNL     1      14.645  16.828  14.862  1.00  0.00    -0.292 OA
HETATM   15  C12 UNL     1      13.584  14.581  15.244  1.00  0.00     0.055 C 
HETATM   16  C13 UNL     1      13.612  13.537  14.141  1.00  0.00     0.027 C 
HETATM   17  C14 UNL     1      14.250  14.174  16.468  1.00  0.00     0.159 C 
HETATM   18  C17 UNL     1      13.666  14.823  17.703  1.00  0.00     0.084 C 
ENDROOT
BRANCH  17  19
HETATM   19  O4  UNL     1      15.632  14.034  16.476  1.00  0.00    -0.314 OA
BRANCH  19  20
HETATM   20  C15 UNL     1      16.381  12.904  16.489  1.00  0.00     0.255 C 
HETATM   21  C16 UNL     1      17.830  12.800  16.725  1.00  0.00     0.126 C 
HETATM   22  O5  UNL     1      15.733  11.865  16.271  1.00  0.00    -0.266 OA
ENDBRANCH  19  20
ENDBRANCH  17  19
TORSDOF 2
ENDMDL
