MODEL 3
REMARK VINA RESULT: -7.683388984      1.980      4.783
REMARK  2 active torsions:
REMARK  status: ('A' for Active; 'I' for Inactive)
REMARK    1  A    between atoms: C14_17  and  O4_18 
REMARK    2  A    between atoms: O4_18  and  C15_19 
ROOT
HETATM    1  C1  UNL     1      13.448  16.155  16.951  1.00  0.00     0.025 C 
HETATM    2  C2  UNL     1      14.074  15.066  16.602  1.00  0.00     0.017 C 
HETATM    3  C3  UNL     1      13.897  14.419  15.280  1.00  0.00     0.289 C 
HETATM    4  O1  UNL     1      13.034  14.764  14.416  1.00  0.00    -0.260 OA
HETATM    5  O2  UNL     1      14.841  13.396  15.201  1.00  0.00    -0.311 OA
HETATM    6  C4  UNL     1      14.955  12.940  16.523  1.00  0.00     0.143 C 
HETATM    7  C5  UNL     1      15.947  11.882  16.734  1.00  0.00     0.038 C 
HETATM    8  C6  UNL     1      16.395  11.658  18.141  1.00  0.00    -0.007 C 
HETATM    9  C7  UNL     1      17.387  10.513  18.140  1.00  0.00     0.011 C 
HETATM   10  C8  UNL     1      16.944  12.895  18.696  1.00  0.00     0.030 C 
HETATM   11  C9  UNL     1      18.093  12.807  19.598  1.00  0.00    -0.017 C 
HETATM   12  C10 UNL     1      18.102  13.955  20.280  1.00  0.00     0.047 C 
HETATM   13  C11 UNL     1      16.969  14.777  19.832  1.00  0.00     0.160 C 
HETATM   14  O3  UNL     1      16.979  16.009  19.771  1.00  0.00    -0.292 OA
HETATM   15  C12 UNL     1      15.985  13.711  19.536  1.00  0.00     0.055 C 
HETATM   16  C13 UNL     1      15.736  12.868  20.774  1.00  0.00     0.027 C 
HETATM   17  C14 UNL     1      14.790  14.013  18.768  1.00  0.00     0.159 C 
HETATM   18  C17 UNL     1      15.067  14.205  17.293  1.00  0.00     0.084 C 
ENDROOT
BRANCH  17  19
HETATM   19  O4  UNL     1      13.838  14.870  19.303  1.00  0.00    -0.314 OA
BRANCH  19  20
HETATM   20  C15 UNL     1      12.757  14.583  20.069  1.00  0.00     0.255 C 
HETATM   21  C16 UNL     1      12.574  14.882  21.498  1.00  0.00     0.126 C 
HETATM   22  O5  UNL     1      11.842  14.002  19.457  1.00  0.00    -0.266 OA
ENDBRANCH  19  20
ENDBRANCH  17  19
TORSDOF 2
ENDMDL
