MODEL 2
REMARK VINA RESULT: -7.871927084      1.647      4.209
REMARK  2 active torsions:
REMARK  status: ('A' for Active; 'I' for Inactive)
REMARK    1  A    between atoms: C14_17  and  O4_18 
REMARK    2  A    between atoms: O4_18  and  C15_19 
ROOT
HETATM    1  C1  UNL     1      17.154  14.701  19.200  1.00  0.00     0.025 C 
HETATM    2  C2  UNL     1      15.870  14.853  19.030  1.00  0.00     0.017 C 
HETATM    3  C3  UNL     1      14.963  15.328  20.103  1.00  0.00     0.289 C 
HETATM    4  O1  UNL     1      15.303  15.502  21.313  1.00  0.00    -0.260 OA
HETATM    5  O2  UNL     1      13.714  15.530  19.515  1.00  0.00    -0.311 OA
HETATM    6  C4  UNL     1      13.646  14.542  18.522  1.00  0.00     0.143 C 
HETATM    7  C5  UNL     1      12.434  14.570  17.699  1.00  0.00     0.038 C 
HETATM    8  C6  UNL     1      12.492  13.834  16.400  1.00  0.00    -0.007 C 
HETATM    9  C7  UNL     1      11.140  13.962  15.728  1.00  0.00     0.011 C 
HETATM   10  C8  UNL     1      13.592  14.345  15.583  1.00  0.00     0.030 C 
HETATM   11  C9  UNL     1      13.403  14.435  14.135  1.00  0.00    -0.017 C 
HETATM   12  C10 UNL     1      14.633  14.487  13.616  1.00  0.00     0.047 C 
HETATM   13  C11 UNL     1      15.610  14.426  14.713  1.00  0.00     0.160 C 
HETATM   14  O3  UNL     1      16.701  15.001  14.711  1.00  0.00    -0.292 OA
HETATM   15  C12 UNL     1      14.877  13.548  15.653  1.00  0.00     0.055 C 
HETATM   16  C13 UNL     1      14.551  12.222  14.989  1.00  0.00     0.027 C 
HETATM   17  C14 UNL     1      15.312  13.433  17.034  1.00  0.00     0.159 C 
HETATM   18  C17 UNL     1      14.973  14.651  17.865  1.00  0.00     0.084 C 
ENDROOT
BRANCH  17  19
HETATM   19  O4  UNL     1      16.544  12.857  17.312  1.00  0.00    -0.314 OA
BRANCH  19  20
HETATM   20  C15 UNL     1      16.871  11.548  17.445  1.00  0.00     0.255 C 
HETATM   21  C16 UNL     1      16.505  10.647  18.548  1.00  0.00     0.126 C 
HETATM   22  O5  UNL     1      17.557  11.101  16.507  1.00  0.00    -0.266 OA
ENDBRANCH  19  20
ENDBRANCH  17  19
TORSDOF 2
ENDMDL
