MODEL 19
REMARK VINA RESULT: -6.371990907      2.019      4.704
REMARK  2 active torsions:
REMARK  status: ('A' for Active; 'I' for Inactive)
REMARK    1  A    between atoms: C14_17  and  O4_18 
REMARK    2  A    between atoms: O4_18  and  C15_19 
ROOT
HETATM    1  C1  UNL     1      14.180  16.094  15.926  1.00  0.00     0.025 C 
HETATM    2  C2  UNL     1      14.667  14.891  15.799  1.00  0.00     0.017 C 
HETATM    3  C3  UNL     1      14.491  14.072  14.576  1.00  0.00     0.289 C 
HETATM    4  O1  UNL     1      13.748  14.386  13.596  1.00  0.00    -0.260 OA
HETATM    5  O2  UNL     1      15.282  12.934  14.735  1.00  0.00    -0.311 OA
HETATM    6  C4  UNL     1      15.237  12.683  16.114  1.00  0.00     0.143 C 
HETATM    7  C5  UNL     1      16.051  11.551  16.567  1.00  0.00     0.038 C 
HETATM    8  C6  UNL     1      16.363  11.496  18.026  1.00  0.00    -0.007 C 
HETATM    9  C7  UNL     1      17.179  10.245  18.284  1.00  0.00     0.011 C 
HETATM   10  C8  UNL     1      17.044  12.722  18.441  1.00  0.00     0.030 C 
HETATM   11  C9  UNL     1      18.103  12.628  19.446  1.00  0.00    -0.017 C 
HETATM   12  C10 UNL     1      18.229  13.859  19.950  1.00  0.00     0.047 C 
HETATM   13  C11 UNL     1      17.259  14.741  19.285  1.00  0.00     0.160 C 
HETATM   14  O3  UNL     1      17.450  15.935  19.045  1.00  0.00    -0.292 OA
HETATM   15  C12 UNL     1      16.156  13.779  19.061  1.00  0.00     0.055 C 
HETATM   16  C13 UNL     1      15.703  13.182  20.382  1.00  0.00     0.027 C 
HETATM   17  C14 UNL     1      15.072  14.110  18.152  1.00  0.00     0.159 C 
HETATM   18  C17 UNL     1      15.475  14.028  16.696  1.00  0.00     0.084 C 
ENDROOT
BRANCH  17  19
HETATM   19  O4  UNL     1      14.218  15.158  18.467  1.00  0.00    -0.314 OA
BRANCH  19  20
HETATM   20  C15 UNL     1      13.904  15.676  19.679  1.00  0.00     0.255 C 
HETATM   21  C16 UNL     1      14.449  16.897  20.293  1.00  0.00     0.126 C 
HETATM   22  O5  UNL     1      13.058  15.014  20.309  1.00  0.00    -0.266 OA
ENDBRANCH  19  20
ENDBRANCH  17  19
TORSDOF 2
ENDMDL
