MODEL 7
REMARK VINA RESULT: -7.759928324      2.523      7.460
REMARK  8 active torsions:
REMARK  status: ('A' for Active; 'I' for Inactive)
REMARK       I    between atoms: C2_2  and  N1_4 
REMARK    1  A    between atoms: N1_4  and  C3_6 
REMARK    2  A    between atoms: N2_8  and  O2_10 
REMARK    3  A    between atoms: O2_10  and  C5_11 
REMARK       I    between atoms: C5_11  and  N3_13 
REMARK    4  A    between atoms: N3_13  and  C6_15 
REMARK    5  A    between atoms: C12_22  and  C13_23 
REMARK    6  A    between atoms: C13_23  and  O5_24 
REMARK    7  A    between atoms: C14_26  and  O6_27 
REMARK    8  A    between atoms: C15_29  and  O7_30 
ROOT
HETATM    1  C3  UNL     1      31.232 -62.730  44.236  1.00  0.00     0.192 C 
HETATM    2  C4  UNL     1      32.432 -63.435  43.718  1.00  0.00     0.165 C 
HETATM    3  N2  UNL     1      33.202 -62.749  42.940  1.00  0.00    -0.236 N 
ATOM      4  H2  UNL     1      34.035 -63.202  42.566  1.00  0.00     0.197 HD
HETATM    5  O4  UNL     1      32.714 -64.761  44.053  1.00  0.00    -0.326 OA
HETATM    6  C12 UNL     1      31.764 -65.642  44.583  1.00  0.00     0.185 C 
HETATM    7  C14 UNL     1      30.789 -64.891  45.413  1.00  0.00     0.180 C 
HETATM    8  C15 UNL     1      30.191 -63.687  44.733  1.00  0.00     0.180 C 
ENDROOT
BRANCH   1   9
HETATM    9  N1  UNL     1      31.558 -61.820  45.311  1.00  0.00    -0.347 N 
HETATM   10  C2  UNL     1      31.336 -60.423  45.183  1.00  0.00     0.214 C 
HETATM   11  C1  UNL     1      31.677 -59.477  46.305  1.00  0.00     0.117 C 
HETATM   12  O1  UNL     1      30.847 -59.963  44.116  1.00  0.00    -0.274 OA
ATOM     13  H1  UNL     1      31.953 -62.188  46.176  1.00  0.00     0.163 HD
ENDBRANCH   1   9
BRANCH   3  14
HETATM   14  O2  UNL     1      32.960 -61.443  42.587  1.00  0.00    -0.179 OA
BRANCH  14  15
HETATM   15  C5  UNL     1      34.020 -60.714  41.990  1.00  0.00     0.387 C 
HETATM   16  O3  UNL     1      35.067 -61.326  41.682  1.00  0.00    -0.236 OA
HETATM   17  N3  UNL     1      33.923 -59.343  41.742  1.00  0.00    -0.301 N 
ATOM     18  H3  UNL     1      33.046 -58.900  42.014  1.00  0.00     0.171 HD
BRANCH  17  19
HETATM   19  C6  UNL     1      34.892 -58.494  41.158  1.00  0.00     0.036 A 
HETATM   20  C7  UNL     1      34.517 -57.596  40.148  1.00  0.00     0.029 A 
HETATM   21  C8  UNL     1      35.411 -56.747  39.543  1.00  0.00     0.002 A 
HETATM   22  C9  UNL     1      36.728 -56.739  39.904  1.00  0.00     0.000 A 
HETATM   23  C10 UNL     1      37.138 -57.608  40.893  1.00  0.00     0.002 A 
HETATM   24  C11 UNL     1      36.216 -58.457  41.491  1.00  0.00     0.029 A 
ENDBRANCH  17  19
ENDBRANCH  14  15
ENDBRANCH   3  14
BRANCH   8  25
HETATM   25  O7  UNL     1      29.368 -64.030  43.671  1.00  0.00    -0.390 OA
ATOM     26  H7  UNL     1      28.634 -64.531  44.008  1.00  0.00     0.210 HD
ENDBRANCH   8  25
BRANCH   6  27
HETATM   27  C13 UNL     1      31.136 -66.447  43.477  1.00  0.00     0.199 C 
BRANCH  27  28
HETATM   28  O5  UNL     1      29.945 -67.029  43.822  1.00  0.00    -0.398 OA
ATOM     29  H5  UNL     1      29.905 -67.961  43.642  1.00  0.00     0.209 HD
ENDBRANCH  27  28
ENDBRANCH   6  27
BRANCH   7  30
HETATM   30  O6  UNL     1      31.492 -64.393  46.535  1.00  0.00    -0.390 OA
ATOM     31  H6  UNL     1      30.964 -63.698  46.911  1.00  0.00     0.210 HD
ENDBRANCH   7  30
TORSDOF 8
ENDMDL
