MODEL 2
REMARK VINA RESULT: -8.479800452      2.509      4.013
REMARK  8 active torsions:
REMARK  status: ('A' for Active; 'I' for Inactive)
REMARK       I    between atoms: C2_2  and  N1_4 
REMARK    1  A    between atoms: N1_4  and  C3_6 
REMARK    2  A    between atoms: N2_8  and  O2_10 
REMARK    3  A    between atoms: O2_10  and  C5_11 
REMARK       I    between atoms: C5_11  and  N3_13 
REMARK    4  A    between atoms: N3_13  and  C6_15 
REMARK    5  A    between atoms: C12_22  and  C13_23 
REMARK    6  A    between atoms: C13_23  and  O5_24 
REMARK    7  A    between atoms: C14_26  and  O6_27 
REMARK    8  A    between atoms: C15_29  and  O7_30 
ROOT
HETATM    1  C3  UNL     1      33.552 -60.649  41.994  1.00  0.00     0.192 C 
HETATM    2  C4  UNL     1      33.166 -59.580  42.950  1.00  0.00     0.165 C 
HETATM    3  N2  UNL     1      32.143 -59.830  43.698  1.00  0.00    -0.236 N 
ATOM      4  H2  UNL     1      31.849 -59.118  44.367  1.00  0.00     0.197 HD
HETATM    5  O4  UNL     1      33.865 -58.374  43.037  1.00  0.00    -0.326 OA
HETATM    6  C12 UNL     1      34.731 -57.911  42.040  1.00  0.00     0.185 C 
HETATM    7  C14 UNL     1      35.378 -59.062  41.360  1.00  0.00     0.180 C 
HETATM    8  C15 UNL     1      34.420 -60.124  40.890  1.00  0.00     0.180 C 
ENDROOT
BRANCH   1   9
HETATM    9  N1  UNL     1      34.257 -61.730  42.645  1.00  0.00    -0.347 N 
HETATM   10  C2  UNL     1      33.719 -63.045  42.673  1.00  0.00     0.214 C 
HETATM   11  C1  UNL     1      34.454 -64.170  43.352  1.00  0.00     0.117 C 
HETATM   12  O1  UNL     1      32.609 -63.277  42.122  1.00  0.00    -0.274 OA
ATOM     13  H1  UNL     1      35.155 -61.546  43.092  1.00  0.00     0.163 HD
ENDBRANCH   1   9
BRANCH   3  14
HETATM   14  O2  UNL     1      31.427 -61.003  43.644  1.00  0.00    -0.179 OA
BRANCH  14  15
HETATM   15  C5  UNL     1      31.243 -61.720  44.854  1.00  0.00     0.387 C 
HETATM   16  O3  UNL     1      31.368 -61.107  45.937  1.00  0.00    -0.236 OA
HETATM   17  N3  UNL     1      30.928 -63.080  44.863  1.00  0.00    -0.301 N 
ATOM     18  H3  UNL     1      30.838 -63.525  43.950  1.00  0.00     0.171 HD
BRANCH  17  19
HETATM   19  C6  UNL     1      30.717 -63.917  45.984  1.00  0.00     0.036 A 
HETATM   20  C7  UNL     1      31.468 -65.094  46.128  1.00  0.00     0.029 A 
HETATM   21  C8  UNL     1      31.310 -65.946  47.194  1.00  0.00     0.002 A 
HETATM   22  C9  UNL     1      30.400 -65.681  48.177  1.00  0.00     0.000 A 
HETATM   23  C10 UNL     1      29.642 -64.535  48.072  1.00  0.00     0.002 A 
HETATM   24  C11 UNL     1      29.819 -63.688  46.987  1.00  0.00     0.029 A 
ENDBRANCH  17  19
ENDBRANCH  14  15
ENDBRANCH   3  14
BRANCH   8  25
HETATM   25  O7  UNL     1      33.600 -59.685  39.861  1.00  0.00    -0.390 OA
ATOM     26  H7  UNL     1      34.074 -59.771  39.042  1.00  0.00     0.210 HD
ENDBRANCH   8  25
BRANCH   6  27
HETATM   27  C13 UNL     1      33.994 -56.985  41.110  1.00  0.00     0.199 C 
BRANCH  27  28
HETATM   28  O5  UNL     1      32.633 -57.126  41.148  1.00  0.00    -0.398 OA
ATOM     29  H5  UNL     1      32.210 -56.605  41.819  1.00  0.00     0.209 HD
ENDBRANCH  27  28
ENDBRANCH   6  27
BRANCH   7  30
HETATM   30  O6  UNL     1      36.217 -59.690  42.310  1.00  0.00    -0.390 OA
ATOM     31  H6  UNL     1      37.014 -59.940  41.858  1.00  0.00     0.210 HD
ENDBRANCH   7  30
TORSDOF 8
ENDMDL
