MODEL 12
REMARK VINA RESULT: -6.844561300      4.101      8.567
REMARK  9 active torsions:
REMARK  status: ('A' for Active; 'I' for Inactive)
REMARK       I    between atoms: C1_2  and  N1_3 
REMARK    1  A    between atoms: C1_2  and  C9_17 
REMARK    2  A    between atoms: N1_3  and  C2_5 
REMARK    3  A    between atoms: C2_5  and  C3_6 
REMARK    4  A    between atoms: C4_7  and  C5_8 
REMARK    5  A    between atoms: C7_11  and  O3_12 
REMARK    6  A    between atoms: C8_14  and  O4_15 
REMARK    7  A    between atoms: C11_19  and  N2_20 
REMARK    8  A    between atoms: C13_24  and  O7_25 
REMARK    9  A    between atoms: C14_27  and  O8_28 
ROOT
HETATM    1  O1  UNL     1     -21.066  31.969   9.366  1.00  0.00    -0.268 OA
HETATM    2  C1  UNL     1     -20.498  30.861   9.174  1.00  0.00     0.254 C 
HETATM    3  N1  UNL     1     -20.505  30.359   7.851  1.00  0.00    -0.353 N 
ATOM      4  H1  UNL     1     -20.051  29.462   7.678  1.00  0.00     0.163 HD
ENDROOT
BRANCH   2   5
HETATM    5  C9  UNL     1     -19.876  30.169  10.298  1.00  0.00     0.070 A 
HETATM    6  C10 UNL     1     -18.773  30.635  10.964  1.00  0.00     0.056 A 
HETATM    7  C11 UNL     1     -18.196  29.951  12.042  1.00  0.00     0.106 A 
HETATM    8  C12 UNL     1     -18.757  28.764  12.452  1.00  0.00     0.075 A 
HETATM    9  C13 UNL     1     -19.872  28.262  11.803  1.00  0.00     0.102 A 
HETATM   10  C14 UNL     1     -20.412  28.959  10.751  1.00  0.00     0.114 A 
BRANCH   7  11
HETATM   11  N2  UNL     1     -17.051  30.479  12.696  1.00  0.00    -0.116 N 
HETATM   12  O5  UNL     1     -16.403  31.368  12.117  1.00  0.00    -0.532 OA
HETATM   13  O6  UNL     1     -16.643  30.052  13.919  1.00  0.00    -0.532 OA
ENDBRANCH   7  11
BRANCH   9  14
HETATM   14  O7  UNL     1     -20.386  27.061  12.267  1.00  0.00    -0.358 OA
ATOM     15  H7  UNL     1     -19.818  26.525  12.808  1.00  0.00     0.217 HD
ENDBRANCH   9  14
BRANCH  10  16
HETATM   16  O8  UNL     1     -21.511  28.493  10.088  1.00  0.00    -0.357 OA
ATOM     17  H8  UNL     1     -22.313  28.423  10.593  1.00  0.00     0.217 HD
ENDBRANCH  10  16
ENDBRANCH   2   5
BRANCH   3  18
HETATM   18  C2  UNL     1     -21.117  31.035   6.726  1.00  0.00     0.150 C 
BRANCH  18  19
HETATM   19  C3  UNL     1     -20.028  31.611   5.896  1.00  0.00    -0.009 C 
HETATM   20  C4  UNL     1     -20.245  32.555   4.982  1.00  0.00     0.005 C 
BRANCH  20  21
HETATM   21  C5  UNL     1     -19.102  33.086   4.189  1.00  0.00     0.175 C 
HETATM   22  O2  UNL     1     -19.534  34.220   3.502  1.00  0.00    -0.377 OA
HETATM   23  C6  UNL     1     -19.799  35.123   4.513  1.00  0.00     0.203 C 
HETATM   24  C7  UNL     1     -18.583  35.026   5.402  1.00  0.00     0.173 C 
HETATM   25  C8  UNL     1     -18.018  33.661   5.070  1.00  0.00     0.181 C 
BRANCH  24  26
HETATM   26  O3  UNL     1     -17.711  36.049   5.047  1.00  0.00    -0.391 OA
ATOM     27  H3  UNL     1     -17.172  35.738   4.328  1.00  0.00     0.210 HD
ENDBRANCH  24  26
BRANCH  25  28
HETATM   28  O4  UNL     1     -16.882  33.819   4.273  1.00  0.00    -0.390 OA
ATOM     29  H4  UNL     1     -17.105  33.508   3.404  1.00  0.00     0.210 HD
ENDBRANCH  25  28
ENDBRANCH  20  21
ENDBRANCH  18  19
ENDBRANCH   3  18
TORSDOF 9
ENDMDL
