MODEL 5
REMARK VINA RESULT: -7.376219687      1.243      1.791
REMARK  9 active torsions:
REMARK  status: ('A' for Active; 'I' for Inactive)
REMARK       I    between atoms: C1_2  and  N1_3 
REMARK    1  A    between atoms: C1_2  and  C9_17 
REMARK    2  A    between atoms: N1_3  and  C2_5 
REMARK    3  A    between atoms: C2_5  and  C3_6 
REMARK    4  A    between atoms: C4_7  and  C5_8 
REMARK    5  A    between atoms: C7_11  and  O3_12 
REMARK    6  A    between atoms: C8_14  and  O4_15 
REMARK    7  A    between atoms: C11_19  and  N2_20 
REMARK    8  A    between atoms: C13_24  and  O7_25 
REMARK    9  A    between atoms: C14_27  and  O8_28 
ROOT
HETATM    1  O1  UNL     1     -21.770  28.758   7.968  1.00  0.00    -0.268 OA
HETATM    2  C1  UNL     1     -22.219  29.607   7.152  1.00  0.00     0.254 C 
HETATM    3  N1  UNL     1     -21.457  30.786   6.971  1.00  0.00    -0.353 N 
ATOM      4  H1  UNL     1     -21.808  31.485   6.315  1.00  0.00     0.163 HD
ENDROOT
BRANCH   2   5
HETATM    5  C9  UNL     1     -23.471  29.338   6.453  1.00  0.00     0.070 A 
HETATM    6  C10 UNL     1     -24.317  30.316   6.002  1.00  0.00     0.056 A 
HETATM    7  C11 UNL     1     -25.515  30.030   5.333  1.00  0.00     0.106 A 
HETATM    8  C12 UNL     1     -25.857  28.715   5.117  1.00  0.00     0.075 A 
HETATM    9  C13 UNL     1     -25.027  27.700   5.559  1.00  0.00     0.102 A 
HETATM   10  C14 UNL     1     -23.861  28.017   6.211  1.00  0.00     0.114 A 
BRANCH   7  11
HETATM   11  N2  UNL     1     -26.356  31.084   4.887  1.00  0.00    -0.116 N 
HETATM   12  O5  UNL     1     -27.012  31.710   5.737  1.00  0.00    -0.532 OA
HETATM   13  O6  UNL     1     -26.470  31.428   3.578  1.00  0.00    -0.532 OA
ENDBRANCH   7  11
BRANCH   9  14
HETATM   14  O7  UNL     1     -25.431  26.398   5.310  1.00  0.00    -0.358 OA
ATOM     15  H7  UNL     1     -25.626  26.168   4.409  1.00  0.00     0.217 HD
ENDBRANCH   9  14
BRANCH  10  16
HETATM   16  O8  UNL     1     -23.018  27.040   6.660  1.00  0.00    -0.357 OA
ATOM     17  H8  UNL     1     -22.840  26.325   6.061  1.00  0.00     0.217 HD
ENDBRANCH  10  16
ENDBRANCH   2   5
BRANCH   3  18
HETATM   18  C2  UNL     1     -20.213  31.067   7.657  1.00  0.00     0.150 C 
BRANCH  18  19
HETATM   19  C3  UNL     1     -20.515  31.206   9.105  1.00  0.00    -0.009 C 
HETATM   20  C4  UNL     1     -19.747  30.673  10.053  1.00  0.00     0.005 C 
BRANCH  20  21
HETATM   21  C5  UNL     1     -20.113  30.857  11.485  1.00  0.00     0.175 C 
HETATM   22  O2  UNL     1     -21.266  30.114  11.740  1.00  0.00    -0.377 OA
HETATM   23  C6  UNL     1     -20.847  28.808  11.578  1.00  0.00     0.203 C 
HETATM   24  C7  UNL     1     -19.555  28.752  12.358  1.00  0.00     0.173 C 
HETATM   25  C8  UNL     1     -19.119  30.201  12.414  1.00  0.00     0.181 C 
BRANCH  24  26
HETATM   26  O3  UNL     1     -19.841  28.247  13.622  1.00  0.00    -0.391 OA
ATOM     27  H3  UNL     1     -19.420  27.398  13.699  1.00  0.00     0.210 HD
ENDBRANCH  24  26
BRANCH  25  28
HETATM   28  O4  UNL     1     -19.362  30.701  13.695  1.00  0.00    -0.390 OA
ATOM     29  H4  UNL     1     -18.553  30.616  14.186  1.00  0.00     0.210 HD
ENDBRANCH  25  28
ENDBRANCH  20  21
ENDBRANCH  18  19
ENDBRANCH   3  18
TORSDOF 9
ENDMDL
