MODEL 1
REMARK VINA RESULT: -8.124161328      0.000      0.000
REMARK  9 active torsions:
REMARK  status: ('A' for Active; 'I' for Inactive)
REMARK       I    between atoms: C1_2  and  N1_3 
REMARK    1  A    between atoms: C1_2  and  C9_17 
REMARK    2  A    between atoms: N1_3  and  C2_5 
REMARK    3  A    between atoms: C2_5  and  C3_6 
REMARK    4  A    between atoms: C4_7  and  C5_8 
REMARK    5  A    between atoms: C7_11  and  O3_12 
REMARK    6  A    between atoms: C8_14  and  O4_15 
REMARK    7  A    between atoms: C11_19  and  N2_20 
REMARK    8  A    between atoms: C13_24  and  O7_25 
REMARK    9  A    between atoms: C14_27  and  O8_28 
ROOT
HETATM    1  O1  UNL     1     -21.884  31.202   6.193  1.00  0.00    -0.268 OA
HETATM    2  C1  UNL     1     -22.284  30.177   6.806  1.00  0.00     0.254 C 
HETATM    3  N1  UNL     1     -21.568  29.804   7.968  1.00  0.00    -0.353 N 
ATOM      4  H1  UNL     1     -21.879  28.975   8.475  1.00  0.00     0.163 HD
ENDROOT
BRANCH   2   5
HETATM    5  C9  UNL     1     -23.438  29.443   6.297  1.00  0.00     0.070 A 
HETATM    6  C10 UNL     1     -24.485  30.032   5.638  1.00  0.00     0.056 A 
HETATM    7  C11 UNL     1     -25.582  29.304   5.158  1.00  0.00     0.106 A 
HETATM    8  C12 UNL     1     -25.612  27.942   5.356  1.00  0.00     0.075 A 
HETATM    9  C13 UNL     1     -24.573  27.312   6.018  1.00  0.00     0.102 A 
HETATM   10  C14 UNL     1     -23.514  28.058   6.474  1.00  0.00     0.114 A 
BRANCH   7  11
HETATM   11  N2  UNL     1     -26.641  29.965   4.482  1.00  0.00    -0.116 N 
HETATM   12  O5  UNL     1     -27.089  29.446   3.444  1.00  0.00    -0.532 OA
HETATM   13  O6  UNL     1     -27.176  31.133   4.921  1.00  0.00    -0.532 OA
ENDBRANCH   7  11
BRANCH   9  14
HETATM   14  O7  UNL     1     -24.667  25.940   6.183  1.00  0.00    -0.358 OA
ATOM     15  H7  UNL     1     -24.156  25.396   5.595  1.00  0.00     0.217 HD
ENDBRANCH   9  14
BRANCH  10  16
HETATM   16  O8  UNL     1     -22.471  27.469   7.131  1.00  0.00    -0.357 OA
ATOM     17  H8  UNL     1     -22.310  26.553   6.938  1.00  0.00     0.217 HD
ENDBRANCH  10  16
ENDBRANCH   2   5
BRANCH   3  18
HETATM   18  C2  UNL     1     -20.422  30.524   8.485  1.00  0.00     0.150 C 
BRANCH  18  19
HETATM   19  C3  UNL     1     -20.036  29.896   9.775  1.00  0.00    -0.009 C 
HETATM   20  C4  UNL     1     -19.324  30.535  10.700  1.00  0.00     0.005 C 
BRANCH  20  21
HETATM   21  C5  UNL     1     -18.976  29.840  11.970  1.00  0.00     0.175 C 
HETATM   22  O2  UNL     1     -18.556  30.797  12.893  1.00  0.00    -0.377 OA
HETATM   23  C6  UNL     1     -19.697  31.542  13.121  1.00  0.00     0.203 C 
HETATM   24  C7  UNL     1     -20.764  30.496  13.339  1.00  0.00     0.173 C 
HETATM   25  C8  UNL     1     -20.194  29.270  12.658  1.00  0.00     0.181 C 
BRANCH  24  26
HETATM   26  O3  UNL     1     -20.906  30.310  14.710  1.00  0.00    -0.391 OA
ATOM     27  H3  UNL     1     -21.835  30.248  14.902  1.00  0.00     0.210 HD
ENDBRANCH  24  26
BRANCH  25  28
HETATM   28  O4  UNL     1     -19.738  28.378  13.631  1.00  0.00    -0.390 OA
ATOM     29  H4  UNL     1     -20.183  27.552  13.483  1.00  0.00     0.210 HD
ENDBRANCH  25  28
ENDBRANCH  20  21
ENDBRANCH  18  19
ENDBRANCH   3  18
TORSDOF 9
ENDMDL
