MODEL 14
REMARK VINA RESULT: -6.784004101      3.400      5.297
REMARK  9 active torsions:
REMARK  status: ('A' for Active; 'I' for Inactive)
REMARK       I    between atoms: C1_2  and  N1_3 
REMARK    1  A    between atoms: C1_2  and  C9_17 
REMARK    2  A    between atoms: N1_3  and  C2_5 
REMARK    3  A    between atoms: C2_5  and  C3_6 
REMARK    4  A    between atoms: C4_7  and  C5_8 
REMARK    5  A    between atoms: C7_11  and  O3_12 
REMARK    6  A    between atoms: C8_14  and  O4_15 
REMARK    7  A    between atoms: C11_19  and  N2_20 
REMARK    8  A    between atoms: C13_24  and  O7_25 
REMARK    9  A    between atoms: C14_27  and  O8_28 
ROOT
HETATM    1  O1  UNL     1     -22.379  31.311   7.517  1.00  0.00    -0.268 OA
HETATM    2  C1  UNL     1     -21.240  31.122   7.014  1.00  0.00     0.254 C 
HETATM    3  N1  UNL     1     -20.438  30.115   7.603  1.00  0.00    -0.353 N 
ATOM      4  H1  UNL     1     -19.512  29.950   7.208  1.00  0.00     0.163 HD
ENDROOT
BRANCH   2   5
HETATM    5  C9  UNL     1     -20.815  31.932   5.877  1.00  0.00     0.070 A 
HETATM    6  C10 UNL     1     -19.563  32.476   5.754  1.00  0.00     0.056 A 
HETATM    7  C11 UNL     1     -19.180  33.250   4.651  1.00  0.00     0.106 A 
HETATM    8  C12 UNL     1     -20.095  33.474   3.648  1.00  0.00     0.075 A 
HETATM    9  C13 UNL     1     -21.369  32.941   3.737  1.00  0.00     0.102 A 
HETATM   10  C14 UNL     1     -21.709  32.187   4.832  1.00  0.00     0.114 A 
BRANCH   7  11
HETATM   11  N2  UNL     1     -17.869  33.791   4.575  1.00  0.00    -0.116 N 
HETATM   12  O5  UNL     1     -17.139  33.429   3.636  1.00  0.00    -0.532 OA
HETATM   13  O6  UNL     1     -17.388  34.679   5.483  1.00  0.00    -0.532 OA
ENDBRANCH   7  11
BRANCH   9  14
HETATM   14  O7  UNL     1     -22.240  33.206   2.692  1.00  0.00    -0.358 OA
ATOM     15  H7  UNL     1     -22.041  32.814   1.850  1.00  0.00     0.217 HD
ENDBRANCH   9  14
BRANCH  10  16
HETATM   16  O8  UNL     1     -22.958  31.646   4.953  1.00  0.00    -0.357 OA
ATOM     17  H8  UNL     1     -23.160  30.914   4.382  1.00  0.00     0.217 HD
ENDBRANCH  10  16
ENDBRANCH   2   5
BRANCH   3  18
HETATM   18  C2  UNL     1     -20.848  29.304   8.730  1.00  0.00     0.150 C 
BRANCH  18  19
HETATM   19  C3  UNL     1     -20.152  29.820   9.937  1.00  0.00    -0.009 C 
HETATM   20  C4  UNL     1     -20.508  30.951  10.543  1.00  0.00     0.005 C 
BRANCH  20  21
HETATM   21  C5  UNL     1     -19.762  31.405  11.749  1.00  0.00     0.175 C 
HETATM   22  O2  UNL     1     -20.559  32.319  12.438  1.00  0.00    -0.377 OA
HETATM   23  C6  UNL     1     -21.625  31.552  12.867  1.00  0.00     0.203 C 
HETATM   24  C7  UNL     1     -20.967  30.323  13.447  1.00  0.00     0.173 C 
HETATM   25  C8  UNL     1     -19.612  30.303  12.771  1.00  0.00     0.181 C 
BRANCH  24  26
HETATM   26  O3  UNL     1     -20.859  30.504  14.822  1.00  0.00    -0.391 OA
ATOM     27  H3  UNL     1     -21.028  31.421  15.009  1.00  0.00     0.210 HD
ENDBRANCH  24  26
BRANCH  25  28
HETATM   28  O4  UNL     1     -18.641  30.719  13.684  1.00  0.00    -0.390 OA
ATOM     29  H4  UNL     1     -18.560  30.033  14.338  1.00  0.00     0.210 HD
ENDBRANCH  25  28
ENDBRANCH  20  21
ENDBRANCH  18  19
ENDBRANCH   3  18
TORSDOF 9
ENDMDL
