MODEL 2
REMARK VINA RESULT: -7.816253200      1.270      1.800
REMARK  9 active torsions:
REMARK  status: ('A' for Active; 'I' for Inactive)
REMARK       I    between atoms: C1_2  and  N1_3 
REMARK    1  A    between atoms: C1_2  and  C9_17 
REMARK    2  A    between atoms: N1_3  and  C2_5 
REMARK    3  A    between atoms: C2_5  and  C3_6 
REMARK    4  A    between atoms: C4_7  and  C5_8 
REMARK    5  A    between atoms: C7_11  and  O3_12 
REMARK    6  A    between atoms: C8_14  and  O4_15 
REMARK    7  A    between atoms: C11_19  and  N2_20 
REMARK    8  A    between atoms: C13_24  and  O7_25 
REMARK    9  A    between atoms: C14_27  and  O8_28 
ROOT
HETATM    1  O1  UNL     1     -20.937  29.820   7.283  1.00  0.00    -0.268 OA
HETATM    2  C1  UNL     1     -22.098  30.309   7.232  1.00  0.00     0.254 C 
HETATM    3  N1  UNL     1     -22.267  31.614   7.751  1.00  0.00    -0.353 N 
ATOM      4  H1  UNL     1     -23.200  32.024   7.719  1.00  0.00     0.163 HD
ENDROOT
BRANCH   2   5
HETATM    5  C9  UNL     1     -23.182  29.521   6.655  1.00  0.00     0.070 A 
HETATM    6  C10 UNL     1     -24.152  30.042   5.839  1.00  0.00     0.056 A 
HETATM    7  C11 UNL     1     -25.183  29.264   5.298  1.00  0.00     0.106 A 
HETATM    8  C12 UNL     1     -25.226  27.920   5.593  1.00  0.00     0.075 A 
HETATM    9  C13 UNL     1     -24.263  27.358   6.413  1.00  0.00     0.102 A 
HETATM   10  C14 UNL     1     -23.267  28.152   6.927  1.00  0.00     0.114 A 
BRANCH   7  11
HETATM   11  N2  UNL     1     -26.163  29.856   4.458  1.00  0.00    -0.116 N 
HETATM   12  O5  UNL     1     -26.116  31.085   4.278  1.00  0.00    -0.532 OA
HETATM   13  O6  UNL     1     -27.142  29.135   3.853  1.00  0.00    -0.532 OA
ENDBRANCH   7  11
BRANCH   9  14
HETATM   14  O7  UNL     1     -24.365  26.000   6.671  1.00  0.00    -0.358 OA
ATOM     15  H7  UNL     1     -25.127  25.707   7.157  1.00  0.00     0.217 HD
ENDBRANCH   9  14
BRANCH  10  16
HETATM   16  O8  UNL     1     -22.301  27.630   7.740  1.00  0.00    -0.357 OA
ATOM     17  H8  UNL     1     -22.147  26.695   7.670  1.00  0.00     0.217 HD
ENDBRANCH  10  16
ENDBRANCH   2   5
BRANCH   3  18
HETATM   18  C2  UNL     1     -21.200  32.407   8.326  1.00  0.00     0.150 C 
BRANCH  18  19
HETATM   19  C3  UNL     1     -21.268  32.258   9.802  1.00  0.00    -0.009 C 
HETATM   20  C4  UNL     1     -20.618  31.299  10.458  1.00  0.00     0.005 C 
BRANCH  20  21
HETATM   21  C5  UNL     1     -20.735  31.214  11.940  1.00  0.00     0.175 C 
HETATM   22  O2  UNL     1     -21.729  30.285  12.248  1.00  0.00    -0.377 OA
HETATM   23  C6  UNL     1     -21.199  29.091  11.799  1.00  0.00     0.203 C 
HETATM   24  C7  UNL     1     -19.789  29.104  12.339  1.00  0.00     0.173 C 
HETATM   25  C8  UNL     1     -19.519  30.576  12.570  1.00  0.00     0.181 C 
BRANCH  24  26
HETATM   26  O3  UNL     1     -19.779  28.381  13.527  1.00  0.00    -0.391 OA
ATOM     27  H3  UNL     1     -18.875  28.173  13.734  1.00  0.00     0.210 HD
ENDBRANCH  24  26
BRANCH  25  28
HETATM   28  O4  UNL     1     -19.579  30.841  13.940  1.00  0.00    -0.390 OA
ATOM     29  H4  UNL     1     -19.401  30.023  14.390  1.00  0.00     0.210 HD
ENDBRANCH  25  28
ENDBRANCH  20  21
ENDBRANCH  18  19
ENDBRANCH   3  18
TORSDOF 9
ENDMDL
