MODEL 3
REMARK VINA RESULT: -7.669508293      0.825      1.650
REMARK  9 active torsions:
REMARK  status: ('A' for Active; 'I' for Inactive)
REMARK       I    between atoms: C1_2  and  N1_3 
REMARK    1  A    between atoms: C1_2  and  C9_17 
REMARK    2  A    between atoms: N1_3  and  C2_5 
REMARK    3  A    between atoms: C2_5  and  C3_6 
REMARK    4  A    between atoms: C4_7  and  C5_8 
REMARK    5  A    between atoms: C7_11  and  O3_12 
REMARK    6  A    between atoms: C8_14  and  O4_15 
REMARK    7  A    between atoms: C11_19  and  N2_20 
REMARK    8  A    between atoms: C13_24  and  O7_25 
REMARK    9  A    between atoms: C14_27  and  O8_28 
ROOT
HETATM    1  O1  UNL     1     -21.649  31.093   5.969  1.00  0.00    -0.268 OA
HETATM    2  C1  UNL     1     -22.137  30.260   6.779  1.00  0.00     0.254 C 
HETATM    3  N1  UNL     1     -21.524  30.169   8.052  1.00  0.00    -0.353 N 
ATOM      4  H1  UNL     1     -21.906  29.498   8.719  1.00  0.00     0.163 HD
ENDROOT
BRANCH   2   5
HETATM    5  C9  UNL     1     -23.280  29.449   6.372  1.00  0.00     0.070 A 
HETATM    6  C10 UNL     1     -24.350  29.939   5.671  1.00  0.00     0.056 A 
HETATM    7  C11 UNL     1     -25.436  29.139   5.292  1.00  0.00     0.106 A 
HETATM    8  C12 UNL     1     -25.430  27.807   5.635  1.00  0.00     0.075 A 
HETATM    9  C13 UNL     1     -24.366  27.276   6.343  1.00  0.00     0.102 A 
HETATM   10  C14 UNL     1     -23.319  28.090   6.698  1.00  0.00     0.114 A 
BRANCH   7  11
HETATM   11  N2  UNL     1     -26.520  29.700   4.566  1.00  0.00    -0.116 N 
HETATM   12  O5  UNL     1     -26.734  30.919   4.679  1.00  0.00    -0.532 OA
HETATM   13  O6  UNL     1     -27.326  28.958   3.762  1.00  0.00    -0.532 OA
ENDBRANCH   7  11
BRANCH   9  14
HETATM   14  O7  UNL     1     -24.424  25.927   6.657  1.00  0.00    -0.358 OA
ATOM     15  H7  UNL     1     -23.731  25.579   7.204  1.00  0.00     0.217 HD
ENDBRANCH   9  14
BRANCH  10  16
HETATM   16  O8  UNL     1     -22.252  27.599   7.397  1.00  0.00    -0.357 OA
ATOM     17  H8  UNL     1     -21.480  28.150   7.434  1.00  0.00     0.217 HD
ENDBRANCH  10  16
ENDBRANCH   2   5
BRANCH   3  18
HETATM   18  C2  UNL     1     -20.390  30.967   8.469  1.00  0.00     0.150 C 
BRANCH  18  19
HETATM   19  C3  UNL     1     -20.424  31.064   9.951  1.00  0.00    -0.009 C 
HETATM   20  C4  UNL     1     -20.198  30.018  10.744  1.00  0.00     0.005 C 
BRANCH  20  21
HETATM   21  C5  UNL     1     -20.249  30.193  12.222  1.00  0.00     0.175 C 
HETATM   22  O2  UNL     1     -19.863  28.993  12.818  1.00  0.00    -0.377 OA
HETATM   23  C6  UNL     1     -18.536  28.869  12.455  1.00  0.00     0.203 C 
HETATM   24  C7  UNL     1     -17.962  30.237  12.742  1.00  0.00     0.173 C 
HETATM   25  C8  UNL     1     -19.179  31.136  12.719  1.00  0.00     0.181 C 
BRANCH  24  26
HETATM   26  O3  UNL     1     -17.369  30.196  14.000  1.00  0.00    -0.391 OA
ATOM     27  H3  UNL     1     -16.911  29.367  14.079  1.00  0.00     0.210 HD
ENDBRANCH  24  26
BRANCH  25  28
HETATM   28  O4  UNL     1     -19.514  31.483  14.030  1.00  0.00    -0.390 OA
ATOM     29  H4  UNL     1     -18.702  31.673  14.485  1.00  0.00     0.210 HD
ENDBRANCH  25  28
ENDBRANCH  20  21
ENDBRANCH  18  19
ENDBRANCH   3  18
TORSDOF 9
ENDMDL
