MODEL 4
REMARK VINA RESULT: -7.665602302      0.917      1.446
REMARK  9 active torsions:
REMARK  status: ('A' for Active; 'I' for Inactive)
REMARK       I    between atoms: C1_2  and  N1_3 
REMARK    1  A    between atoms: C1_2  and  C9_17 
REMARK    2  A    between atoms: N1_3  and  C2_5 
REMARK    3  A    between atoms: C2_5  and  C3_6 
REMARK    4  A    between atoms: C4_7  and  C5_8 
REMARK    5  A    between atoms: C7_11  and  O3_12 
REMARK    6  A    between atoms: C8_14  and  O4_15 
REMARK    7  A    between atoms: C11_19  and  N2_20 
REMARK    8  A    between atoms: C13_24  and  O7_25 
REMARK    9  A    between atoms: C14_27  and  O8_28 
ROOT
HETATM    1  O1  UNL     1     -21.980  31.214   5.418  1.00  0.00    -0.268 OA
HETATM    2  C1  UNL     1     -22.470  30.470   6.310  1.00  0.00     0.254 C 
HETATM    3  N1  UNL     1     -21.892  30.549   7.599  1.00  0.00    -0.353 N 
ATOM      4  H1  UNL     1     -22.276  29.952   8.332  1.00  0.00     0.163 HD
ENDROOT
BRANCH   2   5
HETATM    5  C9  UNL     1     -23.581  29.586   5.974  1.00  0.00     0.070 A 
HETATM    6  C10 UNL     1     -24.700  29.992   5.295  1.00  0.00     0.056 A 
HETATM    7  C11 UNL     1     -25.753  29.123   4.985  1.00  0.00     0.106 A 
HETATM    8  C12 UNL     1     -25.664  27.806   5.375  1.00  0.00     0.075 A 
HETATM    9  C13 UNL     1     -24.549  27.359   6.062  1.00  0.00     0.102 A 
HETATM   10  C14 UNL     1     -23.535  28.239   6.349  1.00  0.00     0.114 A 
BRANCH   7  11
HETATM   11  N2  UNL     1     -26.891  29.597   4.280  1.00  0.00    -0.116 N 
HETATM   12  O5  UNL     1     -27.332  28.906   3.345  1.00  0.00    -0.532 OA
HETATM   13  O6  UNL     1     -27.509  30.767   4.587  1.00  0.00    -0.532 OA
ENDBRANCH   7  11
BRANCH   9  14
HETATM   14  O7  UNL     1     -24.523  26.022   6.425  1.00  0.00    -0.358 OA
ATOM     15  H7  UNL     1     -23.691  25.666   6.714  1.00  0.00     0.217 HD
ENDBRANCH   9  14
BRANCH  10  16
HETATM   16  O8  UNL     1     -22.420  27.832   7.025  1.00  0.00    -0.357 OA
ATOM     17  H8  UNL     1     -21.877  27.182   6.596  1.00  0.00     0.217 HD
ENDBRANCH  10  16
ENDBRANCH   2   5
BRANCH   3  18
HETATM   18  C2  UNL     1     -20.790  31.422   7.946  1.00  0.00     0.150 C 
BRANCH  18  19
HETATM   19  C3  UNL     1     -20.721  31.497   9.428  1.00  0.00    -0.009 C 
HETATM   20  C4  UNL     1     -20.058  30.606  10.163  1.00  0.00     0.005 C 
BRANCH  20  21
HETATM   21  C5  UNL     1     -20.034  30.748  11.645  1.00  0.00     0.175 C 
HETATM   22  O2  UNL     1     -21.207  30.196  12.157  1.00  0.00    -0.377 OA
HETATM   23  C6  UNL     1     -21.083  28.852  11.862  1.00  0.00     0.203 C 
HETATM   24  C7  UNL     1     -19.675  28.523  12.297  1.00  0.00     0.173 C 
HETATM   25  C8  UNL     1     -18.983  29.869  12.282  1.00  0.00     0.181 C 
BRANCH  24  26
HETATM   26  O3  UNL     1     -19.739  27.986  13.579  1.00  0.00    -0.391 OA
ATOM     27  H3  UNL     1     -20.531  27.463  13.637  1.00  0.00     0.210 HD
ENDBRANCH  24  26
BRANCH  25  28
HETATM   28  O4  UNL     1     -18.818  30.312  13.596  1.00  0.00    -0.390 OA
ATOM     29  H4  UNL     1     -19.635  30.147  14.051  1.00  0.00     0.210 HD
ENDBRANCH  25  28
ENDBRANCH  20  21
ENDBRANCH  18  19
ENDBRANCH   3  18
TORSDOF 9
ENDMDL
