MODEL 11
REMARK VINA RESULT: -6.877679396      3.711      5.764
REMARK  9 active torsions:
REMARK  status: ('A' for Active; 'I' for Inactive)
REMARK       I    between atoms: C1_2  and  N1_3 
REMARK    1  A    between atoms: C1_2  and  C9_17 
REMARK    2  A    between atoms: N1_3  and  C2_5 
REMARK    3  A    between atoms: C2_5  and  C3_6 
REMARK    4  A    between atoms: C4_7  and  C5_8 
REMARK    5  A    between atoms: C7_11  and  O3_12 
REMARK    6  A    between atoms: C8_14  and  O4_15 
REMARK    7  A    between atoms: C11_19  and  N2_20 
REMARK    8  A    between atoms: C13_24  and  O7_25 
REMARK    9  A    between atoms: C14_27  and  O8_28 
ROOT
HETATM    1  O1  UNL     1     -23.185  31.804   7.160  1.00  0.00    -0.268 OA
HETATM    2  C1  UNL     1     -22.780  30.693   6.722  1.00  0.00     0.254 C 
HETATM    3  N1  UNL     1     -21.383  30.470   6.737  1.00  0.00    -0.353 N 
ATOM      4  H1  UNL     1     -21.039  29.577   6.385  1.00  0.00     0.163 HD
ENDROOT
BRANCH   2   5
HETATM    5  C9  UNL     1     -23.750  29.719   6.234  1.00  0.00     0.070 A 
HETATM    6  C10 UNL     1     -24.795  30.033   5.405  1.00  0.00     0.056 A 
HETATM    7  C11 UNL     1     -25.713  29.078   4.950  1.00  0.00     0.106 A 
HETATM    8  C12 UNL     1     -25.561  27.769   5.349  1.00  0.00     0.075 A 
HETATM    9  C13 UNL     1     -24.518  27.414   6.185  1.00  0.00     0.102 A 
HETATM   10  C14 UNL     1     -23.637  28.377   6.612  1.00  0.00     0.114 A 
BRANCH   7  11
HETATM   11  N2  UNL     1     -26.779  29.459   4.093  1.00  0.00    -0.116 N 
HETATM   12  O5  UNL     1     -27.000  28.762   3.087  1.00  0.00    -0.532 OA
HETATM   13  O6  UNL     1     -27.557  30.546   4.329  1.00  0.00    -0.532 OA
ENDBRANCH   7  11
BRANCH   9  14
HETATM   14  O7  UNL     1     -24.424  26.080   6.548  1.00  0.00    -0.358 OA
ATOM     15  H7  UNL     1     -23.602  25.790   6.927  1.00  0.00     0.217 HD
ENDBRANCH   9  14
BRANCH  10  16
HETATM   16  O8  UNL     1     -22.596  28.062   7.438  1.00  0.00    -0.357 OA
ATOM     17  H8  UNL     1     -22.471  27.140   7.630  1.00  0.00     0.217 HD
ENDBRANCH  10  16
ENDBRANCH   2   5
BRANCH   3  18
HETATM   18  C2  UNL     1     -20.409  31.428   7.219  1.00  0.00     0.150 C 
BRANCH  18  19
HETATM   19  C3  UNL     1     -19.678  31.963   6.042  1.00  0.00    -0.009 C 
HETATM   20  C4  UNL     1     -20.049  33.075   5.411  1.00  0.00     0.005 C 
BRANCH  20  21
HETATM   21  C5  UNL     1     -19.265  33.550   4.238  1.00  0.00     0.175 C 
HETATM   22  O2  UNL     1     -19.691  34.839   3.920  1.00  0.00    -0.377 OA
HETATM   23  C6  UNL     1     -19.300  35.584   5.015  1.00  0.00     0.203 C 
HETATM   24  C7  UNL     1     -17.874  35.145   5.251  1.00  0.00     0.173 C 
HETATM   25  C8  UNL     1     -17.814  33.787   4.583  1.00  0.00     0.181 C 
BRANCH  24  26
HETATM   26  O3  UNL     1     -17.036  36.066   4.632  1.00  0.00    -0.391 OA
ATOM     27  H3  UNL     1     -16.150  35.723   4.666  1.00  0.00     0.210 HD
ENDBRANCH  24  26
BRANCH  25  28
HETATM   28  O4  UNL     1     -17.118  33.902   3.378  1.00  0.00    -0.390 OA
ATOM     29  H4  UNL     1     -16.866  34.814   3.286  1.00  0.00     0.210 HD
ENDBRANCH  25  28
ENDBRANCH  20  21
ENDBRANCH  18  19
ENDBRANCH   3  18
TORSDOF 9
ENDMDL
