MODEL 7
REMARK VINA RESULT: -8.521094271      7.296     11.019
REMARK  12 active torsions:
REMARK  status: ('A' for Active; 'I' for Inactive)
REMARK       I    between atoms: C1_2  and  N1_3 
REMARK    1  A    between atoms: C1_2  and  C13_27 
REMARK    2  A    between atoms: N1_3  and  C2_5 
REMARK    3  A    between atoms: C2_5  and  C3_6 
REMARK    4  A    between atoms: C3_6  and  C4_7 
REMARK    5  A    between atoms: C4_7  and  C5_8 
REMARK    6  A    between atoms: C6_10  and  N2_11 
REMARK    7  A    between atoms: C8_15  and  C9_16 
REMARK    8  A    between atoms: C11_21  and  O3_22 
REMARK    9  A    between atoms: C12_24  and  O4_25 
REMARK   10  A    between atoms: C15_29  and  N4_30 
REMARK   11  A    between atoms: C17_34  and  O7_35 
REMARK   12  A    between atoms: C18_37  and  O8_38 
ROOT
HETATM    1  C4  UNL     1     -20.562  29.975  13.472  1.00  0.00     0.009 C 
ENDROOT
BRANCH   1   2
HETATM    2  C3  UNL     1     -19.592  29.338  12.759  1.00  0.00     0.016 C 
BRANCH   2   3
HETATM    3  C2  UNL     1     -18.511  30.124  12.160  1.00  0.00     0.091 C 
BRANCH   3   4
HETATM    4  N1  UNL     1     -17.233  30.291  12.736  1.00  0.00    -0.333 N 
HETATM    5  C1  UNL     1     -16.052  30.697  12.112  1.00  0.00     0.258 C 
HETATM    6  O1  UNL     1     -16.063  30.996  10.865  1.00  0.00    -0.267 OA
ATOM      7  H1  UNL     1     -17.164  30.091  13.733  1.00  0.00     0.168 HD
BRANCH   5   8
HETATM    8  C13 UNL     1     -14.738  30.801  12.773  1.00  0.00     0.070 A 
HETATM    9  C14 UNL     1     -13.710  31.466  12.066  1.00  0.00     0.056 A 
HETATM   10  C15 UNL     1     -12.409  31.393  12.470  1.00  0.00     0.106 A 
HETATM   11  C16 UNL     1     -12.105  30.656  13.596  1.00  0.00     0.075 A 
HETATM   12  C17 UNL     1     -13.085  30.002  14.300  1.00  0.00     0.102 A 
HETATM   13  C18 UNL     1     -14.414  30.082  13.878  1.00  0.00     0.114 A 
BRANCH  10  14
HETATM   14  N4  UNL     1     -11.349  31.986  11.741  1.00  0.00    -0.116 N 
HETATM   15  O5  UNL     1     -10.480  32.720  12.278  1.00  0.00    -0.532 OA
HETATM   16  O6  UNL     1     -11.202  31.796  10.376  1.00  0.00    -0.532 OA
ENDBRANCH  10  14
BRANCH  12  17
HETATM   17  O7  UNL     1     -12.803  29.258  15.431  1.00  0.00    -0.358 OA
ATOM     18  H7  UNL     1     -13.312  28.492  15.671  1.00  0.00     0.217 HD
ENDBRANCH  12  17
BRANCH  13  19
HETATM   19  O8  UNL     1     -15.366  29.415  14.607  1.00  0.00    -0.357 OA
ATOM     20  H8  UNL     1     -15.812  28.651  14.262  1.00  0.00     0.217 HD
ENDBRANCH  13  19
ENDBRANCH   5   8
ENDBRANCH   3   4
ENDBRANCH   2   3
ENDBRANCH   1   2
BRANCH   1  21
HETATM   21  C5  UNL     1     -20.925  31.345  13.384  1.00  0.00     0.178 C 
HETATM   22  O2  UNL     1     -22.337  31.509  13.618  1.00  0.00    -0.352 OA
HETATM   23  C6  UNL     1     -22.442  32.864  13.348  1.00  0.00     0.260 C 
HETATM   24  C11 UNL     1     -21.315  33.500  14.143  1.00  0.00     0.199 C 
HETATM   25  C12 UNL     1     -20.450  32.280  14.498  1.00  0.00     0.183 C 
BRANCH  23  26
HETATM   26  N2  UNL     1     -23.741  33.457  13.635  1.00  0.00    -0.321 N 
HETATM   27  C7  UNL     1     -24.168  33.751  14.879  1.00  0.00     0.185 A 
HETATM   28  N3  UNL     1     -25.379  34.283  14.861  1.00  0.00    -0.347 N 
HETATM   29  C8  UNL     1     -25.811  34.351  13.564  1.00  0.00     0.133 A 
ATOM     30  H3  UNL     1     -25.905  34.592  15.679  1.00  0.00     0.166 HD
HETATM   31  C10 UNL     1     -24.756  33.824  12.828  1.00  0.00     0.129 A 
BRANCH  29  32
HETATM   32  C9  UNL     1     -27.121  34.856  13.140  1.00  0.00     0.433 C 
HETATM   33  F1  UNL     1     -27.804  35.522  14.144  1.00  0.00    -0.165 F 
HETATM   34  F2  UNL     1     -27.898  33.788  12.746  1.00  0.00    -0.165 F 
HETATM   35  F3  UNL     1     -27.036  35.688  12.007  1.00  0.00    -0.165 F 
ENDBRANCH  29  32
ENDBRANCH  23  26
BRANCH  24  36
HETATM   36  O3  UNL     1     -20.596  34.285  13.258  1.00  0.00    -0.388 OA
ATOM     37  H3  UNL     1     -21.069  35.104  13.172  1.00  0.00     0.210 HD
ENDBRANCH  24  36
BRANCH  25  38
HETATM   38  O4  UNL     1     -19.105  32.664  14.353  1.00  0.00    -0.390 OA
ATOM     39  H4  UNL     1     -18.583  32.486  15.127  1.00  0.00     0.210 HD
ENDBRANCH  25  38
ENDBRANCH   1  21
TORSDOF 12
ENDMDL
