MODEL 2
REMARK VINA RESULT: -9.279930441      1.530      2.078
REMARK  12 active torsions:
REMARK  status: ('A' for Active; 'I' for Inactive)
REMARK       I    between atoms: C1_2  and  N1_3 
REMARK    1  A    between atoms: C1_2  and  C13_27 
REMARK    2  A    between atoms: N1_3  and  C2_5 
REMARK    3  A    between atoms: C2_5  and  C3_6 
REMARK    4  A    between atoms: C3_6  and  C4_7 
REMARK    5  A    between atoms: C4_7  and  C5_8 
REMARK    6  A    between atoms: C6_10  and  N2_11 
REMARK    7  A    between atoms: C8_15  and  C9_16 
REMARK    8  A    between atoms: C11_21  and  O3_22 
REMARK    9  A    between atoms: C12_24  and  O4_25 
REMARK   10  A    between atoms: C15_29  and  N4_30 
REMARK   11  A    between atoms: C17_34  and  O7_35 
REMARK   12  A    between atoms: C18_37  and  O8_38 
ROOT
HETATM    1  C4  UNL     1     -20.435  30.091  10.243  1.00  0.00     0.009 C 
ENDROOT
BRANCH   1   2
HETATM    2  C3  UNL     1     -20.886  31.063   9.401  1.00  0.00     0.016 C 
BRANCH   2   3
HETATM    3  C2  UNL     1     -20.823  30.844   7.954  1.00  0.00     0.091 C 
BRANCH   3   4
HETATM    4  N1  UNL     1     -21.698  29.998   7.238  1.00  0.00    -0.333 N 
HETATM    5  C1  UNL     1     -22.940  30.314   6.684  1.00  0.00     0.258 C 
HETATM    6  O1  UNL     1     -23.393  31.510   6.779  1.00  0.00    -0.267 OA
ATOM      7  H1  UNL     1     -21.383  29.037   7.109  1.00  0.00     0.168 HD
BRANCH   5   8
HETATM    8  C13 UNL     1     -23.823  29.359   5.990  1.00  0.00     0.070 A 
HETATM    9  C14 UNL     1     -24.887  29.898   5.229  1.00  0.00     0.056 A 
HETATM   10  C15 UNL     1     -25.898  29.110   4.765  1.00  0.00     0.106 A 
HETATM   11  C16 UNL     1     -25.870  27.760   5.048  1.00  0.00     0.075 A 
HETATM   12  C17 UNL     1     -24.849  27.212   5.784  1.00  0.00     0.102 A 
HETATM   13  C18 UNL     1     -23.817  28.027   6.254  1.00  0.00     0.114 A 
BRANCH  10  14
HETATM   14  N4  UNL     1     -27.013  29.633   4.064  1.00  0.00    -0.116 N 
HETATM   15  O5  UNL     1     -27.455  30.795   4.258  1.00  0.00    -0.532 OA
HETATM   16  O6  UNL     1     -27.696  28.890   3.115  1.00  0.00    -0.532 OA
ENDBRANCH  10  14
BRANCH  12  17
HETATM   17  O7  UNL     1     -24.800  25.862   6.079  1.00  0.00    -0.358 OA
ATOM     18  H7  UNL     1     -24.330  25.527   6.834  1.00  0.00     0.217 HD
ENDBRANCH  12  17
BRANCH  13  19
HETATM   19  O8  UNL     1     -22.814  27.445   6.987  1.00  0.00    -0.357 OA
ATOM     20  H8  UNL     1     -22.727  26.501   7.048  1.00  0.00     0.217 HD
ENDBRANCH  13  19
ENDBRANCH   5   8
ENDBRANCH   3   4
ENDBRANCH   2   3
ENDBRANCH   1   2
BRANCH   1  21
HETATM   21  C5  UNL     1     -19.803  30.278  11.500  1.00  0.00     0.178 C 
HETATM   22  O2  UNL     1     -18.375  30.134  11.375  1.00  0.00    -0.352 OA
HETATM   23  C6  UNL     1     -18.032  30.224  12.714  1.00  0.00     0.260 C 
HETATM   24  C11 UNL     1     -18.776  31.449  13.217  1.00  0.00     0.199 C 
HETATM   25  C12 UNL     1     -19.789  31.692  12.086  1.00  0.00     0.183 C 
BRANCH  23  26
HETATM   26  N2  UNL     1     -16.603  30.277  12.989  1.00  0.00    -0.321 N 
HETATM   27  C7  UNL     1     -15.997  29.532  13.933  1.00  0.00     0.185 A 
HETATM   28  N3  UNL     1     -14.696  29.770  13.976  1.00  0.00    -0.347 N 
HETATM   29  C8  UNL     1     -14.391  30.718  13.037  1.00  0.00     0.133 A 
ATOM     30  H3  UNL     1     -14.029  29.321  14.604  1.00  0.00     0.166 HD
HETATM   31  C10 UNL     1     -15.613  31.009  12.441  1.00  0.00     0.129 A 
BRANCH  29  32
HETATM   32  C9  UNL     1     -13.051  31.266  12.801  1.00  0.00     0.433 C 
HETATM   33  F1  UNL     1     -12.362  30.618  11.790  1.00  0.00    -0.165 F 
HETATM   34  F2  UNL     1     -12.313  31.135  13.957  1.00  0.00    -0.165 F 
HETATM   35  F3  UNL     1     -13.075  32.649  12.534  1.00  0.00    -0.165 F 
ENDBRANCH  29  32
ENDBRANCH  23  26
BRANCH  24  36
HETATM   36  O3  UNL     1     -19.482  31.054  14.339  1.00  0.00    -0.388 OA
ATOM     37  H3  UNL     1     -19.359  31.732  14.993  1.00  0.00     0.210 HD
ENDBRANCH  24  36
BRANCH  25  38
HETATM   38  O4  UNL     1     -21.009  32.047  12.687  1.00  0.00    -0.390 OA
ATOM     39  H4  UNL     1     -20.991  32.912  13.078  1.00  0.00     0.210 HD
ENDBRANCH  25  38
ENDBRANCH   1  21
TORSDOF 12
ENDMDL
