MODEL 3
REMARK VINA RESULT: -9.224053581      0.891      1.388
REMARK  12 active torsions:
REMARK  status: ('A' for Active; 'I' for Inactive)
REMARK       I    between atoms: C1_2  and  N1_3 
REMARK    1  A    between atoms: C1_2  and  C13_27 
REMARK    2  A    between atoms: N1_3  and  C2_5 
REMARK    3  A    between atoms: C2_5  and  C3_6 
REMARK    4  A    between atoms: C3_6  and  C4_7 
REMARK    5  A    between atoms: C4_7  and  C5_8 
REMARK    6  A    between atoms: C6_10  and  N2_11 
REMARK    7  A    between atoms: C8_15  and  C9_16 
REMARK    8  A    between atoms: C11_21  and  O3_22 
REMARK    9  A    between atoms: C12_24  and  O4_25 
REMARK   10  A    between atoms: C15_29  and  N4_30 
REMARK   11  A    between atoms: C17_34  and  O7_35 
REMARK   12  A    between atoms: C18_37  and  O8_38 
ROOT
HETATM    1  C4  UNL     1     -20.484  29.182  12.485  1.00  0.00     0.009 C 
ENDROOT
BRANCH   1   2
HETATM    2  C3  UNL     1     -20.384  28.453  11.339  1.00  0.00     0.016 C 
BRANCH   2   3
HETATM    3  C2  UNL     1     -20.488  29.133  10.046  1.00  0.00     0.091 C 
BRANCH   3   4
HETATM    4  N1  UNL     1     -21.418  28.794   9.039  1.00  0.00    -0.333 N 
HETATM    5  C1  UNL     1     -21.779  29.536   7.914  1.00  0.00     0.258 C 
HETATM    6  O1  UNL     1     -21.217  30.668   7.692  1.00  0.00    -0.267 OA
ATOM      7  H1  UNL     1     -21.883  27.893   9.147  1.00  0.00     0.168 HD
BRANCH   5   8
HETATM    8  C13 UNL     1     -22.800  29.137   6.929  1.00  0.00     0.070 A 
HETATM    9  C14 UNL     1     -23.496  30.172   6.262  1.00  0.00     0.056 A 
HETATM   10  C15 UNL     1     -24.620  29.917   5.533  1.00  0.00     0.106 A 
HETATM   11  C16 UNL     1     -25.075  28.617   5.448  1.00  0.00     0.075 A 
HETATM   12  C17 UNL     1     -24.417  27.594   6.085  1.00  0.00     0.102 A 
HETATM   13  C18 UNL     1     -23.267  27.865   6.830  1.00  0.00     0.114 A 
BRANCH  10  14
HETATM   14  N4  UNL     1     -25.379  30.943   4.916  1.00  0.00    -0.116 N 
HETATM   15  O5  UNL     1     -26.598  30.812   4.635  1.00  0.00    -0.532 OA
HETATM   16  O6  UNL     1     -24.820  32.165   4.579  1.00  0.00    -0.532 OA
ENDBRANCH  10  14
BRANCH  12  17
HETATM   17  O7  UNL     1     -24.855  26.284   6.014  1.00  0.00    -0.358 OA
ATOM     18  H7  UNL     1     -24.260  25.549   6.100  1.00  0.00     0.217 HD
ENDBRANCH  12  17
BRANCH  13  19
HETATM   19  O8  UNL     1     -22.637  26.818   7.453  1.00  0.00    -0.357 OA
ATOM     20  H8  UNL     1     -22.301  26.895   8.338  1.00  0.00     0.217 HD
ENDBRANCH  13  19
ENDBRANCH   5   8
ENDBRANCH   3   4
ENDBRANCH   2   3
ENDBRANCH   1   2
BRANCH   1  21
HETATM   21  C5  UNL     1     -19.489  30.020  13.053  1.00  0.00     0.178 C 
HETATM   22  O2  UNL     1     -18.173  29.574  12.669  1.00  0.00    -0.352 OA
HETATM   23  C6  UNL     1     -17.420  30.446  13.437  1.00  0.00     0.260 C 
HETATM   24  C11 UNL     1     -18.024  31.813  13.168  1.00  0.00     0.199 C 
HETATM   25  C12 UNL     1     -19.361  31.443  12.505  1.00  0.00     0.183 C 
BRANCH  23  26
HETATM   26  N2  UNL     1     -15.984  30.405  13.197  1.00  0.00    -0.321 N 
HETATM   27  C7  UNL     1     -15.155  29.513  13.774  1.00  0.00     0.185 A 
HETATM   28  N3  UNL     1     -13.904  29.692  13.384  1.00  0.00    -0.347 N 
HETATM   29  C8  UNL     1     -13.861  30.749  12.516  1.00  0.00     0.133 A 
ATOM     30  H3  UNL     1     -13.103  29.134  13.681  1.00  0.00     0.166 HD
HETATM   31  C10 UNL     1     -15.183  31.167  12.426  1.00  0.00     0.129 A 
BRANCH  29  32
HETATM   32  C9  UNL     1     -12.642  31.272  11.890  1.00  0.00     0.433 C 
HETATM   33  F1  UNL     1     -11.633  30.331  11.779  1.00  0.00    -0.165 F 
HETATM   34  F2  UNL     1     -12.161  32.308  12.662  1.00  0.00    -0.165 F 
HETATM   35  F3  UNL     1     -12.888  31.840  10.625  1.00  0.00    -0.165 F 
ENDBRANCH  29  32
ENDBRANCH  23  26
BRANCH  24  36
HETATM   36  O3  UNL     1     -18.305  32.375  14.401  1.00  0.00    -0.388 OA
ATOM     37  H3  UNL     1     -17.513  32.813  14.689  1.00  0.00     0.210 HD
ENDBRANCH  24  36
BRANCH  25  38
HETATM   38  O4  UNL     1     -20.338  32.316  13.018  1.00  0.00    -0.390 OA
ATOM     39  H4  UNL     1     -20.596  32.988  12.398  1.00  0.00     0.210 HD
ENDBRANCH  25  38
ENDBRANCH   1  21
TORSDOF 12
ENDMDL
