MODEL 1
REMARK VINA RESULT: -9.316990002      0.000      0.000
REMARK  12 active torsions:
REMARK  status: ('A' for Active; 'I' for Inactive)
REMARK       I    between atoms: C1_2  and  N1_3 
REMARK    1  A    between atoms: C1_2  and  C13_27 
REMARK    2  A    between atoms: N1_3  and  C2_5 
REMARK    3  A    between atoms: C2_5  and  C3_6 
REMARK    4  A    between atoms: C3_6  and  C4_7 
REMARK    5  A    between atoms: C4_7  and  C5_8 
REMARK    6  A    between atoms: C6_10  and  N2_11 
REMARK    7  A    between atoms: C8_15  and  C9_16 
REMARK    8  A    between atoms: C11_21  and  O3_22 
REMARK    9  A    between atoms: C12_24  and  O4_25 
REMARK   10  A    between atoms: C15_29  and  N4_30 
REMARK   11  A    between atoms: C17_34  and  O7_35 
REMARK   12  A    between atoms: C18_37  and  O8_38 
ROOT
HETATM    1  C4  UNL     1     -20.560  29.249  12.629  1.00  0.00     0.009 C 
ENDROOT
BRANCH   1   2
HETATM    2  C3  UNL     1     -20.503  28.474  11.510  1.00  0.00     0.016 C 
BRANCH   2   3
HETATM    3  C2  UNL     1     -20.531  29.114  10.193  1.00  0.00     0.091 C 
BRANCH   3   4
HETATM    4  N1  UNL     1     -21.431  28.773   9.160  1.00  0.00    -0.333 N 
HETATM    5  C1  UNL     1     -21.753  29.511   8.020  1.00  0.00     0.258 C 
HETATM    6  O1  UNL     1     -21.178  30.638   7.809  1.00  0.00    -0.267 OA
ATOM      7  H1  UNL     1     -21.904  27.876   9.259  1.00  0.00     0.168 HD
BRANCH   5   8
HETATM    8  C13 UNL     1     -22.745  29.110   7.006  1.00  0.00     0.070 A 
HETATM    9  C14 UNL     1     -23.404  30.145   6.301  1.00  0.00     0.056 A 
HETATM   10  C15 UNL     1     -24.505  29.894   5.538  1.00  0.00     0.106 A 
HETATM   11  C16 UNL     1     -24.975  28.599   5.456  1.00  0.00     0.075 A 
HETATM   12  C17 UNL     1     -24.353  27.577   6.129  1.00  0.00     0.102 A 
HETATM   13  C18 UNL     1     -23.226  27.844   6.909  1.00  0.00     0.114 A 
BRANCH  10  14
HETATM   14  N4  UNL     1     -25.229  30.920   4.881  1.00  0.00    -0.116 N 
HETATM   15  O5  UNL     1     -24.739  32.056   4.647  1.00  0.00    -0.532 OA
HETATM   16  O6  UNL     1     -26.533  30.738   4.453  1.00  0.00    -0.532 OA
ENDBRANCH  10  14
BRANCH  12  17
HETATM   17  O7  UNL     1     -24.806  26.272   6.062  1.00  0.00    -0.358 OA
ATOM     18  H7  UNL     1     -24.325  25.595   5.601  1.00  0.00     0.217 HD
ENDBRANCH  12  17
BRANCH  13  19
HETATM   19  O8  UNL     1     -22.631  26.797   7.568  1.00  0.00    -0.357 OA
ATOM     20  H8  UNL     1     -23.039  26.388   8.322  1.00  0.00     0.217 HD
ENDBRANCH  13  19
ENDBRANCH   5   8
ENDBRANCH   3   4
ENDBRANCH   2   3
ENDBRANCH   1   2
BRANCH   1  21
HETATM   21  C5  UNL     1     -19.530  30.078  13.146  1.00  0.00     0.178 C 
HETATM   22  O2  UNL     1     -18.237  29.595  12.734  1.00  0.00    -0.352 OA
HETATM   23  C6  UNL     1     -17.441  30.467  13.458  1.00  0.00     0.260 C 
HETATM   24  C11 UNL     1     -18.025  31.841  13.174  1.00  0.00     0.199 C 
HETATM   25  C12 UNL     1     -19.389  31.485  12.561  1.00  0.00     0.183 C 
BRANCH  23  26
HETATM   26  N2  UNL     1     -16.015  30.390  13.175  1.00  0.00    -0.321 N 
HETATM   27  C7  UNL     1     -15.394  31.152  12.254  1.00  0.00     0.185 A 
HETATM   28  N3  UNL     1     -14.100  30.886  12.198  1.00  0.00    -0.347 N 
HETATM   29  C8  UNL     1     -13.814  29.899  13.103  1.00  0.00     0.133 A 
ATOM     30  H3  UNL     1     -13.425  31.341  11.582  1.00  0.00     0.166 HD
HETATM   31  C10 UNL     1     -15.040  29.617  13.693  1.00  0.00     0.129 A 
BRANCH  29  32
HETATM   32  C9  UNL     1     -12.487  29.313  13.314  1.00  0.00     0.433 C 
HETATM   33  F1  UNL     1     -12.105  29.279  14.644  1.00  0.00    -0.165 F 
HETATM   34  F2  UNL     1     -11.558  30.070  12.634  1.00  0.00    -0.165 F 
HETATM   35  F3  UNL     1     -12.378  28.019  12.768  1.00  0.00    -0.165 F 
ENDBRANCH  29  32
ENDBRANCH  23  26
BRANCH  24  36
HETATM   36  O3  UNL     1     -18.256  32.438  14.401  1.00  0.00    -0.388 OA
ATOM     37  H3  UNL     1     -18.339  33.370  14.241  1.00  0.00     0.210 HD
ENDBRANCH  24  36
BRANCH  25  38
HETATM   38  O4  UNL     1     -20.330  32.390  13.082  1.00  0.00    -0.390 OA
ATOM     39  H4  UNL     1     -19.982  32.921  13.789  1.00  0.00     0.210 HD
ENDBRANCH  25  38
ENDBRANCH   1  21
TORSDOF 12
ENDMDL
