MODEL 5
REMARK VINA RESULT: -8.752189454      7.200     10.868
REMARK  12 active torsions:
REMARK  status: ('A' for Active; 'I' for Inactive)
REMARK       I    between atoms: C1_2  and  N1_3 
REMARK    1  A    between atoms: C1_2  and  C13_27 
REMARK    2  A    between atoms: N1_3  and  C2_5 
REMARK    3  A    between atoms: C2_5  and  C3_6 
REMARK    4  A    between atoms: C3_6  and  C4_7 
REMARK    5  A    between atoms: C4_7  and  C5_8 
REMARK    6  A    between atoms: C6_10  and  N2_11 
REMARK    7  A    between atoms: C8_15  and  C9_16 
REMARK    8  A    between atoms: C11_21  and  O3_22 
REMARK    9  A    between atoms: C12_24  and  O4_25 
REMARK   10  A    between atoms: C15_29  and  N4_30 
REMARK   11  A    between atoms: C17_34  and  O7_35 
REMARK   12  A    between atoms: C18_37  and  O8_38 
ROOT
HETATM    1  C4  UNL     1     -20.578  29.982  13.484  1.00  0.00     0.009 C 
ENDROOT
BRANCH   1   2
HETATM    2  C3  UNL     1     -19.606  29.358  12.761  1.00  0.00     0.016 C 
BRANCH   2   3
HETATM    3  C2  UNL     1     -18.532  30.157  12.167  1.00  0.00     0.091 C 
BRANCH   3   4
HETATM    4  N1  UNL     1     -17.249  30.316  12.735  1.00  0.00    -0.333 N 
HETATM    5  C1  UNL     1     -16.065  30.692  12.099  1.00  0.00     0.258 C 
HETATM    6  O1  UNL     1     -16.077  30.967  10.846  1.00  0.00    -0.267 OA
ATOM      7  H1  UNL     1     -17.179  30.133  13.736  1.00  0.00     0.168 HD
BRANCH   5   8
HETATM    8  C13 UNL     1     -14.747  30.788  12.752  1.00  0.00     0.070 A 
HETATM    9  C14 UNL     1     -13.716  31.438  12.035  1.00  0.00     0.056 A 
HETATM   10  C15 UNL     1     -12.414  31.355  12.433  1.00  0.00     0.106 A 
HETATM   11  C16 UNL     1     -12.111  30.624  13.563  1.00  0.00     0.075 A 
HETATM   12  C17 UNL     1     -13.094  29.985  14.278  1.00  0.00     0.102 A 
HETATM   13  C18 UNL     1     -14.424  30.075  13.862  1.00  0.00     0.114 A 
BRANCH  10  14
HETATM   14  N4  UNL     1     -11.352  31.933  11.694  1.00  0.00    -0.116 N 
HETATM   15  O5  UNL     1     -10.494  32.693  12.215  1.00  0.00    -0.532 OA
HETATM   16  O6  UNL     1     -11.190  31.698  10.339  1.00  0.00    -0.532 OA
ENDBRANCH  10  14
BRANCH  12  17
HETATM   17  O7  UNL     1     -12.814  29.247  15.413  1.00  0.00    -0.358 OA
ATOM     18  H7  UNL     1     -13.179  29.469  16.261  1.00  0.00     0.217 HD
ENDBRANCH  12  17
BRANCH  13  19
HETATM   19  O8  UNL     1     -15.379  29.423  14.600  1.00  0.00    -0.357 OA
ATOM     20  H8  UNL     1     -16.109  29.888  14.991  1.00  0.00     0.217 HD
ENDBRANCH  13  19
ENDBRANCH   5   8
ENDBRANCH   3   4
ENDBRANCH   2   3
ENDBRANCH   1   2
BRANCH   1  21
HETATM   21  C5  UNL     1     -20.873  31.370  13.496  1.00  0.00     0.178 C 
HETATM   22  O2  UNL     1     -22.244  31.593  13.881  1.00  0.00    -0.352 OA
HETATM   23  C6  UNL     1     -22.301  32.963  13.686  1.00  0.00     0.260 C 
HETATM   24  C11 UNL     1     -21.067  33.500  14.391  1.00  0.00     0.199 C 
HETATM   25  C12 UNL     1     -20.239  32.222  14.599  1.00  0.00     0.183 C 
BRANCH  23  26
HETATM   26  N2  UNL     1     -23.530  33.604  14.132  1.00  0.00    -0.321 N 
HETATM   27  C7  UNL     1     -24.733  33.387  13.564  1.00  0.00     0.185 A 
HETATM   28  N3  UNL     1     -25.682  34.090  14.159  1.00  0.00    -0.347 N 
HETATM   29  C8  UNL     1     -25.119  34.827  15.166  1.00  0.00     0.133 A 
ATOM     30  H3  UNL     1     -26.672  34.084  13.910  1.00  0.00     0.166 HD
HETATM   31  C10 UNL     1     -23.771  34.494  15.115  1.00  0.00     0.129 A 
BRANCH  29  32
HETATM   32  C9  UNL     1     -25.848  35.756  16.036  1.00  0.00     0.433 C 
HETATM   33  F1  UNL     1     -27.201  35.831  15.750  1.00  0.00    -0.165 F 
HETATM   34  F2  UNL     1     -25.319  37.017  15.874  1.00  0.00    -0.165 F 
HETATM   35  F3  UNL     1     -25.679  35.458  17.402  1.00  0.00    -0.165 F 
ENDBRANCH  29  32
ENDBRANCH  23  26
BRANCH  24  36
HETATM   36  O3  UNL     1     -20.398  34.293  13.475  1.00  0.00    -0.388 OA
ATOM     37  H3  UNL     1     -20.470  35.188  13.783  1.00  0.00     0.210 HD
ENDBRANCH  24  36
BRANCH  25  38
HETATM   38  O4  UNL     1     -18.896  32.545  14.335  1.00  0.00    -0.390 OA
ATOM     39  H4  UNL     1     -18.658  33.413  14.641  1.00  0.00     0.210 HD
ENDBRANCH  25  38
ENDBRANCH   1  21
TORSDOF 12
ENDMDL
