MODEL 6
REMARK VINA RESULT: -8.710537768      4.910     10.221
REMARK  12 active torsions:
REMARK  status: ('A' for Active; 'I' for Inactive)
REMARK       I    between atoms: C1_2  and  N1_3 
REMARK    1  A    between atoms: C1_2  and  C13_27 
REMARK    2  A    between atoms: N1_3  and  C2_5 
REMARK    3  A    between atoms: C2_5  and  C3_6 
REMARK    4  A    between atoms: C3_6  and  C4_7 
REMARK    5  A    between atoms: C4_7  and  C5_8 
REMARK    6  A    between atoms: C6_10  and  N2_11 
REMARK    7  A    between atoms: C8_15  and  C9_16 
REMARK    8  A    between atoms: C11_21  and  O3_22 
REMARK    9  A    between atoms: C12_24  and  O4_25 
REMARK   10  A    between atoms: C15_29  and  N4_30 
REMARK   11  A    between atoms: C17_34  and  O7_35 
REMARK   12  A    between atoms: C18_37  and  O8_38 
ROOT
HETATM    1  C4  UNL     1     -20.664  31.346  12.616  1.00  0.00     0.009 C 
ENDROOT
BRANCH   1   2
HETATM    2  C3  UNL     1     -19.634  31.030  13.450  1.00  0.00     0.016 C 
BRANCH   2   3
HETATM    3  C2  UNL     1     -18.484  31.932  13.542  1.00  0.00     0.091 C 
BRANCH   3   4
HETATM    4  N1  UNL     1     -17.144  31.506  13.661  1.00  0.00    -0.333 N 
HETATM    5  C1  UNL     1     -16.275  31.100  12.646  1.00  0.00     0.258 C 
HETATM    6  O1  UNL     1     -16.672  31.115  11.426  1.00  0.00    -0.267 OA
ATOM      7  H1  UNL     1     -16.762  31.494  14.606  1.00  0.00     0.168 HD
BRANCH   5   8
HETATM    8  C13 UNL     1     -14.898  30.618  12.854  1.00  0.00     0.070 A 
HETATM    9  C14 UNL     1     -13.849  31.416  12.341  1.00  0.00     0.056 A 
HETATM   10  C15 UNL     1     -12.573  30.941  12.254  1.00  0.00     0.106 A 
HETATM   11  C16 UNL     1     -12.313  29.656  12.683  1.00  0.00     0.075 A 
HETATM   12  C17 UNL     1     -13.313  28.862  13.187  1.00  0.00     0.102 A 
HETATM   13  C18 UNL     1     -14.617  29.356  13.271  1.00  0.00     0.114 A 
BRANCH  10  14
HETATM   14  N4  UNL     1     -11.518  31.690  11.677  1.00  0.00    -0.116 N 
HETATM   15  O5  UNL     1     -10.851  32.538  12.325  1.00  0.00    -0.532 OA
HETATM   16  O6  UNL     1     -11.152  31.538  10.350  1.00  0.00    -0.532 OA
ENDBRANCH  10  14
BRANCH  12  17
HETATM   17  O7  UNL     1     -13.075  27.571  13.622  1.00  0.00    -0.358 OA
ATOM     18  H7  UNL     1     -13.782  26.963  13.807  1.00  0.00     0.217 HD
ENDBRANCH  12  17
BRANCH  13  19
HETATM   19  O8  UNL     1     -15.590  28.533  13.778  1.00  0.00    -0.357 OA
ATOM     20  H8  UNL     1     -15.949  28.665  14.648  1.00  0.00     0.217 HD
ENDBRANCH  13  19
ENDBRANCH   5   8
ENDBRANCH   3   4
ENDBRANCH   2   3
ENDBRANCH   1   2
BRANCH   1  21
HETATM   21  C5  UNL     1     -20.942  30.774  11.348  1.00  0.00     0.178 C 
HETATM   22  O2  UNL     1     -21.095  31.802  10.351  1.00  0.00    -0.352 OA
HETATM   23  C6  UNL     1     -21.479  31.009   9.282  1.00  0.00     0.260 C 
HETATM   24  C11 UNL     1     -20.468  29.876   9.264  1.00  0.00     0.199 C 
HETATM   25  C12 UNL     1     -19.813  30.013  10.648  1.00  0.00     0.183 C 
BRANCH  23  26
HETATM   26  N2  UNL     1     -21.582  31.696   8.002  1.00  0.00    -0.321 N 
HETATM   27  C7  UNL     1     -22.374  32.766   7.792  1.00  0.00     0.185 A 
HETATM   28  N3  UNL     1     -22.279  33.200   6.545  1.00  0.00    -0.347 N 
HETATM   29  C8  UNL     1     -21.402  32.398   5.866  1.00  0.00     0.133 A 
ATOM     30  H3  UNL     1     -22.778  33.999   6.154  1.00  0.00     0.166 HD
HETATM   31  C10 UNL     1     -20.988  31.470   6.814  1.00  0.00     0.129 A 
BRANCH  29  32
HETATM   32  C9  UNL     1     -21.057  32.544   4.448  1.00  0.00     0.433 C 
HETATM   33  F1  UNL     1     -21.554  33.702   3.877  1.00  0.00    -0.165 F 
HETATM   34  F2  UNL     1     -21.586  31.477   3.755  1.00  0.00    -0.165 F 
HETATM   35  F3  UNL     1     -19.668  32.476   4.223  1.00  0.00    -0.165 F 
ENDBRANCH  29  32
ENDBRANCH  23  26
BRANCH  24  36
HETATM   36  O3  UNL     1     -21.190  28.696   9.252  1.00  0.00    -0.388 OA
ATOM     37  H3  UNL     1     -20.834  28.164   8.551  1.00  0.00     0.210 HD
ENDBRANCH  24  36
BRANCH  25  38
HETATM   38  O4  UNL     1     -19.632  28.715  11.156  1.00  0.00    -0.390 OA
ATOM     39  H4  UNL     1     -20.452  28.268  11.331  1.00  0.00     0.210 HD
ENDBRANCH  25  38
ENDBRANCH   1  21
TORSDOF 12
ENDMDL
