MODEL 4
REMARK VINA RESULT: -8.971504907      2.988      4.746
REMARK  10 active torsions:
REMARK  status: ('A' for Active; 'I' for Inactive)
REMARK       I    between atoms: C1_2  and  N1_3 
REMARK    1  A    between atoms: C1_2  and  C14_24 
REMARK    2  A    between atoms: N1_3  and  C2_5 
REMARK    3  A    between atoms: C2_5  and  C3_6 
REMARK    4  A    between atoms: C4_7  and  C5_8 
REMARK    5  A    between atoms: C6_10  and  N2_11 
REMARK    6  A    between atoms: C12_18  and  O4_19 
REMARK    7  A    between atoms: C13_21  and  O5_22 
REMARK    8  A    between atoms: C16_26  and  N3_27 
REMARK    9  A    between atoms: C18_31  and  O8_32 
REMARK   10  A    between atoms: C19_34  and  O9_35 
ROOT
HETATM    1  C2  UNL     1      36.238  -3.186  -8.656  1.00  0.00     0.150 C 
ENDROOT
BRANCH   1   2
HETATM    2  N1  UNL     1      36.726  -2.427  -7.516  1.00  0.00    -0.353 N 
HETATM    3  C1  UNL     1      37.703  -2.981  -6.619  1.00  0.00     0.254 C 
HETATM    4  O1  UNL     1      38.089  -4.138  -6.890  1.00  0.00    -0.268 OA
ATOM      5  H1  UNL     1      36.369  -1.487  -7.350  1.00  0.00     0.163 HD
BRANCH   3   6
HETATM    6  C14 UNL     1      38.238  -2.298  -5.469  1.00  0.00     0.070 A 
HETATM    7  C15 UNL     1      38.057  -0.933  -5.347  1.00  0.00     0.056 A 
HETATM    8  C16 UNL     1      38.545  -0.204  -4.266  1.00  0.00     0.106 A 
HETATM    9  C17 UNL     1      39.231  -0.859  -3.280  1.00  0.00     0.075 A 
HETATM   10  C18 UNL     1      39.428  -2.207  -3.367  1.00  0.00     0.102 A 
HETATM   11  C19 UNL     1      38.927  -2.932  -4.473  1.00  0.00     0.114 A 
BRANCH   8  12
HETATM   12  N3  UNL     1      38.336   1.205  -4.180  1.00  0.00    -0.116 N 
HETATM   13  O6  UNL     1      37.682   1.644  -3.225  1.00  0.00    -0.532 OA
HETATM   14  O7  UNL     1      38.849   2.032  -5.132  1.00  0.00    -0.532 OA
ENDBRANCH   8  12
BRANCH  10  15
HETATM   15  O8  UNL     1      40.128  -2.839  -2.351  1.00  0.00    -0.358 OA
ATOM     16  H8  UNL     1      40.057  -3.783  -2.273  1.00  0.00     0.217 HD
ENDBRANCH  10  15
BRANCH  11  17
HETATM   17  O9  UNL     1      39.176  -4.273  -4.465  1.00  0.00    -0.357 OA
ATOM     18  H9  UNL     1      38.740  -4.885  -3.883  1.00  0.00     0.217 HD
ENDBRANCH  11  17
ENDBRANCH   3   6
ENDBRANCH   1   2
BRANCH   1  19
HETATM   19  C3  UNL     1      36.458  -2.499  -9.932  1.00  0.00    -0.009 C 
HETATM   20  C4  UNL     1      35.901  -2.982 -11.035  1.00  0.00     0.005 C 
BRANCH  20  21
HETATM   21  C5  UNL     1      36.119  -2.295 -12.322  1.00  0.00     0.178 C 
HETATM   22  O2  UNL     1      35.030  -1.540 -12.697  1.00  0.00    -0.352 OA
HETATM   23  C6  UNL     1      35.437  -0.594 -13.603  1.00  0.00     0.259 C 
HETATM   24  C12 UNL     1      36.917  -0.396 -13.433  1.00  0.00     0.198 C 
HETATM   25  C13 UNL     1      37.205  -1.228 -12.198  1.00  0.00     0.183 C 
BRANCH  23  26
HETATM   26  N2  UNL     1      34.794   0.691 -13.315  1.00  0.00    -0.337 N 
HETATM   27  C7  UNL     1      35.242   1.492 -12.330  1.00  0.00     0.097 A 
HETATM   28  C8  UNL     1      34.647   2.716 -12.040  1.00  0.00     0.072 A 
HETATM   29  C9  UNL     1      33.560   3.129 -12.783  1.00  0.00     0.174 A 
HETATM   30  O3  UNL     1      33.020   4.239 -12.520  1.00  0.00    -0.288 OA
HETATM   31  C10 UNL     1      33.099   2.313 -13.792  1.00  0.00     0.072 A 
HETATM   32  C11 UNL     1      33.745   1.096 -14.029  1.00  0.00     0.097 A 
ENDBRANCH  23  26
BRANCH  24  33
HETATM   33  O4  UNL     1      37.584  -0.963 -14.514  1.00  0.00    -0.388 OA
ATOM     34  H4  UNL     1      38.175  -0.322 -14.889  1.00  0.00     0.210 HD
ENDBRANCH  24  33
BRANCH  25  35
HETATM   35  O5  UNL     1      38.475  -1.798 -12.255  1.00  0.00    -0.390 OA
ATOM     36  H5  UNL     1      38.891  -1.789 -11.401  1.00  0.00     0.210 HD
ENDBRANCH  25  35
ENDBRANCH  20  21
ENDBRANCH   1  19
TORSDOF 10
ENDMDL
