MODEL 6
REMARK VINA RESULT: -8.906455716      2.006     10.910
REMARK  10 active torsions:
REMARK  status: ('A' for Active; 'I' for Inactive)
REMARK       I    between atoms: C1_2  and  N1_3 
REMARK    1  A    between atoms: C1_2  and  C14_24 
REMARK    2  A    between atoms: N1_3  and  C2_5 
REMARK    3  A    between atoms: C2_5  and  C3_6 
REMARK    4  A    between atoms: C4_7  and  C5_8 
REMARK    5  A    between atoms: C6_10  and  N2_11 
REMARK    6  A    between atoms: C12_18  and  O4_19 
REMARK    7  A    between atoms: C13_21  and  O5_22 
REMARK    8  A    between atoms: C16_26  and  N3_27 
REMARK    9  A    between atoms: C18_31  and  O8_32 
REMARK   10  A    between atoms: C19_34  and  O9_35 
ROOT
HETATM    1  C2  UNL     1      35.717  -1.881 -11.904  1.00  0.00     0.150 C 
ENDROOT
BRANCH   1   2
HETATM    2  N1  UNL     1      34.865  -0.743 -12.208  1.00  0.00    -0.353 N 
HETATM    3  C1  UNL     1      35.425   0.518 -12.608  1.00  0.00     0.254 C 
HETATM    4  O1  UNL     1      36.673   0.558 -12.671  1.00  0.00    -0.268 OA
ATOM      5  H1  UNL     1      33.853  -0.841 -12.135  1.00  0.00     0.163 HD
BRANCH   3   6
HETATM    6  C14 UNL     1      34.655   1.693 -12.926  1.00  0.00     0.070 A 
HETATM    7  C15 UNL     1      34.785   2.822 -12.139  1.00  0.00     0.056 A 
HETATM    8  C16 UNL     1      34.075   3.994 -12.382  1.00  0.00     0.106 A 
HETATM    9  C17 UNL     1      33.211   4.038 -13.442  1.00  0.00     0.075 A 
HETATM   10  C18 UNL     1      33.057   2.942 -14.241  1.00  0.00     0.102 A 
HETATM   11  C19 UNL     1      33.786   1.758 -13.979  1.00  0.00     0.114 A 
BRANCH   8  12
HETATM   12  N3  UNL     1      34.240   5.137 -11.544  1.00  0.00    -0.116 N 
HETATM   13  O6  UNL     1      33.743   5.109 -10.410  1.00  0.00    -0.532 OA
HETATM   14  O7  UNL     1      34.929   6.221 -11.993  1.00  0.00    -0.532 OA
ENDBRANCH   8  12
BRANCH  10  15
HETATM   15  O8  UNL     1      32.173   3.019 -15.306  1.00  0.00    -0.358 OA
ATOM     16  H8  UNL     1      31.467   2.386 -15.355  1.00  0.00     0.217 HD
ENDBRANCH  10  15
BRANCH  11  17
HETATM   17  O9  UNL     1      33.561   0.721 -14.836  1.00  0.00    -0.357 OA
ATOM     18  H9  UNL     1      34.073   0.569 -15.622  1.00  0.00     0.217 HD
ENDBRANCH  11  17
ENDBRANCH   3   6
ENDBRANCH   1   2
BRANCH   1  19
HETATM   19  C3  UNL     1      36.381  -1.761 -10.602  1.00  0.00    -0.009 C 
HETATM   20  C4  UNL     1      36.414  -2.810  -9.790  1.00  0.00     0.005 C 
BRANCH  20  21
HETATM   21  C5  UNL     1      37.080  -2.696  -8.479  1.00  0.00     0.178 C 
HETATM   22  O2  UNL     1      36.537  -3.550  -7.546  1.00  0.00    -0.352 OA
HETATM   23  C6  UNL     1      37.448  -3.746  -6.539  1.00  0.00     0.259 C 
HETATM   24  C12 UNL     1      38.812  -3.416  -7.079  1.00  0.00     0.198 C 
HETATM   25  C13 UNL     1      38.521  -3.195  -8.551  1.00  0.00     0.183 C 
BRANCH  23  26
HETATM   26  N2  UNL     1      37.470  -5.157  -6.145  1.00  0.00    -0.337 N 
HETATM   27  C7  UNL     1      36.441  -5.978  -6.425  1.00  0.00     0.097 A 
HETATM   28  C8  UNL     1      36.442  -7.321  -6.060  1.00  0.00     0.072 A 
HETATM   29  C9  UNL     1      37.531  -7.835  -5.388  1.00  0.00     0.174 A 
HETATM   30  O3  UNL     1      37.532  -9.053  -5.057  1.00  0.00    -0.288 OA
HETATM   31  C10 UNL     1      38.586  -6.999  -5.100  1.00  0.00     0.072 A 
HETATM   32  C11 UNL     1      38.519  -5.660  -5.496  1.00  0.00     0.097 A 
ENDBRANCH  23  26
BRANCH  24  33
HETATM   33  O4  UNL     1      39.244  -2.213  -6.529  1.00  0.00    -0.388 OA
ATOM     34  H4  UNL     1      39.876  -1.811  -7.112  1.00  0.00     0.210 HD
ENDBRANCH  24  33
BRANCH  25  35
HETATM   35  O5  UNL     1      39.361  -2.224  -9.094  1.00  0.00    -0.390 OA
ATOM     36  H5  UNL     1      40.142  -2.114  -8.565  1.00  0.00     0.210 HD
ENDBRANCH  25  35
ENDBRANCH  20  21
ENDBRANCH   1  19
TORSDOF 10
ENDMDL
