MODEL 1
REMARK VINA RESULT: -10.338931490      0.000      0.000
REMARK  10 active torsions:
REMARK  status: ('A' for Active; 'I' for Inactive)
REMARK       I    between atoms: C1_2  and  N1_3 
REMARK    1  A    between atoms: C1_2  and  C14_24 
REMARK    2  A    between atoms: N1_3  and  C2_5 
REMARK    3  A    between atoms: C2_5  and  C3_6 
REMARK    4  A    between atoms: C4_7  and  C5_8 
REMARK    5  A    between atoms: C6_10  and  N2_11 
REMARK    6  A    between atoms: C12_18  and  O4_19 
REMARK    7  A    between atoms: C13_21  and  O5_22 
REMARK    8  A    between atoms: C16_26  and  N3_27 
REMARK    9  A    between atoms: C18_31  and  O8_32 
REMARK   10  A    between atoms: C19_34  and  O9_35 
ROOT
HETATM    1  C2  UNL     1      37.074  -2.441  -8.070  1.00  0.00     0.150 C 
ENDROOT
BRANCH   1   2
HETATM    2  N1  UNL     1      36.778  -3.820  -7.715  1.00  0.00    -0.353 N 
HETATM    3  C1  UNL     1      37.449  -4.465  -6.620  1.00  0.00     0.254 C 
HETATM    4  O1  UNL     1      38.287  -3.764  -6.013  1.00  0.00    -0.268 OA
ATOM      5  H1  UNL     1      36.083  -4.338  -8.252  1.00  0.00     0.163 HD
BRANCH   3   6
HETATM    6  C14 UNL     1      37.216  -5.824  -6.203  1.00  0.00     0.070 A 
HETATM    7  C15 UNL     1      38.178  -6.478  -5.457  1.00  0.00     0.056 A 
HETATM    8  C16 UNL     1      38.027  -7.790  -5.018  1.00  0.00     0.106 A 
HETATM    9  C17 UNL     1      36.879  -8.466  -5.333  1.00  0.00     0.075 A 
HETATM   10  C18 UNL     1      35.907  -7.852  -6.068  1.00  0.00     0.102 A 
HETATM   11  C19 UNL     1      36.078  -6.518  -6.507  1.00  0.00     0.114 A 
BRANCH   8  12
HETATM   12  N3  UNL     1      39.046  -8.427  -4.250  1.00  0.00    -0.116 N 
HETATM   13  O6  UNL     1      40.200  -7.986  -4.326  1.00  0.00    -0.532 OA
HETATM   14  O7  UNL     1      38.743  -9.491  -3.458  1.00  0.00    -0.532 OA
ENDBRANCH   8  12
BRANCH  10  15
HETATM   15  O8  UNL     1      34.758  -8.565  -6.371  1.00  0.00    -0.358 OA
ATOM     16  H8  UNL     1      33.934  -8.095  -6.421  1.00  0.00     0.217 HD
ENDBRANCH  10  15
BRANCH  11  17
HETATM   17  O9  UNL     1      35.049  -5.996  -7.234  1.00  0.00    -0.357 OA
ATOM     18  H9  UNL     1      34.855  -6.254  -8.128  1.00  0.00     0.217 HD
ENDBRANCH  11  17
ENDBRANCH   3   6
ENDBRANCH   1   2
BRANCH   1  19
HETATM   19  C3  UNL     1      36.940  -2.184  -9.506  1.00  0.00    -0.009 C 
HETATM   20  C4  UNL     1      35.992  -2.809 -10.193  1.00  0.00     0.005 C 
BRANCH  20  21
HETATM   21  C5  UNL     1      35.852  -2.555 -11.639  1.00  0.00     0.178 C 
HETATM   22  O2  UNL     1      34.798  -1.713 -11.918  1.00  0.00    -0.352 OA
HETATM   23  C6  UNL     1      34.991  -1.153 -13.155  1.00  0.00     0.259 C 
HETATM   24  C12 UNL     1      36.457  -1.238 -13.477  1.00  0.00     0.198 C 
HETATM   25  C13 UNL     1      37.036  -1.751 -12.172  1.00  0.00     0.183 C 
BRANCH  23  26
HETATM   26  N2  UNL     1      34.637   0.268 -13.127  1.00  0.00    -0.337 N 
HETATM   27  C7  UNL     1      35.195   1.111 -12.239  1.00  0.00     0.097 A 
HETATM   28  C8  UNL     1      34.874   2.465 -12.195  1.00  0.00     0.072 A 
HETATM   29  C9  UNL     1      33.952   2.966 -13.090  1.00  0.00     0.174 A 
HETATM   30  O3  UNL     1      33.660   4.193 -13.051  1.00  0.00    -0.288 OA
HETATM   31  C10 UNL     1      33.379   2.108 -14.001  1.00  0.00     0.072 A 
HETATM   32  C11 UNL     1      33.748   0.759 -13.989  1.00  0.00     0.097 A 
ENDBRANCH  23  26
BRANCH  24  33
HETATM   33  O4  UNL     1      36.657  -2.202 -14.459  1.00  0.00    -0.388 OA
ATOM     34  H4  UNL     1      36.633  -1.789 -15.314  1.00  0.00     0.210 HD
ENDBRANCH  24  33
BRANCH  25  35
HETATM   35  O5  UNL     1      38.139  -2.573 -12.395  1.00  0.00    -0.390 OA
ATOM     36  H5  UNL     1      38.170  -2.865 -13.298  1.00  0.00     0.210 HD
ENDBRANCH  25  35
ENDBRANCH  20  21
ENDBRANCH   1  19
TORSDOF 10
ENDMDL
