MODEL 5
REMARK VINA RESULT: -8.932358038      6.389      9.944
REMARK  10 active torsions:
REMARK  status: ('A' for Active; 'I' for Inactive)
REMARK       I    between atoms: C1_2  and  N1_3 
REMARK    1  A    between atoms: C1_2  and  C14_24 
REMARK    2  A    between atoms: N1_3  and  C2_5 
REMARK    3  A    between atoms: C2_5  and  C3_6 
REMARK    4  A    between atoms: C4_7  and  C5_8 
REMARK    5  A    between atoms: C6_10  and  N2_11 
REMARK    6  A    between atoms: C12_18  and  O4_19 
REMARK    7  A    between atoms: C13_21  and  O5_22 
REMARK    8  A    between atoms: C16_26  and  N3_27 
REMARK    9  A    between atoms: C18_31  and  O8_32 
REMARK   10  A    between atoms: C19_34  and  O9_35 
ROOT
HETATM    1  C2  UNL     1      36.470  -1.640 -13.133  1.00  0.00     0.150 C 
ENDROOT
BRANCH   1   2
HETATM    2  N1  UNL     1      35.716  -0.463 -13.535  1.00  0.00    -0.353 N 
HETATM    3  C1  UNL     1      35.302   0.517 -12.569  1.00  0.00     0.254 C 
HETATM    4  O1  UNL     1      35.632   0.282 -11.387  1.00  0.00    -0.268 OA
ATOM      5  H1  UNL     1      35.478  -0.331 -14.517  1.00  0.00     0.163 HD
BRANCH   3   6
HETATM    6  C14 UNL     1      34.555   1.709 -12.881  1.00  0.00     0.070 A 
HETATM    7  C15 UNL     1      34.721   2.836 -12.099  1.00  0.00     0.056 A 
HETATM    8  C16 UNL     1      34.036   4.024 -12.336  1.00  0.00     0.106 A 
HETATM    9  C17 UNL     1      33.159   4.086 -13.385  1.00  0.00     0.075 A 
HETATM   10  C18 UNL     1      32.970   2.991 -14.179  1.00  0.00     0.102 A 
HETATM   11  C19 UNL     1      33.674   1.792 -13.923  1.00  0.00     0.114 A 
BRANCH   8  12
HETATM   12  N3  UNL     1      34.238   5.165 -11.503  1.00  0.00    -0.116 N 
HETATM   13  O6  UNL     1      33.731   5.164 -10.374  1.00  0.00    -0.532 OA
HETATM   14  O7  UNL     1      34.972   6.219 -11.952  1.00  0.00    -0.532 OA
ENDBRANCH   8  12
BRANCH  10  15
HETATM   15  O8  UNL     1      32.075   3.087 -15.233  1.00  0.00    -0.358 OA
ATOM     16  H8  UNL     1      31.942   2.325 -15.784  1.00  0.00     0.217 HD
ENDBRANCH  10  15
BRANCH  11  17
HETATM   17  O9  UNL     1      33.414   0.758 -14.774  1.00  0.00    -0.357 OA
ATOM     18  H9  UNL     1      32.814   0.821 -15.508  1.00  0.00     0.217 HD
ENDBRANCH  11  17
ENDBRANCH   3   6
ENDBRANCH   1   2
BRANCH   1  19
HETATM   19  C3  UNL     1      37.915  -1.399 -13.083  1.00  0.00    -0.009 C 
HETATM   20  C4  UNL     1      38.724  -2.143 -13.826  1.00  0.00     0.005 C 
BRANCH  20  21
HETATM   21  C5  UNL     1      40.179  -1.907 -13.780  1.00  0.00     0.178 C 
HETATM   22  O2  UNL     1      40.561  -0.869 -14.601  1.00  0.00    -0.352 OA
HETATM   23  C6  UNL     1      41.780  -0.398 -14.183  1.00  0.00     0.259 C 
HETATM   24  C12 UNL     1      41.965  -0.802 -12.747  1.00  0.00     0.198 C 
HETATM   25  C13 UNL     1      40.608  -1.389 -12.409  1.00  0.00     0.183 C 
BRANCH  23  26
HETATM   26  N2  UNL     1      41.799   1.066 -14.226  1.00  0.00    -0.337 N 
HETATM   27  C7  UNL     1      40.986   1.752 -15.051  1.00  0.00     0.097 A 
HETATM   28  C8  UNL     1      40.986   3.143 -15.107  1.00  0.00     0.072 A 
HETATM   29  C9  UNL     1      41.847   3.849 -14.292  1.00  0.00     0.174 A 
HETATM   30  O3  UNL     1      41.848   5.110 -14.343  1.00  0.00    -0.288 OA
HETATM   31  C10 UNL     1      42.679   3.151 -13.446  1.00  0.00     0.072 A 
HETATM   32  C11 UNL     1      42.626   1.754 -13.441  1.00  0.00     0.097 A 
ENDBRANCH  23  26
BRANCH  24  33
HETATM   33  O4  UNL     1      42.915  -1.815 -12.673  1.00  0.00    -0.388 OA
ATOM     34  H4  UNL     1      43.763  -1.436 -12.473  1.00  0.00     0.210 HD
ENDBRANCH  24  33
BRANCH  25  35
HETATM   35  O5  UNL     1      40.720  -2.433 -11.493  1.00  0.00    -0.390 OA
ATOM     36  H5  UNL     1      40.971  -2.108 -10.636  1.00  0.00     0.210 HD
ENDBRANCH  25  35
ENDBRANCH  20  21
ENDBRANCH   1  19
TORSDOF 10
ENDMDL
