MODEL 3
REMARK VINA RESULT: -9.145521294      2.058      2.559
REMARK  6 active torsions:
REMARK  status: ('A' for Active; 'I' for Inactive)
REMARK    1  A    between atoms: C4_5  and  C5_6 
REMARK    2  A    between atoms: C5_6  and  O1_7 
REMARK    3  A    between atoms: O1_7  and  C6_8 
REMARK    4  A    between atoms: C6_8  and  C7_9 
REMARK    5  A    between atoms: C6_8  and  C11_16 
REMARK    6  A    between atoms: C7_9  and  N1_10 
ROOT
HETATM    1  C6  UNL     1     -26.707  34.927 -31.674  1.00  0.00     0.195 C 
ENDROOT
BRANCH   1   2
HETATM    2  O1  UNL     1     -25.294  34.805 -31.497  1.00  0.00    -0.371 OA
BRANCH   2   3
HETATM    3  C5  UNL     1     -24.471  35.307 -32.430  1.00  0.00     0.207 C 
BRANCH   3   4
HETATM    4  C4  UNL     1     -23.076  35.170 -31.838  1.00  0.00    -0.035 A 
HETATM    5  C3  UNL     1     -22.845  34.252 -30.849  1.00  0.00     0.011 A 
HETATM    6  C2  UNL     1     -21.541  34.160 -30.347  1.00  0.00     0.024 A 
HETATM    7  C1  UNL     1     -20.552  34.975 -30.853  1.00  0.00     0.034 A 
HETATM    8 CL1  UNL     1     -18.892  34.854 -30.261  1.00  0.00    -0.084 Cl
HETATM    9  C18 UNL     1     -20.822  35.880 -31.842  1.00  0.00     0.024 A 
HETATM   10  C17 UNL     1     -22.099  35.995 -32.354  1.00  0.00     0.011 A 
ENDBRANCH   3   4
ENDBRANCH   2   3
ENDBRANCH   1   2
BRANCH   1  11
HETATM   11  C7  UNL     1     -26.837  35.758 -32.875  1.00  0.00     0.106 C 
BRANCH  11  12
HETATM   12  N1  UNL     1     -27.967  35.761 -33.701  1.00  0.00    -0.329 N 
HETATM   13  C8  UNL     1     -28.325  34.841 -34.625  1.00  0.00     0.114 A 
HETATM   14  C9  UNL     1     -29.431  35.298 -35.266  1.00  0.00     0.106 A 
HETATM   15  N2  UNL     1     -29.787  36.494 -34.766  1.00  0.00    -0.360 N 
HETATM   16  C10 UNL     1     -28.896  36.760 -33.828  1.00  0.00     0.186 A 
ATOM     17  H2  UNL     1     -30.578  37.073 -35.050  1.00  0.00     0.166 HD
ENDBRANCH  11  12
ENDBRANCH   1  11
BRANCH   1  18
HETATM   18  C11 UNL     1     -27.131  35.559 -30.388  1.00  0.00    -0.003 A 
HETATM   19  C12 UNL     1     -26.292  36.277 -29.573  1.00  0.00     0.013 A 
HETATM   20  C13 UNL     1     -26.681  36.722 -28.313  1.00  0.00     0.024 A 
HETATM   21  C14 UNL     1     -27.980  36.423 -27.860  1.00  0.00     0.035 A 
HETATM   22 CL2  UNL     1     -28.545  36.997 -26.298  1.00  0.00    -0.084 Cl
HETATM   23  C15 UNL     1     -28.828  35.701 -28.677  1.00  0.00     0.048 A 
HETATM   24  C16 UNL     1     -28.406  35.279 -29.916  1.00  0.00     0.044 A 
HETATM   25 CL3  UNL     1     -29.523  34.414 -30.942  1.00  0.00    -0.084 Cl
ENDBRANCH   1  18
TORSDOF 6
ENDMDL
