MODEL 2
REMARK VINA RESULT: -9.166864951      2.580      5.060
REMARK  6 active torsions:
REMARK  status: ('A' for Active; 'I' for Inactive)
REMARK    1  A    between atoms: C4_5  and  C5_6 
REMARK    2  A    between atoms: C5_6  and  O1_7 
REMARK    3  A    between atoms: O1_7  and  C6_8 
REMARK    4  A    between atoms: C6_8  and  C7_9 
REMARK    5  A    between atoms: C6_8  and  C11_16 
REMARK    6  A    between atoms: C7_9  and  N1_10 
ROOT
HETATM    1  C6  UNL     1     -27.142  35.785 -32.728  1.00  0.00     0.195 C 
ENDROOT
BRANCH   1   2
HETATM    2  O1  UNL     1     -25.878  35.880 -33.391  1.00  0.00    -0.371 OA
BRANCH   2   3
HETATM    3  C5  UNL     1     -24.757  35.953 -32.657  1.00  0.00     0.207 C 
BRANCH   3   4
HETATM    4  C4  UNL     1     -23.849  36.905 -33.422  1.00  0.00    -0.035 A 
HETATM    5  C3  UNL     1     -22.517  36.966 -33.117  1.00  0.00     0.011 A 
HETATM    6  C2  UNL     1     -21.726  37.851 -33.860  1.00  0.00     0.024 A 
HETATM    7  C1  UNL     1     -22.297  38.614 -34.854  1.00  0.00     0.034 A 
HETATM    8 CL1  UNL     1     -21.314  39.712 -35.828  1.00  0.00    -0.084 Cl
HETATM    9  C18 UNL     1     -23.634  38.525 -35.130  1.00  0.00     0.024 A 
HETATM   10  C17 UNL     1     -24.440  37.664 -34.411  1.00  0.00     0.011 A 
ENDBRANCH   3   4
ENDBRANCH   2   3
ENDBRANCH   1   2
BRANCH   1  11
HETATM   11  C7  UNL     1     -26.929  34.740 -31.722  1.00  0.00     0.106 C 
BRANCH  11  12
HETATM   12  N1  UNL     1     -27.173  34.915 -30.354  1.00  0.00    -0.329 N 
HETATM   13  C8  UNL     1     -26.508  35.708 -29.485  1.00  0.00     0.114 A 
HETATM   14  C9  UNL     1     -27.011  35.485 -28.244  1.00  0.00     0.106 A 
HETATM   15  N2  UNL     1     -27.989  34.564 -28.306  1.00  0.00    -0.360 N 
HETATM   16  C10 UNL     1     -28.073  34.229 -29.581  1.00  0.00     0.186 A 
ATOM     17  H2  UNL     1     -28.548  34.202 -27.533  1.00  0.00     0.166 HD
ENDBRANCH  11  12
ENDBRANCH   1  11
BRANCH   1  18
HETATM   18  C11 UNL     1     -28.061  35.438 -33.854  1.00  0.00    -0.003 A 
HETATM   19  C12 UNL     1     -27.962  34.288 -34.597  1.00  0.00     0.013 A 
HETATM   20  C13 UNL     1     -28.738  34.068 -35.732  1.00  0.00     0.024 A 
HETATM   21  C14 UNL     1     -29.655  35.061 -36.128  1.00  0.00     0.035 A 
HETATM   22 CL2  UNL     1     -30.696  34.821 -37.524  1.00  0.00    -0.084 Cl
HETATM   23  C15 UNL     1     -29.758  36.219 -35.383  1.00  0.00     0.048 A 
HETATM   24  C16 UNL     1     -28.973  36.398 -34.267  1.00  0.00     0.044 A 
HETATM   25 CL3  UNL     1     -29.168  37.852 -33.319  1.00  0.00    -0.084 Cl
ENDBRANCH   1  18
TORSDOF 6
ENDMDL
