MODEL 1
REMARK VINA RESULT: -9.224946996      0.000      0.000
REMARK  6 active torsions:
REMARK  status: ('A' for Active; 'I' for Inactive)
REMARK    1  A    between atoms: C4_5  and  C5_6 
REMARK    2  A    between atoms: C5_6  and  O1_7 
REMARK    3  A    between atoms: O1_7  and  C6_8 
REMARK    4  A    between atoms: C6_8  and  C7_9 
REMARK    5  A    between atoms: C6_8  and  C11_16 
REMARK    6  A    between atoms: C7_9  and  N1_10 
ROOT
HETATM    1  C6  UNL     1     -27.410  35.379 -32.610  1.00  0.00     0.195 C 
ENDROOT
BRANCH   1   2
HETATM    2  O1  UNL     1     -26.104  35.834 -32.973  1.00  0.00    -0.371 OA
BRANCH   2   3
HETATM    3  C5  UNL     1     -25.981  36.827 -33.867  1.00  0.00     0.207 C 
BRANCH   3   4
HETATM    4  C4  UNL     1     -24.504  37.192 -33.846  1.00  0.00    -0.035 A 
HETATM    5  C3  UNL     1     -23.660  36.558 -32.976  1.00  0.00     0.011 A 
HETATM    6  C2  UNL     1     -22.309  36.924 -33.007  1.00  0.00     0.024 A 
HETATM    7  C1  UNL     1     -21.878  37.887 -33.893  1.00  0.00     0.034 A 
HETATM    8 CL1  UNL     1     -20.173  38.342 -33.976  1.00  0.00    -0.084 Cl
HETATM    9  C18 UNL     1     -22.753  38.498 -34.749  1.00  0.00     0.024 A 
HETATM   10  C17 UNL     1     -24.092  38.160 -34.738  1.00  0.00     0.011 A 
ENDBRANCH   3   4
ENDBRANCH   2   3
ENDBRANCH   1   2
BRANCH   1  11
HETATM   11  C7  UNL     1     -28.306  36.345 -33.255  1.00  0.00     0.106 C 
BRANCH  11  12
HETATM   12  N1  UNL     1     -29.345  35.984 -34.122  1.00  0.00    -0.329 N 
HETATM   13  C8  UNL     1     -29.248  35.484 -35.373  1.00  0.00     0.114 A 
HETATM   14  C9  UNL     1     -30.503  35.383 -35.884  1.00  0.00     0.106 A 
HETATM   15  N2  UNL     1     -31.400  35.809 -34.977  1.00  0.00    -0.360 N 
HETATM   16  C10 UNL     1     -30.689  36.169 -33.925  1.00  0.00     0.186 A 
ATOM     17  H2  UNL     1     -32.414  35.845 -35.080  1.00  0.00     0.166 HD
ENDBRANCH  11  12
ENDBRANCH   1  11
BRANCH   1  18
HETATM   18  C11 UNL     1     -27.356  35.427 -31.118  1.00  0.00    -0.003 A 
HETATM   19  C12 UNL     1     -26.379  36.078 -30.407  1.00  0.00     0.013 A 
HETATM   20  C13 UNL     1     -26.274  35.975 -29.023  1.00  0.00     0.024 A 
HETATM   21  C14 UNL     1     -27.204  35.175 -28.331  1.00  0.00     0.035 A 
HETATM   22 CL2  UNL     1     -27.151  35.044 -26.579  1.00  0.00    -0.084 Cl
HETATM   23  C15 UNL     1     -28.189  34.519 -29.042  1.00  0.00     0.048 A 
HETATM   24  C16 UNL     1     -28.258  34.646 -30.410  1.00  0.00     0.044 A 
HETATM   25 CL3  UNL     1     -29.548  33.844 -31.271  1.00  0.00    -0.084 Cl
ENDBRANCH   1  18
TORSDOF 6
ENDMDL
