MODEL 4
REMARK VINA RESULT: -8.495877838      1.663      7.339
REMARK  9 active torsions:
REMARK  status: ('A' for Active; 'I' for Inactive)
REMARK    1  A    between atoms: N1_1  and  C1_5 
REMARK    2  A    between atoms: C1_5  and  C2_6 
REMARK    3  A    between atoms: C1_5  and  C9_13 
REMARK    4  A    between atoms: C2_6  and  C3_7 
REMARK    5  A    between atoms: C9_13  and  O1_14 
REMARK    6  A    between atoms: C9_13  and  N2_16 
REMARK    7  A    between atoms: C13_20  and  C14_21 
REMARK       I    between atoms: C14_21  and  N3_23 
REMARK    8  A    between atoms: N3_23  and  C15_25 
REMARK    9  A    between atoms: C15_25  and  C16_26 
ROOT
HETATM    1  N2  UNL     1      15.585 -12.171  19.839  1.00  0.00    -0.350 N 
HETATM    2  C10 UNL     1      15.915 -11.991  18.369  1.00  0.00     0.126 C 
HETATM    3  C11 UNL     1      17.261 -11.297  18.531  1.00  0.00     0.022 C 
HETATM    4  C12 UNL     1      17.791 -11.709  19.912  1.00  0.00     0.037 C 
HETATM    5  C13 UNL     1      16.775 -12.828  20.228  1.00  0.00     0.178 C 
ENDROOT
BRANCH   1   6
HETATM    6  C9  UNL     1      14.384 -11.709  20.363  1.00  0.00     0.145 C 
BRANCH   6   7
HETATM    7  C1  UNL     1      13.722 -11.981  21.632  1.00  0.00     0.261 C 
BRANCH   7   8
HETATM    8  N1  UNL     1      13.643 -13.444  21.881  1.00  0.00    -0.067 N 
ATOM      9  H13 UNL     1      12.811 -13.738  22.392  1.00  0.00     0.275 HD
ATOM     10  H12 UNL     1      13.464 -14.003  21.047  1.00  0.00     0.275 HD
ATOM     11  H11 UNL     1      14.523 -13.660  22.349  1.00  0.00     0.275 HD
ENDBRANCH   7   8
BRANCH   7  12
HETATM   12  C2  UNL     1      12.275 -11.529  21.659  1.00  0.00     0.079 C 
BRANCH  12  13
HETATM   13  C3  UNL     1      12.049 -10.414  22.609  1.00  0.00    -0.056 A 
HETATM   14  C4  UNL     1      12.621  -9.178  22.472  1.00  0.00     0.007 A 
HETATM   15  C5  UNL     1      12.417  -8.122  23.348  1.00  0.00     0.001 A 
HETATM   16  C6  UNL     1      11.587  -8.330  24.426  1.00  0.00     0.000 A 
HETATM   17  C7  UNL     1      10.987  -9.557  24.610  1.00  0.00     0.001 A 
HETATM   18  C8  UNL     1      11.213 -10.584  23.717  1.00  0.00     0.007 A 
ENDBRANCH  12  13
ENDBRANCH   7  12
ENDBRANCH   6   7
BRANCH   6  19
HETATM   19  O1  UNL     1      13.729 -10.888  19.592  1.00  0.00    -0.348 OA
ATOM     20  H1  UNL     1      13.365 -11.298  18.815  1.00  0.00     0.219 HD
ENDBRANCH   6  19
ENDBRANCH   1   6
BRANCH   5  21
HETATM   21  C14 UNL     1      16.942 -13.442  21.509  1.00  0.00     0.240 C 
HETATM   22  O2  UNL     1      16.403 -14.415  22.042  1.00  0.00    -0.271 OA
HETATM   23  N3  UNL     1      17.944 -12.802  22.364  1.00  0.00    -0.355 N 
ATOM     24  H3  UNL     1      18.452 -11.986  22.020  1.00  0.00     0.162 HD
BRANCH  23  25
HETATM   25  C15 UNL     1      18.219 -13.306  23.675  1.00  0.00     0.162 C 
BRANCH  25  26
HETATM   26  C16 UNL     1      19.657 -13.025  23.979  1.00  0.00    -0.025 A 
HETATM   27  C17 UNL     1      20.070 -12.564  25.208  1.00  0.00     0.011 A 
HETATM   28  C18 UNL     1      21.384 -12.313  25.470  1.00  0.00     0.018 A 
HETATM   29  C19 UNL     1      22.296 -12.535  24.461  1.00  0.00     0.087 A 
HETATM   30  N4  UNL     1      21.880 -12.990  23.254  1.00  0.00    -0.375 N 
HETATM   31  C20 UNL     1      20.578 -13.241  22.991  1.00  0.00     0.096 A 
ATOM     32  H4  UNL     1      22.571 -13.147  22.521  1.00  0.00     0.164 HD
ENDBRANCH  25  26
ENDBRANCH  23  25
ENDBRANCH   5  21
TORSDOF 9
ENDMDL
