MODEL 16
REMARK VINA RESULT: -7.837741346      1.669      2.172
REMARK  9 active torsions:
REMARK  status: ('A' for Active; 'I' for Inactive)
REMARK    1  A    between atoms: N1_1  and  C1_5 
REMARK    2  A    between atoms: C1_5  and  C2_6 
REMARK    3  A    between atoms: C1_5  and  C9_13 
REMARK    4  A    between atoms: C2_6  and  C3_7 
REMARK    5  A    between atoms: C9_13  and  O1_14 
REMARK    6  A    between atoms: C9_13  and  N2_16 
REMARK    7  A    between atoms: C13_20  and  C14_21 
REMARK       I    between atoms: C14_21  and  N3_23 
REMARK    8  A    between atoms: N3_23  and  C15_25 
REMARK    9  A    between atoms: C15_25  and  C16_26 
ROOT
HETATM    1  N2  UNL     1      18.816 -12.726  21.190  1.00  0.00    -0.350 N 
HETATM    2  C10 UNL     1      20.027 -11.852  21.459  1.00  0.00     0.126 C 
HETATM    3  C11 UNL     1      20.387 -11.530  20.014  1.00  0.00     0.022 C 
HETATM    4  C12 UNL     1      19.093 -11.696  19.204  1.00  0.00     0.037 C 
HETATM    5  C13 UNL     1      18.097 -11.820  20.378  1.00  0.00     0.178 C 
ENDROOT
BRANCH   1   6
HETATM    6  C9  UNL     1      18.729 -14.007  21.721  1.00  0.00     0.145 C 
BRANCH   6   7
HETATM    7  C1  UNL     1      17.986 -14.525  22.862  1.00  0.00     0.261 C 
BRANCH   7   8
HETATM    8  N1  UNL     1      16.537 -14.624  22.546  1.00  0.00    -0.067 N 
ATOM      9  H13 UNL     1      16.319 -14.564  21.551  1.00  0.00     0.275 HD
ATOM     10  H12 UNL     1      16.138 -15.551  22.691  1.00  0.00     0.275 HD
ATOM     11  H11 UNL     1      16.112 -13.891  23.114  1.00  0.00     0.275 HD
ENDBRANCH   7   8
BRANCH   7  12
HETATM   12  C2  UNL     1      18.032 -13.608  24.070  1.00  0.00     0.079 C 
BRANCH  12  13
HETATM   13  C3  UNL     1      19.351 -13.629  24.745  1.00  0.00    -0.056 A 
HETATM   14  C4  UNL     1      19.952 -12.513  25.262  1.00  0.00     0.007 A 
HETATM   15  C5  UNL     1      21.184 -12.514  25.900  1.00  0.00     0.001 A 
HETATM   16  C6  UNL     1      21.846 -13.714  26.021  1.00  0.00     0.000 A 
HETATM   17  C7  UNL     1      21.285 -14.867  25.516  1.00  0.00     0.001 A 
HETATM   18  C8  UNL     1      20.057 -14.828  24.888  1.00  0.00     0.007 A 
ENDBRANCH  12  13
ENDBRANCH   7  12
ENDBRANCH   6   7
BRANCH   6  19
HETATM   19  O1  UNL     1      19.428 -14.910  21.095  1.00  0.00    -0.348 OA
ATOM     20  H1  UNL     1      20.352 -14.697  21.019  1.00  0.00     0.219 HD
ENDBRANCH   6  19
ENDBRANCH   1   6
BRANCH   5  21
HETATM   21  C14 UNL     1      16.737 -12.035  19.986  1.00  0.00     0.240 C 
HETATM   22  O2  UNL     1      16.064 -13.059  19.848  1.00  0.00    -0.271 OA
HETATM   23  N3  UNL     1      15.990 -10.812  19.689  1.00  0.00    -0.355 N 
ATOM     24  H3  UNL     1      16.452  -9.906  19.772  1.00  0.00     0.162 HD
BRANCH  23  25
HETATM   25  C15 UNL     1      14.618 -10.871  19.284  1.00  0.00     0.162 C 
BRANCH  25  26
HETATM   26  C16 UNL     1      13.776 -10.558  20.480  1.00  0.00    -0.025 A 
HETATM   27  C17 UNL     1      12.831 -11.436  20.963  1.00  0.00     0.011 A 
HETATM   28  C18 UNL     1      12.071 -11.135  22.054  1.00  0.00     0.018 A 
HETATM   29  C19 UNL     1      12.275  -9.918  22.666  1.00  0.00     0.087 A 
HETATM   30  N4  UNL     1      13.207  -9.060  22.184  1.00  0.00    -0.375 N 
HETATM   31  C20 UNL     1      13.964  -9.355  21.103  1.00  0.00     0.096 A 
ATOM     32  H4  UNL     1      13.342  -8.164  22.651  1.00  0.00     0.164 HD
ENDBRANCH  25  26
ENDBRANCH  23  25
ENDBRANCH   5  21
TORSDOF 9
ENDMDL
