MODEL 2
REMARK VINA RESULT: -9.106508383      0.714      1.401
REMARK  9 active torsions:
REMARK  status: ('A' for Active; 'I' for Inactive)
REMARK    1  A    between atoms: N1_1  and  C1_5 
REMARK    2  A    between atoms: C1_5  and  C2_6 
REMARK    3  A    between atoms: C1_5  and  C9_13 
REMARK    4  A    between atoms: C2_6  and  C3_7 
REMARK    5  A    between atoms: C9_13  and  O1_14 
REMARK    6  A    between atoms: C9_13  and  N2_16 
REMARK    7  A    between atoms: C13_20  and  C14_21 
REMARK       I    between atoms: C14_21  and  N3_23 
REMARK    8  A    between atoms: N3_23  and  C15_25 
REMARK    9  A    between atoms: C15_25  and  C16_26 
ROOT
HETATM    1  N2  UNL     1      17.228 -11.645  21.254  1.00  0.00    -0.350 N 
HETATM    2  C10 UNL     1      18.674 -11.196  21.166  1.00  0.00     0.126 C 
HETATM    3  C11 UNL     1      18.891 -11.453  19.680  1.00  0.00     0.022 C 
HETATM    4  C12 UNL     1      17.502 -11.399  19.029  1.00  0.00     0.037 C 
HETATM    5  C13 UNL     1      16.706 -10.829  20.224  1.00  0.00     0.178 C 
ENDROOT
BRANCH   1   6
HETATM    6  C9  UNL     1      16.833 -12.606  22.177  1.00  0.00     0.145 C 
BRANCH   6   7
HETATM    7  C1  UNL     1      17.558 -13.721  22.771  1.00  0.00     0.261 C 
BRANCH   7   8
HETATM    8  N1  UNL     1      16.697 -14.930  22.841  1.00  0.00    -0.067 N 
ATOM      9  H13 UNL     1      15.940 -14.947  22.157  1.00  0.00     0.275 HD
ATOM     10  H12 UNL     1      17.149 -15.787  22.524  1.00  0.00     0.275 HD
ATOM     11  H11 UNL     1      16.387 -14.954  23.812  1.00  0.00     0.275 HD
ENDBRANCH   7   8
BRANCH   7  12
HETATM   12  C2  UNL     1      17.954 -13.474  24.214  1.00  0.00     0.079 C 
BRANCH  12  13
HETATM   13  C3  UNL     1      19.393 -13.152  24.358  1.00  0.00    -0.056 A 
HETATM   14  C4  UNL     1      20.305 -13.300  23.347  1.00  0.00     0.007 A 
HETATM   15  C5  UNL     1      21.655 -13.000  23.462  1.00  0.00     0.001 A 
HETATM   16  C6  UNL     1      22.108 -12.524  24.671  1.00  0.00     0.000 A 
HETATM   17  C7  UNL     1      21.231 -12.358  25.721  1.00  0.00     0.001 A 
HETATM   18  C8  UNL     1      19.895 -12.666  25.569  1.00  0.00     0.007 A 
ENDBRANCH  12  13
ENDBRANCH   7  12
ENDBRANCH   6   7
BRANCH   6  19
HETATM   19  O1  UNL     1      15.603 -12.496  22.590  1.00  0.00    -0.348 OA
ATOM     20  H1  UNL     1      14.954 -12.681  21.920  1.00  0.00     0.219 HD
ENDBRANCH   6  19
ENDBRANCH   1   6
BRANCH   5  21
HETATM   21  C14 UNL     1      15.303 -10.674  19.988  1.00  0.00     0.240 C 
HETATM   22  O2  UNL     1      14.482 -11.362  19.377  1.00  0.00    -0.271 OA
HETATM   23  N3  UNL     1      14.717  -9.470  20.578  1.00  0.00    -0.355 N 
ATOM     24  H3  UNL     1      15.308  -8.828  21.107  1.00  0.00     0.162 HD
BRANCH  23  25
HETATM   25  C15 UNL     1      13.323  -9.182  20.424  1.00  0.00     0.162 C 
BRANCH  25  26
HETATM   26  C16 UNL     1      12.639  -9.540  21.706  1.00  0.00    -0.025 A 
HETATM   27  C17 UNL     1      12.040 -10.764  21.901  1.00  0.00     0.011 A 
HETATM   28  C18 UNL     1      11.421 -11.074  23.075  1.00  0.00     0.018 A 
HETATM   29  C19 UNL     1      11.410 -10.121  24.070  1.00  0.00     0.087 A 
HETATM   30  N4  UNL     1      12.002  -8.919  23.868  1.00  0.00    -0.375 N 
HETATM   31  C20 UNL     1      12.618  -8.608  22.706  1.00  0.00     0.096 A 
ATOM     32  H4  UNL     1      11.983  -8.227  24.617  1.00  0.00     0.164 HD
ENDBRANCH  25  26
ENDBRANCH  23  25
ENDBRANCH   5  21
TORSDOF 9
ENDMDL
