MODEL 1
REMARK VINA RESULT: -9.335791659      0.000      0.000
REMARK  9 active torsions:
REMARK  status: ('A' for Active; 'I' for Inactive)
REMARK    1  A    between atoms: N1_1  and  C1_5 
REMARK    2  A    between atoms: C1_5  and  C2_6 
REMARK    3  A    between atoms: C1_5  and  C9_13 
REMARK    4  A    between atoms: C2_6  and  C3_7 
REMARK    5  A    between atoms: C9_13  and  O1_14 
REMARK    6  A    between atoms: C9_13  and  N2_16 
REMARK    7  A    between atoms: C13_20  and  C14_21 
REMARK       I    between atoms: C14_21  and  N3_23 
REMARK    8  A    between atoms: N3_23  and  C15_25 
REMARK    9  A    between atoms: C15_25  and  C16_26 
ROOT
HETATM    1  N2  UNL     1      17.245 -11.644  21.214  1.00  0.00    -0.350 N 
HETATM    2  C10 UNL     1      18.638 -11.045  21.256  1.00  0.00     0.126 C 
HETATM    3  C11 UNL     1      19.033 -11.315  19.809  1.00  0.00     0.022 C 
HETATM    4  C12 UNL     1      17.720 -11.427  19.021  1.00  0.00     0.037 C 
HETATM    5  C13 UNL     1      16.750 -10.915  20.109  1.00  0.00     0.178 C 
ENDROOT
BRANCH   1   6
HETATM    6  C9  UNL     1      16.859 -12.618  22.128  1.00  0.00     0.145 C 
BRANCH   6   7
HETATM    7  C1  UNL     1      17.593 -13.732  22.711  1.00  0.00     0.261 C 
BRANCH   7   8
HETATM    8  N1  UNL     1      16.761 -14.963  22.720  1.00  0.00    -0.067 N 
ATOM      9  H13 UNL     1      17.179 -15.756  22.234  1.00  0.00     0.275 HD
ATOM     10  H12 UNL     1      16.692 -15.417  23.630  1.00  0.00     0.275 HD
ATOM     11  H11 UNL     1      15.868 -14.657  22.335  1.00  0.00     0.275 HD
ENDBRANCH   7   8
BRANCH   7  12
HETATM   12  C2  UNL     1      17.941 -13.518  24.171  1.00  0.00     0.079 C 
BRANCH  12  13
HETATM   13  C3  UNL     1      19.367 -13.162  24.366  1.00  0.00    -0.056 A 
HETATM   14  C4  UNL     1      19.873 -12.690  25.547  1.00  0.00     0.007 A 
HETATM   15  C5  UNL     1      21.204 -12.355  25.749  1.00  0.00     0.001 A 
HETATM   16  C6  UNL     1      22.073 -12.508  24.694  1.00  0.00     0.000 A 
HETATM   17  C7  UNL     1      21.615 -12.979  23.483  1.00  0.00     0.001 A 
HETATM   18  C8  UNL     1      20.284 -13.302  23.319  1.00  0.00     0.007 A 
ENDBRANCH  12  13
ENDBRANCH   7  12
ENDBRANCH   6   7
BRANCH   6  19
HETATM   19  O1  UNL     1      15.627 -12.524  22.542  1.00  0.00    -0.348 OA
ATOM     20  H1  UNL     1      14.998 -12.960  21.979  1.00  0.00     0.219 HD
ENDBRANCH   6  19
ENDBRANCH   1   6
BRANCH   5  21
HETATM   21  C14 UNL     1      15.371 -10.917  19.728  1.00  0.00     0.240 C 
HETATM   22  O2  UNL     1      14.808 -11.095  18.645  1.00  0.00    -0.271 OA
HETATM   23  N3  UNL     1      14.437 -10.659  20.825  1.00  0.00    -0.355 N 
ATOM     24  H3  UNL     1      14.797 -10.498  21.766  1.00  0.00     0.162 HD
BRANCH  23  25
HETATM   25  C15 UNL     1      13.025 -10.631  20.594  1.00  0.00     0.162 C 
BRANCH  25  26
HETATM   26  C16 UNL     1      12.355 -10.323  21.896  1.00  0.00    -0.025 A 
HETATM   27  C17 UNL     1      12.490  -9.104  22.520  1.00  0.00     0.011 A 
HETATM   28  C18 UNL     1      11.874  -8.839  23.707  1.00  0.00     0.018 A 
HETATM   29  C19 UNL     1      11.105  -9.834  24.270  1.00  0.00     0.087 A 
HETATM   30  N4  UNL     1      10.978 -11.032  23.648  1.00  0.00    -0.375 N 
HETATM   31  C20 UNL     1      11.587 -11.297  22.471  1.00  0.00     0.096 A 
ATOM     32  H4  UNL     1      10.405 -11.755  24.081  1.00  0.00     0.164 HD
ENDBRANCH  25  26
ENDBRANCH  23  25
ENDBRANCH   5  21
TORSDOF 9
ENDMDL
