MODEL 12
REMARK VINA RESULT: -7.913600866      2.019      7.740
REMARK  9 active torsions:
REMARK  status: ('A' for Active; 'I' for Inactive)
REMARK    1  A    between atoms: N1_1  and  C1_5 
REMARK    2  A    between atoms: C1_5  and  C2_6 
REMARK    3  A    between atoms: C1_5  and  C9_13 
REMARK    4  A    between atoms: C2_6  and  C3_7 
REMARK    5  A    between atoms: C9_13  and  O1_14 
REMARK    6  A    between atoms: C9_13  and  N2_16 
REMARK    7  A    between atoms: C13_20  and  C14_21 
REMARK       I    between atoms: C14_21  and  N3_23 
REMARK    8  A    between atoms: N3_23  and  C15_25 
REMARK    9  A    between atoms: C15_25  and  C16_26 
ROOT
HETATM    1  N2  UNL     1      15.907 -12.293  21.232  1.00  0.00    -0.350 N 
HETATM    2  C10 UNL     1      14.892 -13.373  21.556  1.00  0.00     0.126 C 
HETATM    3  C11 UNL     1      15.568 -14.530  20.830  1.00  0.00     0.022 C 
HETATM    4  C12 UNL     1      17.058 -14.170  20.744  1.00  0.00     0.037 C 
HETATM    5  C13 UNL     1      17.061 -12.960  21.705  1.00  0.00     0.178 C 
ENDROOT
BRANCH   1   6
HETATM    6  C9  UNL     1      15.515 -11.100  20.637  1.00  0.00     0.145 C 
BRANCH   6   7
HETATM    7  C1  UNL     1      14.194 -10.569  20.330  1.00  0.00     0.261 C 
BRANCH   7   8
HETATM    8  N1  UNL     1      14.103 -10.179  18.898  1.00  0.00    -0.067 N 
ATOM      9  H13 UNL     1      14.397 -10.906  18.246  1.00  0.00     0.275 HD
ATOM     10  H12 UNL     1      13.150 -10.094  18.546  1.00  0.00     0.275 HD
ATOM     11  H11 UNL     1      14.649  -9.319  18.844  1.00  0.00     0.275 HD
ENDBRANCH   7   8
BRANCH   7  12
HETATM   12  C2  UNL     1      13.878  -9.288  21.076  1.00  0.00     0.079 C 
BRANCH  12  13
HETATM   13  C3  UNL     1      12.890  -9.494  22.161  1.00  0.00    -0.056 A 
HETATM   14  C4  UNL     1      12.209 -10.667  22.349  1.00  0.00     0.007 A 
HETATM   15  C5  UNL     1      11.284 -10.880  23.361  1.00  0.00     0.001 A 
HETATM   16  C6  UNL     1      11.034  -9.845  24.233  1.00  0.00     0.000 A 
HETATM   17  C7  UNL     1      11.692  -8.643  24.087  1.00  0.00     0.001 A 
HETATM   18  C8  UNL     1      12.606  -8.468  23.068  1.00  0.00     0.007 A 
ENDBRANCH  12  13
ENDBRANCH   7  12
ENDBRANCH   6   7
BRANCH   6  19
HETATM   19  O1  UNL     1      16.493 -10.312  20.290  1.00  0.00    -0.348 OA
ATOM     20  H1  UNL     1      17.104 -10.126  20.994  1.00  0.00     0.219 HD
ENDBRANCH   6  19
ENDBRANCH   1   6
BRANCH   5  21
HETATM   21  C14 UNL     1      18.330 -12.314  21.848  1.00  0.00     0.240 C 
HETATM   22  O2  UNL     1      18.693 -11.148  21.679  1.00  0.00    -0.271 OA
HETATM   23  N3  UNL     1      19.416 -13.198  22.276  1.00  0.00    -0.355 N 
ATOM     24  H3  UNL     1      19.225 -14.186  22.446  1.00  0.00     0.162 HD
BRANCH  23  25
HETATM   25  C15 UNL     1      20.742 -12.692  22.461  1.00  0.00     0.162 C 
BRANCH  25  26
HETATM   26  C16 UNL     1      21.089 -12.841  23.909  1.00  0.00    -0.025 A 
HETATM   27  C17 UNL     1      20.482 -12.089  24.890  1.00  0.00     0.011 A 
HETATM   28  C18 UNL     1      20.810 -12.237  26.205  1.00  0.00     0.018 A 
HETATM   29  C19 UNL     1      21.774 -13.166  26.529  1.00  0.00     0.087 A 
HETATM   30  N4  UNL     1      22.365 -13.902  25.556  1.00  0.00    -0.375 N 
HETATM   31  C20 UNL     1      22.043 -13.759  24.251  1.00  0.00     0.096 A 
ATOM     32  H4  UNL     1      23.077 -14.584  25.817  1.00  0.00     0.164 HD
ENDBRANCH  25  26
ENDBRANCH  23  25
ENDBRANCH   5  21
TORSDOF 9
ENDMDL
