MODEL 7
REMARK VINA RESULT: -8.235669186      1.667      7.359
REMARK  9 active torsions:
REMARK  status: ('A' for Active; 'I' for Inactive)
REMARK    1  A    between atoms: N1_1  and  C1_5 
REMARK    2  A    between atoms: C1_5  and  C2_6 
REMARK    3  A    between atoms: C1_5  and  C9_13 
REMARK    4  A    between atoms: C2_6  and  C3_7 
REMARK    5  A    between atoms: C9_13  and  O1_14 
REMARK    6  A    between atoms: C9_13  and  N2_16 
REMARK    7  A    between atoms: C13_20  and  C14_21 
REMARK       I    between atoms: C14_21  and  N3_23 
REMARK    8  A    between atoms: N3_23  and  C15_25 
REMARK    9  A    between atoms: C15_25  and  C16_26 
ROOT
HETATM    1  N2  UNL     1      16.872 -11.750  20.246  1.00  0.00    -0.350 N 
HETATM    2  C10 UNL     1      17.473 -11.533  18.870  1.00  0.00     0.126 C 
HETATM    3  C11 UNL     1      18.915 -11.287  19.299  1.00  0.00     0.022 C 
HETATM    4  C12 UNL     1      19.077 -11.971  20.664  1.00  0.00     0.037 C 
HETATM    5  C13 UNL     1      17.752 -12.765  20.686  1.00  0.00     0.178 C 
ENDROOT
BRANCH   1   6
HETATM    6  C9  UNL     1      15.778 -11.007  20.672  1.00  0.00     0.145 C 
BRANCH   6   7
HETATM    7  C1  UNL     1      14.591 -11.391  21.424  1.00  0.00     0.261 C 
BRANCH   7   8
HETATM    8  N1  UNL     1      14.246 -12.814  21.171  1.00  0.00    -0.067 N 
ATOM      9  H13 UNL     1      13.937 -13.325  21.998  1.00  0.00     0.275 HD
ATOM     10  H12 UNL     1      13.390 -12.950  20.633  1.00  0.00     0.275 HD
ATOM     11  H11 UNL     1      15.083 -13.194  20.730  1.00  0.00     0.275 HD
ENDBRANCH   7   8
BRANCH   7  12
HETATM   12  C2  UNL     1      13.347 -10.635  21.001  1.00  0.00     0.079 C 
BRANCH  12  13
HETATM   13  C3  UNL     1      12.573 -10.127  22.159  1.00  0.00    -0.056 A 
HETATM   14  C4  UNL     1      11.650 -10.877  22.838  1.00  0.00     0.007 A 
HETATM   15  C5  UNL     1      10.920 -10.420  23.926  1.00  0.00     0.001 A 
HETATM   16  C6  UNL     1      11.138  -9.129  24.351  1.00  0.00     0.000 A 
HETATM   17  C7  UNL     1      12.056  -8.333  23.702  1.00  0.00     0.001 A 
HETATM   18  C8  UNL     1      12.764  -8.822  22.624  1.00  0.00     0.007 A 
ENDBRANCH  12  13
ENDBRANCH   7  12
ENDBRANCH   6   7
BRANCH   6  19
HETATM   19  O1  UNL     1      15.812  -9.746  20.349  1.00  0.00    -0.348 OA
ATOM     20  H1  UNL     1      16.656  -9.455  20.023  1.00  0.00     0.219 HD
ENDBRANCH   6  19
ENDBRANCH   1   6
BRANCH   5  21
HETATM   21  C14 UNL     1      17.531 -13.524  21.879  1.00  0.00     0.240 C 
HETATM   22  O2  UNL     1      16.868 -14.538  22.108  1.00  0.00    -0.271 OA
HETATM   23  N3  UNL     1      18.218 -13.006  23.064  1.00  0.00    -0.355 N 
ATOM     24  H3  UNL     1      18.796 -12.169  22.987  1.00  0.00     0.162 HD
BRANCH  23  25
HETATM   25  C15 UNL     1      18.089 -13.662  24.330  1.00  0.00     0.162 C 
BRANCH  25  26
HETATM   26  C16 UNL     1      19.444 -13.701  24.963  1.00  0.00    -0.025 A 
HETATM   27  C17 UNL     1      20.007 -12.595  25.561  1.00  0.00     0.011 A 
HETATM   28  C18 UNL     1      21.243 -12.647  26.133  1.00  0.00     0.018 A 
HETATM   29  C19 UNL     1      21.920 -13.846  26.098  1.00  0.00     0.087 A 
HETATM   30  N4  UNL     1      21.358 -14.929  25.508  1.00  0.00    -0.375 N 
HETATM   31  C20 UNL     1      20.132 -14.882  24.939  1.00  0.00     0.096 A 
ATOM     32  H4  UNL     1      21.876 -15.808  25.492  1.00  0.00     0.164 HD
ENDBRANCH  25  26
ENDBRANCH  23  25
ENDBRANCH   5  21
TORSDOF 9
ENDMDL
