MODEL 10
REMARK VINA RESULT: -7.950208206      1.632      1.922
REMARK  9 active torsions:
REMARK  status: ('A' for Active; 'I' for Inactive)
REMARK    1  A    between atoms: N1_1  and  C1_5 
REMARK    2  A    between atoms: C1_5  and  C2_6 
REMARK    3  A    between atoms: C1_5  and  C9_13 
REMARK    4  A    between atoms: C2_6  and  C3_7 
REMARK    5  A    between atoms: C9_13  and  O1_14 
REMARK    6  A    between atoms: C9_13  and  N2_16 
REMARK    7  A    between atoms: C13_20  and  C14_21 
REMARK       I    between atoms: C14_21  and  N3_23 
REMARK    8  A    between atoms: N3_23  and  C15_25 
REMARK    9  A    between atoms: C15_25  and  C16_26 
ROOT
HETATM    1  N2  UNL     1      17.778 -12.380  21.430  1.00  0.00    -0.350 N 
HETATM    2  C10 UNL     1      19.217 -12.340  21.910  1.00  0.00     0.126 C 
HETATM    3  C11 UNL     1      19.900 -12.303  20.549  1.00  0.00     0.022 C 
HETATM    4  C12 UNL     1      18.869 -11.723  19.569  1.00  0.00     0.037 C 
HETATM    5  C13 UNL     1      17.818 -11.241  20.594  1.00  0.00     0.178 C 
ENDROOT
BRANCH   1   6
HETATM    6  C9  UNL     1      16.911 -13.378  21.858  1.00  0.00     0.145 C 
BRANCH   6   7
HETATM    7  C1  UNL     1      16.882 -14.808  21.582  1.00  0.00     0.261 C 
BRANCH   7   8
HETATM    8  N1  UNL     1      15.524 -15.233  21.153  1.00  0.00    -0.067 N 
ATOM      9  H13 UNL     1      14.773 -14.614  21.460  1.00  0.00     0.275 HD
ATOM     10  H12 UNL     1      15.348 -15.133  20.154  1.00  0.00     0.275 HD
ATOM     11  H11 UNL     1      15.447 -16.190  21.498  1.00  0.00     0.275 HD
ENDBRANCH   7   8
BRANCH   7  12
HETATM   12  C2  UNL     1      17.158 -15.658  22.807  1.00  0.00     0.079 C 
BRANCH  12  13
HETATM   13  C3  UNL     1      18.575 -15.587  23.236  1.00  0.00    -0.056 A 
HETATM   14  C4  UNL     1      18.970 -15.138  24.467  1.00  0.00     0.007 A 
HETATM   15  C5  UNL     1      20.291 -15.068  24.887  1.00  0.00     0.001 A 
HETATM   16  C6  UNL     1      21.268 -15.478  24.008  1.00  0.00     0.000 A 
HETATM   17  C7  UNL     1      20.923 -15.938  22.756  1.00  0.00     0.001 A 
HETATM   18  C8  UNL     1      19.599 -15.993  22.374  1.00  0.00     0.007 A 
ENDBRANCH  12  13
ENDBRANCH   7  12
ENDBRANCH   6   7
BRANCH   6  19
HETATM   19  O1  UNL     1      15.955 -12.973  22.645  1.00  0.00    -0.348 OA
ATOM     20  H1  UNL     1      15.117 -13.390  22.478  1.00  0.00     0.219 HD
ENDBRANCH   6  19
ENDBRANCH   1   6
BRANCH   5  21
HETATM   21  C14 UNL     1      16.646 -10.657  20.017  1.00  0.00     0.240 C 
HETATM   22  O2  UNL     1      16.348 -10.365  18.857  1.00  0.00    -0.271 OA
HETATM   23  N3  UNL     1      15.590 -10.336  20.979  1.00  0.00    -0.355 N 
ATOM     24  H3  UNL     1      15.733 -10.537  21.970  1.00  0.00     0.162 HD
BRANCH  23  25
HETATM   25  C15 UNL     1      14.360  -9.746  20.548  1.00  0.00     0.162 C 
BRANCH  25  26
HETATM   26  C16 UNL     1      13.292 -10.162  21.510  1.00  0.00    -0.025 A 
HETATM   27  C17 UNL     1      12.686  -9.268  22.363  1.00  0.00     0.011 A 
HETATM   28  C18 UNL     1      11.714  -9.663  23.235  1.00  0.00     0.018 A 
HETATM   29  C19 UNL     1      11.353 -10.992  23.239  1.00  0.00     0.087 A 
HETATM   30  N4  UNL     1      11.956 -11.865  22.394  1.00  0.00    -0.375 N 
HETATM   31  C20 UNL     1      12.919 -11.477  21.528  1.00  0.00     0.096 A 
ATOM     32  H4  UNL     1      11.674 -12.845  22.413  1.00  0.00     0.164 HD
ENDBRANCH  25  26
ENDBRANCH  23  25
ENDBRANCH   5  21
TORSDOF 9
ENDMDL
