MODEL 3
REMARK VINA RESULT: -8.071678820      2.677      8.021
REMARK  10 active torsions:
REMARK  status: ('A' for Active; 'I' for Inactive)
REMARK    1  A    between atoms: N5_13  and  C6_14 
REMARK    2  A    between atoms: C7_16  and  C8_17 
REMARK    3  A    between atoms: C8_17  and  S1_18 
REMARK    4  A    between atoms: S1_18  and  C9_19 
REMARK    5  A    between atoms: C9_19  and  C10_20 
REMARK    6  A    between atoms: C10_20  and  C11_21 
REMARK    7  A    between atoms: C11_21  and  N6_22 
REMARK    8  A    between atoms: C11_21  and  C12_26 
REMARK    9  A    between atoms: C13_29  and  O4_30 
REMARK   10  A    between atoms: C14_32  and  O5_33 
ROOT
HETATM    1  C6  UNL     1      11.070  12.135  -1.452  1.00  0.00     0.262 C 
HETATM    2  O1  UNL     1       9.818  12.423  -2.021  1.00  0.00    -0.355 OA
HETATM    3  C7  UNL     1      10.136  12.893  -3.308  1.00  0.00     0.165 C 
HETATM    4  C13 UNL     1      11.283  12.027  -3.769  1.00  0.00     0.180 C 
HETATM    5  C14 UNL     1      11.631  11.246  -2.521  1.00  0.00     0.198 C 
ENDROOT
BRANCH   1   6
HETATM    6  N5  UNL     1      10.917  11.533  -0.166  1.00  0.00    -0.297 N 
HETATM    7  C3  UNL     1      11.920  11.154   0.643  1.00  0.00     0.142 A 
HETATM    8  N3  UNL     1      13.258  11.201   0.537  1.00  0.00    -0.336 N 
HETATM    9  C4  UNL     1      11.320  10.624   1.786  1.00  0.00     0.119 A 
HETATM   10  C2  UNL     1      13.994  10.727   1.552  1.00  0.00     0.183 A 
ATOM     11  H3  UNL     1      13.703  11.589  -0.294  1.00  0.00     0.168 HD
HETATM   12  N2  UNL     1      13.439  10.214   2.658  1.00  0.00    -0.339 N 
HETATM   13  C1  UNL     1      12.106  10.154   2.792  1.00  0.00     0.148 A 
ATOM     14  H2  UNL     1      14.037   9.864   3.407  1.00  0.00     0.167 HD
HETATM   15  N1  UNL     1      11.515   9.606   3.974  1.00  0.00    -0.080 NA
HETATM   16  N4  UNL     1       9.981  10.718   1.591  1.00  0.00    -0.346 N 
HETATM   17  C5  UNL     1       9.728  11.268   0.410  1.00  0.00     0.188 A 
ATOM     18  H4  UNL     1       9.272  10.410   2.255  1.00  0.00     0.167 HD
ENDBRANCH   1   6
BRANCH   5  19
HETATM   19  O5  UNL     1      12.996  11.023  -2.414  1.00  0.00    -0.388 OA
ATOM     20  H5  UNL     1      13.238  10.105  -2.386  1.00  0.00     0.210 HD
ENDBRANCH   5  19
BRANCH   3  21
HETATM   21  C8  UNL     1       8.963  12.643  -4.208  1.00  0.00     0.108 C 
BRANCH  21  22
HETATM   22  S1  UNL     1       9.008  11.209  -5.230  1.00  0.00    -0.166 SA
BRANCH  22  23
HETATM   23  C9  UNL     1       8.415   9.706  -4.512  1.00  0.00     0.076 C 
BRANCH  23  24
HETATM   24  C10 UNL     1       6.951   9.722  -4.178  1.00  0.00     0.054 C 
BRANCH  24  25
HETATM   25  C11 UNL     1       6.117   9.480  -5.387  1.00  0.00     0.284 C 
BRANCH  25  26
HETATM   26  N6  UNL     1       5.321  10.609  -5.755  1.00  0.00    -0.065 N 
ATOM     27  H63 UNL     1       4.363  10.325  -5.961  1.00  0.00     0.275 HD
ATOM     28  H62 UNL     1       5.148  11.209  -4.949  1.00  0.00     0.275 HD
ATOM     29  H61 UNL     1       5.716  11.144  -6.528  1.00  0.00     0.275 HD
ENDBRANCH  25  26
BRANCH  25  30
HETATM   30  C12 UNL     1       5.273   8.281  -5.288  1.00  0.00     0.204 C 
HETATM   31  O2  UNL     1       4.399   8.065  -6.149  1.00  0.00    -0.646 OA
HETATM   32  O3  UNL     1       5.442   7.393  -4.249  1.00  0.00    -0.646 OA
ENDBRANCH  25  30
ENDBRANCH  24  25
ENDBRANCH  23  24
ENDBRANCH  22  23
ENDBRANCH  21  22
ENDBRANCH   3  21
BRANCH   4  33
HETATM   33  O4  UNL     1      12.398  12.827  -4.089  1.00  0.00    -0.390 OA
ATOM     34  H4  UNL     1      12.997  12.345  -4.646  1.00  0.00     0.210 HD
ENDBRANCH   4  33
TORSDOF 10
ENDMDL
