MODEL 11
REMARK VINA RESULT: -7.826185911      1.480      1.711
REMARK  10 active torsions:
REMARK  status: ('A' for Active; 'I' for Inactive)
REMARK    1  A    between atoms: N5_13  and  C6_14 
REMARK    2  A    between atoms: C7_16  and  C8_17 
REMARK    3  A    between atoms: C8_17  and  S1_18 
REMARK    4  A    between atoms: S1_18  and  C9_19 
REMARK    5  A    between atoms: C9_19  and  C10_20 
REMARK    6  A    between atoms: C10_20  and  C11_21 
REMARK    7  A    between atoms: C11_21  and  N6_22 
REMARK    8  A    between atoms: C11_21  and  C12_26 
REMARK    9  A    between atoms: C13_29  and  O4_30 
REMARK   10  A    between atoms: C14_32  and  O5_33 
ROOT
HETATM    1  C6  UNL     1       7.952  11.244  -4.082  1.00  0.00     0.262 C 
HETATM    2  O1  UNL     1       8.681  12.440  -3.970  1.00  0.00    -0.355 OA
HETATM    3  C7  UNL     1       9.292  12.343  -2.707  1.00  0.00     0.165 C 
HETATM    4  C13 UNL     1       9.697  10.895  -2.579  1.00  0.00     0.180 C 
HETATM    5  C14 UNL     1       9.043  10.259  -3.786  1.00  0.00     0.198 C 
ENDROOT
BRANCH   1   6
HETATM    6  N5  UNL     1       7.354  11.133  -5.374  1.00  0.00    -0.297 N 
HETATM    7  C3  UNL     1       6.420  10.235  -5.727  1.00  0.00     0.142 A 
HETATM    8  N3  UNL     1       5.797   9.245  -5.068  1.00  0.00    -0.336 N 
HETATM    9  C4  UNL     1       6.121  10.489  -7.066  1.00  0.00     0.119 A 
HETATM   10  C2  UNL     1       4.890   8.512  -5.729  1.00  0.00     0.183 A 
ATOM     11  H3  UNL     1       6.009   9.055  -4.089  1.00  0.00     0.168 HD
HETATM   12  N2  UNL     1       4.588   8.738  -7.014  1.00  0.00    -0.339 N 
HETATM   13  C1  UNL     1       5.193   9.721  -7.698  1.00  0.00     0.148 A 
ATOM     14  H2  UNL     1       3.890   8.156  -7.478  1.00  0.00     0.167 HD
HETATM   15  N1  UNL     1       4.869   9.962  -9.070  1.00  0.00    -0.080 NA
HETATM   16  N4  UNL     1       6.902  11.534  -7.438  1.00  0.00    -0.346 N 
HETATM   17  C5  UNL     1       7.653  11.930  -6.418  1.00  0.00     0.188 A 
ATOM     18  H4  UNL     1       6.911  11.953  -8.368  1.00  0.00     0.167 HD
ENDBRANCH   1   6
BRANCH   5  19
HETATM   19  O5  UNL     1       8.591   8.977  -3.515  1.00  0.00    -0.388 OA
ATOM     20  H5  UNL     1       9.271   8.378  -3.231  1.00  0.00     0.210 HD
ENDBRANCH   5  19
BRANCH   3  21
HETATM   21  C8  UNL     1      10.534  13.183  -2.714  1.00  0.00     0.108 C 
BRANCH  21  22
HETATM   22  S1  UNL     1      11.917  12.605  -1.786  1.00  0.00    -0.166 SA
BRANCH  22  23
HETATM   23  C9  UNL     1      11.678  12.417  -0.044  1.00  0.00     0.076 C 
BRANCH  23  24
HETATM   24  C10 UNL     1      12.475  11.300   0.567  1.00  0.00     0.054 C 
BRANCH  24  25
HETATM   25  C11 UNL     1      11.602  10.368   1.331  1.00  0.00     0.284 C 
BRANCH  25  26
HETATM   26  N6  UNL     1      10.277  10.866   1.522  1.00  0.00    -0.065 N 
ATOM     27  H63 UNL     1       9.997  10.790   2.500  1.00  0.00     0.275 HD
ATOM     28  H62 UNL     1      10.253  11.881   1.420  1.00  0.00     0.275 HD
ATOM     29  H61 UNL     1       9.590  10.424   0.911  1.00  0.00     0.275 HD
ENDBRANCH  25  26
BRANCH  25  30
HETATM   30  C12 UNL     1      12.173   9.954   2.620  1.00  0.00     0.204 C 
HETATM   31  O2  UNL     1      13.220  10.486   3.034  1.00  0.00    -0.646 OA
HETATM   32  O3  UNL     1      11.557   8.980   3.376  1.00  0.00    -0.646 OA
ENDBRANCH  25  30
ENDBRANCH  24  25
ENDBRANCH  23  24
ENDBRANCH  22  23
ENDBRANCH  21  22
ENDBRANCH   3  21
BRANCH   4  33
HETATM   33  O4  UNL     1       9.107  10.324  -1.433  1.00  0.00    -0.390 OA
ATOM     34  H4  UNL     1       8.772   9.458  -1.633  1.00  0.00     0.210 HD
ENDBRANCH   4  33
TORSDOF 10
ENDMDL
