MODEL 2
REMARK VINA RESULT: -8.130804792      3.653      7.614
REMARK  10 active torsions:
REMARK  status: ('A' for Active; 'I' for Inactive)
REMARK    1  A    between atoms: N5_13  and  C6_14 
REMARK    2  A    between atoms: C7_16  and  C8_17 
REMARK    3  A    between atoms: C8_17  and  S1_18 
REMARK    4  A    between atoms: S1_18  and  C9_19 
REMARK    5  A    between atoms: C9_19  and  C10_20 
REMARK    6  A    between atoms: C10_20  and  C11_21 
REMARK    7  A    between atoms: C11_21  and  N6_22 
REMARK    8  A    between atoms: C11_21  and  C12_26 
REMARK    9  A    between atoms: C13_29  and  O4_30 
REMARK   10  A    between atoms: C14_32  and  O5_33 
ROOT
HETATM    1  C6  UNL     1      14.804  12.010  -0.352  1.00  0.00     0.262 C 
HETATM    2  O1  UNL     1      14.034  13.167  -0.557  1.00  0.00    -0.355 OA
HETATM    3  C7  UNL     1      14.655  13.792  -1.653  1.00  0.00     0.165 C 
HETATM    4  C13 UNL     1      15.052  12.664  -2.573  1.00  0.00     0.180 C 
HETATM    5  C14 UNL     1      14.765  11.436  -1.737  1.00  0.00     0.198 C 
ENDROOT
BRANCH   1   6
HETATM    6  N5  UNL     1      14.230  11.193   0.670  1.00  0.00    -0.297 N 
HETATM    7  C3  UNL     1      12.917  11.066   0.923  1.00  0.00     0.142 A 
HETATM    8  N3  UNL     1      11.816  11.601   0.370  1.00  0.00    -0.336 N 
HETATM    9  C4  UNL     1      12.809  10.175   1.990  1.00  0.00     0.119 A 
HETATM   10  C2  UNL     1      10.621  11.257   0.871  1.00  0.00     0.183 A 
ATOM     11  H3  UNL     1      11.887  12.252  -0.412  1.00  0.00     0.168 HD
HETATM   12  N2  UNL     1      10.495  10.404   1.895  1.00  0.00    -0.339 N 
HETATM   13  C1  UNL     1      11.576   9.854   2.467  1.00  0.00     0.148 A 
ATOM     14  H2  UNL     1       9.565  10.170   2.245  1.00  0.00     0.167 HD
HETATM   15  N1  UNL     1      11.439   8.942   3.560  1.00  0.00    -0.080 NA
HETATM   16  N4  UNL     1      14.076   9.818   2.317  1.00  0.00    -0.346 N 
HETATM   17  C5  UNL     1      14.944  10.431   1.522  1.00  0.00     0.188 A 
ATOM     18  H4  UNL     1      14.326   9.173   3.066  1.00  0.00     0.167 HD
ENDBRANCH   1   6
BRANCH   5  19
HETATM   19  O5  UNL     1      15.693  10.430  -1.960  1.00  0.00    -0.388 OA
ATOM     20  H5  UNL     1      15.685  10.084  -2.844  1.00  0.00     0.210 HD
ENDBRANCH   5  19
BRANCH   3  21
HETATM   21  C8  UNL     1      13.637  14.640  -2.356  1.00  0.00     0.108 C 
BRANCH  21  22
HETATM   22  S1  UNL     1      11.936  14.265  -2.088  1.00  0.00    -0.166 SA
BRANCH  22  23
HETATM   23  C9  UNL     1      11.275  12.897  -2.994  1.00  0.00     0.076 C 
BRANCH  23  24
HETATM   24  C10 UNL     1       9.805  12.675  -2.783  1.00  0.00     0.054 C 
BRANCH  24  25
HETATM   25  C11 UNL     1       9.496  11.231  -2.600  1.00  0.00     0.284 C 
BRANCH  25  26
HETATM   26  N6  UNL     1      10.045  10.404  -3.628  1.00  0.00    -0.065 N 
ATOM     27  H63 UNL     1       9.389   9.667  -3.891  1.00  0.00     0.275 HD
ATOM     28  H62 UNL     1      10.092  10.909  -4.513  1.00  0.00     0.275 HD
ATOM     29  H61 UNL     1      10.954  10.012  -3.385  1.00  0.00     0.275 HD
ENDBRANCH  25  26
BRANCH  25  30
HETATM   30  C12 UNL     1       8.062  10.953  -2.444  1.00  0.00     0.204 C 
HETATM   31  O2  UNL     1       7.429  11.467  -1.502  1.00  0.00    -0.646 OA
HETATM   32  O3  UNL     1       7.410  10.126  -3.333  1.00  0.00    -0.646 OA
ENDBRANCH  25  30
ENDBRANCH  24  25
ENDBRANCH  23  24
ENDBRANCH  22  23
ENDBRANCH  21  22
ENDBRANCH   3  21
BRANCH   4  33
HETATM   33  O4  UNL     1      16.440  12.696  -2.811  1.00  0.00    -0.390 OA
ATOM     34  H4  UNL     1      16.669  12.088  -3.503  1.00  0.00     0.210 HD
ENDBRANCH   4  33
TORSDOF 10
ENDMDL
