MODEL 5
REMARK VINA RESULT: -7.958325383      2.863      8.559
REMARK  10 active torsions:
REMARK  status: ('A' for Active; 'I' for Inactive)
REMARK    1  A    between atoms: N5_13  and  C6_14 
REMARK    2  A    between atoms: C7_16  and  C8_17 
REMARK    3  A    between atoms: C8_17  and  S1_18 
REMARK    4  A    between atoms: S1_18  and  C9_19 
REMARK    5  A    between atoms: C9_19  and  C10_20 
REMARK    6  A    between atoms: C10_20  and  C11_21 
REMARK    7  A    between atoms: C11_21  and  N6_22 
REMARK    8  A    between atoms: C11_21  and  C12_26 
REMARK    9  A    between atoms: C13_29  and  O4_30 
REMARK   10  A    between atoms: C14_32  and  O5_33 
ROOT
HETATM    1  C6  UNL     1      10.555  11.080  -1.437  1.00  0.00     0.262 C 
HETATM    2  O1  UNL     1      10.620  10.778  -2.808  1.00  0.00    -0.355 OA
HETATM    3  C7  UNL     1       9.285  10.882  -3.238  1.00  0.00     0.165 C 
HETATM    4  C13 UNL     1       8.724  12.064  -2.488  1.00  0.00     0.180 C 
HETATM    5  C14 UNL     1       9.827  12.390  -1.506  1.00  0.00     0.198 C 
ENDROOT
BRANCH   1   6
HETATM    6  N5  UNL     1      11.862  11.130  -0.865  1.00  0.00    -0.297 N 
HETATM    7  C3  UNL     1      12.190  10.713   0.369  1.00  0.00     0.142 A 
HETATM    8  N3  UNL     1      11.487  10.170   1.376  1.00  0.00    -0.336 N 
HETATM    9  C4  UNL     1      13.559  10.941   0.507  1.00  0.00     0.119 A 
HETATM   10  C2  UNL     1      12.133   9.859   2.509  1.00  0.00     0.183 A 
ATOM     11  H3  UNL     1      10.486   9.999   1.282  1.00  0.00     0.168 HD
HETATM   12  N2  UNL     1      13.446  10.070   2.662  1.00  0.00    -0.339 N 
HETATM   13  C1  UNL     1      14.175  10.609   1.674  1.00  0.00     0.148 A 
ATOM     14  H2  UNL     1      13.898   9.818   3.542  1.00  0.00     0.167 HD
HETATM   15  N1  UNL     1      15.578  10.833   1.840  1.00  0.00    -0.080 NA
HETATM   16  N4  UNL     1      13.973  11.487  -0.664  1.00  0.00    -0.346 N 
HETATM   17  C5  UNL     1      12.950  11.605  -1.501  1.00  0.00     0.188 A 
ATOM     18  H4  UNL     1      14.932  11.766  -0.870  1.00  0.00     0.167 HD
ENDBRANCH   1   6
BRANCH   5  19
HETATM   19  O5  UNL     1       9.325  12.824  -0.289  1.00  0.00    -0.388 OA
ATOM     20  H5  UNL     1       8.404  12.633  -0.159  1.00  0.00     0.210 HD
ENDBRANCH   5  19
BRANCH   3  21
HETATM   21  C8  UNL     1       9.282  11.204  -4.703  1.00  0.00     0.108 C 
BRANCH  21  22
HETATM   22  S1  UNL     1       8.220  12.499  -5.252  1.00  0.00    -0.166 SA
BRANCH  22  23
HETATM   23  C9  UNL     1       6.635  12.015  -5.868  1.00  0.00     0.076 C 
BRANCH  23  24
HETATM   24  C10 UNL     1       6.532  10.558  -6.216  1.00  0.00     0.054 C 
BRANCH  24  25
HETATM   25  C11 UNL     1       5.721   9.817  -5.211  1.00  0.00     0.284 C 
BRANCH  25  26
HETATM   26  N6  UNL     1       6.450   8.778  -4.556  1.00  0.00    -0.065 N 
ATOM     27  H63 UNL     1       6.863   8.139  -5.236  1.00  0.00     0.275 HD
ATOM     28  H62 UNL     1       7.302   9.145  -4.131  1.00  0.00     0.275 HD
ATOM     29  H61 UNL     1       5.893   8.268  -3.870  1.00  0.00     0.275 HD
ENDBRANCH  25  26
BRANCH  25  30
HETATM   30  C12 UNL     1       4.462   9.284  -5.751  1.00  0.00     0.204 C 
HETATM   31  O2  UNL     1       4.421   8.121  -6.195  1.00  0.00    -0.646 OA
HETATM   32  O3  UNL     1       3.325  10.062  -5.769  1.00  0.00    -0.646 OA
ENDBRANCH  25  30
ENDBRANCH  24  25
ENDBRANCH  23  24
ENDBRANCH  22  23
ENDBRANCH  21  22
ENDBRANCH   3  21
BRANCH   4  33
HETATM   33  O4  UNL     1       7.596  11.674  -1.739  1.00  0.00    -0.390 OA
ATOM     34  H4  UNL     1       7.867  11.198  -0.963  1.00  0.00     0.210 HD
ENDBRANCH   4  33
TORSDOF 10
ENDMDL
