MODEL 1
REMARK VINA RESULT: -8.227511275      0.000      0.000
REMARK  10 active torsions:
REMARK  status: ('A' for Active; 'I' for Inactive)
REMARK    1  A    between atoms: N5_13  and  C6_14 
REMARK    2  A    between atoms: C7_16  and  C8_17 
REMARK    3  A    between atoms: C8_17  and  S1_18 
REMARK    4  A    between atoms: S1_18  and  C9_19 
REMARK    5  A    between atoms: C9_19  and  C10_20 
REMARK    6  A    between atoms: C10_20  and  C11_21 
REMARK    7  A    between atoms: C11_21  and  N6_22 
REMARK    8  A    between atoms: C11_21  and  C12_26 
REMARK    9  A    between atoms: C13_29  and  O4_30 
REMARK   10  A    between atoms: C14_32  and  O5_33 
ROOT
HETATM    1  C6  UNL     1       8.786  10.583  -3.833  1.00  0.00     0.262 C 
HETATM    2  O1  UNL     1       8.798  11.444  -2.722  1.00  0.00    -0.355 OA
HETATM    3  C7  UNL     1      10.120  11.361  -2.249  1.00  0.00     0.165 C 
HETATM    4  C13 UNL     1      10.976  11.296  -3.489  1.00  0.00     0.180 C 
HETATM    5  C14 UNL     1       9.953  11.140  -4.592  1.00  0.00     0.198 C 
ENDROOT
BRANCH   1   6
HETATM    6  N5  UNL     1       7.528  10.641  -4.506  1.00  0.00    -0.297 N 
HETATM    7  C3  UNL     1       6.654   9.627  -4.616  1.00  0.00     0.142 A 
HETATM    8  N3  UNL     1       6.658   8.355  -4.185  1.00  0.00    -0.336 N 
HETATM    9  C4  UNL     1       5.570  10.122  -5.341  1.00  0.00     0.119 A 
HETATM   10  C2  UNL     1       5.601   7.582  -4.471  1.00  0.00     0.183 A 
ATOM     11  H3  UNL     1       7.447   7.987  -3.653  1.00  0.00     0.168 HD
HETATM   12  N2  UNL     1       4.551   8.037  -5.165  1.00  0.00    -0.339 N 
HETATM   13  C1  UNL     1       4.517   9.303  -5.608  1.00  0.00     0.148 A 
ATOM     14  H2  UNL     1       3.767   7.414  -5.360  1.00  0.00     0.167 HD
HETATM   15  N1  UNL     1       3.394   9.787  -6.349  1.00  0.00    -0.080 NA
HETATM   16  N4  UNL     1       5.862  11.416  -5.625  1.00  0.00    -0.346 N 
HETATM   17  C5  UNL     1       7.047  11.739  -5.122  1.00  0.00     0.188 A 
ATOM     18  H4  UNL     1       5.259  12.049  -6.149  1.00  0.00     0.167 HD
ENDBRANCH   1   6
BRANCH   5  19
HETATM   19  O5  UNL     1      10.411  10.318  -5.611  1.00  0.00    -0.388 OA
ATOM     20  H5  UNL     1      11.161   9.787  -5.373  1.00  0.00     0.210 HD
ENDBRANCH   5  19
BRANCH   3  21
HETATM   21  C8  UNL     1      10.443  12.628  -1.515  1.00  0.00     0.108 C 
BRANCH  21  22
HETATM   22  S1  UNL     1      12.013  12.736  -0.722  1.00  0.00    -0.166 SA
BRANCH  22  23
HETATM   23  C9  UNL     1      12.719  11.217  -0.155  1.00  0.00     0.076 C 
BRANCH  23  24
HETATM   24  C10 UNL     1      12.756  11.079   1.340  1.00  0.00     0.054 C 
BRANCH  24  25
HETATM   25  C11 UNL     1      11.677  10.177   1.828  1.00  0.00     0.284 C 
BRANCH  25  26
HETATM   26  N6  UNL     1      10.377  10.767   1.757  1.00  0.00    -0.065 N 
ATOM     27  H63 UNL     1      10.433  11.731   1.427  1.00  0.00     0.275 HD
ATOM     28  H62 UNL     1       9.835  10.360   0.996  1.00  0.00     0.275 HD
ATOM     29  H61 UNL     1       9.863  10.713   2.637  1.00  0.00     0.275 HD
ENDBRANCH  25  26
BRANCH  25  30
HETATM   30  C12 UNL     1      11.917   9.653   3.180  1.00  0.00     0.204 C 
HETATM   31  O2  UNL     1      12.694  10.251   3.948  1.00  0.00    -0.646 OA
HETATM   32  O3  UNL     1      11.288   8.502   3.603  1.00  0.00    -0.646 OA
ENDBRANCH  25  30
ENDBRANCH  24  25
ENDBRANCH  23  24
ENDBRANCH  22  23
ENDBRANCH  21  22
ENDBRANCH   3  21
BRANCH   4  33
HETATM   33  O4  UNL     1      11.762  10.127  -3.477  1.00  0.00    -0.390 OA
ATOM     34  H4  UNL     1      11.953   9.851  -4.366  1.00  0.00     0.210 HD
ENDBRANCH   4  33
TORSDOF 10
ENDMDL
