MODEL 13
REMARK VINA RESULT: -6.969195115      8.893     14.201
REMARK  9 active torsions:
REMARK  status: ('A' for Active; 'I' for Inactive)
REMARK    1  A    between atoms: C2_2  and  O1_3 
REMARK    2  A    between atoms: C2_2  and  C3_5 
REMARK    3  A    between atoms: C3_5  and  N1_6 
REMARK    4  A    between atoms: C3_5  and  C21_26 
REMARK       I    between atoms: N1_6  and  C4_8 
REMARK    5  A    between atoms: C4_8  and  C5_10 
REMARK    6  A    between atoms: C8_13  and  C9_14 
REMARK    7  A    between atoms: C10_15  and  C11_16 
REMARK    8  A    between atoms: C12_17  and  C13_18 
REMARK       I    between atoms: C21_26  and  N2_28 
REMARK    9  A    between atoms: N2_28  and  O4_30 
ROOT
HETATM    1  C5  UNL     1      28.758  -3.283 -23.845  1.00  0.00     0.032 A 
HETATM    2  C6  UNL     1      30.080  -3.408 -23.509  1.00  0.00     0.018 A 
HETATM    3  C7  UNL     1      30.484  -4.114 -22.370  1.00  0.00     0.022 A 
HETATM    4  C8  UNL     1      29.560  -4.711 -21.545  1.00  0.00     0.018 A 
HETATM    5  C19 UNL     1      28.232  -4.589 -21.876  1.00  0.00     0.022 A 
HETATM    6  C20 UNL     1      27.844  -3.892 -22.999  1.00  0.00     0.018 A 
ENDROOT
BRANCH   1   7
HETATM    7  C4  UNL     1      28.263  -2.569 -25.005  1.00  0.00     0.252 C 
HETATM    8  N1  UNL     1      28.569  -2.943 -26.338  1.00  0.00    -0.341 N 
ATOM      9  H1  UNL     1      29.166  -3.753 -26.499  1.00  0.00     0.163 HD
HETATM   10  O2  UNL     1      27.512  -1.550 -24.847  1.00  0.00    -0.268 OA
BRANCH   8  11
HETATM   11  C3  UNL     1      28.058  -2.205 -27.488  1.00  0.00     0.207 C 
BRANCH  11  12
HETATM   12  C2  UNL     1      29.164  -1.892 -28.472  1.00  0.00     0.146 C 
HETATM   13  C1  UNL     1      30.416  -2.675 -28.157  1.00  0.00     0.042 C 
BRANCH  12  14
HETATM   14  O1  UNL     1      28.705  -2.127 -29.747  1.00  0.00    -0.393 OA
ATOM     15  H1  UNL     1      27.778  -2.334 -29.767  1.00  0.00     0.210 HD
ENDBRANCH  12  14
ENDBRANCH  11  12
BRANCH  11  16
HETATM   16  C21 UNL     1      26.980  -3.013 -28.094  1.00  0.00     0.266 C 
HETATM   17  O3  UNL     1      25.885  -2.514 -28.433  1.00  0.00    -0.269 OA
HETATM   18  N2  UNL     1      27.183  -4.399 -28.300  1.00  0.00    -0.236 N 
ATOM     19  H2  UNL     1      28.034  -4.701 -28.773  1.00  0.00     0.197 HD
BRANCH  18  20
HETATM   20  O4  UNL     1      26.363  -5.267 -27.928  1.00  0.00    -0.287 OA
ATOM     21  H4  UNL     1      25.423  -5.133 -27.954  1.00  0.00     0.244 HD
ENDBRANCH  18  20
ENDBRANCH  11  16
ENDBRANCH   8  11
ENDBRANCH   1   7
BRANCH   4  22
HETATM   22  C9  UNL     1      29.981  -5.445 -20.361  1.00  0.00    -0.053 C 
HETATM   23  C10 UNL     1      30.350  -6.048 -19.384  1.00  0.00    -0.009 C 
BRANCH  23  24
HETATM   24  C11 UNL     1      30.793  -6.769 -18.249  1.00  0.00    -0.009 C 
HETATM   25  C12 UNL     1      31.184  -7.395 -17.288  1.00  0.00    -0.053 C 
BRANCH  25  26
HETATM   26  C13 UNL     1      31.626  -8.147 -16.159  1.00  0.00     0.018 A 
HETATM   27  C14 UNL     1      31.221  -9.446 -15.960  1.00  0.00     0.020 A 
HETATM   28  C15 UNL     1      31.639 -10.191 -14.870  1.00  0.00     0.001 A 
HETATM   29  C16 UNL     1      32.478  -9.618 -13.968  1.00  0.00     0.000 A 
HETATM   30  C17 UNL     1      32.910  -8.328 -14.118  1.00  0.00     0.001 A 
HETATM   31  C18 UNL     1      32.473  -7.614 -15.218  1.00  0.00     0.020 A 
ENDBRANCH  25  26
ENDBRANCH  23  24
ENDBRANCH   4  22
TORSDOF 9
ENDMDL
