MODEL 3
REMARK VINA RESULT: -9.119100614      1.042      1.843
REMARK  9 active torsions:
REMARK  status: ('A' for Active; 'I' for Inactive)
REMARK    1  A    between atoms: C2_2  and  O1_3 
REMARK    2  A    between atoms: C2_2  and  C3_5 
REMARK    3  A    between atoms: C3_5  and  N1_6 
REMARK    4  A    between atoms: C3_5  and  C21_26 
REMARK       I    between atoms: N1_6  and  C4_8 
REMARK    5  A    between atoms: C4_8  and  C5_10 
REMARK    6  A    between atoms: C8_13  and  C9_14 
REMARK    7  A    between atoms: C10_15  and  C11_16 
REMARK    8  A    between atoms: C12_17  and  C13_18 
REMARK       I    between atoms: C21_26  and  N2_28 
REMARK    9  A    between atoms: N2_28  and  O4_30 
ROOT
HETATM    1  C5  UNL     1      31.993  -9.026 -14.052  1.00  0.00     0.032 A 
HETATM    2  C6  UNL     1      31.611  -9.721 -15.169  1.00  0.00     0.018 A 
HETATM    3  C7  UNL     1      31.241  -9.067 -16.350  1.00  0.00     0.022 A 
HETATM    4  C8  UNL     1      31.250  -7.695 -16.428  1.00  0.00     0.018 A 
HETATM    5  C19 UNL     1      31.632  -6.991 -15.311  1.00  0.00     0.022 A 
HETATM    6  C20 UNL     1      31.994  -7.644 -14.154  1.00  0.00     0.018 A 
ENDROOT
BRANCH   1   7
HETATM    7  C4  UNL     1      32.388  -9.632 -12.796  1.00  0.00     0.252 C 
HETATM    8  N1  UNL     1      31.475  -9.926 -11.752  1.00  0.00    -0.341 N 
ATOM      9  H1  UNL     1      30.488  -9.703 -11.882  1.00  0.00     0.163 HD
HETATM   10  O2  UNL     1      33.613  -9.927 -12.594  1.00  0.00    -0.268 OA
BRANCH   8  11
HETATM   11  C3  UNL     1      31.900 -10.536 -10.497  1.00  0.00     0.207 C 
BRANCH  11  12
HETATM   12  C2  UNL     1      31.901  -9.525  -9.371  1.00  0.00     0.146 C 
HETATM   13  C1  UNL     1      33.236  -8.827  -9.261  1.00  0.00     0.042 C 
BRANCH  12  14
HETATM   14  O1  UNL     1      30.863  -8.643  -9.563  1.00  0.00    -0.393 OA
ATOM     15  H1  UNL     1      30.131  -9.039 -10.021  1.00  0.00     0.210 HD
ENDBRANCH  12  14
ENDBRANCH  11  12
BRANCH  11  16
HETATM   16  C21 UNL     1      31.000 -11.675 -10.227  1.00  0.00     0.266 C 
HETATM   17  O3  UNL     1      31.166 -12.794 -10.760  1.00  0.00    -0.269 OA
HETATM   18  N2  UNL     1      29.911 -11.505  -9.339  1.00  0.00    -0.236 N 
ATOM     19  H2  UNL     1      30.088 -11.089  -8.425  1.00  0.00     0.197 HD
BRANCH  18  20
HETATM   20  O4  UNL     1      28.742 -11.843  -9.627  1.00  0.00    -0.287 OA
ATOM     21  H4  UNL     1      28.541 -12.613 -10.146  1.00  0.00     0.244 HD
ENDBRANCH  18  20
ENDBRANCH  11  16
ENDBRANCH   8  11
ENDBRANCH   1   7
BRANCH   4  22
HETATM   22  C9  UNL     1      30.866  -7.015 -17.656  1.00  0.00    -0.053 C 
HETATM   23  C10 UNL     1      30.562  -6.437 -18.671  1.00  0.00    -0.009 C 
BRANCH  23  24
HETATM   24  C11 UNL     1      30.200  -5.742 -19.849  1.00  0.00    -0.009 C 
HETATM   25  C12 UNL     1      29.904  -5.138 -20.857  1.00  0.00    -0.053 C 
BRANCH  25  26
HETATM   26  C13 UNL     1      29.544  -4.412 -22.032  1.00  0.00     0.018 A 
HETATM   27  C14 UNL     1      30.497  -3.824 -22.831  1.00  0.00     0.020 A 
HETATM   28  C15 UNL     1      30.167  -3.116 -23.974  1.00  0.00     0.001 A 
HETATM   29  C16 UNL     1      28.857  -2.999 -24.317  1.00  0.00     0.000 A 
HETATM   30  C17 UNL     1      27.870  -3.564 -23.556  1.00  0.00     0.001 A 
HETATM   31  C18 UNL     1      28.235  -4.264 -22.422  1.00  0.00     0.020 A 
ENDBRANCH  25  26
ENDBRANCH  23  24
ENDBRANCH   4  22
TORSDOF 9
ENDMDL
