MODEL 12
REMARK VINA RESULT: -6.986101034      9.013     14.452
REMARK  9 active torsions:
REMARK  status: ('A' for Active; 'I' for Inactive)
REMARK    1  A    between atoms: C2_2  and  O1_3 
REMARK    2  A    between atoms: C2_2  and  C3_5 
REMARK    3  A    between atoms: C3_5  and  N1_6 
REMARK    4  A    between atoms: C3_5  and  C21_26 
REMARK       I    between atoms: N1_6  and  C4_8 
REMARK    5  A    between atoms: C4_8  and  C5_10 
REMARK    6  A    between atoms: C8_13  and  C9_14 
REMARK    7  A    between atoms: C10_15  and  C11_16 
REMARK    8  A    between atoms: C12_17  and  C13_18 
REMARK       I    between atoms: C21_26  and  N2_28 
REMARK    9  A    between atoms: N2_28  and  O4_30 
ROOT
HETATM    1  C5  UNL     1      28.734  -3.212 -23.998  1.00  0.00     0.032 A 
HETATM    2  C6  UNL     1      30.057  -3.326 -23.659  1.00  0.00     0.018 A 
HETATM    3  C7  UNL     1      30.463  -4.021 -22.514  1.00  0.00     0.022 A 
HETATM    4  C8  UNL     1      29.542  -4.616 -21.686  1.00  0.00     0.018 A 
HETATM    5  C19 UNL     1      28.213  -4.505 -22.020  1.00  0.00     0.022 A 
HETATM    6  C20 UNL     1      27.823  -3.819 -23.149  1.00  0.00     0.018 A 
ENDROOT
BRANCH   1   7
HETATM    7  C4  UNL     1      28.238  -2.509 -25.164  1.00  0.00     0.252 C 
HETATM    8  N1  UNL     1      28.153  -1.096 -25.246  1.00  0.00    -0.341 N 
ATOM      9  H1  UNL     1      28.455  -0.537 -24.448  1.00  0.00     0.163 HD
HETATM   10  O2  UNL     1      27.851  -3.171 -26.184  1.00  0.00    -0.268 OA
BRANCH   8  11
HETATM   11  C3  UNL     1      27.649  -0.415 -26.433  1.00  0.00     0.207 C 
BRANCH  11  12
HETATM   12  C2  UNL     1      26.379   0.348 -26.126  1.00  0.00     0.146 C 
HETATM   13  C1  UNL     1      25.988   0.202 -24.675  1.00  0.00     0.042 C 
BRANCH  12  14
HETATM   14  O1  UNL     1      26.550   1.662 -26.493  1.00  0.00    -0.393 OA
ATOM     15  H1  UNL     1      26.098   1.874 -27.302  1.00  0.00     0.210 HD
ENDBRANCH  12  14
ENDBRANCH  11  12
BRANCH  11  16
HETATM   16  C21 UNL     1      28.725   0.464 -26.934  1.00  0.00     0.266 C 
HETATM   17  O3  UNL     1      29.627   0.902 -26.188  1.00  0.00    -0.269 OA
HETATM   18  N2  UNL     1      28.743   0.828 -28.302  1.00  0.00    -0.236 N 
ATOM     19  H2  UNL     1      28.658   0.093 -29.003  1.00  0.00     0.197 HD
BRANCH  18  20
HETATM   20  O4  UNL     1      28.860   2.013 -28.687  1.00  0.00    -0.287 OA
ATOM     21  H4  UNL     1      28.207   2.446 -29.223  1.00  0.00     0.244 HD
ENDBRANCH  18  20
ENDBRANCH  11  16
ENDBRANCH   8  11
ENDBRANCH   1   7
BRANCH   4  22
HETATM   22  C9  UNL     1      29.965  -5.338 -20.496  1.00  0.00    -0.053 C 
HETATM   23  C10 UNL     1      30.327  -5.950 -19.521  1.00  0.00    -0.009 C 
BRANCH  23  24
HETATM   24  C11 UNL     1      30.744  -6.684 -18.385  1.00  0.00    -0.009 C 
HETATM   25  C12 UNL     1      31.116  -7.315 -17.419  1.00  0.00    -0.053 C 
BRANCH  25  26
HETATM   26  C13 UNL     1      31.547  -8.076 -16.292  1.00  0.00     0.018 A 
HETATM   27  C14 UNL     1      31.168  -9.387 -16.126  1.00  0.00     0.020 A 
HETATM   28  C15 UNL     1      31.576 -10.142 -15.039  1.00  0.00     0.001 A 
HETATM   29  C16 UNL     1      32.378  -9.565 -14.106  1.00  0.00     0.000 A 
HETATM   30  C17 UNL     1      32.784  -8.263 -14.223  1.00  0.00     0.001 A 
HETATM   31  C18 UNL     1      32.358  -7.540 -15.320  1.00  0.00     0.020 A 
ENDBRANCH  25  26
ENDBRANCH  23  24
ENDBRANCH   4  22
TORSDOF 9
ENDMDL
