MODEL 4
REMARK VINA RESULT: -8.896283357      1.186      1.814
REMARK  9 active torsions:
REMARK  status: ('A' for Active; 'I' for Inactive)
REMARK    1  A    between atoms: C2_2  and  O1_3 
REMARK    2  A    between atoms: C2_2  and  C3_5 
REMARK    3  A    between atoms: C3_5  and  N1_6 
REMARK    4  A    between atoms: C3_5  and  C21_26 
REMARK       I    between atoms: N1_6  and  C4_8 
REMARK    5  A    between atoms: C4_8  and  C5_10 
REMARK    6  A    between atoms: C8_13  and  C9_14 
REMARK    7  A    between atoms: C10_15  and  C11_16 
REMARK    8  A    between atoms: C12_17  and  C13_18 
REMARK       I    between atoms: C21_26  and  N2_28 
REMARK    9  A    between atoms: N2_28  and  O4_30 
ROOT
HETATM    1  C5  UNL     1      31.941  -8.986 -14.047  1.00  0.00     0.032 A 
HETATM    2  C6  UNL     1      31.607  -9.683 -15.178  1.00  0.00     0.018 A 
HETATM    3  C7  UNL     1      31.256  -9.031 -16.365  1.00  0.00     0.022 A 
HETATM    4  C8  UNL     1      31.236  -7.658 -16.436  1.00  0.00     0.018 A 
HETATM    5  C19 UNL     1      31.570  -6.952 -15.305  1.00  0.00     0.022 A 
HETATM    6  C20 UNL     1      31.913  -7.604 -14.141  1.00  0.00     0.018 A 
ENDROOT
BRANCH   1   7
HETATM    7  C4  UNL     1      32.313  -9.590 -12.783  1.00  0.00     0.252 C 
HETATM    8  N1  UNL     1      31.398  -9.796 -11.719  1.00  0.00    -0.341 N 
ATOM      9  H1  UNL     1      30.428  -9.508 -11.840  1.00  0.00     0.163 HD
HETATM   10  O2  UNL     1      33.517  -9.965 -12.592  1.00  0.00    -0.268 OA
BRANCH   8  11
HETATM   11  C3  UNL     1      31.801 -10.407 -10.457  1.00  0.00     0.207 C 
BRANCH  11  12
HETATM   12  C2  UNL     1      32.801  -9.539  -9.725  1.00  0.00     0.146 C 
HETATM   13  C1  UNL     1      32.163  -8.259  -9.237  1.00  0.00     0.042 C 
BRANCH  12  14
HETATM   14  O1  UNL     1      33.360 -10.269  -8.702  1.00  0.00    -0.393 OA
ATOM     15  H1  UNL     1      33.976 -10.920  -9.016  1.00  0.00     0.210 HD
ENDBRANCH  12  14
ENDBRANCH  11  12
BRANCH  11  16
HETATM   16  C21 UNL     1      30.577 -10.643  -9.665  1.00  0.00     0.266 C 
HETATM   17  O3  UNL     1      30.575 -11.360  -8.641  1.00  0.00    -0.269 OA
HETATM   18  N2  UNL     1      29.360 -10.042 -10.070  1.00  0.00    -0.236 N 
ATOM     19  H2  UNL     1      29.354  -9.042 -10.270  1.00  0.00     0.197 HD
BRANCH  18  20
HETATM   20  O4  UNL     1      28.294 -10.685 -10.192  1.00  0.00    -0.287 OA
ATOM     21  H4  UNL     1      28.136 -11.289 -10.907  1.00  0.00     0.244 HD
ENDBRANCH  18  20
ENDBRANCH  11  16
ENDBRANCH   8  11
ENDBRANCH   1   7
BRANCH   4  22
HETATM   22  C9  UNL     1      30.872  -6.980 -17.671  1.00  0.00    -0.053 C 
HETATM   23  C10 UNL     1      30.584  -6.403 -18.691  1.00  0.00    -0.009 C 
BRANCH  23  24
HETATM   24  C11 UNL     1      30.242  -5.710 -19.877  1.00  0.00    -0.009 C 
HETATM   25  C12 UNL     1      29.965  -5.114 -20.895  1.00  0.00    -0.053 C 
BRANCH  25  26
HETATM   26  C13 UNL     1      29.638  -4.394 -22.082  1.00  0.00     0.018 A 
HETATM   27  C14 UNL     1      28.337  -4.276 -22.513  1.00  0.00     0.020 A 
HETATM   28  C15 UNL     1      28.000  -3.581 -23.662  1.00  0.00     0.001 A 
HETATM   29  C16 UNL     1      28.989  -2.996 -24.388  1.00  0.00     0.000 A 
HETATM   30  C17 UNL     1      30.300  -3.083 -24.003  1.00  0.00     0.001 A 
HETATM   31  C18 UNL     1      30.600  -3.785 -22.851  1.00  0.00     0.020 A 
ENDBRANCH  25  26
ENDBRANCH  23  24
ENDBRANCH   4  22
TORSDOF 9
ENDMDL
