MODEL 7
REMARK VINA RESULT: -8.702611863      1.187      1.582
REMARK  9 active torsions:
REMARK  status: ('A' for Active; 'I' for Inactive)
REMARK    1  A    between atoms: C2_2  and  O1_3 
REMARK    2  A    between atoms: C2_2  and  C3_5 
REMARK    3  A    between atoms: C3_5  and  N1_6 
REMARK    4  A    between atoms: C3_5  and  C21_26 
REMARK       I    between atoms: N1_6  and  C4_8 
REMARK    5  A    between atoms: C4_8  and  C5_10 
REMARK    6  A    between atoms: C8_13  and  C9_14 
REMARK    7  A    between atoms: C10_15  and  C11_16 
REMARK    8  A    between atoms: C12_17  and  C13_18 
REMARK       I    between atoms: C21_26  and  N2_28 
REMARK    9  A    between atoms: N2_28  and  O4_30 
ROOT
HETATM    1  C5  UNL     1      32.174  -8.906 -14.468  1.00  0.00     0.032 A 
HETATM    2  C6  UNL     1      31.526  -9.550 -15.488  1.00  0.00     0.018 A 
HETATM    3  C7  UNL     1      31.123  -8.872 -16.645  1.00  0.00     0.022 A 
HETATM    4  C8  UNL     1      31.367  -7.528 -16.796  1.00  0.00     0.018 A 
HETATM    5  C19 UNL     1      32.017  -6.876 -15.776  1.00  0.00     0.022 A 
HETATM    6  C20 UNL     1      32.410  -7.552 -14.642  1.00  0.00     0.018 A 
ENDROOT
BRANCH   1   7
HETATM    7  C4  UNL     1      32.621  -9.538 -13.243  1.00  0.00     0.252 C 
HETATM    8  N1  UNL     1      31.781  -9.736 -12.118  1.00  0.00    -0.341 N 
ATOM      9  H1  UNL     1      30.812  -9.421 -12.164  1.00  0.00     0.163 HD
HETATM   10  O2  UNL     1      33.825  -9.948 -13.145  1.00  0.00    -0.268 OA
BRANCH   8  11
HETATM   11  C3  UNL     1      32.257 -10.376 -10.897  1.00  0.00     0.207 C 
BRANCH  11  12
HETATM   12  C2  UNL     1      32.985  -9.388 -10.011  1.00  0.00     0.146 C 
HETATM   13  C1  UNL     1      32.177  -8.127  -9.815  1.00  0.00     0.042 C 
BRANCH  12  14
HETATM   14  O1  UNL     1      33.295 -10.002  -8.820  1.00  0.00    -0.393 OA
ATOM     15  H1  UNL     1      34.133  -9.719  -8.474  1.00  0.00     0.210 HD
ENDBRANCH  12  14
ENDBRANCH  11  12
BRANCH  11  16
HETATM   16  C21 UNL     1      31.088 -10.977 -10.223  1.00  0.00     0.266 C 
HETATM   17  O3  UNL     1      29.925 -10.555 -10.405  1.00  0.00    -0.269 OA
HETATM   18  N2  UNL     1      31.280 -12.067  -9.341  1.00  0.00    -0.236 N 
ATOM     19  H2  UNL     1      31.835 -12.861  -9.659  1.00  0.00     0.197 HD
BRANCH  18  20
HETATM   20  O4  UNL     1      30.797 -12.099  -8.187  1.00  0.00    -0.287 OA
ATOM     21  H4  UNL     1      30.567 -11.315  -7.703  1.00  0.00     0.244 HD
ENDBRANCH  18  20
ENDBRANCH  11  16
ENDBRANCH   8  11
ENDBRANCH   1   7
BRANCH   4  22
HETATM   22  C9  UNL     1      30.948  -6.824 -17.999  1.00  0.00    -0.053 C 
HETATM   23  C10 UNL     1      30.618  -6.229 -18.995  1.00  0.00    -0.009 C 
BRANCH  23  24
HETATM   24  C11 UNL     1      30.229  -5.513 -20.153  1.00  0.00    -0.009 C 
HETATM   25  C12 UNL     1      29.910  -4.907 -21.152  1.00  0.00    -0.053 C 
BRANCH  25  26
HETATM   26  C13 UNL     1      29.546  -4.176 -22.322  1.00  0.00     0.018 A 
HETATM   27  C14 UNL     1      28.249  -4.150 -22.777  1.00  0.00     0.020 A 
HETATM   28  C15 UNL     1      27.876  -3.446 -23.909  1.00  0.00     0.001 A 
HETATM   29  C16 UNL     1      28.827  -2.758 -24.594  1.00  0.00     0.000 A 
HETATM   30  C17 UNL     1      30.133  -2.751 -24.185  1.00  0.00     0.001 A 
HETATM   31  C18 UNL     1      30.469  -3.464 -23.050  1.00  0.00     0.020 A 
ENDBRANCH  25  26
ENDBRANCH  23  24
ENDBRANCH   4  22
TORSDOF 9
ENDMDL
