MODEL 1
REMARK VINA RESULT: -9.696546684      0.000      0.000
REMARK  9 active torsions:
REMARK  status: ('A' for Active; 'I' for Inactive)
REMARK    1  A    between atoms: C2_2  and  O1_3 
REMARK    2  A    between atoms: C2_2  and  C3_5 
REMARK    3  A    between atoms: C3_5  and  N1_6 
REMARK    4  A    between atoms: C3_5  and  C21_26 
REMARK       I    between atoms: N1_6  and  C4_8 
REMARK    5  A    between atoms: C4_8  and  C5_10 
REMARK    6  A    between atoms: C8_13  and  C9_14 
REMARK    7  A    between atoms: C10_15  and  C11_16 
REMARK    8  A    between atoms: C12_17  and  C13_18 
REMARK       I    between atoms: C21_26  and  N2_28 
REMARK    9  A    between atoms: N2_28  and  O4_30 
ROOT
HETATM    1  C5  UNL     1      31.781  -8.887 -13.616  1.00  0.00     0.032 A 
HETATM    2  C6  UNL     1      31.598  -7.533 -13.713  1.00  0.00     0.018 A 
HETATM    3  C7  UNL     1      31.267  -6.922 -14.928  1.00  0.00     0.022 A 
HETATM    4  C8  UNL     1      31.115  -7.667 -16.073  1.00  0.00     0.018 A 
HETATM    5  C19 UNL     1      31.298  -9.026 -15.983  1.00  0.00     0.022 A 
HETATM    6  C20 UNL     1      31.623  -9.618 -14.783  1.00  0.00     0.018 A 
ENDROOT
BRANCH   1   7
HETATM    7  C4  UNL     1      32.125  -9.590 -12.396  1.00  0.00     0.252 C 
HETATM    8  N1  UNL     1      31.174  -9.934 -11.401  1.00  0.00    -0.341 N 
ATOM      9  H1  UNL     1      30.197  -9.679 -11.544  1.00  0.00     0.163 HD
HETATM   10  O2  UNL     1      33.336  -9.928 -12.180  1.00  0.00    -0.268 OA
BRANCH   8  11
HETATM   11  C3  UNL     1      31.547 -10.642 -10.182  1.00  0.00     0.207 C 
BRANCH  11  12
HETATM   12  C2  UNL     1      31.059  -9.907  -8.953  1.00  0.00     0.146 C 
HETATM   13  C1  UNL     1      29.895  -9.001  -9.281  1.00  0.00     0.042 C 
BRANCH  12  14
HETATM   14  O1  UNL     1      30.748 -10.826  -7.978  1.00  0.00    -0.393 OA
ATOM     15  H1  UNL     1      30.084 -11.444  -8.261  1.00  0.00     0.210 HD
ENDBRANCH  12  14
ENDBRANCH  11  12
BRANCH  11  16
HETATM   16  C21 UNL     1      30.998 -12.010 -10.273  1.00  0.00     0.266 C 
HETATM   17  O3  UNL     1      29.770 -12.239 -10.208  1.00  0.00    -0.269 OA
HETATM   18  N2  UNL     1      31.881 -13.103 -10.439  1.00  0.00    -0.236 N 
ATOM     19  H2  UNL     1      32.584 -13.054 -11.176  1.00  0.00     0.197 HD
BRANCH  18  20
HETATM   20  O4  UNL     1      31.835 -14.127  -9.722  1.00  0.00    -0.287 OA
ATOM     21  H4  UNL     1      31.276 -14.869  -9.919  1.00  0.00     0.244 HD
ENDBRANCH  18  20
ENDBRANCH  11  16
ENDBRANCH   8  11
ENDBRANCH   1   7
BRANCH   4  22
HETATM   22  C9  UNL     1      30.771  -7.032 -17.336  1.00  0.00    -0.053 C 
HETATM   23  C10 UNL     1      30.495  -6.488 -18.377  1.00  0.00    -0.009 C 
BRANCH  23  24
HETATM   24  C11 UNL     1      30.161  -5.835 -19.588  1.00  0.00    -0.009 C 
HETATM   25  C12 UNL     1      29.886  -5.264 -20.621  1.00  0.00    -0.053 C 
BRANCH  25  26
HETATM   26  C13 UNL     1      29.544  -4.581 -21.826  1.00  0.00     0.018 A 
HETATM   27  C14 UNL     1      28.235  -4.435 -22.220  1.00  0.00     0.020 A 
HETATM   28  C15 UNL     1      27.883  -3.776 -23.386  1.00  0.00     0.001 A 
HETATM   29  C16 UNL     1      28.867  -3.256 -24.166  1.00  0.00     0.000 A 
HETATM   30  C17 UNL     1      30.187  -3.374 -23.820  1.00  0.00     0.001 A 
HETATM   31  C18 UNL     1      30.500  -4.038 -22.650  1.00  0.00     0.020 A 
ENDBRANCH  25  26
ENDBRANCH  23  24
ENDBRANCH   4  22
TORSDOF 9
ENDMDL
