MODEL 2
REMARK VINA RESULT: -9.676380120      0.185      1.294
REMARK  9 active torsions:
REMARK  status: ('A' for Active; 'I' for Inactive)
REMARK    1  A    between atoms: C2_2  and  O1_3 
REMARK    2  A    between atoms: C2_2  and  C3_5 
REMARK    3  A    between atoms: C3_5  and  N1_6 
REMARK    4  A    between atoms: C3_5  and  C21_26 
REMARK       I    between atoms: N1_6  and  C4_8 
REMARK    5  A    between atoms: C4_8  and  C5_10 
REMARK    6  A    between atoms: C8_13  and  C9_14 
REMARK    7  A    between atoms: C10_15  and  C11_16 
REMARK    8  A    between atoms: C12_17  and  C13_18 
REMARK       I    between atoms: C21_26  and  N2_28 
REMARK    9  A    between atoms: N2_28  and  O4_30 
ROOT
HETATM    1  C5  UNL     1      31.751  -9.068 -13.815  1.00  0.00     0.032 A 
HETATM    2  C6  UNL     1      31.645  -9.751 -14.997  1.00  0.00     0.018 A 
HETATM    3  C7  UNL     1      31.330  -9.100 -16.195  1.00  0.00     0.022 A 
HETATM    4  C8  UNL     1      31.113  -7.742 -16.225  1.00  0.00     0.018 A 
HETATM    5  C19 UNL     1      31.217  -7.051 -15.041  1.00  0.00     0.022 A 
HETATM    6  C20 UNL     1      31.528  -7.701 -13.868  1.00  0.00     0.018 A 
ENDROOT
BRANCH   1   7
HETATM    7  C4  UNL     1      32.073  -9.672 -12.537  1.00  0.00     0.252 C 
HETATM    8  N1  UNL     1      31.101  -9.965 -11.547  1.00  0.00    -0.341 N 
ATOM      9  H1  UNL     1      30.123  -9.743 -11.734  1.00  0.00     0.163 HD
HETATM   10  O2  UNL     1      33.284  -9.966 -12.264  1.00  0.00    -0.268 OA
BRANCH   8  11
HETATM   11  C3  UNL     1      31.453 -10.573 -10.269  1.00  0.00     0.207 C 
BRANCH  11  12
HETATM   12  C2  UNL     1      30.933  -9.749  -9.111  1.00  0.00     0.146 C 
HETATM   13  C1  UNL     1      29.769  -8.884  -9.531  1.00  0.00     0.042 C 
BRANCH  12  14
HETATM   14  O1  UNL     1      30.611 -10.593  -8.073  1.00  0.00    -0.393 OA
ATOM     15  H1  UNL     1      31.262 -11.273  -7.945  1.00  0.00     0.210 HD
ENDBRANCH  12  14
ENDBRANCH  11  12
BRANCH  11  16
HETATM   16  C21 UNL     1      30.915 -11.948 -10.266  1.00  0.00     0.266 C 
HETATM   17  O3  UNL     1      29.698 -12.186 -10.106  1.00  0.00    -0.269 OA
HETATM   18  N2  UNL     1      31.798 -13.040 -10.447  1.00  0.00    -0.236 N 
ATOM     19  H2  UNL     1      32.448 -13.015 -11.232  1.00  0.00     0.197 HD
BRANCH  18  20
HETATM   20  O4  UNL     1      31.814 -14.033  -9.687  1.00  0.00    -0.287 OA
ATOM     21  H4  UNL     1      32.602 -14.531  -9.507  1.00  0.00     0.244 HD
ENDBRANCH  18  20
ENDBRANCH  11  16
ENDBRANCH   8  11
ENDBRANCH   1   7
BRANCH   4  22
HETATM   22  C9  UNL     1      30.785  -7.066 -17.470  1.00  0.00    -0.053 C 
HETATM   23  C10 UNL     1      30.520  -6.487 -18.495  1.00  0.00    -0.009 C 
BRANCH  23  24
HETATM   24  C11 UNL     1      30.195  -5.796 -19.687  1.00  0.00    -0.009 C 
HETATM   25  C12 UNL     1      29.924  -5.190 -20.701  1.00  0.00    -0.053 C 
BRANCH  25  26
HETATM   26  C13 UNL     1      29.585  -4.472 -21.886  1.00  0.00     0.018 A 
HETATM   27  C14 UNL     1      30.549  -3.861 -22.654  1.00  0.00     0.020 A 
HETATM   28  C15 UNL     1      30.239  -3.160 -23.807  1.00  0.00     0.001 A 
HETATM   29  C16 UNL     1      28.939  -3.073 -24.192  1.00  0.00     0.000 A 
HETATM   30  C17 UNL     1      27.941  -3.662 -23.463  1.00  0.00     0.001 A 
HETATM   31  C18 UNL     1      28.286  -4.354 -22.318  1.00  0.00     0.020 A 
ENDBRANCH  25  26
ENDBRANCH  23  24
ENDBRANCH   4  22
TORSDOF 9
ENDMDL
