MODEL 14
REMARK VINA RESULT: -6.894770544      9.029     14.467
REMARK  9 active torsions:
REMARK  status: ('A' for Active; 'I' for Inactive)
REMARK    1  A    between atoms: C2_2  and  O1_3 
REMARK    2  A    between atoms: C2_2  and  C3_5 
REMARK    3  A    between atoms: C3_5  and  N1_6 
REMARK    4  A    between atoms: C3_5  and  C21_26 
REMARK       I    between atoms: N1_6  and  C4_8 
REMARK    5  A    between atoms: C4_8  and  C5_10 
REMARK    6  A    between atoms: C8_13  and  C9_14 
REMARK    7  A    between atoms: C10_15  and  C11_16 
REMARK    8  A    between atoms: C12_17  and  C13_18 
REMARK       I    between atoms: C21_26  and  N2_28 
REMARK    9  A    between atoms: N2_28  and  O4_30 
ROOT
HETATM    1  C5  UNL     1      28.922  -3.050 -23.982  1.00  0.00     0.032 A 
HETATM    2  C6  UNL     1      27.975  -3.691 -23.228  1.00  0.00     0.018 A 
HETATM    3  C7  UNL     1      28.322  -4.441 -22.098  1.00  0.00     0.022 A 
HETATM    4  C8  UNL     1      29.634  -4.560 -21.705  1.00  0.00     0.018 A 
HETATM    5  C19 UNL     1      30.589  -3.919 -22.458  1.00  0.00     0.022 A 
HETATM    6  C20 UNL     1      30.237  -3.183 -23.568  1.00  0.00     0.018 A 
ENDROOT
BRANCH   1   7
HETATM    7  C4  UNL     1      28.640  -2.257 -25.162  1.00  0.00     0.252 C 
HETATM    8  N1  UNL     1      27.408  -2.312 -25.861  1.00  0.00    -0.341 N 
ATOM      9  H1  UNL     1      26.676  -2.937 -25.524  1.00  0.00     0.163 HD
HETATM   10  O2  UNL     1      29.528  -1.462 -25.616  1.00  0.00    -0.268 OA
BRANCH   8  11
HETATM   11  C3  UNL     1      27.152  -1.503 -27.047  1.00  0.00     0.207 C 
BRANCH  11  12
HETATM   12  C2  UNL     1      26.483  -2.319 -28.131  1.00  0.00     0.146 C 
HETATM   13  C1  UNL     1      26.698  -3.798 -27.916  1.00  0.00     0.042 C 
BRANCH  12  14
HETATM   14  O1  UNL     1      25.150  -1.985 -28.182  1.00  0.00    -0.393 OA
ATOM     15  H1  UNL     1      24.632  -2.629 -28.651  1.00  0.00     0.210 HD
ENDBRANCH  12  14
ENDBRANCH  11  12
BRANCH  11  16
HETATM   16  C21 UNL     1      26.333  -0.346 -26.630  1.00  0.00     0.266 C 
HETATM   17  O3  UNL     1      25.796  -0.283 -25.503  1.00  0.00    -0.269 OA
HETATM   18  N2  UNL     1      26.143   0.731 -27.529  1.00  0.00    -0.236 N 
ATOM     19  H2  UNL     1      26.961   1.139 -27.981  1.00  0.00     0.197 HD
BRANCH  18  20
HETATM   20  O4  UNL     1      25.015   1.204 -27.793  1.00  0.00    -0.287 OA
ATOM     21  H4  UNL     1      24.557   1.021 -28.604  1.00  0.00     0.244 HD
ENDBRANCH  18  20
ENDBRANCH  11  16
ENDBRANCH   8  11
ENDBRANCH   1   7
BRANCH   4  22
HETATM   22  C9  UNL     1      29.994  -5.340 -20.531  1.00  0.00    -0.053 C 
HETATM   23  C10 UNL     1      30.312  -5.980 -19.559  1.00  0.00    -0.009 C 
BRANCH  23  24
HETATM   24  C11 UNL     1      30.698  -6.743 -18.430  1.00  0.00    -0.009 C 
HETATM   25  C12 UNL     1      31.041  -7.402 -17.474  1.00  0.00    -0.053 C 
BRANCH  25  26
HETATM   26  C13 UNL     1      31.430  -8.195 -16.353  1.00  0.00     0.018 A 
HETATM   27  C14 UNL     1      32.051  -7.637 -15.261  1.00  0.00     0.020 A 
HETATM   28  C15 UNL     1      32.436  -8.389 -14.165  1.00  0.00     0.001 A 
HETATM   29  C16 UNL     1      32.190  -9.726 -14.170  1.00  0.00     0.000 A 
HETATM   30  C17 UNL     1      31.576 -10.332 -15.232  1.00  0.00     0.001 A 
HETATM   31  C18 UNL     1      31.205  -9.550 -16.309  1.00  0.00     0.020 A 
ENDBRANCH  25  26
ENDBRANCH  23  24
ENDBRANCH   4  22
TORSDOF 9
ENDMDL
