MODEL 20
REMARK VINA RESULT: -6.330588438      1.744      2.018
REMARK  5 active torsions:
REMARK  status: ('A' for Active; 'I' for Inactive)
REMARK    1  A    between atoms: C1_2  and  C2_3 
REMARK    2  A    between atoms: C1_2  and  C8_16 
REMARK    3  A    between atoms: C4_5  and  O2_6 
REMARK    4  A    between atoms: C5_8  and  O3_9 
REMARK    5  A    between atoms: C6_11  and  N1_12 
ROOT
HETATM    1  C2  UNL     1       0.654   0.938  -6.209  1.00  0.00     0.020 A 
HETATM    2  C3  UNL     1       1.292  -0.154  -5.735  1.00  0.00     0.055 A 
HETATM    3  C4  UNL     1       1.106  -0.631  -4.435  1.00  0.00     0.102 A 
HETATM    4  C5  UNL     1       0.239   0.035  -3.610  1.00  0.00     0.132 A 
HETATM    5  C6  UNL     1      -0.432   1.163  -4.077  1.00  0.00     0.139 A 
HETATM    6  C7  UNL     1      -0.232   1.620  -5.366  1.00  0.00     0.054 A 
ENDROOT
BRANCH   1   7
HETATM    7  C1  UNL     1       0.782   1.462  -7.553  1.00  0.00     0.195 C 
HETATM    8  O1  UNL     1       1.201   2.675  -7.732  1.00  0.00    -0.287 OA
BRANCH   7   9
HETATM    9  C8  UNL     1       0.478   0.767  -8.787  1.00  0.00     0.053 A 
HETATM   10  C9  UNL     1       1.007  -0.532  -8.934  1.00  0.00     0.018 A 
HETATM   11  C10 UNL     1       0.774  -1.243 -10.082  1.00  0.00     0.001 A 
HETATM   12  C11 UNL     1       0.032  -0.743 -11.127  1.00  0.00     0.003 A 
HETATM   13  C12 UNL     1      -0.485   0.524 -10.991  1.00  0.00     0.043 A 
HETATM   14  C13 UNL     1      -0.257   1.268  -9.815  1.00  0.00     0.130 A 
HETATM   15  F1  UNL     1      -0.837   2.477  -9.770  1.00  0.00    -0.205 F 
ENDBRANCH   7   9
ENDBRANCH   1   7
BRANCH   3  16
HETATM   16  O2  UNL     1       1.786  -1.760  -3.981  1.00  0.00    -0.358 OA
ATOM     17  H2  UNL     1       1.878  -2.530  -4.530  1.00  0.00     0.217 HD
ENDBRANCH   3  16
BRANCH   5  18
HETATM   18  N1  UNL     1      -1.348   1.849  -3.267  1.00  0.00    -0.113 N 
HETATM   19  O4  UNL     1      -1.203   3.071  -2.970  1.00  0.00    -0.532 OA
HETATM   20  O5  UNL     1      -2.445   1.209  -2.762  1.00  0.00    -0.532 OA
ENDBRANCH   5  18
BRANCH   4  21
HETATM   21  O3  UNL     1      -0.010  -0.373  -2.290  1.00  0.00    -0.356 OA
ATOM     22  H3  UNL     1      -0.858  -0.697  -2.007  1.00  0.00     0.218 HD
ENDBRANCH   4  21
TORSDOF 5
ENDMDL
