MODEL 1
REMARK VINA RESULT: -7.496157298      0.000      0.000
REMARK  5 active torsions:
REMARK  status: ('A' for Active; 'I' for Inactive)
REMARK    1  A    between atoms: C1_2  and  C2_3 
REMARK    2  A    between atoms: C1_2  and  C8_16 
REMARK    3  A    between atoms: C4_5  and  O2_6 
REMARK    4  A    between atoms: C5_8  and  O3_9 
REMARK    5  A    between atoms: C6_11  and  N1_12 
ROOT
HETATM    1  C2  UNL     1      -0.212   0.024  -6.141  1.00  0.00     0.020 A 
HETATM    2  C3  UNL     1       0.600  -0.862  -5.525  1.00  0.00     0.055 A 
HETATM    3  C4  UNL     1       0.726  -0.930  -4.135  1.00  0.00     0.102 A 
HETATM    4  C5  UNL     1      -0.005  -0.063  -3.368  1.00  0.00     0.132 A 
HETATM    5  C6  UNL     1      -0.851   0.860  -3.980  1.00  0.00     0.139 A 
HETATM    6  C7  UNL     1      -0.960   0.911  -5.356  1.00  0.00     0.054 A 
ENDROOT
BRANCH   1   7
HETATM    7  C1  UNL     1      -0.408   0.122  -7.573  1.00  0.00     0.195 C 
HETATM    8  O1  UNL     1      -1.002   1.161  -8.069  1.00  0.00    -0.287 OA
BRANCH   7   9
HETATM    9  C8  UNL     1      -0.009  -0.849  -8.571  1.00  0.00     0.053 A 
HETATM   10  C9  UNL     1       0.920  -0.419  -9.542  1.00  0.00     0.018 A 
HETATM   11  C10 UNL     1       1.330  -1.279 -10.527  1.00  0.00     0.001 A 
HETATM   12  C11 UNL     1       0.871  -2.572 -10.622  1.00  0.00     0.003 A 
HETATM   13  C12 UNL     1      -0.035  -2.997  -9.679  1.00  0.00     0.043 A 
HETATM   14  C13 UNL     1      -0.466  -2.126  -8.657  1.00  0.00     0.130 A 
HETATM   15  F1  UNL     1      -1.323  -2.651  -7.768  1.00  0.00    -0.205 F 
ENDBRANCH   7   9
ENDBRANCH   1   7
BRANCH   3  16
HETATM   16  O2  UNL     1       1.578  -1.857  -3.536  1.00  0.00    -0.358 OA
ATOM     17  H2  UNL     1       2.273  -1.577  -2.953  1.00  0.00     0.217 HD
ENDBRANCH   3  16
BRANCH   5  18
HETATM   18  N1  UNL     1      -1.635   1.739  -3.221  1.00  0.00    -0.113 N 
HETATM   19  O4  UNL     1      -1.328   2.958  -3.070  1.00  0.00    -0.532 OA
HETATM   20  O5  UNL     1      -2.775   1.303  -2.608  1.00  0.00    -0.532 OA
ENDBRANCH   5  18
BRANCH   4  21
HETATM   21  O3  UNL     1       0.058  -0.060  -1.965  1.00  0.00    -0.356 OA
ATOM     22  H3  UNL     1       0.618   0.535  -1.480  1.00  0.00     0.218 HD
ENDBRANCH   4  21
TORSDOF 5
ENDMDL
