MODEL 6
REMARK VINA RESULT: -7.370009847      2.988      6.286
REMARK  5 active torsions:
REMARK  status: ('A' for Active; 'I' for Inactive)
REMARK    1  A    between atoms: C1_2  and  C2_3 
REMARK    2  A    between atoms: C1_2  and  C8_16 
REMARK    3  A    between atoms: C4_5  and  O2_6 
REMARK    4  A    between atoms: C5_8  and  O3_9 
REMARK    5  A    between atoms: C6_11  and  N1_12 
ROOT
HETATM    1  C2  UNL     1      -0.527   0.435  -7.836  1.00  0.00     0.020 A 
HETATM    2  C3  UNL     1      -0.676   1.432  -8.735  1.00  0.00     0.055 A 
HETATM    3  C4  UNL     1      -0.459   1.253 -10.104  1.00  0.00     0.102 A 
HETATM    4  C5  UNL     1      -0.083   0.015 -10.551  1.00  0.00     0.132 A 
HETATM    5  C6  UNL     1       0.075  -1.031  -9.644  1.00  0.00     0.139 A 
HETATM    6  C7  UNL     1      -0.142  -0.832  -8.294  1.00  0.00     0.054 A 
ENDROOT
BRANCH   1   7
HETATM    7  C1  UNL     1      -0.765   0.551  -6.413  1.00  0.00     0.195 C 
HETATM    8  O1  UNL     1      -1.615   1.425  -5.974  1.00  0.00    -0.287 OA
BRANCH   7   9
HETATM    9  C8  UNL     1      -0.135  -0.222  -5.362  1.00  0.00     0.053 A 
HETATM   10  C9  UNL     1       0.915   0.401  -4.655  1.00  0.00     0.018 A 
HETATM   11  C10 UNL     1       1.568  -0.277  -3.659  1.00  0.00     0.001 A 
HETATM   12  C11 UNL     1       1.247  -1.566  -3.304  1.00  0.00     0.003 A 
HETATM   13  C12 UNL     1       0.225  -2.179  -3.990  1.00  0.00     0.043 A 
HETATM   14  C13 UNL     1      -0.459  -1.496  -5.015  1.00  0.00     0.130 A 
HETATM   15  F1  UNL     1      -1.462  -2.172  -5.596  1.00  0.00    -0.205 F 
ENDBRANCH   7   9
ENDBRANCH   1   7
BRANCH   3  16
HETATM   16  O2  UNL     1      -0.620   2.309 -11.000  1.00  0.00    -0.358 OA
ATOM     17  H2  UNL     1      -0.082   2.374 -11.781  1.00  0.00     0.217 HD
ENDBRANCH   3  16
BRANCH   5  18
HETATM   18  N1  UNL     1       0.429  -2.317 -10.075  1.00  0.00    -0.113 N 
HETATM   19  O4  UNL     1      -0.191  -3.352  -9.690  1.00  0.00    -0.532 OA
HETATM   20  O5  UNL     1       1.472  -2.499 -10.938  1.00  0.00    -0.532 OA
ENDBRANCH   5  18
BRANCH   4  21
HETATM   21  O3  UNL     1       0.154  -0.258 -11.908  1.00  0.00    -0.356 OA
ATOM     22  H3  UNL     1      -0.409  -0.826 -12.422  1.00  0.00     0.218 HD
ENDBRANCH   4  21
TORSDOF 5
ENDMDL
