MODEL 3
REMARK VINA RESULT: -7.434648295      3.240      6.494
REMARK  5 active torsions:
REMARK  status: ('A' for Active; 'I' for Inactive)
REMARK    1  A    between atoms: C1_2  and  C2_3 
REMARK    2  A    between atoms: C1_2  and  C8_16 
REMARK    3  A    between atoms: C4_5  and  O2_6 
REMARK    4  A    between atoms: C5_8  and  O3_9 
REMARK    5  A    between atoms: C6_11  and  N1_12 
ROOT
HETATM    1  C2  UNL     1      -0.567   0.652  -7.950  1.00  0.00     0.020 A 
HETATM    2  C3  UNL     1      -0.655   1.669  -8.834  1.00  0.00     0.055 A 
HETATM    3  C4  UNL     1      -0.416   1.505 -10.201  1.00  0.00     0.102 A 
HETATM    4  C5  UNL     1      -0.081   0.260 -10.662  1.00  0.00     0.132 A 
HETATM    5  C6  UNL     1       0.015  -0.807  -9.770  1.00  0.00     0.139 A 
HETATM    6  C7  UNL     1      -0.224  -0.622  -8.422  1.00  0.00     0.054 A 
ENDROOT
BRANCH   1   7
HETATM    7  C1  UNL     1      -0.832   0.753  -6.530  1.00  0.00     0.195 C 
HETATM    8  O1  UNL     1      -1.751   1.561  -6.105  1.00  0.00    -0.287 OA
BRANCH   7   9
HETATM    9  C8  UNL     1      -0.158   0.033  -5.469  1.00  0.00     0.053 A 
HETATM   10  C9  UNL     1      -0.550  -1.306  -5.259  1.00  0.00     0.018 A 
HETATM   11  C10 UNL     1       0.032  -2.043  -4.262  1.00  0.00     0.001 A 
HETATM   12  C11 UNL     1       1.004  -1.534  -3.433  1.00  0.00     0.003 A 
HETATM   13  C12 UNL     1       1.390  -0.229  -3.632  1.00  0.00     0.043 A 
HETATM   14  C13 UNL     1       0.803   0.543  -4.655  1.00  0.00     0.130 A 
HETATM   15  F1  UNL     1       1.277   1.791  -4.786  1.00  0.00    -0.205 F 
ENDBRANCH   7   9
ENDBRANCH   1   7
BRANCH   3  16
HETATM   16  O2  UNL     1      -0.514   2.581 -11.081  1.00  0.00    -0.358 OA
ATOM     17  H2  UNL     1      -1.199   2.616 -11.738  1.00  0.00     0.217 HD
ENDBRANCH   3  16
BRANCH   5  18
HETATM   18  N1  UNL     1       0.326  -2.099 -10.216  1.00  0.00    -0.113 N 
HETATM   19  O4  UNL     1      -0.311  -3.120  -9.823  1.00  0.00    -0.532 OA
HETATM   20  O5  UNL     1       1.343  -2.302 -11.105  1.00  0.00    -0.532 OA
ENDBRANCH   5  18
BRANCH   4  21
HETATM   21  O3  UNL     1       0.175   0.001 -12.019  1.00  0.00    -0.356 OA
ATOM     22  H3  UNL     1      -0.519  -0.133 -12.653  1.00  0.00     0.218 HD
ENDBRANCH   4  21
TORSDOF 5
ENDMDL
