MODEL 12
REMARK VINA RESULT: -7.109052713      1.083      1.667
REMARK  5 active torsions:
REMARK  status: ('A' for Active; 'I' for Inactive)
REMARK    1  A    between atoms: C1_2  and  C2_3 
REMARK    2  A    between atoms: C1_2  and  C8_16 
REMARK    3  A    between atoms: C4_5  and  O2_6 
REMARK    4  A    between atoms: C5_8  and  O3_9 
REMARK    5  A    between atoms: C6_11  and  N1_12 
ROOT
HETATM    1  C2  UNL     1      -0.299   0.052  -6.189  1.00  0.00     0.020 A 
HETATM    2  C3  UNL     1       0.548  -0.832  -5.618  1.00  0.00     0.055 A 
HETATM    3  C4  UNL     1       0.723  -0.923  -4.235  1.00  0.00     0.102 A 
HETATM    4  C5  UNL     1       0.004  -0.083  -3.427  1.00  0.00     0.132 A 
HETATM    5  C6  UNL     1      -0.877   0.837  -3.992  1.00  0.00     0.139 A 
HETATM    6  C7  UNL     1      -1.034   0.911  -5.362  1.00  0.00     0.054 A 
ENDROOT
BRANCH   1   7
HETATM    7  C1  UNL     1      -0.545   0.173  -7.611  1.00  0.00     0.195 C 
HETATM    8  O1  UNL     1      -1.253   1.162  -8.057  1.00  0.00    -0.287 OA
BRANCH   7   9
HETATM    9  C8  UNL     1      -0.082  -0.723  -8.650  1.00  0.00     0.053 A 
HETATM   10  C9  UNL     1      -0.475  -2.074  -8.549  1.00  0.00     0.018 A 
HETATM   11  C10 UNL     1      -0.060  -2.982  -9.488  1.00  0.00     0.001 A 
HETATM   12  C11 UNL     1       0.740  -2.637 -10.552  1.00  0.00     0.003 A 
HETATM   13  C12 UNL     1       1.127  -1.321 -10.656  1.00  0.00     0.043 A 
HETATM   14  C13 UNL     1       0.707  -0.374  -9.700  1.00  0.00     0.130 A 
HETATM   15  F1  UNL     1       1.111   0.888  -9.915  1.00  0.00    -0.205 F 
ENDBRANCH   7   9
ENDBRANCH   1   7
BRANCH   3  16
HETATM   16  O2  UNL     1       1.610  -1.846  -3.682  1.00  0.00    -0.358 OA
ATOM     17  H2  UNL     1       1.466  -2.780  -3.777  1.00  0.00     0.217 HD
ENDBRANCH   3  16
BRANCH   5  18
HETATM   18  N1  UNL     1      -1.649   1.688  -3.190  1.00  0.00    -0.113 N 
HETATM   19  O4  UNL     1      -2.704   1.296  -2.610  1.00  0.00    -0.532 OA
HETATM   20  O5  UNL     1      -1.283   2.991  -3.004  1.00  0.00    -0.532 OA
ENDBRANCH   5  18
BRANCH   4  21
HETATM   21  O3  UNL     1       0.115  -0.104  -2.026  1.00  0.00    -0.356 OA
ATOM     22  H3  UNL     1      -0.209   0.601  -1.477  1.00  0.00     0.218 HD
ENDBRANCH   4  21
TORSDOF 5
ENDMDL
