MODEL 4
REMARK VINA RESULT: -7.423479574      3.146      6.085
REMARK  5 active torsions:
REMARK  status: ('A' for Active; 'I' for Inactive)
REMARK    1  A    between atoms: C1_2  and  C2_3 
REMARK    2  A    between atoms: C1_2  and  C8_16 
REMARK    3  A    between atoms: C4_5  and  O2_6 
REMARK    4  A    between atoms: C5_8  and  O3_9 
REMARK    5  A    between atoms: C6_11  and  N1_12 
ROOT
HETATM    1  C2  UNL     1       0.567  -0.656  -7.946  1.00  0.00     0.020 A 
HETATM    2  C3  UNL     1       0.654  -1.675  -8.829  1.00  0.00     0.055 A 
HETATM    3  C4  UNL     1       0.414  -1.511 -10.196  1.00  0.00     0.102 A 
HETATM    4  C5  UNL     1       0.082  -0.265 -10.657  1.00  0.00     0.132 A 
HETATM    5  C6  UNL     1      -0.012   0.802  -9.767  1.00  0.00     0.139 A 
HETATM    6  C7  UNL     1       0.227   0.618  -8.418  1.00  0.00     0.054 A 
ENDROOT
BRANCH   1   7
HETATM    7  C1  UNL     1       0.833  -0.757  -6.526  1.00  0.00     0.195 C 
HETATM    8  O1  UNL     1       1.754  -1.563  -6.101  1.00  0.00    -0.287 OA
BRANCH   7   9
HETATM    9  C8  UNL     1       0.157  -0.039  -5.465  1.00  0.00     0.053 A 
HETATM   10  C9  UNL     1       0.544   1.302  -5.257  1.00  0.00     0.018 A 
HETATM   11  C10 UNL     1      -0.040   2.038  -4.260  1.00  0.00     0.001 A 
HETATM   12  C11 UNL     1      -1.009   1.525  -3.428  1.00  0.00     0.003 A 
HETATM   13  C12 UNL     1      -1.390   0.219  -3.626  1.00  0.00     0.043 A 
HETATM   14  C13 UNL     1      -0.801  -0.552  -4.648  1.00  0.00     0.130 A 
HETATM   15  F1  UNL     1      -1.270  -1.802  -4.779  1.00  0.00    -0.205 F 
ENDBRANCH   7   9
ENDBRANCH   1   7
BRANCH   3  16
HETATM   16  O2  UNL     1       0.509  -2.588 -11.076  1.00  0.00    -0.358 OA
ATOM     17  H2  UNL     1       0.630  -2.449 -12.008  1.00  0.00     0.217 HD
ENDBRANCH   3  16
BRANCH   5  18
HETATM   18  N1  UNL     1      -0.320   2.095 -10.214  1.00  0.00    -0.113 N 
HETATM   19  O4  UNL     1       0.320   3.114  -9.821  1.00  0.00    -0.532 OA
HETATM   20  O5  UNL     1      -1.337   2.300 -11.102  1.00  0.00    -0.532 OA
ENDBRANCH   5  18
BRANCH   4  21
HETATM   21  O3  UNL     1      -0.174  -0.006 -12.014  1.00  0.00    -0.356 OA
ATOM     22  H3  UNL     1       0.303   0.651 -12.508  1.00  0.00     0.218 HD
ENDBRANCH   4  21
TORSDOF 5
ENDMDL
