MODEL 3
REMARK VINA RESULT: -6.354890875      0.188      2.200
REMARK  2 active torsions:
REMARK  status: ('A' for Active; 'I' for Inactive)
REMARK    1  A    between atoms: C5_12  and  C6_13 
REMARK    2  A    between atoms: C9_17  and  O2_18 
ROOT
HETATM    1  C1  UNL     1      -0.500  -2.294 -10.484  1.00  0.00     0.159 C 
HETATM    2  N1  UNL     1      -0.125  -0.964 -10.027  1.00  0.00    -0.319 N 
HETATM    3  C2  UNL     1       0.224   0.148 -10.831  1.00  0.00     0.182 A 
HETATM    4  N2  UNL     1       0.280   0.185 -12.143  1.00  0.00    -0.371 N 
ATOM      5  H21 UNL     1       0.532   0.986 -12.722  1.00  0.00     0.159 HD
ATOM      6  H22 UNL     1       0.078  -0.587 -12.778  1.00  0.00     0.159 HD
HETATM    7  N3  UNL     1       0.507   1.225  -9.947  1.00  0.00    -0.293 N 
ATOM      8  H3  UNL     1       0.788   2.164 -10.228  1.00  0.00     0.172 HD
HETATM    9  C3  UNL     1       0.333   0.781  -8.609  1.00  0.00     0.275 A 
HETATM   10  O1  UNL     1       0.508   1.492  -7.598  1.00  0.00    -0.266 OA
HETATM   11  C4  UNL     1      -0.070  -0.614  -8.625  1.00  0.00     0.106 A 
HETATM   12  C5  UNL     1      -0.301  -1.442  -7.619  1.00  0.00     0.047 C 
ENDROOT
BRANCH  12  13
HETATM   13  C6  UNL     1      -0.235  -1.019  -6.241  1.00  0.00    -0.031 A 
HETATM   14  C7  UNL     1      -1.063  -0.004  -5.836  1.00  0.00     0.033 A 
HETATM   15  C8  UNL     1      -0.975   0.432  -4.530  1.00  0.00     0.046 A 
HETATM   16 BR1  UNL     1      -2.112   1.841  -3.922  1.00  0.00    -0.048 Br
HETATM   17  C9  UNL     1      -0.089  -0.111  -3.616  1.00  0.00     0.100 A 
HETATM   18  C10 UNL     1       0.724  -1.128  -4.065  1.00  0.00     0.046 A 
HETATM   19 BR2  UNL     1       1.977  -1.926  -2.864  1.00  0.00    -0.048 Br
HETATM   20  C11 UNL     1       0.662  -1.593  -5.376  1.00  0.00     0.033 A 
BRANCH  17  21
HETATM   21  O2  UNL     1       0.016   0.309  -2.302  1.00  0.00    -0.358 OA
ATOM     22  H2  UNL     1       0.438   1.117  -2.037  1.00  0.00     0.217 HD
ENDBRANCH  17  21
ENDBRANCH  12  13
TORSDOF 2
ENDMDL
