MODEL 1
REMARK VINA RESULT: -6.738591934      0.000      0.000
REMARK  2 active torsions:
REMARK  status: ('A' for Active; 'I' for Inactive)
REMARK    1  A    between atoms: C5_12  and  C6_13 
REMARK    2  A    between atoms: C9_17  and  O2_18 
ROOT
HETATM    1  C1  UNL     1      -0.175  -2.350 -10.533  1.00  0.00     0.159 C 
HETATM    2  N1  UNL     1       0.021  -0.971 -10.113  1.00  0.00    -0.319 N 
HETATM    3  C2  UNL     1       0.204   0.158 -10.950  1.00  0.00     0.182 A 
HETATM    4  N2  UNL     1       0.237   0.168 -12.263  1.00  0.00    -0.371 N 
ATOM      5  H21 UNL     1       0.368   0.980 -12.865  1.00  0.00     0.159 HD
ATOM      6  H22 UNL     1       0.133  -0.641 -12.876  1.00  0.00     0.159 HD
HETATM    7  N3  UNL     1       0.349   1.285 -10.096  1.00  0.00    -0.293 N 
ATOM      8  H3  UNL     1       0.496   2.247 -10.404  1.00  0.00     0.172 HD
HETATM    9  C3  UNL     1       0.256   0.857  -8.745  1.00  0.00     0.275 A 
HETATM   10  O1  UNL     1       0.347   1.611  -7.755  1.00  0.00    -0.266 OA
HETATM   11  C4  UNL     1       0.047  -0.580  -8.722  1.00  0.00     0.106 A 
HETATM   12  C5  UNL     1      -0.054  -1.406  -7.692  1.00  0.00     0.047 C 
ENDROOT
BRANCH  12  13
HETATM   13  C6  UNL     1      -0.028  -0.941  -6.326  1.00  0.00    -0.031 A 
HETATM   14  C7  UNL     1       0.868  -1.520  -5.464  1.00  0.00     0.033 A 
HETATM   15  C8  UNL     1       0.869  -1.108  -4.147  1.00  0.00     0.046 A 
HETATM   16 BR1  UNL     1       2.102  -1.885  -2.911  1.00  0.00    -0.048 Br
HETATM   17  C9  UNL     1       0.008  -0.140  -3.663  1.00  0.00     0.100 A 
HETATM   18  C10 UNL     1      -0.875   0.415  -4.563  1.00  0.00     0.046 A 
HETATM   19 BR2  UNL     1      -2.099   1.756  -3.971  1.00  0.00    -0.048 Br
HETATM   20  C11 UNL     1      -0.905   0.024  -5.899  1.00  0.00     0.033 A 
BRANCH  17  21
HETATM   21  O2  UNL     1      -0.008   0.290  -2.348  1.00  0.00    -0.358 OA
ATOM     22  H2  UNL     1      -0.686   0.058  -1.724  1.00  0.00     0.217 HD
ENDBRANCH  17  21
ENDBRANCH  12  13
TORSDOF 2
ENDMDL
