MODEL 6
REMARK VINA RESULT: -4.278424876     10.191     11.328
REMARK  2 active torsions:
REMARK  status: ('A' for Active; 'I' for Inactive)
REMARK    1  A    between atoms: C5_12  and  C6_13 
REMARK    2  A    between atoms: C9_17  and  O2_18 
ROOT
HETATM    1  C1  UNL     1      -1.301   0.205   2.347  1.00  0.00     0.159 C 
HETATM    2  N1  UNL     1      -0.049   0.497   3.028  1.00  0.00    -0.319 N 
HETATM    3  C2  UNL     1       0.244   1.630   3.827  1.00  0.00     0.182 A 
HETATM    4  N2  UNL     1      -0.559   2.632   4.098  1.00  0.00    -0.371 N 
ATOM      5  H21 UNL     1      -0.349   3.447   4.673  1.00  0.00     0.159 HD
ATOM      6  H22 UNL     1      -1.519   2.742   3.770  1.00  0.00     0.159 HD
HETATM    7  N3  UNL     1       1.583   1.478   4.284  1.00  0.00    -0.293 N 
ATOM      8  H3  UNL     1       2.082   2.135   4.882  1.00  0.00     0.172 HD
HETATM    9  C3  UNL     1       2.110   0.263   3.771  1.00  0.00     0.275 A 
HETATM   10  O1  UNL     1       3.266  -0.156   3.990  1.00  0.00    -0.266 OA
HETATM   11  C4  UNL     1       1.093  -0.388   2.965  1.00  0.00     0.106 A 
HETATM   12  C5  UNL     1       1.154  -1.511   2.266  1.00  0.00     0.047 C 
ENDROOT
BRANCH  12  13
HETATM   13  C6  UNL     1       2.328  -2.350   2.255  1.00  0.00    -0.031 A 
HETATM   14  C7  UNL     1       3.329  -2.049   1.368  1.00  0.00     0.033 A 
HETATM   15  C8  UNL     1       4.436  -2.873   1.327  1.00  0.00     0.046 A 
HETATM   16 BR1  UNL     1       5.857  -2.490   0.109  1.00  0.00    -0.048 Br
HETATM   17  C9  UNL     1       4.576  -3.983   2.140  1.00  0.00     0.100 A 
HETATM   18  C10 UNL     1       3.547  -4.247   3.016  1.00  0.00     0.046 A 
HETATM   19 BR2  UNL     1       3.664  -5.766   4.169  1.00  0.00    -0.048 Br
HETATM   20  C11 UNL     1       2.415  -3.439   3.085  1.00  0.00     0.033 A 
BRANCH  17  21
HETATM   21  O2  UNL     1       5.676  -4.822   2.117  1.00  0.00    -0.358 OA
ATOM     22  H2  UNL     1       5.689  -5.688   2.506  1.00  0.00     0.217 HD
ENDBRANCH  17  21
ENDBRANCH  12  13
TORSDOF 2
ENDMDL
