MODEL 7
REMARK VINA RESULT: -4.190227737     10.440     11.727
REMARK  2 active torsions:
REMARK  status: ('A' for Active; 'I' for Inactive)
REMARK    1  A    between atoms: C5_12  and  C6_13 
REMARK    2  A    between atoms: C9_17  and  O2_18 
ROOT
HETATM    1  C1  UNL     1       0.181   1.199   4.290  1.00  0.00     0.159 C 
HETATM    2  N1  UNL     1       0.377  -0.187   3.894  1.00  0.00    -0.319 N 
HETATM    3  C2  UNL     1      -0.586  -1.226   3.918  1.00  0.00     0.182 A 
HETATM    4  N2  UNL     1      -1.837  -1.132   4.308  1.00  0.00    -0.371 N 
ATOM      5  H21 UNL     1      -2.530  -1.879   4.325  1.00  0.00     0.159 HD
ATOM      6  H22 UNL     1      -2.300  -0.291   4.652  1.00  0.00     0.159 HD
HETATM    7  N3  UNL     1       0.059  -2.398   3.438  1.00  0.00    -0.293 N 
ATOM      8  H3  UNL     1      -0.376  -3.315   3.338  1.00  0.00     0.172 HD
HETATM    9  C3  UNL     1       1.408  -2.086   3.122  1.00  0.00     0.275 A 
HETATM   10  O1  UNL     1       2.239  -2.905   2.679  1.00  0.00    -0.266 OA
HETATM   11  C4  UNL     1       1.643  -0.681   3.402  1.00  0.00     0.106 A 
HETATM   12  C5  UNL     1       2.755   0.030   3.299  1.00  0.00     0.047 C 
ENDROOT
BRANCH  12  13
HETATM   13  C6  UNL     1       3.984  -0.530   2.790  1.00  0.00    -0.031 A 
HETATM   14  C7  UNL     1       4.265  -0.368   1.458  1.00  0.00     0.033 A 
HETATM   15  C8  UNL     1       5.419  -0.936   0.958  1.00  0.00     0.046 A 
HETATM   16 BR1  UNL     1       5.853  -0.733  -0.891  1.00  0.00    -0.048 Br
HETATM   17  C9  UNL     1       6.300  -1.659   1.743  1.00  0.00     0.100 A 
HETATM   18  C10 UNL     1       5.978  -1.797   3.075  1.00  0.00     0.046 A 
HETATM   19 BR2  UNL     1       7.142  -2.785   4.223  1.00  0.00    -0.048 Br
HETATM   20  C11 UNL     1       4.823  -1.237   3.614  1.00  0.00     0.033 A 
BRANCH  17  21
HETATM   21  O2  UNL     1       7.463  -2.236   1.265  1.00  0.00    -0.358 OA
ATOM     22  H2  UNL     1       8.301  -2.183   1.709  1.00  0.00     0.217 HD
ENDBRANCH  17  21
ENDBRANCH  12  13
TORSDOF 2
ENDMDL
