MODEL 4
REMARK VINA RESULT: -6.352786675      1.278      1.958
REMARK  2 active torsions:
REMARK  status: ('A' for Active; 'I' for Inactive)
REMARK    1  A    between atoms: C5_12  and  C6_13 
REMARK    2  A    between atoms: C9_17  and  O2_18 
ROOT
HETATM    1  C1  UNL     1       0.519   2.195 -10.515  1.00  0.00     0.159 C 
HETATM    2  N1  UNL     1       0.101   0.884 -10.039  1.00  0.00    -0.319 N 
HETATM    3  C2  UNL     1      -0.291  -0.225 -10.828  1.00  0.00     0.182 A 
HETATM    4  N2  UNL     1      -0.358  -0.275 -12.139  1.00  0.00    -0.371 N 
ATOM      5  H21 UNL     1      -0.640  -1.073 -12.707  1.00  0.00     0.159 HD
ATOM      6  H22 UNL     1      -0.133   0.483 -12.784  1.00  0.00     0.159 HD
HETATM    7  N3  UNL     1      -0.605  -1.281  -9.929  1.00  0.00    -0.293 N 
ATOM      8  H3  UNL     1      -0.920  -2.213 -10.197  1.00  0.00     0.172 HD
HETATM    9  C3  UNL     1      -0.407  -0.828  -8.597  1.00  0.00     0.275 A 
HETATM   10  O1  UNL     1      -0.600  -1.521  -7.578  1.00  0.00    -0.266 OA
HETATM   11  C4  UNL     1       0.044   0.552  -8.633  1.00  0.00     0.106 A 
HETATM   12  C5  UNL     1       0.310   1.384  -7.638  1.00  0.00     0.047 C 
ENDROOT
BRANCH  12  13
HETATM   13  C6  UNL     1       0.238   0.979  -6.254  1.00  0.00    -0.031 A 
HETATM   14  C7  UNL     1       1.077  -0.019  -5.829  1.00  0.00     0.033 A 
HETATM   15  C8  UNL     1       0.984  -0.438  -4.518  1.00  0.00     0.046 A 
HETATM   16 BR1  UNL     1       2.136  -1.822  -3.881  1.00  0.00    -0.048 Br
HETATM   17  C9  UNL     1       0.084   0.106  -3.619  1.00  0.00     0.100 A 
HETATM   18  C10 UNL     1      -0.739   1.105  -4.088  1.00  0.00     0.046 A 
HETATM   19 BR2  UNL     1      -2.012   1.903  -2.908  1.00  0.00    -0.048 Br
HETATM   20  C11 UNL     1      -0.674   1.553  -5.405  1.00  0.00     0.033 A 
BRANCH  17  21
HETATM   21  O2  UNL     1      -0.026  -0.296  -2.300  1.00  0.00    -0.358 OA
ATOM     22  H2  UNL     1      -0.703   0.009  -1.708  1.00  0.00     0.217 HD
ENDBRANCH  17  21
ENDBRANCH  12  13
TORSDOF 2
ENDMDL
