MODEL 2
REMARK VINA RESULT: -6.719556204      1.257      2.879
REMARK  2 active torsions:
REMARK  status: ('A' for Active; 'I' for Inactive)
REMARK    1  A    between atoms: C5_12  and  C6_13 
REMARK    2  A    between atoms: C9_17  and  O2_18 
ROOT
HETATM    1  C1  UNL     1       0.575   2.217 -10.496  1.00  0.00     0.159 C 
HETATM    2  N1  UNL     1       0.175   0.885 -10.069  1.00  0.00    -0.319 N 
HETATM    3  C2  UNL     1      -0.170  -0.210 -10.900  1.00  0.00     0.182 A 
HETATM    4  N2  UNL     1      -0.199  -0.224 -12.213  1.00  0.00    -0.371 N 
ATOM      5  H21 UNL     1      -0.447  -1.012 -12.810  1.00  0.00     0.159 HD
ATOM      6  H22 UNL     1       0.025   0.556 -12.830  1.00  0.00     0.159 HD
HETATM    7  N3  UNL     1      -0.484  -1.298 -10.039  1.00  0.00    -0.293 N 
ATOM      8  H3  UNL     1      -0.770  -2.229 -10.342  1.00  0.00     0.172 HD
HETATM    9  C3  UNL     1      -0.333  -0.878  -8.691  1.00  0.00     0.275 A 
HETATM   10  O1  UNL     1      -0.538  -1.604  -7.696  1.00  0.00    -0.266 OA
HETATM   11  C4  UNL     1       0.086   0.512  -8.675  1.00  0.00     0.106 A 
HETATM   12  C5  UNL     1       0.305   1.321  -7.650  1.00  0.00     0.047 C 
ENDROOT
BRANCH  12  13
HETATM   13  C6  UNL     1       0.205   0.875  -6.281  1.00  0.00    -0.031 A 
HETATM   14  C7  UNL     1      -0.718   1.482  -5.470  1.00  0.00     0.033 A 
HETATM   15  C8  UNL     1      -0.789   1.087  -4.149  1.00  0.00     0.046 A 
HETATM   16 BR1  UNL     1      -2.064   1.903  -2.983  1.00  0.00    -0.048 Br
HETATM   17  C9  UNL     1       0.029   0.109  -3.614  1.00  0.00     0.100 A 
HETATM   18  C10 UNL     1       0.942  -0.474  -4.464  1.00  0.00     0.046 A 
HETATM   19 BR2  UNL     1       2.111  -1.831  -3.798  1.00  0.00    -0.048 Br
HETATM   20  C11 UNL     1       1.042  -0.101  -5.802  1.00  0.00     0.033 A 
BRANCH  17  21
HETATM   21  O2  UNL     1      -0.025  -0.304  -2.295  1.00  0.00    -0.358 OA
ATOM     22  H2  UNL     1      -0.508  -1.067  -1.998  1.00  0.00     0.217 HD
ENDBRANCH  17  21
ENDBRANCH  12  13
TORSDOF 2
ENDMDL
