MODEL 5
REMARK VINA RESULT: -4.294788524     10.095     11.369
REMARK  2 active torsions:
REMARK  status: ('A' for Active; 'I' for Inactive)
REMARK    1  A    between atoms: C5_12  and  C6_13 
REMARK    2  A    between atoms: C9_17  and  O2_18 
ROOT
HETATM    1  C1  UNL     1       2.097   0.425   3.236  1.00  0.00     0.159 C 
HETATM    2  N1  UNL     1       0.794  -0.186   3.453  1.00  0.00    -0.319 N 
HETATM    3  C2  UNL     1       0.534  -1.486   3.954  1.00  0.00     0.182 A 
HETATM    4  N2  UNL     1       1.422  -2.385   4.310  1.00  0.00    -0.371 N 
ATOM      5  H21 UNL     1       1.235  -3.320   4.670  1.00  0.00     0.159 HD
ATOM      6  H22 UNL     1       2.436  -2.278   4.278  1.00  0.00     0.159 HD
HETATM    7  N3  UNL     1      -0.879  -1.635   3.997  1.00  0.00    -0.293 N 
ATOM      8  H3  UNL     1      -1.377  -2.467   4.314  1.00  0.00     0.172 HD
HETATM    9  C3  UNL     1      -1.486  -0.440   3.528  1.00  0.00     0.275 A 
HETATM   10  O1  UNL     1      -2.717  -0.257   3.441  1.00  0.00    -0.266 OA
HETATM   11  C4  UNL     1      -0.443   0.507   3.172  1.00  0.00     0.106 A 
HETATM   12  C5  UNL     1      -0.541   1.722   2.656  1.00  0.00     0.047 C 
ENDROOT
BRANCH  12  13
HETATM   13  C6  UNL     1      -1.814   2.354   2.409  1.00  0.00    -0.031 A 
HETATM   14  C7  UNL     1      -2.448   2.088   1.223  1.00  0.00     0.033 A 
HETATM   15  C8  UNL     1      -3.647   2.722   0.964  1.00  0.00     0.046 A 
HETATM   16 BR1  UNL     1      -4.567   2.379  -0.674  1.00  0.00    -0.048 Br
HETATM   17  C9  UNL     1      -4.231   3.611   1.848  1.00  0.00     0.100 A 
HETATM   18  C10 UNL     1      -3.560   3.849   3.027  1.00  0.00     0.046 A 
HETATM   19 BR2  UNL     1      -4.301   5.067   4.299  1.00  0.00    -0.048 Br
HETATM   20  C11 UNL     1      -2.349   3.228   3.322  1.00  0.00     0.033 A 
BRANCH  17  21
HETATM   21  O2  UNL     1      -5.431   4.257   1.612  1.00  0.00    -0.358 OA
ATOM     22  H2  UNL     1      -5.969   4.641   2.294  1.00  0.00     0.217 HD
ENDBRANCH  17  21
ENDBRANCH  12  13
TORSDOF 2
ENDMDL
