MODEL 8
REMARK VINA RESULT: -7.076284085      1.786      2.345
REMARK  5 active torsions:
REMARK  status: ('A' for Active; 'I' for Inactive)
REMARK    1  A    between atoms: C5_9  and  C6_10 
REMARK    2  A    between atoms: C6_10  and  C7_11 
REMARK    3  A    between atoms: C7_11  and  C8_12 
REMARK    4  A    between atoms: C8_12  and  O1_13 
REMARK    5  A    between atoms: O1_13  and  C9_14 
ROOT
HETATM    1  C6  UNL     1       0.854  -0.492  -7.521  1.00  0.00     0.044 C 
ENDROOT
BRANCH   1   2
HETATM    2  C5  UNL     1       0.506  -0.252  -8.931  1.00  0.00    -0.011 A 
HETATM    3  C2  UNL     1       0.381  -1.198  -9.922  1.00  0.00     0.030 A 
HETATM    4  C1  UNL     1       0.589  -2.657  -9.765  1.00  0.00     0.070 C 
HETATM    5  N1  UNL     1       0.043  -0.549 -11.049  1.00  0.00    -0.305 N 
HETATM    6  N2  UNL     1      -0.050   0.753 -10.822  1.00  0.00    -0.305 N 
ATOM      7  H1  UNL     1      -0.120  -0.996 -11.951  1.00  0.00     0.186 HD
HETATM    8  C3  UNL     1       0.233   0.970  -9.511  1.00  0.00     0.030 A 
ATOM      9  H2  UNL     1      -0.292   1.466 -11.510  1.00  0.00     0.186 HD
HETATM   10  C4  UNL     1       0.245   2.287  -8.822  1.00  0.00     0.070 C 
ENDBRANCH   1   2
BRANCH   1  11
HETATM   11  C7  UNL     1      -0.362  -0.863  -6.689  1.00  0.00     0.031 C 
BRANCH  11  12
HETATM   12  C8  UNL     1      -0.549   0.167  -5.594  1.00  0.00     0.176 C 
BRANCH  12  13
HETATM   13  O1  UNL     1       0.689   0.361  -4.924  1.00  0.00    -0.348 OA
BRANCH  13  14
HETATM   14  C9  UNL     1       0.979  -0.375  -3.773  1.00  0.00     0.107 A 
HETATM   15  C10 UNL     1       1.891  -1.426  -3.793  1.00  0.00     0.040 A 
HETATM   16  C11 UNL     1       2.131  -2.103  -2.639  1.00  0.00     0.003 A 
HETATM   17  C12 UNL     1       1.488  -1.765  -1.468  1.00  0.00     0.003 A 
HETATM   18  C13 UNL     1       0.599  -0.731  -1.476  1.00  0.00     0.045 A 
HETATM   19  C14 UNL     1       0.317  -0.007  -2.619  1.00  0.00     0.149 A 
HETATM   20  F1  UNL     1      -0.572   1.009  -2.566  1.00  0.00    -0.203 F 
ENDBRANCH  13  14
ENDBRANCH  12  13
ENDBRANCH  11  12
ENDBRANCH   1  11
TORSDOF 5
ENDMDL
