MODEL 19
REMARK VINA RESULT: -6.725008087      4.042      6.958
REMARK  5 active torsions:
REMARK  status: ('A' for Active; 'I' for Inactive)
REMARK    1  A    between atoms: C5_9  and  C6_10 
REMARK    2  A    between atoms: C6_10  and  C7_11 
REMARK    3  A    between atoms: C7_11  and  C8_12 
REMARK    4  A    between atoms: C8_12  and  O1_13 
REMARK    5  A    between atoms: O1_13  and  C9_14 
ROOT
HETATM    1  C6  UNL     1      -0.562   1.009  -3.388  1.00  0.00     0.044 C 
ENDROOT
BRANCH   1   2
HETATM    2  C5  UNL     1      -1.452   1.322  -2.258  1.00  0.00    -0.011 A 
HETATM    3  C2  UNL     1      -1.254   0.996  -0.937  1.00  0.00     0.030 A 
HETATM    4  C1  UNL     1      -0.099   0.245  -0.389  1.00  0.00     0.070 C 
HETATM    5  N1  UNL     1      -2.299   1.480  -0.247  1.00  0.00    -0.305 N 
HETATM    6  N2  UNL     1      -3.147   2.092  -1.061  1.00  0.00    -0.305 N 
ATOM      7  H1  UNL     1      -2.424   1.390   0.762  1.00  0.00     0.186 HD
HETATM    8  C3  UNL     1      -2.647   2.010  -2.322  1.00  0.00     0.030 A 
ATOM      9  H2  UNL     1      -4.020   2.544  -0.790  1.00  0.00     0.186 HD
HETATM   10  C4  UNL     1      -3.273   2.563  -3.552  1.00  0.00     0.070 C 
ENDBRANCH   1   2
BRANCH   1  11
HETATM   11  C7  UNL     1      -0.924  -0.308  -4.051  1.00  0.00     0.031 C 
BRANCH  11  12
HETATM   12  C8  UNL     1       0.207  -0.734  -4.964  1.00  0.00     0.176 C 
BRANCH  12  13
HETATM   13  O1  UNL     1      -0.282  -0.825  -6.295  1.00  0.00    -0.348 OA
BRANCH  13  14
HETATM   14  C9  UNL     1      -0.117   0.251  -7.170  1.00  0.00     0.107 A 
HETATM   15  C10 UNL     1       0.971   1.113  -7.064  1.00  0.00     0.040 A 
HETATM   16  C11 UNL     1       1.075   2.142  -7.947  1.00  0.00     0.003 A 
HETATM   17  C12 UNL     1       0.129   2.337  -8.929  1.00  0.00     0.003 A 
HETATM   18  C13 UNL     1      -0.927   1.478  -9.010  1.00  0.00     0.045 A 
HETATM   19  C14 UNL     1      -1.084   0.414  -8.141  1.00  0.00     0.149 A 
HETATM   20  F1  UNL     1      -2.150  -0.405  -8.272  1.00  0.00    -0.203 F 
ENDBRANCH  13  14
ENDBRANCH  12  13
ENDBRANCH  11  12
ENDBRANCH   1  11
TORSDOF 5
ENDMDL
