MODEL 6
REMARK VINA RESULT: -7.099274446      2.654      3.765
REMARK  5 active torsions:
REMARK  status: ('A' for Active; 'I' for Inactive)
REMARK    1  A    between atoms: C5_9  and  C6_10 
REMARK    2  A    between atoms: C6_10  and  C7_11 
REMARK    3  A    between atoms: C7_11  and  C8_12 
REMARK    4  A    between atoms: C8_12  and  O1_13 
REMARK    5  A    between atoms: O1_13  and  C9_14 
ROOT
HETATM    1  C6  UNL     1       0.832  -0.489  -7.548  1.00  0.00     0.044 C 
ENDROOT
BRANCH   1   2
HETATM    2  C5  UNL     1       0.483  -0.230  -8.954  1.00  0.00    -0.011 A 
HETATM    3  C2  UNL     1       0.233   0.995  -9.529  1.00  0.00     0.030 A 
HETATM    4  C1  UNL     1       0.253   2.304  -8.835  1.00  0.00     0.070 C 
HETATM    5  N1  UNL     1      -0.033   0.776 -10.828  1.00  0.00    -0.305 N 
HETATM    6  N2  UNL     1       0.033  -0.519 -11.101  1.00  0.00    -0.305 N 
ATOM      7  H1  UNL     1      -0.255   1.503 -11.507  1.00  0.00     0.186 HD
HETATM    8  C3  UNL     1       0.353  -1.173  -9.954  1.00  0.00     0.030 A 
ATOM      9  H2  UNL     1      -0.127  -0.949 -12.012  1.00  0.00     0.186 HD
HETATM   10  C4  UNL     1       0.532  -2.640  -9.800  1.00  0.00     0.070 C 
ENDBRANCH   1   2
BRANCH   1  11
HETATM   11  C7  UNL     1      -0.400  -0.691  -6.683  1.00  0.00     0.031 C 
BRANCH  11  12
HETATM   12  C8  UNL     1      -0.096  -0.240  -5.269  1.00  0.00     0.176 C 
BRANCH  12  13
HETATM   13  O1  UNL     1       1.081  -0.893  -4.818  1.00  0.00    -0.348 OA
BRANCH  13  14
HETATM   14  C9  UNL     1       1.288  -1.085  -3.450  1.00  0.00     0.107 A 
HETATM   15  C10 UNL     1       0.451  -0.507  -2.500  1.00  0.00     0.040 A 
HETATM   16  C11 UNL     1       0.704  -0.732  -1.184  1.00  0.00     0.003 A 
HETATM   17  C12 UNL     1       1.767  -1.513  -0.786  1.00  0.00     0.003 A 
HETATM   18  C13 UNL     1       2.573  -2.067  -1.737  1.00  0.00     0.045 A 
HETATM   19  C14 UNL     1       2.362  -1.874  -3.090  1.00  0.00     0.149 A 
HETATM   20  F1  UNL     1       3.192  -2.451  -3.986  1.00  0.00    -0.203 F 
ENDBRANCH  13  14
ENDBRANCH  12  13
ENDBRANCH  11  12
ENDBRANCH   1  11
TORSDOF 5
ENDMDL
