MODEL 10
REMARK VINA RESULT: -7.062297038      1.803      3.024
REMARK  5 active torsions:
REMARK  status: ('A' for Active; 'I' for Inactive)
REMARK    1  A    between atoms: C5_9  and  C6_10 
REMARK    2  A    between atoms: C6_10  and  C7_11 
REMARK    3  A    between atoms: C7_11  and  C8_12 
REMARK    4  A    between atoms: C8_12  and  O1_13 
REMARK    5  A    between atoms: O1_13  and  C9_14 
ROOT
HETATM    1  C6  UNL     1       0.849  -0.482  -7.531  1.00  0.00     0.044 C 
ENDROOT
BRANCH   1   2
HETATM    2  C5  UNL     1       0.488  -0.221  -8.934  1.00  0.00    -0.011 A 
HETATM    3  C2  UNL     1       0.220   1.003  -9.502  1.00  0.00     0.030 A 
HETATM    4  C1  UNL     1       0.229   2.309  -8.802  1.00  0.00     0.070 C 
HETATM    5  N1  UNL     1      -0.052   0.787 -10.800  1.00  0.00    -0.305 N 
HETATM    6  N2  UNL     1       0.027  -0.505 -11.080  1.00  0.00    -0.305 N 
ATOM      7  H1  UNL     1      -0.287   1.515 -11.474  1.00  0.00     0.186 HD
HETATM    8  C3  UNL     1       0.362  -1.160  -9.937  1.00  0.00     0.030 A 
ATOM      9  H2  UNL     1      -0.134  -0.933 -11.991  1.00  0.00     0.186 HD
HETATM   10  C4  UNL     1       0.559  -2.626  -9.791  1.00  0.00     0.070 C 
ENDBRANCH   1   2
BRANCH   1  11
HETATM   11  C7  UNL     1      -0.354  -0.896  -6.701  1.00  0.00     0.031 C 
BRANCH  11  12
HETATM   12  C8  UNL     1      -0.556   0.106  -5.583  1.00  0.00     0.176 C 
BRANCH  12  13
HETATM   13  O1  UNL     1       0.681   0.312  -4.916  1.00  0.00    -0.348 OA
BRANCH  13  14
HETATM   14  C9  UNL     1       0.977  -0.417  -3.761  1.00  0.00     0.107 A 
HETATM   15  C10 UNL     1       1.885  -1.472  -3.782  1.00  0.00     0.040 A 
HETATM   16  C11 UNL     1       2.132  -2.143  -2.625  1.00  0.00     0.003 A 
HETATM   17  C12 UNL     1       1.500  -1.794  -1.451  1.00  0.00     0.003 A 
HETATM   18  C13 UNL     1       0.615  -0.756  -1.459  1.00  0.00     0.045 A 
HETATM   19  C14 UNL     1       0.327  -0.039  -2.605  1.00  0.00     0.149 A 
HETATM   20  F1  UNL     1      -0.558   0.981  -2.551  1.00  0.00    -0.203 F 
ENDBRANCH  13  14
ENDBRANCH  12  13
ENDBRANCH  11  12
ENDBRANCH   1  11
TORSDOF 5
ENDMDL
