MODEL 7
REMARK VINA RESULT: -7.090241800      2.618      3.219
REMARK  5 active torsions:
REMARK  status: ('A' for Active; 'I' for Inactive)
REMARK    1  A    between atoms: C5_9  and  C6_10 
REMARK    2  A    between atoms: C6_10  and  C7_11 
REMARK    3  A    between atoms: C7_11  and  C8_12 
REMARK    4  A    between atoms: C8_12  and  O1_13 
REMARK    5  A    between atoms: O1_13  and  C9_14 
ROOT
HETATM    1  C6  UNL     1       0.789  -0.500  -7.520  1.00  0.00     0.044 C 
ENDROOT
BRANCH   1   2
HETATM    2  C5  UNL     1       0.466  -0.259  -8.935  1.00  0.00    -0.011 A 
HETATM    3  C2  UNL     1       0.341  -1.206  -9.926  1.00  0.00     0.030 A 
HETATM    4  C1  UNL     1       0.523  -2.668  -9.762  1.00  0.00     0.070 C 
HETATM    5  N1  UNL     1       0.029  -0.556 -11.059  1.00  0.00    -0.305 N 
HETATM    6  N2  UNL     1      -0.046   0.748 -10.838  1.00  0.00    -0.305 N 
ATOM      7  H1  UNL     1      -0.127  -1.003 -11.962  1.00  0.00     0.186 HD
HETATM    8  C3  UNL     1       0.221   0.965  -9.524  1.00  0.00     0.030 A 
ATOM      9  H2  UNL     1      -0.267   1.463 -11.531  1.00  0.00     0.186 HD
HETATM   10  C4  UNL     1       0.244   2.284  -8.838  1.00  0.00     0.070 C 
ENDBRANCH   1   2
BRANCH   1  11
HETATM   11  C7  UNL     1      -0.460  -0.654  -6.669  1.00  0.00     0.031 C 
BRANCH  11  12
HETATM   12  C8  UNL     1      -0.157  -0.204  -5.254  1.00  0.00     0.176 C 
BRANCH  12  13
HETATM   13  O1  UNL     1       1.023  -0.853  -4.804  1.00  0.00    -0.348 OA
BRANCH  13  14
HETATM   14  C9  UNL     1       1.228  -1.053  -3.437  1.00  0.00     0.107 A 
HETATM   15  C10 UNL     1       0.401  -0.464  -2.485  1.00  0.00     0.040 A 
HETATM   16  C11 UNL     1       0.652  -0.696  -1.169  1.00  0.00     0.003 A 
HETATM   17  C12 UNL     1       1.702  -1.496  -0.775  1.00  0.00     0.003 A 
HETATM   18  C13 UNL     1       2.498  -2.060  -1.728  1.00  0.00     0.045 A 
HETATM   19  C14 UNL     1       2.289  -1.859  -3.080  1.00  0.00     0.149 A 
HETATM   20  F1  UNL     1       3.109  -2.447  -3.978  1.00  0.00    -0.203 F 
ENDBRANCH  13  14
ENDBRANCH  12  13
ENDBRANCH  11  12
ENDBRANCH   1  11
TORSDOF 5
ENDMDL
