MODEL 20
REMARK VINA RESULT: -6.724266567      4.503      7.315
REMARK  5 active torsions:
REMARK  status: ('A' for Active; 'I' for Inactive)
REMARK    1  A    between atoms: C5_9  and  C6_10 
REMARK    2  A    between atoms: C6_10  and  C7_11 
REMARK    3  A    between atoms: C7_11  and  C8_12 
REMARK    4  A    between atoms: C8_12  and  O1_13 
REMARK    5  A    between atoms: O1_13  and  C9_14 
ROOT
HETATM    1  C6  UNL     1       0.589  -1.026  -3.335  1.00  0.00     0.044 C 
ENDROOT
BRANCH   1   2
HETATM    2  C5  UNL     1       1.477  -1.324  -2.199  1.00  0.00    -0.011 A 
HETATM    3  C2  UNL     1       1.271  -0.986  -0.882  1.00  0.00     0.030 A 
HETATM    4  C1  UNL     1       0.111  -0.236  -0.345  1.00  0.00     0.070 C 
HETATM    5  N1  UNL     1       2.317  -1.459  -0.183  1.00  0.00    -0.305 N 
HETATM    6  N2  UNL     1       3.171  -2.074  -0.989  1.00  0.00    -0.305 N 
ATOM      7  H1  UNL     1       2.437  -1.359   0.824  1.00  0.00     0.186 HD
HETATM    8  C3  UNL     1       2.675  -2.006  -2.252  1.00  0.00     0.030 A 
ATOM      9  H2  UNL     1       4.044  -2.519  -0.711  1.00  0.00     0.186 HD
HETATM   10  C4  UNL     1       3.308  -2.568  -3.475  1.00  0.00     0.070 C 
ENDBRANCH   1   2
BRANCH   1  11
HETATM   11  C7  UNL     1       1.002   0.241  -4.064  1.00  0.00     0.031 C 
BRANCH  11  12
HETATM   12  C8  UNL     1      -0.147   0.714  -4.931  1.00  0.00     0.176 C 
BRANCH  12  13
HETATM   13  O1  UNL     1       0.305   0.831  -6.273  1.00  0.00    -0.348 OA
BRANCH  13  14
HETATM   14  C9  UNL     1       0.133  -0.235  -7.160  1.00  0.00     0.107 A 
HETATM   15  C10 UNL     1      -0.960  -1.091  -7.062  1.00  0.00     0.040 A 
HETATM   16  C11 UNL     1      -1.072  -2.110  -7.955  1.00  0.00     0.003 A 
HETATM   17  C12 UNL     1      -0.128  -2.300  -8.941  1.00  0.00     0.003 A 
HETATM   18  C13 UNL     1       0.933  -1.447  -9.014  1.00  0.00     0.045 A 
HETATM   19  C14 UNL     1       1.097  -0.394  -8.133  1.00  0.00     0.149 A 
HETATM   20  F1  UNL     1       2.168   0.421  -8.256  1.00  0.00    -0.203 F 
ENDBRANCH  13  14
ENDBRANCH  12  13
ENDBRANCH  11  12
ENDBRANCH   1  11
TORSDOF 5
ENDMDL
