MODEL 18
REMARK VINA RESULT: -6.731597151      4.507      7.170
REMARK  5 active torsions:
REMARK  status: ('A' for Active; 'I' for Inactive)
REMARK    1  A    between atoms: C5_9  and  C6_10 
REMARK    2  A    between atoms: C6_10  and  C7_11 
REMARK    3  A    between atoms: C7_11  and  C8_12 
REMARK    4  A    between atoms: C8_12  and  O1_13 
REMARK    5  A    between atoms: O1_13  and  C9_14 
ROOT
HETATM    1  C6  UNL     1       0.604  -1.013  -3.337  1.00  0.00     0.044 C 
ENDROOT
BRANCH   1   2
HETATM    2  C5  UNL     1       1.490  -1.326  -2.204  1.00  0.00    -0.011 A 
HETATM    3  C2  UNL     1       2.683  -2.009  -2.253  1.00  0.00     0.030 A 
HETATM    4  C1  UNL     1       3.309  -2.582  -3.468  1.00  0.00     0.070 C 
HETATM    5  N1  UNL     1       3.164  -2.059  -1.000  1.00  0.00    -0.305 N 
HETATM    6  N2  UNL     1       2.338  -1.447  -0.163  1.00  0.00    -0.305 N 
ATOM      7  H1  UNL     1       4.040  -2.505  -0.730  1.00  0.00     0.186 HD
HETATM    8  C3  UNL     1       1.285  -0.980  -0.883  1.00  0.00     0.030 A 
ATOM      9  H2  UNL     1       2.469  -1.345   0.843  1.00  0.00     0.186 HD
HETATM   10  C4  UNL     1       0.120  -0.228  -0.348  1.00  0.00     0.070 C 
ENDBRANCH   1   2
BRANCH   1  11
HETATM   11  C7  UNL     1       0.982   0.294  -4.012  1.00  0.00     0.031 C 
BRANCH  11  12
HETATM   12  C8  UNL     1      -0.146   0.727  -4.927  1.00  0.00     0.176 C 
BRANCH  12  13
HETATM   13  O1  UNL     1       0.349   0.827  -6.254  1.00  0.00    -0.348 OA
BRANCH  13  14
HETATM   14  C9  UNL     1       0.160  -0.230  -7.148  1.00  0.00     0.107 A 
HETATM   15  C10 UNL     1      -0.935  -1.083  -7.043  1.00  0.00     0.040 A 
HETATM   16  C11 UNL     1      -1.063  -2.093  -7.944  1.00  0.00     0.003 A 
HETATM   17  C12 UNL     1      -0.133  -2.278  -8.943  1.00  0.00     0.003 A 
HETATM   18  C13 UNL     1       0.930  -1.429  -9.023  1.00  0.00     0.045 A 
HETATM   19  C14 UNL     1       1.111  -0.384  -8.136  1.00  0.00     0.149 A 
HETATM   20  F1  UNL     1       2.183   0.427  -8.266  1.00  0.00    -0.203 F 
ENDBRANCH  13  14
ENDBRANCH  12  13
ENDBRANCH  11  12
ENDBRANCH   1  11
TORSDOF 5
ENDMDL
