MODEL 2
REMARK VINA RESULT: -7.706372327      1.105      1.497
REMARK  8 active torsions:
REMARK  status: ('A' for Active; 'I' for Inactive)
REMARK    1  A    between atoms: O1_2  and  C2_3 
REMARK    2  A    between atoms: C2_3  and  C3_5 
REMARK    3  A    between atoms: C4_6  and  C5_7 
REMARK       I    between atoms: C5_7  and  N1_9 
REMARK    4  A    between atoms: N1_9  and  C6_11 
REMARK    5  A    between atoms: C6_11  and  C7_12 
REMARK    6  A    between atoms: C6_11  and  C14_22 
REMARK    7  A    between atoms: C7_12  and  C8_13 
REMARK    8  A    between atoms: C11_16  and  O4_17 
ROOT
HETATM    1  C6  UNL     1      15.752   2.576  16.367  1.00  0.00     0.190 C 
ENDROOT
BRANCH   1   2
HETATM    2  N1  UNL     1      15.934   2.191  14.985  1.00  0.00    -0.343 N 
HETATM    3  C5  UNL     1      16.836   1.147  14.650  1.00  0.00     0.242 C 
HETATM    4  O3  UNL     1      17.451   0.586  15.569  1.00  0.00    -0.269 OA
ATOM      5  H1  UNL     1      15.413   2.671  14.251  1.00  0.00     0.163 HD
BRANCH   3   6
HETATM    6  C4  UNL     1      17.039   0.736  13.245  1.00  0.00     0.080 C 
HETATM    7  C3  UNL     1      17.007   1.627  12.297  1.00  0.00     0.087 C 
BRANCH   7   8
HETATM    8  C2  UNL     1      17.210   1.211  10.902  1.00  0.00     0.282 C 
HETATM    9  O2  UNL     1      16.213   0.932  10.171  1.00  0.00    -0.260 OA
BRANCH   8  10
HETATM   10  O1  UNL     1      18.468   1.110  10.339  1.00  0.00    -0.323 OA
HETATM   11  C1  UNL     1      19.499   1.984  10.764  1.00  0.00     0.213 C 
ENDBRANCH   8  10
ENDBRANCH   7   8
ENDBRANCH   3   6
ENDBRANCH   1   2
BRANCH   1  12
HETATM   12  C7  UNL     1      15.427   4.051  16.372  1.00  0.00     0.074 C 
BRANCH  12  13
HETATM   13  C8  UNL     1      16.229   4.833  15.423  1.00  0.00    -0.054 A 
HETATM   14  C9  UNL     1      17.616   4.845  15.469  1.00  0.00     0.010 A 
HETATM   15  C10 UNL     1      18.386   5.570  14.585  1.00  0.00     0.039 A 
HETATM   16  C11 UNL     1      17.749   6.321  13.608  1.00  0.00     0.087 A 
HETATM   17  C12 UNL     1      16.372   6.322  13.545  1.00  0.00     0.067 A 
HETATM   18 CL1  UNL     1      15.586   7.282  12.296  1.00  0.00    -0.081 Cl
HETATM   19  C13 UNL     1      15.624   5.593  14.435  1.00  0.00     0.033 A 
BRANCH  16  20
HETATM   20  O4  UNL     1      18.538   7.060  12.707  1.00  0.00    -0.359 OA
ATOM     21  H4  UNL     1      18.298   7.061  11.788  1.00  0.00     0.217 HD
ENDBRANCH  16  20
ENDBRANCH  12  13
ENDBRANCH   1  12
BRANCH   1  22
HETATM   22  C14 UNL     1      14.698   1.732  16.946  1.00  0.00     0.197 C 
HETATM   23  O5  UNL     1      13.497   2.095  16.918  1.00  0.00    -0.646 OA
HETATM   24  O6  UNL     1      14.949   0.500  17.551  1.00  0.00    -0.646 OA
ENDBRANCH   1  22
TORSDOF 8
ENDMDL
