MODEL 1
REMARK VINA RESULT: -7.780311012      0.000      0.000
REMARK  8 active torsions:
REMARK  status: ('A' for Active; 'I' for Inactive)
REMARK    1  A    between atoms: O1_2  and  C2_3 
REMARK    2  A    between atoms: C2_3  and  C3_5 
REMARK    3  A    between atoms: C4_6  and  C5_7 
REMARK       I    between atoms: C5_7  and  N1_9 
REMARK    4  A    between atoms: N1_9  and  C6_11 
REMARK    5  A    between atoms: C6_11  and  C7_12 
REMARK    6  A    between atoms: C6_11  and  C14_22 
REMARK    7  A    between atoms: C7_12  and  C8_13 
REMARK    8  A    between atoms: C11_16  and  O4_17 
ROOT
HETATM    1  C6  UNL     1      15.711   2.483  16.531  1.00  0.00     0.190 C 
ENDROOT
BRANCH   1   2
HETATM    2  N1  UNL     1      15.880   2.151  15.134  1.00  0.00    -0.343 N 
HETATM    3  C5  UNL     1      16.810   1.148  14.749  1.00  0.00     0.242 C 
HETATM    4  O3  UNL     1      17.459   0.579  15.638  1.00  0.00    -0.269 OA
ATOM      5  H1  UNL     1      15.331   2.636  14.425  1.00  0.00     0.163 HD
BRANCH   3   6
HETATM    6  C4  UNL     1      17.001   0.791  13.328  1.00  0.00     0.080 C 
HETATM    7  C3  UNL     1      16.988   1.720  12.417  1.00  0.00     0.087 C 
BRANCH   7   8
HETATM    8  C2  UNL     1      17.178   1.357  11.006  1.00  0.00     0.282 C 
HETATM    9  O2  UNL     1      16.174   1.146  10.263  1.00  0.00    -0.260 OA
BRANCH   8  10
HETATM   10  O1  UNL     1      18.432   1.235  10.439  1.00  0.00    -0.323 OA
HETATM   11  C1  UNL     1      19.497   2.043  10.910  1.00  0.00     0.213 C 
ENDBRANCH   8  10
ENDBRANCH   7   8
ENDBRANCH   3   6
ENDBRANCH   1   2
BRANCH   1  12
HETATM   12  C7  UNL     1      15.247   3.920  16.586  1.00  0.00     0.074 C 
BRANCH  12  13
HETATM   13  C8  UNL     1      15.905   4.787  15.602  1.00  0.00    -0.054 A 
HETATM   14  C9  UNL     1      15.182   5.586  14.726  1.00  0.00     0.010 A 
HETATM   15  C10 UNL     1      15.782   6.408  13.797  1.00  0.00     0.039 A 
HETATM   16  C11 UNL     1      17.167   6.441  13.733  1.00  0.00     0.087 A 
HETATM   17  C12 UNL     1      17.903   5.656  14.594  1.00  0.00     0.067 A 
HETATM   18 CL1  UNL     1      19.660   5.715  14.495  1.00  0.00    -0.081 Cl
HETATM   19  C13 UNL     1      17.287   4.844  15.512  1.00  0.00     0.033 A 
BRANCH  16  20
HETATM   20  O4  UNL     1      17.777   7.282  12.783  1.00  0.00    -0.359 OA
ATOM     21  H4  UNL     1      18.032   8.157  13.049  1.00  0.00     0.217 HD
ENDBRANCH  16  20
ENDBRANCH  12  13
ENDBRANCH   1  12
BRANCH   1  22
HETATM   22  C14 UNL     1      14.763   1.529  17.121  1.00  0.00     0.197 C 
HETATM   23  O5  UNL     1      13.528   1.656  16.942  1.00  0.00    -0.646 OA
HETATM   24  O6  UNL     1      15.157   0.441  17.902  1.00  0.00    -0.646 OA
ENDBRANCH   1  22
TORSDOF 8
ENDMDL
