MODEL 3
REMARK VINA RESULT: -7.275640251      2.380      5.794
REMARK  8 active torsions:
REMARK  status: ('A' for Active; 'I' for Inactive)
REMARK    1  A    between atoms: O1_2  and  C2_3 
REMARK    2  A    between atoms: C2_3  and  C3_5 
REMARK    3  A    between atoms: C4_6  and  C5_7 
REMARK       I    between atoms: C5_7  and  N1_9 
REMARK    4  A    between atoms: N1_9  and  C6_11 
REMARK    5  A    between atoms: C6_11  and  C7_12 
REMARK    6  A    between atoms: C6_11  and  C14_22 
REMARK    7  A    between atoms: C7_12  and  C8_13 
REMARK    8  A    between atoms: C11_16  and  O4_17 
ROOT
HETATM    1  C6  UNL     1      17.910   1.854  11.295  1.00  0.00     0.190 C 
ENDROOT
BRANCH   1   2
HETATM    2  N1  UNL     1      17.465   1.769  12.667  1.00  0.00    -0.343 N 
HETATM    3  C5  UNL     1      16.730   2.838  13.245  1.00  0.00     0.242 C 
HETATM    4  O3  UNL     1      16.488   3.830  12.541  1.00  0.00    -0.269 OA
ATOM      5  H1  UNL     1      17.679   0.939  13.221  1.00  0.00     0.163 HD
BRANCH   3   6
HETATM    6  C4  UNL     1      16.265   2.775  14.646  1.00  0.00     0.080 C 
HETATM    7  C3  UNL     1      16.316   1.649  15.297  1.00  0.00     0.087 C 
BRANCH   7   8
HETATM    8  C2  UNL     1      15.853   1.594  16.690  1.00  0.00     0.282 C 
HETATM    9  O2  UNL     1      15.271   0.555  17.125  1.00  0.00    -0.260 OA
BRANCH   8  10
HETATM   10  O1  UNL     1      16.027   2.647  17.567  1.00  0.00    -0.323 OA
HETATM   11  C1  UNL     1      14.939   3.084  18.364  1.00  0.00     0.213 C 
ENDBRANCH   8  10
ENDBRANCH   7   8
ENDBRANCH   3   6
ENDBRANCH   1   2
BRANCH   1  12
HETATM   12  C7  UNL     1      19.412   2.010  11.329  1.00  0.00     0.074 C 
BRANCH  12  13
HETATM   13  C8  UNL     1      19.867   3.372  11.023  1.00  0.00    -0.054 A 
HETATM   14  C9  UNL     1      20.190   3.767   9.731  1.00  0.00     0.010 A 
HETATM   15  C10 UNL     1      20.616   5.041   9.425  1.00  0.00     0.039 A 
HETATM   16  C11 UNL     1      20.727   5.970  10.448  1.00  0.00     0.087 A 
HETATM   17  C12 UNL     1      20.411   5.599  11.737  1.00  0.00     0.067 A 
HETATM   18 CL1  UNL     1      20.560   6.795  13.020  1.00  0.00    -0.081 Cl
HETATM   19  C13 UNL     1      19.988   4.325  12.022  1.00  0.00     0.033 A 
BRANCH  16  20
HETATM   20  O4  UNL     1      21.163   7.271  10.131  1.00  0.00    -0.359 OA
ATOM     21  H4  UNL     1      21.093   7.946  10.794  1.00  0.00     0.217 HD
ENDBRANCH  16  20
ENDBRANCH  12  13
ENDBRANCH   1  12
BRANCH   1  22
HETATM   22  C14 UNL     1      17.454   0.650  10.586  1.00  0.00     0.197 C 
HETATM   23  O5  UNL     1      16.639   0.733   9.637  1.00  0.00    -0.646 OA
HETATM   24  O6  UNL     1      17.884  -0.638  10.910  1.00  0.00    -0.646 OA
ENDBRANCH   1  22
TORSDOF 8
ENDMDL
