MODEL 3
REMARK VINA RESULT: -5.624394753      0.028      1.370
REMARK  3 active torsions:
REMARK  status: ('A' for Active; 'I' for Inactive)
REMARK    1  A    between atoms: N1_2  and  C2_3 
REMARK    2  A    between atoms: N1_2  and  C9_10 
REMARK    3  A    between atoms: C2_3  and  C3_4 
ROOT
HETATM    1  C3  UNL     1      -5.114   2.431  15.834  1.00  0.00    -0.040 A 
HETATM    2  C4  UNL     1      -4.865   1.271  16.536  1.00  0.00     0.009 A 
HETATM    3  C5  UNL     1      -5.847   0.715  17.327  1.00  0.00     0.001 A 
HETATM    4  C6  UNL     1      -7.089   1.296  17.437  1.00  0.00     0.000 A 
HETATM    5  C7  UNL     1      -7.347   2.464  16.733  1.00  0.00     0.001 A 
HETATM    6  C8  UNL     1      -6.361   3.007  15.950  1.00  0.00     0.009 A 
ENDROOT
BRANCH   1   7
HETATM    7  C2  UNL     1      -4.046   3.021  14.984  1.00  0.00     0.162 C 
BRANCH   7   8
HETATM    8  N1  UNL     1      -4.229   2.770  13.588  1.00  0.00    -0.366 N 
HETATM    9  C1  UNL     1      -4.324   1.442  13.012  1.00  0.00     0.151 C 
BRANCH   8  10
HETATM   10  C9  UNL     1      -4.327   3.865  12.679  1.00  0.00     0.147 C 
HETATM   11  S1  UNL     1      -4.834   5.352  13.128  1.00  0.00    -0.052 SA
HETATM   12  S2  UNL     1      -3.890   3.680  10.951  1.00  0.00    -0.020 SA
ENDBRANCH   8  10
ENDBRANCH   7   8
ENDBRANCH   1   7
TORSDOF 3
ENDMDL
