MODEL 1
REMARK VINA RESULT: -5.647311819      0.000      0.000
REMARK  3 active torsions:
REMARK  status: ('A' for Active; 'I' for Inactive)
REMARK    1  A    between atoms: N1_2  and  C2_3 
REMARK    2  A    between atoms: N1_2  and  C9_10 
REMARK    3  A    between atoms: C2_3  and  C3_4 
ROOT
HETATM    1  C3  UNL     1      -5.102   2.425  15.832  1.00  0.00    -0.040 A 
HETATM    2  C4  UNL     1      -6.337   3.032  15.929  1.00  0.00     0.009 A 
HETATM    3  C5  UNL     1      -7.321   2.477  16.718  1.00  0.00     0.001 A 
HETATM    4  C6  UNL     1      -7.101   1.317  17.423  1.00  0.00     0.000 A 
HETATM    5  C7  UNL     1      -5.861   0.701  17.332  1.00  0.00     0.001 A 
HETATM    6  C8  UNL     1      -4.890   1.264  16.542  1.00  0.00     0.009 A 
ENDROOT
BRANCH   1   7
HETATM    7  C2  UNL     1      -4.048   3.033  14.977  1.00  0.00     0.162 C 
BRANCH   7   8
HETATM    8  N1  UNL     1      -4.236   2.786  13.581  1.00  0.00    -0.366 N 
HETATM    9  C1  UNL     1      -4.329   1.459  13.001  1.00  0.00     0.151 C 
BRANCH   8  10
HETATM   10  C9  UNL     1      -4.343   3.883  12.677  1.00  0.00     0.147 C 
HETATM   11  S1  UNL     1      -4.878   5.360  13.127  1.00  0.00    -0.052 SA
HETATM   12  S2  UNL     1      -3.888   3.713  10.952  1.00  0.00    -0.020 SA
ENDBRANCH   8  10
ENDBRANCH   7   8
ENDBRANCH   1   7
TORSDOF 3
ENDMDL
