MODEL 2
REMARK VINA RESULT: -5.638106640      0.084      1.186
REMARK  3 active torsions:
REMARK  status: ('A' for Active; 'I' for Inactive)
REMARK    1  A    between atoms: N1_2  and  C2_3 
REMARK    2  A    between atoms: N1_2  and  C9_10 
REMARK    3  A    between atoms: C2_3  and  C3_4 
ROOT
HETATM    1  C3  UNL     1      -5.101   2.414  15.787  1.00  0.00    -0.040 A 
HETATM    2  C4  UNL     1      -6.328   3.033  15.895  1.00  0.00     0.009 A 
HETATM    3  C5  UNL     1      -7.306   2.496  16.704  1.00  0.00     0.001 A 
HETATM    4  C6  UNL     1      -7.088   1.342  17.418  1.00  0.00     0.000 A 
HETATM    5  C7  UNL     1      -5.855   0.713  17.316  1.00  0.00     0.001 A 
HETATM    6  C8  UNL     1      -4.890   1.258  16.507  1.00  0.00     0.009 A 
ENDROOT
BRANCH   1   7
HETATM    7  C2  UNL     1      -4.053   3.003  14.911  1.00  0.00     0.162 C 
BRANCH   7   8
HETATM    8  N1  UNL     1      -4.239   2.705  13.525  1.00  0.00    -0.366 N 
HETATM    9  C1  UNL     1      -4.332   1.358  12.994  1.00  0.00     0.151 C 
BRANCH   8  10
HETATM   10  C9  UNL     1      -4.342   3.768  12.580  1.00  0.00     0.147 C 
HETATM   11  S1  UNL     1      -3.980   3.590  10.997  1.00  0.00    -0.052 SA
HETATM   12  S2  UNL     1      -4.886   5.402  13.075  1.00  0.00    -0.020 SA
ENDBRANCH   8  10
ENDBRANCH   7   8
ENDBRANCH   1   7
TORSDOF 3
ENDMDL
