MODEL 3
REMARK VINA RESULT: -7.325469974      1.768      2.494
REMARK  2 active torsions:
REMARK  status: ('A' for Active; 'I' for Inactive)
REMARK    1  A    between atoms: C2_3  and  C3_4 
REMARK    2  A    between atoms: N2_12  and  C11_13 
ROOT
HETATM    1  N1  UNL     1      -6.625   5.250  13.493  1.00  0.00    -0.196 NA
HETATM    2  C1  UNL     1      -5.921   4.414  13.850  1.00  0.00     0.074 C 
HETATM    3  C2  UNL     1      -5.008   3.353  14.301  1.00  0.00     0.079 C 
HETATM    4  C9  UNL     1      -3.709   3.987  14.747  1.00  0.00     0.049 C 
HETATM    5  C10 UNL     1      -2.957   4.626  13.651  1.00  0.00     0.126 C 
HETATM    6  N2  UNL     1      -3.112   4.067  12.335  1.00  0.00    -0.366 N 
HETATM    7  C12 UNL     1      -4.241   3.227  11.986  1.00  0.00     0.126 C 
HETATM    8  C13 UNL     1      -4.707   2.416  13.175  1.00  0.00     0.049 C 
ENDROOT
BRANCH   3   9
HETATM    9  C3  UNL     1      -5.554   2.594  15.456  1.00  0.00    -0.035 A 
HETATM   10  C4  UNL     1      -4.875   1.521  15.997  1.00  0.00     0.009 A 
HETATM   11  C5  UNL     1      -5.375   0.814  17.046  1.00  0.00     0.001 A 
HETATM   12  C6  UNL     1      -6.599   1.168  17.607  1.00  0.00     0.000 A 
HETATM   13  C7  UNL     1      -7.309   2.233  17.097  1.00  0.00     0.001 A 
HETATM   14  C8  UNL     1      -6.770   2.921  16.035  1.00  0.00     0.009 A 
ENDBRANCH   3   9
BRANCH   6  15
HETATM   15  C11 UNL     1      -2.171   4.335  11.310  1.00  0.00     0.147 C 
HETATM   16  S1  UNL     1      -2.792   4.759   9.851  1.00  0.00    -0.052 SA
HETATM   17  S2  UNL     1      -0.410   4.275  11.483  1.00  0.00    -0.020 SA
ENDBRANCH   6  15
TORSDOF 2
ENDMDL
