MODEL 15
REMARK VINA RESULT: -6.384141677      3.147      6.065
REMARK  2 active torsions:
REMARK  status: ('A' for Active; 'I' for Inactive)
REMARK    1  A    between atoms: C2_3  and  C3_4 
REMARK    2  A    between atoms: N2_12  and  C11_13 
ROOT
HETATM    1  N1  UNL     1      -4.889   5.001  11.588  1.00  0.00    -0.196 NA
HETATM    2  C1  UNL     1      -4.449   5.308  12.604  1.00  0.00     0.074 C 
HETATM    3  C2  UNL     1      -3.886   5.685  13.910  1.00  0.00     0.079 C 
HETATM    4  C9  UNL     1      -2.894   4.624  14.335  1.00  0.00     0.049 C 
HETATM    5  C10 UNL     1      -3.512   3.314  14.608  1.00  0.00     0.126 C 
HETATM    6  N2  UNL     1      -4.869   3.314  15.085  1.00  0.00    -0.366 N 
HETATM    7  C12 UNL     1      -5.745   4.455  14.906  1.00  0.00     0.126 C 
HETATM    8  C13 UNL     1      -4.968   5.752  14.940  1.00  0.00     0.049 C 
ENDROOT
BRANCH   3   9
HETATM    9  C3  UNL     1      -3.160   6.980  13.856  1.00  0.00    -0.035 A 
HETATM   10  C4  UNL     1      -2.895   7.607  12.656  1.00  0.00     0.009 A 
HETATM   11  C5  UNL     1      -2.220   8.787  12.600  1.00  0.00     0.001 A 
HETATM   12  C6  UNL     1      -1.779   9.397  13.770  1.00  0.00     0.000 A 
HETATM   13  C7  UNL     1      -2.023   8.804  14.990  1.00  0.00     0.001 A 
HETATM   14  C8  UNL     1      -2.708   7.611  15.005  1.00  0.00     0.009 A 
ENDBRANCH   3   9
BRANCH   6  15
HETATM   15  C11 UNL     1      -5.417   2.180  15.735  1.00  0.00     0.147 C 
HETATM   16  S1  UNL     1      -4.540   0.796  15.638  1.00  0.00    -0.052 SA
HETATM   17  S2  UNL     1      -6.933   2.145  16.647  1.00  0.00    -0.020 SA
ENDBRANCH   6  15
TORSDOF 2
ENDMDL
