MODEL 16
REMARK VINA RESULT: -6.373944769      3.146      6.082
REMARK  2 active torsions:
REMARK  status: ('A' for Active; 'I' for Inactive)
REMARK    1  A    between atoms: C2_3  and  C3_4 
REMARK    2  A    between atoms: N2_12  and  C11_13 
ROOT
HETATM    1  N1  UNL     1      -4.944   4.995  11.594  1.00  0.00    -0.196 NA
HETATM    2  C1  UNL     1      -4.488   5.298  12.605  1.00  0.00     0.074 C 
HETATM    3  C2  UNL     1      -3.904   5.671  13.902  1.00  0.00     0.079 C 
HETATM    4  C9  UNL     1      -2.915   4.603  14.314  1.00  0.00     0.049 C 
HETATM    5  C10 UNL     1      -3.539   3.297  14.596  1.00  0.00     0.126 C 
HETATM    6  N2  UNL     1      -4.888   3.306  15.091  1.00  0.00    -0.366 N 
HETATM    7  C12 UNL     1      -5.758   4.454  14.924  1.00  0.00     0.126 C 
HETATM    8  C13 UNL     1      -4.972   5.745  14.948  1.00  0.00     0.049 C 
ENDROOT
BRANCH   3   9
HETATM    9  C3  UNL     1      -3.169   6.960  13.839  1.00  0.00    -0.035 A 
HETATM   10  C4  UNL     1      -2.712   7.584  14.982  1.00  0.00     0.009 A 
HETATM   11  C5  UNL     1      -2.049   8.771  14.933  1.00  0.00     0.001 A 
HETATM   12  C6  UNL     1      -1.811   9.388  13.708  1.00  0.00     0.000 A 
HETATM   13  C7  UNL     1      -2.251   8.799  12.543  1.00  0.00     0.001 A 
HETATM   14  C8  UNL     1      -2.918   7.599  12.635  1.00  0.00     0.009 A 
ENDBRANCH   3   9
BRANCH   6  15
HETATM   15  C11 UNL     1      -5.436   2.176  15.748  1.00  0.00     0.147 C 
HETATM   16  S1  UNL     1      -4.555   0.795  15.665  1.00  0.00    -0.052 SA
HETATM   17  S2  UNL     1      -6.955   2.145  16.656  1.00  0.00    -0.020 SA
ENDBRANCH   6  15
TORSDOF 2
ENDMDL
