MODEL 2
REMARK VINA RESULT: -7.328890841      1.754      2.196
REMARK  2 active torsions:
REMARK  status: ('A' for Active; 'I' for Inactive)
REMARK    1  A    between atoms: C2_3  and  C3_4 
REMARK    2  A    between atoms: N2_12  and  C11_13 
ROOT
HETATM    1  N1  UNL     1      -6.672   5.294  13.530  1.00  0.00    -0.196 NA
HETATM    2  C1  UNL     1      -5.969   4.453  13.877  1.00  0.00     0.074 C 
HETATM    3  C2  UNL     1      -5.056   3.386  14.314  1.00  0.00     0.079 C 
HETATM    4  C9  UNL     1      -3.754   4.013  14.761  1.00  0.00     0.049 C 
HETATM    5  C10 UNL     1      -3.005   4.660  13.668  1.00  0.00     0.126 C 
HETATM    6  N2  UNL     1      -3.166   4.114  12.348  1.00  0.00    -0.366 N 
HETATM    7  C12 UNL     1      -4.298   3.280  11.996  1.00  0.00     0.126 C 
HETATM    8  C13 UNL     1      -4.762   2.459  13.178  1.00  0.00     0.049 C 
ENDROOT
BRANCH   3   9
HETATM    9  C3  UNL     1      -5.599   2.618  15.464  1.00  0.00    -0.035 A 
HETATM   10  C4  UNL     1      -6.808   2.949  16.044  1.00  0.00     0.009 A 
HETATM   11  C5  UNL     1      -7.304   2.257  17.105  1.00  0.00     0.001 A 
HETATM   12  C6  UNL     1      -6.595   1.182  17.633  1.00  0.00     0.000 A 
HETATM   13  C7  UNL     1      -5.384   0.819  17.084  1.00  0.00     0.001 A 
HETATM   14  C8  UNL     1      -4.916   1.543  16.012  1.00  0.00     0.009 A 
ENDBRANCH   3   9
BRANCH   6  15
HETATM   15  C11 UNL     1      -2.228   4.389  11.321  1.00  0.00     0.147 C 
HETATM   16  S1  UNL     1      -2.852   4.865   9.881  1.00  0.00    -0.052 SA
HETATM   17  S2  UNL     1      -0.468   4.287  11.476  1.00  0.00    -0.020 SA
ENDBRANCH   6  15
TORSDOF 2
ENDMDL
