MODEL 1
REMARK VINA RESULT: -7.342664799      0.000      0.000
REMARK  2 active torsions:
REMARK  status: ('A' for Active; 'I' for Inactive)
REMARK    1  A    between atoms: C2_3  and  C3_4 
REMARK    2  A    between atoms: N2_12  and  C11_13 
ROOT
HETATM    1  N1  UNL     1      -5.343   2.719  12.144  1.00  0.00    -0.196 NA
HETATM    2  C1  UNL     1      -5.133   3.069  13.218  1.00  0.00     0.074 C 
HETATM    3  C2  UNL     1      -4.859   3.531  14.587  1.00  0.00     0.079 C 
HETATM    4  C9  UNL     1      -5.365   4.950  14.731  1.00  0.00     0.049 C 
HETATM    5  C10 UNL     1      -4.634   5.925  13.901  1.00  0.00     0.126 C 
HETATM    6  N2  UNL     1      -3.253   5.641  13.617  1.00  0.00    -0.366 N 
HETATM    7  C12 UNL     1      -2.703   4.306  13.742  1.00  0.00     0.126 C 
HETATM    8  C13 UNL     1      -3.386   3.534  14.849  1.00  0.00     0.049 C 
ENDROOT
BRANCH   3   9
HETATM    9  C3  UNL     1      -5.551   2.705  15.609  1.00  0.00    -0.035 A 
HETATM   10  C4  UNL     1      -6.836   2.994  16.019  1.00  0.00     0.009 A 
HETATM   11  C5  UNL     1      -7.471   2.248  16.963  1.00  0.00     0.001 A 
HETATM   12  C6  UNL     1      -6.828   1.158  17.542  1.00  0.00     0.000 A 
HETATM   13  C7  UNL     1      -5.543   0.835  17.162  1.00  0.00     0.001 A 
HETATM   14  C8  UNL     1      -4.936   1.613  16.204  1.00  0.00     0.009 A 
ENDBRANCH   3   9
BRANCH   6  15
HETATM   15  C11 UNL     1      -2.371   6.660  13.179  1.00  0.00     0.147 C 
HETATM   16  S1  UNL     1      -2.132   7.907  14.218  1.00  0.00    -0.052 SA
HETATM   17  S2  UNL     1      -1.504   6.681  11.636  1.00  0.00    -0.020 SA
ENDBRANCH   6  15
TORSDOF 2
ENDMDL
