MODEL 5
REMARK VINA RESULT: -8.024949322      3.238      7.501
REMARK  4 active torsions:
REMARK  status: ('A' for Active; 'I' for Inactive)
REMARK    1  A    between atoms: C2_2  and  N1_3 
REMARK       I    between atoms: N1_3  and  C3_5 
REMARK    2  A    between atoms: C3_5  and  C4_7 
REMARK    3  A    between atoms: C4_7  and  C5_8 
REMARK    4  A    between atoms: C15_21  and  O2_22 
ROOT
HETATM    1  C5  UNL     1      28.030  50.419  -2.265  1.00  0.00     0.160 C 
HETATM    2  N2  UNL     1      26.765  51.032  -2.691  1.00  0.00    -0.376 N 
ATOM      3  H2  UNL     1      26.819  51.571  -3.556  1.00  0.00     0.160 HD
HETATM    4  C6  UNL     1      25.583  50.999  -2.140  1.00  0.00     0.051 C 
HETATM    5  C7  UNL     1      24.528  51.713  -2.797  1.00  0.00    -0.009 A 
HETATM    6  C8  UNL     1      23.271  51.946  -2.377  1.00  0.00     0.015 A 
HETATM    7  C9  UNL     1      22.340  52.570  -3.155  1.00  0.00     0.024 A 
HETATM    8  C10 UNL     1      22.631  53.007  -4.434  1.00  0.00     0.034 A 
HETATM    9 CL1  UNL     1      21.466  53.804  -5.449  1.00  0.00    -0.084 Cl
HETATM   10  C11 UNL     1      23.915  52.777  -4.876  1.00  0.00     0.024 A 
HETATM   11  C12 UNL     1      24.836  52.157  -4.104  1.00  0.00     0.015 A 
HETATM   12  C13 UNL     1      25.327  50.195  -0.957  1.00  0.00     0.021 A 
HETATM   13  C14 UNL     1      24.101  49.604  -1.005  1.00  0.00     0.052 A 
HETATM   14  C15 UNL     1      23.744  48.808   0.063  1.00  0.00     0.069 A 
HETATM   15  C17 UNL     1      24.598  48.605   1.152  1.00  0.00     0.039 A 
HETATM   16  C18 UNL     1      25.861  49.200   1.210  1.00  0.00     0.034 A 
HETATM   17  C19 UNL     1      26.183  49.984   0.141  1.00  0.00     0.055 A 
HETATM   18  N3  UNL     1      27.496  50.533   0.244  1.00  0.00    -0.286 N 
HETATM   19  C20 UNL     1      28.039  50.908   1.395  1.00  0.00     0.100 A 
HETATM   20  C21 UNL     1      27.400  50.922   2.712  1.00  0.00     0.091 C 
HETATM   21  N4  UNL     1      29.287  51.336   1.036  1.00  0.00    -0.287 N 
ATOM     22  H4  UNL     1      29.991  51.697   1.681  1.00  0.00     0.188 HD
HETATM   23  N5  UNL     1      29.448  51.210  -0.294  1.00  0.00    -0.285 N 
ATOM     24  H5  UNL     1      30.287  51.458  -0.819  1.00  0.00     0.188 HD
HETATM   25  C22 UNL     1      28.324  50.704  -0.814  1.00  0.00     0.128 A 
ENDROOT
BRANCH   1  26
HETATM   26  C4  UNL     1      29.118  51.007  -3.097  1.00  0.00     0.135 C 
BRANCH  26  27
HETATM   27  C3  UNL     1      28.652  51.183  -4.493  1.00  0.00     0.219 C 
HETATM   28  N1  UNL     1      28.575  50.046  -5.344  1.00  0.00    -0.361 N 
ATOM     29  H1  UNL     1      28.842  49.131  -4.981  1.00  0.00     0.162 HD
HETATM   30  O1  UNL     1      28.330  52.333  -4.908  1.00  0.00    -0.274 OA
BRANCH  28  31
HETATM   31  C2  UNL     1      28.130  50.163  -6.699  1.00  0.00     0.118 C 
HETATM   32  C1  UNL     1      26.655  49.837  -6.780  1.00  0.00     0.026 C 
ENDBRANCH  28  31
ENDBRANCH  26  27
ENDBRANCH   1  26
BRANCH  14  33
HETATM   33  O2  UNL     1      22.508  48.213   0.027  1.00  0.00    -0.356 OA
HETATM   34  C16 UNL     1      21.881  47.683   1.176  1.00  0.00     0.210 C 
ENDBRANCH  14  33
TORSDOF 4
ENDMDL
