MODEL 4
REMARK VINA RESULT: -8.353345293      2.839      6.110
REMARK  4 active torsions:
REMARK  status: ('A' for Active; 'I' for Inactive)
REMARK    1  A    between atoms: C2_2  and  N1_3 
REMARK       I    between atoms: N1_3  and  C3_5 
REMARK    2  A    between atoms: C3_5  and  C4_7 
REMARK    3  A    between atoms: C4_7  and  C5_8 
REMARK    4  A    between atoms: C15_21  and  O2_22 
ROOT
HETATM    1  C5  UNL     1      24.118  51.269  -1.637  1.00  0.00     0.160 C 
HETATM    2  N2  UNL     1      25.211  50.959  -2.568  1.00  0.00    -0.376 N 
ATOM      3  H2  UNL     1      24.961  51.011  -3.556  1.00  0.00     0.160 HD
HETATM    4  C6  UNL     1      26.451  50.629  -2.335  1.00  0.00     0.051 C 
HETATM    5  C7  UNL     1      27.291  50.376  -3.469  1.00  0.00    -0.009 A 
HETATM    6  C8  UNL     1      28.549  49.897  -3.504  1.00  0.00     0.015 A 
HETATM    7  C9  UNL     1      29.263  49.792  -4.661  1.00  0.00     0.024 A 
HETATM    8  C10 UNL     1      28.737  50.172  -5.882  1.00  0.00     0.034 A 
HETATM    9 CL1  UNL     1      29.623  50.051  -7.372  1.00  0.00    -0.084 Cl
HETATM   10  C11 UNL     1      27.450  50.662  -5.861  1.00  0.00     0.024 A 
HETATM   11  C12 UNL     1      26.744  50.767  -4.713  1.00  0.00     0.015 A 
HETATM   12  C13 UNL     1      26.982  50.606  -0.983  1.00  0.00     0.021 A 
HETATM   13  C14 UNL     1      28.261  51.072  -0.936  1.00  0.00     0.052 A 
HETATM   14  C15 UNL     1      28.873  51.104   0.300  1.00  0.00     0.069 A 
HETATM   15  C17 UNL     1      28.218  50.684   1.462  1.00  0.00     0.039 A 
HETATM   16  C18 UNL     1      26.903  50.210   1.427  1.00  0.00     0.034 A 
HETATM   17  C19 UNL     1      26.327  50.187   0.191  1.00  0.00     0.055 A 
HETATM   18  N3  UNL     1      24.976  49.728   0.228  1.00  0.00    -0.286 N 
HETATM   19  C20 UNL     1      24.552  48.785   1.060  1.00  0.00     0.100 A 
HETATM   20  C21 UNL     1      25.360  47.999   1.995  1.00  0.00     0.091 C 
HETATM   21  N4  UNL     1      23.218  48.685   0.777  1.00  0.00    -0.287 N 
ATOM     22  H4  UNL     1      22.566  48.048   1.238  1.00  0.00     0.188 HD
HETATM   23  N5  UNL     1      22.892  49.552  -0.199  1.00  0.00    -0.285 N 
ATOM     24  H5  UNL     1      21.961  49.678  -0.597  1.00  0.00     0.188 HD
HETATM   25  C22 UNL     1      23.993  50.220  -0.561  1.00  0.00     0.128 A 
ENDROOT
BRANCH   1  26
HETATM   26  C4  UNL     1      22.852  51.301  -2.422  1.00  0.00     0.135 C 
BRANCH  26  27
HETATM   27  C3  UNL     1      22.860  52.456  -3.352  1.00  0.00     0.219 C 
HETATM   28  N1  UNL     1      21.798  52.596  -4.288  1.00  0.00    -0.361 N 
ATOM     29  H1  UNL     1      21.051  51.902  -4.305  1.00  0.00     0.162 HD
HETATM   30  O1  UNL     1      23.802  53.297  -3.303  1.00  0.00    -0.274 OA
BRANCH  28  31
HETATM   31  C2  UNL     1      21.758  53.693  -5.205  1.00  0.00     0.118 C 
HETATM   32  C1  UNL     1      20.515  54.519  -4.959  1.00  0.00     0.026 C 
ENDBRANCH  28  31
ENDBRANCH  26  27
ENDBRANCH   1  26
BRANCH  14  33
HETATM   33  O2  UNL     1      30.164  51.567   0.356  1.00  0.00    -0.356 OA
HETATM   34  C16 UNL     1      30.813  51.874   1.573  1.00  0.00     0.210 C 
ENDBRANCH  14  33
TORSDOF 4
ENDMDL
