MODEL 2
REMARK VINA RESULT: -8.865740607      1.382      1.741
REMARK  4 active torsions:
REMARK  status: ('A' for Active; 'I' for Inactive)
REMARK    1  A    between atoms: C2_2  and  N1_3 
REMARK       I    between atoms: N1_3  and  C3_5 
REMARK    2  A    between atoms: C3_5  and  C4_7 
REMARK    3  A    between atoms: C4_7  and  C5_8 
REMARK    4  A    between atoms: C15_21  and  O2_22 
ROOT
HETATM    1  C5  UNL     1      24.087  50.195  -2.309  1.00  0.00     0.160 C 
HETATM    2  N2  UNL     1      25.339  50.480  -1.594  1.00  0.00    -0.376 N 
ATOM      3  H2  UNL     1      25.236  50.618  -0.588  1.00  0.00     0.160 HD
HETATM    4  C6  UNL     1      26.559  50.586  -2.039  1.00  0.00     0.051 C 
HETATM    5  C7  UNL     1      27.587  50.883  -1.084  1.00  0.00    -0.009 A 
HETATM    6  C8  UNL     1      28.884  51.173  -1.296  1.00  0.00     0.015 A 
HETATM    7  C9  UNL     1      29.773  51.348  -0.277  1.00  0.00     0.024 A 
HETATM    8  C10 UNL     1      29.396  51.241   1.049  1.00  0.00     0.034 A 
HETATM    9 CL1  UNL     1      30.506  51.459   2.369  1.00  0.00    -0.084 Cl
HETATM   10  C11 UNL     1      28.070  50.948   1.280  1.00  0.00     0.024 A 
HETATM   11  C12 UNL     1      27.191  50.773   0.268  1.00  0.00     0.015 A 
HETATM   12  C13 UNL     1      26.878  50.323  -3.432  1.00  0.00     0.021 A 
HETATM   13  C14 UNL     1      28.067  49.673  -3.563  1.00  0.00     0.052 A 
HETATM   14  C15 UNL     1      28.477  49.361  -4.843  1.00  0.00     0.069 A 
HETATM   15  C17 UNL     1      27.709  49.690  -5.965  1.00  0.00     0.039 A 
HETATM   16  C18 UNL     1      26.484  50.351  -5.843  1.00  0.00     0.034 A 
HETATM   17  C19 UNL     1      26.109  50.648  -4.566  1.00  0.00     0.055 A 
HETATM   18  N3  UNL     1      24.835  51.289  -4.507  1.00  0.00    -0.286 N 
HETATM   19  C20 UNL     1      24.409  52.145  -5.427  1.00  0.00     0.100 A 
HETATM   20  C21 UNL     1      25.157  52.651  -6.580  1.00  0.00     0.091 C 
HETATM   21  N4  UNL     1      23.156  52.482  -4.996  1.00  0.00    -0.287 N 
ATOM     22  H4  UNL     1      22.526  53.129  -5.472  1.00  0.00     0.188 HD
HETATM   23  N5  UNL     1      22.878  51.832  -3.850  1.00  0.00    -0.285 N 
ATOM     24  H5  UNL     1      22.010  51.906  -3.320  1.00  0.00     0.188 HD
HETATM   25  C22 UNL     1      23.930  51.073  -3.524  1.00  0.00     0.128 A 
ENDROOT
BRANCH   1  26
HETATM   26  C4  UNL     1      22.961  50.470  -1.372  1.00  0.00     0.135 C 
BRANCH  26  27
HETATM   27  C3  UNL     1      23.265  49.911  -0.033  1.00  0.00     0.219 C 
HETATM   28  N1  UNL     1      23.279  48.499   0.138  1.00  0.00    -0.361 N 
ATOM     29  H1  UNL     1      23.080  47.896  -0.659  1.00  0.00     0.162 HD
HETATM   30  O1  UNL     1      23.507  50.689   0.933  1.00  0.00    -0.274 OA
BRANCH  28  31
HETATM   31  C2  UNL     1      23.568  47.910   1.410  1.00  0.00     0.118 C 
HETATM   32  C1  UNL     1      25.042  47.581   1.496  1.00  0.00     0.026 C 
ENDBRANCH  28  31
ENDBRANCH  26  27
ENDBRANCH   1  26
BRANCH  14  33
HETATM   33  O2  UNL     1      29.677  48.712  -4.986  1.00  0.00    -0.356 OA
HETATM   34  C16 UNL     1      30.421  48.735  -6.186  1.00  0.00     0.210 C 
ENDBRANCH  14  33
TORSDOF 4
ENDMDL
