MODEL 8
REMARK VINA RESULT: -7.583435187      2.885      6.497
REMARK  4 active torsions:
REMARK  status: ('A' for Active; 'I' for Inactive)
REMARK    1  A    between atoms: C2_2  and  N1_3 
REMARK       I    between atoms: N1_3  and  C3_5 
REMARK    2  A    between atoms: C3_5  and  C4_7 
REMARK    3  A    between atoms: C4_7  and  C5_8 
REMARK    4  A    between atoms: C15_21  and  O2_22 
ROOT
HETATM    1  C5  UNL     1      24.643  52.284  -3.037  1.00  0.00     0.160 C 
HETATM    2  N2  UNL     1      25.761  51.535  -3.629  1.00  0.00    -0.376 N 
ATOM      3  H2  UNL     1      25.803  51.562  -4.648  1.00  0.00     0.160 HD
HETATM    4  C6  UNL     1      26.707  50.842  -3.060  1.00  0.00     0.051 C 
HETATM    5  C7  UNL     1      27.667  50.208  -3.916  1.00  0.00    -0.009 A 
HETATM    6  C8  UNL     1      28.646  49.341  -3.597  1.00  0.00     0.015 A 
HETATM    7  C9  UNL     1      29.549  48.885  -4.512  1.00  0.00     0.024 A 
HETATM    8  C10 UNL     1      29.515  49.286  -5.835  1.00  0.00     0.034 A 
HETATM    9 CL1  UNL     1      30.653  48.723  -7.023  1.00  0.00    -0.084 Cl
HETATM   10  C11 UNL     1      28.517  50.171  -6.175  1.00  0.00     0.024 A 
HETATM   11  C12 UNL     1      27.623  50.624  -5.266  1.00  0.00     0.015 A 
HETATM   12  C13 UNL     1      26.835  50.789  -1.613  1.00  0.00     0.021 A 
HETATM   13  C14 UNL     1      28.139  50.810  -1.222  1.00  0.00     0.052 A 
HETATM   14  C15 UNL     1      28.390  50.770   0.134  1.00  0.00     0.069 A 
HETATM   15  C17 UNL     1      27.358  50.714   1.076  1.00  0.00     0.039 A 
HETATM   16  C18 UNL     1      26.015  50.699   0.686  1.00  0.00     0.034 A 
HETATM   17  C19 UNL     1      25.800  50.735  -0.660  1.00  0.00     0.055 A 
HETATM   18  N3  UNL     1      24.412  50.753  -0.990  1.00  0.00    -0.286 N 
HETATM   19  C20 UNL     1      23.492  50.096  -0.295  1.00  0.00     0.100 A 
HETATM   20  C21 UNL     1      23.713  49.192   0.835  1.00  0.00     0.091 C 
HETATM   21  N4  UNL     1      22.323  50.411  -0.933  1.00  0.00    -0.287 N 
ATOM     22  H4  UNL     1      21.398  50.077  -0.661  1.00  0.00     0.188 HD
HETATM   23  N5  UNL     1      22.578  51.229  -1.972  1.00  0.00    -0.285 N 
ATOM     24  H5  UNL     1      21.881  51.611  -2.612  1.00  0.00     0.188 HD
HETATM   25  C22 UNL     1      23.895  51.455  -2.025  1.00  0.00     0.128 A 
ENDROOT
BRANCH   1  26
HETATM   26  C4  UNL     1      23.710  52.648  -4.141  1.00  0.00     0.135 C 
BRANCH  26  27
HETATM   27  C3  UNL     1      24.308  53.712  -4.982  1.00  0.00     0.219 C 
HETATM   28  N1  UNL     1      23.794  55.035  -4.888  1.00  0.00    -0.361 N 
ATOM     29  H1  UNL     1      23.025  55.230  -4.247  1.00  0.00     0.162 HD
HETATM   30  O1  UNL     1      25.260  53.435  -5.766  1.00  0.00    -0.274 OA
BRANCH  28  31
HETATM   31  C2  UNL     1      24.337  56.099  -5.678  1.00  0.00     0.118 C 
HETATM   32  C1  UNL     1      24.092  57.422  -4.987  1.00  0.00     0.026 C 
ENDBRANCH  28  31
ENDBRANCH  26  27
ENDBRANCH   1  26
BRANCH  14  33
HETATM   33  O2  UNL     1      29.702  50.785   0.538  1.00  0.00    -0.356 OA
HETATM   34  C16 UNL     1      30.127  51.414   1.729  1.00  0.00     0.210 C 
ENDBRANCH  14  33
TORSDOF 4
ENDMDL
