MODEL 1
REMARK VINA RESULT: -10.068853040      0.000      0.000
REMARK  4 active torsions:
REMARK  status: ('A' for Active; 'I' for Inactive)
REMARK    1  A    between atoms: C2_2  and  N1_3 
REMARK       I    between atoms: N1_3  and  C3_5 
REMARK    2  A    between atoms: C3_5  and  C4_7 
REMARK    3  A    between atoms: C4_7  and  C5_8 
REMARK    4  A    between atoms: C15_21  and  O2_22 
ROOT
HETATM    1  C5  UNL     1      24.539  49.563  -0.671  1.00  0.00     0.160 C 
HETATM    2  N2  UNL     1      25.834  50.088  -0.219  1.00  0.00    -0.376 N 
ATOM      3  H2  UNL     1      25.948  50.136   0.794  1.00  0.00     0.160 HD
HETATM    4  C6  UNL     1      26.862  50.503  -0.905  1.00  0.00     0.051 C 
HETATM    5  C7  UNL     1      28.000  50.973  -0.171  1.00  0.00    -0.009 A 
HETATM    6  C8  UNL     1      29.118  51.569  -0.627  1.00  0.00     0.015 A 
HETATM    7  C9  UNL     1      30.166  51.885   0.186  1.00  0.00     0.024 A 
HETATM    8  C10 UNL     1      30.148  51.612   1.542  1.00  0.00     0.034 A 
HETATM    9 CL1  UNL     1      31.468  52.001   2.603  1.00  0.00    -0.084 Cl
HETATM   10  C11 UNL     1      29.009  51.004   2.022  1.00  0.00     0.024 A 
HETATM   11  C12 UNL     1      27.971  50.690   1.214  1.00  0.00     0.015 A 
HETATM   12  C13 UNL     1      26.887  50.407  -2.355  1.00  0.00     0.021 A 
HETATM   13  C14 UNL     1      28.122  50.062  -2.816  1.00  0.00     0.052 A 
HETATM   14  C15 UNL     1      28.270  49.934  -4.181  1.00  0.00     0.069 A 
HETATM   15  C17 UNL     1      27.206  50.142  -5.064  1.00  0.00     0.039 A 
HETATM   16  C18 UNL     1      25.932  50.491  -4.603  1.00  0.00     0.034 A 
HETATM   17  C19 UNL     1      25.819  50.613  -3.249  1.00  0.00     0.055 A 
HETATM   18  N3  UNL     1      24.490  50.934  -2.841  1.00  0.00    -0.286 N 
HETATM   19  C20 UNL     1      23.685  51.722  -3.542  1.00  0.00     0.100 A 
HETATM   20  C21 UNL     1      24.010  52.458  -4.765  1.00  0.00     0.091 C 
HETATM   21  N4  UNL     1      22.528  51.730  -2.812  1.00  0.00    -0.287 N 
ATOM     22  H4  UNL     1      21.681  52.240  -3.061  1.00  0.00     0.188 HD
HETATM   23  N5  UNL     1      22.677  50.964  -1.715  1.00  0.00    -0.285 N 
ATOM     24  H5  UNL     1      21.965  50.801  -1.002  1.00  0.00     0.188 HD
HETATM   25  C22 UNL     1      23.913  50.453  -1.715  1.00  0.00     0.128 A 
ENDROOT
BRANCH   1  26
HETATM   26  C4  UNL     1      23.636  49.510   0.514  1.00  0.00     0.135 C 
BRANCH  26  27
HETATM   27  C3  UNL     1      23.663  48.154   1.112  1.00  0.00     0.219 C 
HETATM   28  N1  UNL     1      22.642  47.785   2.032  1.00  0.00    -0.361 N 
ATOM     29  H1  UNL     1      21.912  48.457   2.265  1.00  0.00     0.162 HD
HETATM   30  O1  UNL     1      24.584  47.346   0.801  1.00  0.00    -0.274 OA
BRANCH  28  31
HETATM   31  C2  UNL     1      22.623  46.488   2.636  1.00  0.00     0.118 C 
HETATM   32  C1  UNL     1      23.390  46.521   3.940  1.00  0.00     0.026 C 
ENDBRANCH  28  31
ENDBRANCH  26  27
ENDBRANCH   1  26
BRANCH  14  33
HETATM   33  O2  UNL     1      29.512  49.592  -4.656  1.00  0.00    -0.356 OA
HETATM   34  C16 UNL     1      29.722  49.101  -5.963  1.00  0.00     0.210 C 
ENDBRANCH  14  33
TORSDOF 4
ENDMDL
