MODEL 3
REMARK VINA RESULT: -8.593470839      2.748      6.072
REMARK  4 active torsions:
REMARK  status: ('A' for Active; 'I' for Inactive)
REMARK    1  A    between atoms: C2_2  and  N1_3 
REMARK       I    between atoms: N1_3  and  C3_5 
REMARK    2  A    between atoms: C3_5  and  C4_7 
REMARK    3  A    between atoms: C4_7  and  C5_8 
REMARK    4  A    between atoms: C15_21  and  O2_22 
ROOT
HETATM    1  C5  UNL     1      24.184  51.772  -2.305  1.00  0.00     0.160 C 
HETATM    2  N2  UNL     1      25.312  51.230  -3.074  1.00  0.00    -0.376 N 
ATOM      3  H2  UNL     1      25.206  51.285  -4.088  1.00  0.00     0.160 HD
HETATM    4  C6  UNL     1      26.428  50.690  -2.669  1.00  0.00     0.051 C 
HETATM    5  C7  UNL     1      27.347  50.242  -3.674  1.00  0.00    -0.009 A 
HETATM    6  C8  UNL     1      28.487  49.541  -3.529  1.00  0.00     0.015 A 
HETATM    7  C9  UNL     1      29.314  49.259  -4.576  1.00  0.00     0.024 A 
HETATM    8  C10 UNL     1      29.031  49.676  -5.863  1.00  0.00     0.034 A 
HETATM    9 CL1  UNL     1      30.066  49.333  -7.217  1.00  0.00    -0.084 Cl
HETATM   10  C11 UNL     1      27.866  50.392  -6.027  1.00  0.00     0.024 A 
HETATM   11  C12 UNL     1      27.048  50.672  -4.987  1.00  0.00     0.015 A 
HETATM   12  C13 UNL     1      26.764  50.629  -1.257  1.00  0.00     0.021 A 
HETATM   13  C14 UNL     1      28.090  50.856  -1.045  1.00  0.00     0.052 A 
HETATM   14  C15 UNL     1      28.532  50.830   0.262  1.00  0.00     0.069 A 
HETATM   15  C17 UNL     1      27.665  50.585   1.331  1.00  0.00     0.039 A 
HETATM   16  C18 UNL     1      26.300  50.356   1.126  1.00  0.00     0.034 A 
HETATM   17  C19 UNL     1      25.896  50.385  -0.176  1.00  0.00     0.055 A 
HETATM   18  N3  UNL     1      24.490  50.181  -0.314  1.00  0.00    -0.286 N 
HETATM   19  C20 UNL     1      23.794  49.367   0.469  1.00  0.00     0.100 A 
HETATM   20  C21 UNL     1      24.314  48.488   1.518  1.00  0.00     0.091 C 
HETATM   21  N4  UNL     1      22.512  49.499   0.010  1.00  0.00    -0.287 N 
ATOM     22  H4  UNL     1      21.700  49.011   0.389  1.00  0.00     0.188 HD
HETATM   23  N5  UNL     1      22.484  50.369  -1.018  1.00  0.00    -0.285 N 
ATOM     24  H5  UNL     1      21.652  50.645  -1.540  1.00  0.00     0.188 HD
HETATM   25  C22 UNL     1      23.727  50.810  -1.238  1.00  0.00     0.128 A 
ENDROOT
BRANCH   1  26
HETATM   26  C4  UNL     1      23.059  52.000  -3.256  1.00  0.00     0.135 C 
BRANCH  26  27
HETATM   27  C3  UNL     1      23.575  52.087  -4.643  1.00  0.00     0.219 C 
HETATM   28  N1  UNL     1      23.198  51.089  -5.583  1.00  0.00    -0.361 N 
ATOM     29  H1  UNL     1      22.581  50.332  -5.290  1.00  0.00     0.162 HD
HETATM   30  O1  UNL     1      24.338  53.039  -4.972  1.00  0.00    -0.274 OA
BRANCH  28  31
HETATM   31  C2  UNL     1      23.668  51.128  -6.935  1.00  0.00     0.118 C 
HETATM   32  C1  UNL     1      24.320  49.809  -7.286  1.00  0.00     0.026 C 
ENDBRANCH  28  31
ENDBRANCH  26  27
ENDBRANCH   1  26
BRANCH  14  33
HETATM   33  O2  UNL     1      29.868  51.052   0.485  1.00  0.00    -0.356 OA
HETATM   34  C16 UNL     1      30.355  51.665   1.661  1.00  0.00     0.210 C 
ENDBRANCH  14  33
TORSDOF 4
ENDMDL
