MODEL 1
REMARK VINA RESULT: -5.361947283      0.000      0.000
REMARK  3 active torsions:
REMARK  status: ('A' for Active; 'I' for Inactive)
REMARK    1  A    between atoms: N1_1  and  C1_5 
REMARK    2  A    between atoms: C1_5  and  C2_6 
REMARK    3  A    between atoms: C2_6  and  P1_7 
ROOT
HETATM    1  C1  UNL     1      -2.807 -22.918  11.824  1.00  0.00     0.243 C 
ENDROOT
BRANCH   1   2
HETATM    2  N1  UNL     1      -3.116 -22.439  10.494  1.00  0.00    -0.079 N 
ATOM      3  H13 UNL     1      -3.108 -23.191   9.804  1.00  0.00     0.274 HD
ATOM      4  H12 UNL     1      -4.094 -22.164  10.404  1.00  0.00     0.274 HD
ATOM      5  H11 UNL     1      -2.481 -21.681  10.241  1.00  0.00     0.274 HD
ENDBRANCH   1   2
BRANCH   1   6
HETATM    6  C2  UNL     1      -3.435 -21.988  12.876  1.00  0.00     0.173 C 
BRANCH   6   7
HETATM    7  P1  UNL     1      -5.093 -22.357  13.257  1.00  0.00     0.261 P 
HETATM    8  O1  UNL     1      -6.278 -21.433  12.509  1.00  0.00    -0.640 OA
HETATM    9  O2  UNL     1      -5.212 -21.371  14.436  1.00  0.00    -0.640 OA
HETATM   10  O3  UNL     1      -5.402 -23.424  12.173  1.00  0.00    -0.640 OA
ENDBRANCH   6   7
ENDBRANCH   1   6
TORSDOF 3
ENDMDL
