MODEL 4
REMARK VINA RESULT: -5.083619000      1.334      1.478
REMARK  3 active torsions:
REMARK  status: ('A' for Active; 'I' for Inactive)
REMARK    1  A    between atoms: N1_1  and  C1_5 
REMARK    2  A    between atoms: C1_5  and  C2_6 
REMARK    3  A    between atoms: C2_6  and  P1_7 
ROOT
HETATM    1  C1  UNL     1      -3.194 -23.285  11.394  1.00  0.00     0.243 C 
ENDROOT
BRANCH   1   2
HETATM    2  N1  UNL     1      -3.159 -22.103  10.559  1.00  0.00    -0.079 N 
ATOM      3  H13 UNL     1      -3.182 -22.335   9.565  1.00  0.00     0.274 HD
ATOM      4  H12 UNL     1      -4.030 -21.574  10.608  1.00  0.00     0.274 HD
ATOM      5  H11 UNL     1      -2.349 -21.531  10.800  1.00  0.00     0.274 HD
ENDBRANCH   1   2
BRANCH   1   6
HETATM    6  C2  UNL     1      -4.582 -23.427  12.043  1.00  0.00     0.173 C 
BRANCH   6   7
HETATM    7  P1  UNL     1      -4.925 -22.237  13.265  1.00  0.00     0.261 P 
HETATM    8  O1  UNL     1      -4.840 -20.623  12.812  1.00  0.00    -0.640 OA
HETATM    9  O2  UNL     1      -3.471 -22.074  13.747  1.00  0.00    -0.640 OA
HETATM   10  O3  UNL     1      -6.461 -22.086  13.090  1.00  0.00    -0.640 OA
ENDBRANCH   6   7
ENDBRANCH   1   6
TORSDOF 3
ENDMDL
