MODEL 3
REMARK VINA RESULT: -5.152235108      0.989      1.732
REMARK  3 active torsions:
REMARK  status: ('A' for Active; 'I' for Inactive)
REMARK    1  A    between atoms: N1_1  and  C1_5 
REMARK    2  A    between atoms: C1_5  and  C2_6 
REMARK    3  A    between atoms: C2_6  and  P1_7 
ROOT
HETATM    1  C1  UNL     1      -3.185 -23.263  11.419  1.00  0.00     0.243 C 
ENDROOT
BRANCH   1   2
HETATM    2  N1  UNL     1      -3.250 -22.190  10.450  1.00  0.00    -0.079 N 
ATOM      3  H13 UNL     1      -3.793 -21.397  10.792  1.00  0.00     0.274 HD
ATOM      4  H12 UNL     1      -2.352 -21.719  10.340  1.00  0.00     0.274 HD
ATOM      5  H11 UNL     1      -3.609 -22.544   9.562  1.00  0.00     0.274 HD
ENDBRANCH   1   2
BRANCH   1   6
HETATM    6  C2  UNL     1      -3.444 -22.710  12.831  1.00  0.00     0.173 C 
BRANCH   6   7
HETATM    7  P1  UNL     1      -4.983 -21.919  13.019  1.00  0.00     0.261 P 
HETATM    8  O1  UNL     1      -5.394 -21.392  14.559  1.00  0.00    -0.640 OA
HETATM    9  O2  UNL     1      -5.782 -23.194  13.353  1.00  0.00    -0.640 OA
HETATM   10  O3  UNL     1      -4.579 -20.445  12.747  1.00  0.00    -0.640 OA
ENDBRANCH   6   7
ENDBRANCH   1   6
TORSDOF 3
ENDMDL
