MODEL 2
REMARK VINA RESULT: -5.310232801      1.042      1.042
REMARK  3 active torsions:
REMARK  status: ('A' for Active; 'I' for Inactive)
REMARK    1  A    between atoms: N1_1  and  C1_5 
REMARK    2  A    between atoms: C1_5  and  C2_6 
REMARK    3  A    between atoms: C2_6  and  P1_7 
ROOT
HETATM    1  C1  UNL     1      -3.246 -23.164  11.420  1.00  0.00     0.243 C 
ENDROOT
BRANCH   1   2
HETATM    2  N1  UNL     1      -3.300 -22.128  10.411  1.00  0.00    -0.079 N 
ATOM      3  H13 UNL     1      -2.442 -21.576  10.382  1.00  0.00     0.274 HD
ATOM      4  H12 UNL     1      -3.263 -22.511   9.467  1.00  0.00     0.274 HD
ATOM      5  H11 UNL     1      -4.125 -21.544  10.556  1.00  0.00     0.274 HD
ENDBRANCH   1   2
BRANCH   1   6
HETATM    6  C2  UNL     1      -3.268 -22.532  12.823  1.00  0.00     0.173 C 
BRANCH   6   7
HETATM    7  P1  UNL     1      -4.832 -21.952  13.320  1.00  0.00     0.261 P 
HETATM    8  O1  UNL     1      -6.045 -21.920  12.160  1.00  0.00    -0.640 OA
HETATM    9  O2  UNL     1      -4.583 -20.476  12.954  1.00  0.00    -0.640 OA
HETATM   10  O3  UNL     1      -5.486 -23.276  13.801  1.00  0.00    -0.640 OA
ENDBRANCH   6   7
ENDBRANCH   1   6
TORSDOF 3
ENDMDL
