MODEL 5
REMARK VINA RESULT: -4.958114582      0.824      1.900
REMARK  3 active torsions:
REMARK  status: ('A' for Active; 'I' for Inactive)
REMARK    1  A    between atoms: N1_1  and  C1_5 
REMARK    2  A    between atoms: C1_5  and  C2_6 
REMARK    3  A    between atoms: C2_6  and  P1_7 
ROOT
HETATM    1  C1  UNL     1      -2.862 -22.921  11.495  1.00  0.00     0.243 C 
ENDROOT
BRANCH   1   2
HETATM    2  N1  UNL     1      -3.115 -22.167  10.285  1.00  0.00    -0.079 N 
ATOM      3  H13 UNL     1      -3.535 -22.744   9.556  1.00  0.00     0.274 HD
ATOM      4  H12 UNL     1      -3.876 -21.498  10.403  1.00  0.00     0.274 HD
ATOM      5  H11 UNL     1      -2.254 -21.718   9.970  1.00  0.00     0.274 HD
ENDBRANCH   1   2
BRANCH   1   6
HETATM    6  C2  UNL     1      -3.341 -22.122  12.720  1.00  0.00     0.173 C 
BRANCH   6   7
HETATM    7  P1  UNL     1      -5.068 -22.112  12.935  1.00  0.00     0.261 P 
HETATM    8  O1  UNL     1      -5.736 -23.352  13.848  1.00  0.00    -0.640 OA
HETATM    9  O2  UNL     1      -5.392 -22.980  11.704  1.00  0.00    -0.640 OA
HETATM   10  O3  UNL     1      -5.188 -21.254  14.224  1.00  0.00    -0.640 OA
ENDBRANCH   6   7
ENDBRANCH   1   6
TORSDOF 3
ENDMDL
