MODEL 3
REMARK VINA RESULT: -6.316107175      1.124      1.165
REMARK  9 active torsions:
REMARK  status: ('A' for Active; 'I' for Inactive)
REMARK    1  A    between atoms: C2_2  and  C3_3 
REMARK    2  A    between atoms: C3_3  and  C4_4 
REMARK    3  A    between atoms: C4_4  and  C5_5 
REMARK    4  A    between atoms: N2_7  and  C6_9 
REMARK    5  A    between atoms: C6_9  and  C7_10 
REMARK    6  A    between atoms: C7_10  and  C8_11 
REMARK    7  A    between atoms: C8_11  and  C9_12 
REMARK    8  A    between atoms: C9_12  and  N3_13 
REMARK    9  A    between atoms: C9_12  and  C10_17 
ROOT
HETATM    1  C7  UNL     1      -1.638  -2.643  20.066  1.00  0.00     0.022 C 
ENDROOT
BRANCH   1   2
HETATM    2  C6  UNL     1      -1.952  -2.239  18.619  1.00  0.00     0.120 C 
BRANCH   2   3
HETATM    3  N2  UNL     1      -1.717  -3.316  17.707  1.00  0.00    -0.382 N 
HETATM    4  C5  UNL     1      -2.706  -3.887  17.111  1.00  0.00     0.088 C 
HETATM    5  N1  UNL     1      -4.015  -3.390  17.411  1.00  0.00    -0.088 NA
ATOM      6  H2  UNL     1      -0.763  -3.632  17.529  1.00  0.00     0.160 HD
BRANCH   4   7
HETATM    7  C4  UNL     1      -2.545  -5.016  16.148  1.00  0.00     0.073 C 
BRANCH   7   8
HETATM    8  C3  UNL     1      -1.128  -5.522  16.187  1.00  0.00     0.007 C 
BRANCH   8   9
HETATM    9  C2  UNL     1      -0.723  -6.044  14.825  1.00  0.00    -0.004 C 
HETATM   10  C1  UNL     1      -0.858  -4.915  13.831  1.00  0.00     0.005 C 
ENDBRANCH   8   9
ENDBRANCH   7   8
ENDBRANCH   4   7
ENDBRANCH   2   3
ENDBRANCH   1   2
BRANCH   1  11
HETATM   11  C8  UNL     1      -2.916  -3.048  20.700  1.00  0.00     0.045 C 
BRANCH  11  12
HETATM   12  C9  UNL     1      -3.572  -2.003  21.548  1.00  0.00     0.283 C 
BRANCH  12  13
HETATM   13  N3  UNL     1      -3.289  -2.370  22.946  1.00  0.00    -0.065 N 
ATOM     14  H33 UNL     1      -3.861  -1.862  23.622  1.00  0.00     0.275 HD
ATOM     15  H32 UNL     1      -3.608  -3.307  23.191  1.00  0.00     0.275 HD
ATOM     16  H31 UNL     1      -2.287  -2.235  23.079  1.00  0.00     0.275 HD
ENDBRANCH  12  13
BRANCH  12  17
HETATM   17  C10 UNL     1      -5.002  -1.834  21.330  1.00  0.00     0.204 C 
HETATM   18  O1  UNL     1      -5.492  -1.957  20.191  1.00  0.00    -0.646 OA
HETATM   19  O2  UNL     1      -5.845  -1.534  22.377  1.00  0.00    -0.646 OA
ENDBRANCH  12  17
ENDBRANCH  11  12
ENDBRANCH   1  11
TORSDOF 9
ENDMDL
