MODEL 8
REMARK VINA RESULT: -6.083342633      4.007      7.335
REMARK  9 active torsions:
REMARK  status: ('A' for Active; 'I' for Inactive)
REMARK    1  A    between atoms: C2_2  and  C3_3 
REMARK    2  A    between atoms: C3_3  and  C4_4 
REMARK    3  A    between atoms: C4_4  and  C5_5 
REMARK    4  A    between atoms: N2_7  and  C6_9 
REMARK    5  A    between atoms: C6_9  and  C7_10 
REMARK    6  A    between atoms: C7_10  and  C8_11 
REMARK    7  A    between atoms: C8_11  and  C9_12 
REMARK    8  A    between atoms: C9_12  and  N3_13 
REMARK    9  A    between atoms: C9_12  and  C10_17 
ROOT
HETATM    1  C7  UNL     1      -2.098  -4.346  16.663  1.00  0.00     0.022 C 
ENDROOT
BRANCH   1   2
HETATM    2  C6  UNL     1      -3.284  -3.767  17.448  1.00  0.00     0.120 C 
BRANCH   2   3
HETATM    3  N2  UNL     1      -2.878  -3.266  18.725  1.00  0.00    -0.382 N 
HETATM    4  C5  UNL     1      -3.708  -2.604  19.455  1.00  0.00     0.088 C 
HETATM    5  N1  UNL     1      -5.022  -2.407  18.921  1.00  0.00    -0.088 NA
ATOM      6  H2  UNL     1      -1.929  -3.435  19.059  1.00  0.00     0.160 HD
BRANCH   4   7
HETATM    7  C4  UNL     1      -3.363  -2.050  20.797  1.00  0.00     0.073 C 
BRANCH   7   8
HETATM    8  C3  UNL     1      -3.693  -3.058  21.865  1.00  0.00     0.007 C 
BRANCH   8   9
HETATM    9  C2  UNL     1      -5.151  -2.943  22.258  1.00  0.00    -0.004 C 
HETATM   10  C1  UNL     1      -5.495  -1.475  22.355  1.00  0.00     0.005 C 
ENDBRANCH   8   9
ENDBRANCH   7   8
ENDBRANCH   4   7
ENDBRANCH   2   3
ENDBRANCH   1   2
BRANCH   1  11
HETATM   11  C8  UNL     1      -2.509  -4.435  15.241  1.00  0.00     0.045 C 
BRANCH  11  12
HETATM   12  C9  UNL     1      -1.825  -5.499  14.441  1.00  0.00     0.283 C 
BRANCH  12  13
HETATM   13  N3  UNL     1      -1.703  -6.667  15.330  1.00  0.00    -0.065 N 
ATOM     14  H33 UNL     1      -0.848  -6.665  15.887  1.00  0.00     0.275 HD
ATOM     15  H32 UNL     1      -2.361  -6.654  16.109  1.00  0.00     0.275 HD
ATOM     16  H31 UNL     1      -1.796  -7.490  14.734  1.00  0.00     0.275 HD
ENDBRANCH  12  13
BRANCH  12  17
HETATM   17  C10 UNL     1      -0.531  -5.125  13.887  1.00  0.00     0.204 C 
HETATM   18  O1  UNL     1      -0.424  -4.777  12.696  1.00  0.00    -0.646 OA
HETATM   19  O2  UNL     1       0.604  -5.148  14.668  1.00  0.00    -0.646 OA
ENDBRANCH  12  17
ENDBRANCH  11  12
ENDBRANCH   1  11
TORSDOF 9
ENDMDL
