MODEL 5
REMARK VINA RESULT: -6.249319108      4.034      7.306
REMARK  9 active torsions:
REMARK  status: ('A' for Active; 'I' for Inactive)
REMARK    1  A    between atoms: C2_2  and  C3_3 
REMARK    2  A    between atoms: C3_3  and  C4_4 
REMARK    3  A    between atoms: C4_4  and  C5_5 
REMARK    4  A    between atoms: N2_7  and  C6_9 
REMARK    5  A    between atoms: C6_9  and  C7_10 
REMARK    6  A    between atoms: C7_10  and  C8_11 
REMARK    7  A    between atoms: C8_11  and  C9_12 
REMARK    8  A    between atoms: C9_12  and  N3_13 
REMARK    9  A    between atoms: C9_12  and  C10_17 
ROOT
HETATM    1  C7  UNL     1      -2.365  -4.803  16.796  1.00  0.00     0.022 C 
ENDROOT
BRANCH   1   2
HETATM    2  C6  UNL     1      -3.025  -3.638  17.547  1.00  0.00     0.120 C 
BRANCH   2   3
HETATM    3  N2  UNL     1      -3.423  -4.020  18.867  1.00  0.00    -0.382 N 
HETATM    4  C5  UNL     1      -4.458  -3.481  19.412  1.00  0.00     0.088 C 
HETATM    5  N1  UNL     1      -5.164  -2.505  18.635  1.00  0.00    -0.088 NA
ATOM      6  H2  UNL     1      -2.885  -4.720  19.377  1.00  0.00     0.160 HD
BRANCH   4   7
HETATM    7  C4  UNL     1      -4.939  -3.824  20.783  1.00  0.00     0.073 C 
BRANCH   7   8
HETATM    8  C3  UNL     1      -3.957  -3.322  21.808  1.00  0.00     0.007 C 
BRANCH   8   9
HETATM    9  C2  UNL     1      -4.016  -1.812  21.891  1.00  0.00    -0.004 C 
HETATM   10  C1  UNL     1      -5.444  -1.414  22.181  1.00  0.00     0.005 C 
ENDBRANCH   8   9
ENDBRANCH   7   8
ENDBRANCH   4   7
ENDBRANCH   2   3
ENDBRANCH   1   2
BRANCH   1  11
HETATM   11  C8  UNL     1      -2.422  -4.487  15.348  1.00  0.00     0.045 C 
BRANCH  11  12
HETATM   12  C9  UNL     1      -1.788  -5.498  14.444  1.00  0.00     0.283 C 
BRANCH  12  13
HETATM   13  N3  UNL     1      -1.710  -6.749  15.218  1.00  0.00    -0.065 N 
ATOM     14  H33 UNL     1      -2.544  -6.933  15.776  1.00  0.00     0.275 HD
ATOM     15  H32 UNL     1      -1.758  -7.587  14.639  1.00  0.00     0.275 HD
ATOM     16  H31 UNL     1      -0.855  -6.687  15.773  1.00  0.00     0.275 HD
ENDBRANCH  12  13
BRANCH  12  17
HETATM   17  C10 UNL     1      -0.483  -5.127  13.915  1.00  0.00     0.204 C 
HETATM   18  O1  UNL     1       0.536  -5.198  14.626  1.00  0.00    -0.646 OA
HETATM   19  O2  UNL     1      -0.348  -4.688  12.616  1.00  0.00    -0.646 OA
ENDBRANCH  12  17
ENDBRANCH  11  12
ENDBRANCH   1  11
TORSDOF 9
ENDMDL
