MODEL 4
REMARK VINA RESULT: -6.258739867      1.233      1.478
REMARK  9 active torsions:
REMARK  status: ('A' for Active; 'I' for Inactive)
REMARK    1  A    between atoms: C2_2  and  C3_3 
REMARK    2  A    between atoms: C3_3  and  C4_4 
REMARK    3  A    between atoms: C4_4  and  C5_5 
REMARK    4  A    between atoms: N2_7  and  C6_9 
REMARK    5  A    between atoms: C6_9  and  C7_10 
REMARK    6  A    between atoms: C7_10  and  C8_11 
REMARK    7  A    between atoms: C8_11  and  C9_12 
REMARK    8  A    between atoms: C9_12  and  N3_13 
REMARK    9  A    between atoms: C9_12  and  C10_17 
ROOT
HETATM    1  C7  UNL     1      -4.845  -3.029  19.249  1.00  0.00     0.022 C 
ENDROOT
BRANCH   1   2
HETATM    2  C6  UNL     1      -3.441  -3.015  18.627  1.00  0.00     0.120 C 
BRANCH   2   3
HETATM    3  N2  UNL     1      -2.996  -4.335  18.300  1.00  0.00    -0.382 N 
HETATM    4  C5  UNL     1      -2.875  -4.690  17.068  1.00  0.00     0.088 C 
HETATM    5  N1  UNL     1      -3.205  -3.710  16.077  1.00  0.00    -0.088 NA
ATOM      6  H2  UNL     1      -2.774  -4.995  19.045  1.00  0.00     0.160 HD
BRANCH   4   7
HETATM    7  C4  UNL     1      -2.417  -6.047  16.644  1.00  0.00     0.073 C 
BRANCH   7   8
HETATM    8  C3  UNL     1      -1.097  -5.938  15.928  1.00  0.00     0.007 C 
BRANCH   8   9
HETATM    9  C2  UNL     1      -1.295  -6.118  14.438  1.00  0.00    -0.004 C 
HETATM   10  C1  UNL     1      -0.718  -4.910  13.739  1.00  0.00     0.005 C 
ENDBRANCH   8   9
ENDBRANCH   7   8
ENDBRANCH   4   7
ENDBRANCH   2   3
ENDBRANCH   1   2
BRANCH   1  11
HETATM   11  C8  UNL     1      -4.807  -3.951  20.409  1.00  0.00     0.045 C 
BRANCH  11  12
HETATM   12  C9  UNL     1      -4.671  -3.294  21.748  1.00  0.00     0.283 C 
BRANCH  12  13
HETATM   13  N3  UNL     1      -5.491  -4.087  22.680  1.00  0.00    -0.065 N 
ATOM     14  H33 UNL     1      -6.034  -3.516  23.328  1.00  0.00     0.275 HD
ATOM     15  H32 UNL     1      -6.281  -4.551  22.231  1.00  0.00     0.275 HD
ATOM     16  H31 UNL     1      -4.851  -4.732  23.144  1.00  0.00     0.275 HD
ENDBRANCH  12  13
BRANCH  12  17
HETATM   17  C10 UNL     1      -5.043  -1.887  21.789  1.00  0.00     0.204 C 
HETATM   18  O1  UNL     1      -6.219  -1.546  22.018  1.00  0.00    -0.646 OA
HETATM   19  O2  UNL     1      -4.104  -0.902  21.576  1.00  0.00    -0.646 OA
ENDBRANCH  12  17
ENDBRANCH  11  12
ENDBRANCH   1  11
TORSDOF 9
ENDMDL
