MODEL 1
REMARK VINA RESULT: -6.854600798      0.000      0.000
REMARK  9 active torsions:
REMARK  status: ('A' for Active; 'I' for Inactive)
REMARK    1  A    between atoms: C2_2  and  C3_3 
REMARK    2  A    between atoms: C3_3  and  C4_4 
REMARK    3  A    between atoms: C4_4  and  C5_5 
REMARK    4  A    between atoms: N2_7  and  C6_9 
REMARK    5  A    between atoms: C6_9  and  C7_10 
REMARK    6  A    between atoms: C7_10  and  C8_11 
REMARK    7  A    between atoms: C8_11  and  C9_12 
REMARK    8  A    between atoms: C9_12  and  N3_13 
REMARK    9  A    between atoms: C9_12  and  C10_17 
ROOT
HETATM    1  C7  UNL     1      -2.675  -2.340  19.501  1.00  0.00     0.022 C 
ENDROOT
BRANCH   1   2
HETATM    2  C6  UNL     1      -3.676  -3.113  18.631  1.00  0.00     0.120 C 
BRANCH   2   3
HETATM    3  N2  UNL     1      -3.198  -4.424  18.316  1.00  0.00    -0.382 N 
HETATM    4  C5  UNL     1      -2.836  -4.708  17.113  1.00  0.00     0.088 C 
HETATM    5  N1  UNL     1      -2.939  -3.660  16.142  1.00  0.00    -0.088 NA
ATOM      6  H2  UNL     1      -3.145  -5.135  19.045  1.00  0.00     0.160 HD
BRANCH   4   7
HETATM    7  C4  UNL     1      -2.326  -6.050  16.703  1.00  0.00     0.073 C 
BRANCH   7   8
HETATM    8  C3  UNL     1      -1.034  -5.896  15.946  1.00  0.00     0.007 C 
BRANCH   8   9
HETATM    9  C2  UNL     1      -1.257  -6.165  14.473  1.00  0.00    -0.004 C 
HETATM   10  C1  UNL     1      -0.745  -4.975  13.696  1.00  0.00     0.005 C 
ENDBRANCH   8   9
ENDBRANCH   7   8
ENDBRANCH   4   7
ENDBRANCH   2   3
ENDBRANCH   1   2
BRANCH   1  11
HETATM   11  C8  UNL     1      -2.763  -2.891  20.875  1.00  0.00     0.045 C 
BRANCH  11  12
HETATM   12  C9  UNL     1      -3.580  -2.088  21.839  1.00  0.00     0.283 C 
BRANCH  12  13
HETATM   13  N3  UNL     1      -3.068  -2.412  23.181  1.00  0.00    -0.065 N 
ATOM     14  H33 UNL     1      -2.097  -2.723  23.181  1.00  0.00     0.275 HD
ATOM     15  H32 UNL     1      -2.937  -1.591  23.774  1.00  0.00     0.275 HD
ATOM     16  H31 UNL     1      -3.714  -3.097  23.575  1.00  0.00     0.275 HD
ENDBRANCH  12  13
BRANCH  12  17
HETATM   17  C10 UNL     1      -5.019  -2.302  21.761  1.00  0.00     0.204 C 
HETATM   18  O1  UNL     1      -5.758  -1.466  21.209  1.00  0.00    -0.646 OA
HETATM   19  O2  UNL     1      -5.594  -3.433  22.296  1.00  0.00    -0.646 OA
ENDBRANCH  12  17
ENDBRANCH  11  12
ENDBRANCH   1  11
TORSDOF 9
ENDMDL
